MODEL 1
REMARK VINA RESULT: -6.818284121      0.000      0.000
REMARK  10 active torsions:
REMARK  status: ('A' for Active; 'I' for Inactive)
REMARK    1  A    between atoms: N1_1  and  C1_4 
REMARK    2  A    between atoms: C3_8  and  O1_9 
REMARK    3  A    between atoms: N3_11  and  C4_12 
REMARK    4  A    between atoms: C4_12  and  N4_13 
REMARK    5  A    between atoms: N4_13  and  S1_15 
REMARK    6  A    between atoms: S1_15  and  N5_18 
REMARK       I    between atoms: N5_18  and  C5_20 
REMARK    7  A    between atoms: C5_20  and  C6_22 
REMARK    8  A    between atoms: C6_22  and  N6_23 
REMARK    9  A    between atoms: C6_22  and  C7_27 
REMARK   10  A    between atoms: C7_27  and  O5_28 
ROOT
HETATM    1  C1  UNL     1      -9.530  25.000  10.734  1.00  0.00     0.169 C 
HETATM    2  N2  UNL     1     -10.200  25.201   9.571  1.00  0.00    -0.334 N 
ATOM      3  H2  UNL     1     -10.544  24.363   9.102  1.00  0.00     0.168 HD
HETATM    4  C2  UNL     1     -10.464  26.370   8.961  1.00  0.00     0.102 A 
HETATM    5  C3  UNL     1     -11.424  26.568   7.972  1.00  0.00     0.172 A 
HETATM    6  N3  UNL     1     -11.341  27.852   7.640  1.00  0.00    -0.318 N 
HETATM    7  C8  UNL     1     -10.377  28.470   8.374  1.00  0.00     0.114 A 
HETATM    8  C9  UNL     1      -9.807  27.552   9.218  1.00  0.00     0.079 A 
HETATM    9  C10 UNL     1      -8.769  27.852  10.108  1.00  0.00     0.262 C 
HETATM   10  O6  UNL     1      -8.327  29.023  10.076  1.00  0.00    -0.267 OA
HETATM   11  N7  UNL     1      -8.171  27.050  11.000  1.00  0.00    -0.287 N 
ATOM     12  H7  UNL     1      -7.338  27.408  11.467  1.00  0.00     0.172 HD
HETATM   13  C11 UNL     1      -8.581  25.801  11.331  1.00  0.00     0.292 C 
HETATM   14  O7  UNL     1      -7.986  25.339  12.338  1.00  0.00    -0.264 OA
ENDROOT
BRANCH   6  15
HETATM   15  C4  UNL     1     -12.139  28.530   6.616  1.00  0.00     0.266 C 
BRANCH  15  16
HETATM   16  N4  UNL     1     -13.281  27.750   6.383  1.00  0.00    -0.285 N 
ATOM     17  H4  UNL     1     -14.021  27.734   7.085  1.00  0.00     0.175 HD
BRANCH  16  18
HETATM   18  S1  UNL     1     -13.468  26.847   4.992  1.00  0.00     0.322 S 
HETATM   19  O2  UNL     1     -14.224  27.647   3.918  1.00  0.00    -0.182 OA
HETATM   20  O3  UNL     1     -14.491  25.707   5.301  1.00  0.00    -0.182 OA
BRANCH  18  21
HETATM   21  N5  UNL     1     -12.070  26.108   4.368  1.00  0.00    -0.235 N 
HETATM   22  C5  UNL     1     -11.043  26.734   3.677  1.00  0.00     0.265 C 
HETATM   23  O4  UNL     1     -11.080  27.977   3.475  1.00  0.00    -0.270 OA
ATOM     24  H5  UNL     1     -11.976  25.103   4.518  1.00  0.00     0.183 HD
BRANCH  22  25
HETATM   25  C6  UNL     1      -9.850  26.046   3.130  1.00  0.00     0.298 C 
BRANCH  25  26
HETATM   26  N6  UNL     1      -9.511  26.394   1.792  1.00  0.00    -0.064 N 
ATOM     27  H63 UNL     1      -9.645  25.593   1.176  1.00  0.00     0.275 HD
ATOM     28  H62 UNL     1     -10.208  27.033   1.408  1.00  0.00     0.275 HD
ATOM     29  H61 UNL     1      -8.575  26.779   1.668  1.00  0.00     0.275 HD
ENDBRANCH  25  26
BRANCH  25  30
HETATM   30  C7  UNL     1      -8.653  25.977   3.996  1.00  0.00     0.206 C 
BRANCH  30  31
HETATM   31  O5  UNL     1      -9.113  26.223   5.326  1.00  0.00    -0.398 OA
ATOM     32  H5  UNL     1      -8.796  27.088   5.558  1.00  0.00     0.209 HD
ENDBRANCH  30  31
ENDBRANCH  25  30
ENDBRANCH  22  25
ENDBRANCH  18  21
ENDBRANCH  16  18
ENDBRANCH  15  16
ENDBRANCH   6  15
BRANCH   5  33
HETATM   33  O1  UNL     1     -12.275  25.577   7.472  1.00  0.00    -0.344 OA
ATOM     34  H1  UNL     1     -12.113  24.643   7.522  1.00  0.00     0.219 HD
ENDBRANCH   5  33
BRANCH   1  35
HETATM   35  N1  UNL     1      -9.850  23.909  11.338  1.00  0.00    -0.381 N 
ATOM     36  H12 UNL     1     -10.843  23.701  11.436  1.00  0.00     0.157 HD
ATOM     37  H11 UNL     1      -9.049  23.362  11.654  1.00  0.00     0.157 HD
ENDBRANCH   1  35
TORSDOF 10
ENDMDL
MODEL 2
REMARK VINA RESULT: -6.710940388      2.857      4.331
REMARK  10 active torsions:
REMARK  status: ('A' for Active; 'I' for Inactive)
REMARK    1  A    between atoms: N1_1  and  C1_4 
REMARK    2  A    between atoms: C3_8  and  O1_9 
REMARK    3  A    between atoms: N3_11  and  C4_12 
REMARK    4  A    between atoms: C4_12  and  N4_13 
REMARK    5  A    between atoms: N4_13  and  S1_15 
REMARK    6  A    between atoms: S1_15  and  N5_18 
REMARK       I    between atoms: N5_18  and  C5_20 
REMARK    7  A    between atoms: C5_20  and  C6_22 
REMARK    8  A    between atoms: C6_22  and  N6_23 
REMARK    9  A    between atoms: C6_22  and  C7_27 
REMARK   10  A    between atoms: C7_27  and  O5_28 
ROOT
HETATM    1  C1  UNL     1     -12.516  26.453   7.064  1.00  0.00     0.169 C 
HETATM    2  N2  UNL     1     -12.876  27.087   5.919  1.00  0.00    -0.334 N 
ATOM      3  H2  UNL     1     -13.440  26.545   5.264  1.00  0.00     0.168 HD
HETATM    4  C2  UNL     1     -12.581  28.345   5.543  1.00  0.00     0.102 A 
HETATM    5  C3  UNL     1     -13.233  29.065   4.547  1.00  0.00     0.172 A 
HETATM    6  N3  UNL     1     -12.618  30.242   4.492  1.00  0.00    -0.318 N 
HETATM    7  C8  UNL     1     -11.614  30.295   5.407  1.00  0.00     0.114 A 
HETATM    8  C9  UNL     1     -11.569  29.104   6.085  1.00  0.00     0.079 A 
HETATM    9  C10 UNL     1     -10.642  28.817   7.093  1.00  0.00     0.262 C 
HETATM   10  O6  UNL     1      -9.787  29.700   7.334  1.00  0.00    -0.267 OA
HETATM   11  N7  UNL     1     -10.535  27.711   7.844  1.00  0.00    -0.287 N 
ATOM     12  H7  UNL     1      -9.708  27.626   8.436  1.00  0.00     0.172 HD
HETATM   13  C11 UNL     1     -11.434  26.698   7.881  1.00  0.00     0.292 C 
HETATM   14  O7  UNL     1     -11.219  25.883   8.814  1.00  0.00    -0.264 OA
ENDROOT
BRANCH   6  15
HETATM   15  C4  UNL     1     -12.934  31.337   3.571  1.00  0.00     0.266 C 
BRANCH  15  16
HETATM   16  N4  UNL     1     -12.978  30.801   2.275  1.00  0.00    -0.285 N 
ATOM     17  H4  UNL     1     -13.879  30.521   1.886  1.00  0.00     0.175 HD
BRANCH  16  18
HETATM   18  S1  UNL     1     -11.604  30.608   1.350  1.00  0.00     0.322 S 
HETATM   19  O2  UNL     1     -10.749  31.887   1.367  1.00  0.00    -0.182 OA
HETATM   20  O3  UNL     1     -12.044  30.556  -0.149  1.00  0.00    -0.182 OA
BRANCH  18  21
HETATM   21  N5  UNL     1     -10.673  29.217   1.646  1.00  0.00    -0.235 N 
HETATM   22  C5  UNL     1     -11.152  27.937   1.882  1.00  0.00     0.265 C 
HETATM   23  O4  UNL     1     -12.392  27.712   1.871  1.00  0.00    -0.270 OA
ATOM     24  H5  UNL     1      -9.660  29.335   1.650  1.00  0.00     0.183 HD
BRANCH  22  25
HETATM   25  C6  UNL     1     -10.304  26.754   2.159  1.00  0.00     0.298 C 
BRANCH  25  26
HETATM   26  N6  UNL     1      -9.044  26.744   1.496  1.00  0.00    -0.064 N 
ATOM     27  H63 UNL     1      -9.171  26.553   0.503  1.00  0.00     0.275 HD
ATOM     28  H62 UNL     1      -8.666  27.690   1.449  1.00  0.00     0.275 HD
ATOM     29  H61 UNL     1      -8.353  26.107   1.890  1.00  0.00     0.275 HD
ENDBRANCH  25  26
BRANCH  25  30
HETATM   30  C7  UNL     1     -10.184  26.324   3.568  1.00  0.00     0.206 C 
BRANCH  30  31
HETATM   31  O5  UNL     1     -11.377  25.595   3.863  1.00  0.00    -0.398 OA
ATOM     32  H5  UNL     1     -11.128  24.926   4.490  1.00  0.00     0.209 HD
ENDBRANCH  30  31
ENDBRANCH  25  30
ENDBRANCH  22  25
ENDBRANCH  18  21
ENDBRANCH  16  18
ENDBRANCH  15  16
ENDBRANCH   6  15
BRANCH   5  33
HETATM   33  O1  UNL     1     -14.312  28.594   3.792  1.00  0.00    -0.344 OA
ATOM     34  H1  UNL     1     -15.059  29.116   3.524  1.00  0.00     0.219 HD
ENDBRANCH   5  33
BRANCH   1  35
HETATM   35  N1  UNL     1     -13.314  25.502   7.406  1.00  0.00    -0.381 N 
ATOM     36  H12 UNL     1     -13.030  24.548   7.184  1.00  0.00     0.157 HD
ATOM     37  H11 UNL     1     -14.162  25.823   7.875  1.00  0.00     0.157 HD
ENDBRANCH   1  35
TORSDOF 10
ENDMDL
MODEL 3
REMARK VINA RESULT: -6.699259604      3.060      7.348
REMARK  10 active torsions:
REMARK  status: ('A' for Active; 'I' for Inactive)
REMARK    1  A    between atoms: N1_1  and  C1_4 
REMARK    2  A    between atoms: C3_8  and  O1_9 
REMARK    3  A    between atoms: N3_11  and  C4_12 
REMARK    4  A    between atoms: C4_12  and  N4_13 
REMARK    5  A    between atoms: N4_13  and  S1_15 
REMARK    6  A    between atoms: S1_15  and  N5_18 
REMARK       I    between atoms: N5_18  and  C5_20 
REMARK    7  A    between atoms: C5_20  and  C6_22 
REMARK    8  A    between atoms: C6_22  and  N6_23 
REMARK    9  A    between atoms: C6_22  and  C7_27 
REMARK   10  A    between atoms: C7_27  and  O5_28 
ROOT
HETATM    1  C1  UNL     1     -13.531  29.108   4.514  1.00  0.00     0.169 C 
HETATM    2  N2  UNL     1     -13.540  28.132   5.457  1.00  0.00    -0.334 N 
ATOM      3  H2  UNL     1     -14.351  27.513   5.455  1.00  0.00     0.168 HD
HETATM    4  C2  UNL     1     -12.609  27.881   6.396  1.00  0.00     0.102 A 
HETATM    5  C3  UNL     1     -12.482  26.694   7.112  1.00  0.00     0.172 A 
HETATM    6  N3  UNL     1     -11.455  26.878   7.935  1.00  0.00    -0.318 N 
HETATM    7  C8  UNL     1     -10.932  28.122   7.769  1.00  0.00     0.114 A 
HETATM    8  C9  UNL     1     -11.646  28.777   6.799  1.00  0.00     0.079 A 
HETATM    9  C10 UNL     1     -11.378  30.088   6.387  1.00  0.00     0.262 C 
HETATM   10  O6  UNL     1     -10.457  30.686   6.989  1.00  0.00    -0.267 OA
HETATM   11  N7  UNL     1     -11.981  30.805   5.427  1.00  0.00    -0.287 N 
ATOM     12  H7  UNL     1     -11.740  31.794   5.361  1.00  0.00     0.172 HD
HETATM   13  C11 UNL     1     -12.883  30.323   4.538  1.00  0.00     0.292 C 
HETATM   14  O7  UNL     1     -13.139  31.133   3.610  1.00  0.00    -0.264 OA
ENDROOT
BRANCH   6  15
HETATM   15  C4  UNL     1     -10.952  25.911   8.914  1.00  0.00     0.266 C 
BRANCH  15  16
HETATM   16  N4  UNL     1      -9.622  25.619   8.576  1.00  0.00    -0.285 N 
ATOM     17  H4  UNL     1      -9.417  25.249   7.648  1.00  0.00     0.175 HD
BRANCH  16  18
HETATM   18  S1  UNL     1      -8.364  25.859   9.646  1.00  0.00     0.322 S 
HETATM   19  O2  UNL     1      -8.250  27.343  10.033  1.00  0.00    -0.182 OA
HETATM   20  O3  UNL     1      -7.029  25.644   8.863  1.00  0.00    -0.182 OA
BRANCH  18  21
HETATM   21  N5  UNL     1      -8.315  24.840  11.006  1.00  0.00    -0.235 N 
HETATM   22  C5  UNL     1      -8.707  23.511  11.058  1.00  0.00     0.265 C 
HETATM   23  O4  UNL     1      -9.134  22.935  10.022  1.00  0.00    -0.270 OA
ATOM     24  H5  UNL     1      -7.961  25.248  11.872  1.00  0.00     0.183 HD
BRANCH  22  25
HETATM   25  C6  UNL     1      -8.668  22.664  12.274  1.00  0.00     0.298 C 
BRANCH  25  26
HETATM   26  N6  UNL     1      -9.187  23.272  13.451  1.00  0.00    -0.064 N 
ATOM     27  H63 UNL     1     -10.028  22.783  13.758  1.00  0.00     0.275 HD
ATOM     28  H62 UNL     1      -8.572  23.085  14.243  1.00  0.00     0.275 HD
ATOM     29  H61 UNL     1      -9.371  24.272  13.377  1.00  0.00     0.275 HD
ENDBRANCH  25  26
BRANCH  25  30
HETATM   30  C7  UNL     1      -9.122  21.263  12.135  1.00  0.00     0.206 C 
BRANCH  30  31
HETATM   31  O5  UNL     1     -10.509  21.261  12.477  1.00  0.00    -0.398 OA
ATOM     32  H5  UNL     1     -10.906  20.568  11.961  1.00  0.00     0.209 HD
ENDBRANCH  30  31
ENDBRANCH  25  30
ENDBRANCH  22  25
ENDBRANCH  18  21
ENDBRANCH  16  18
ENDBRANCH  15  16
ENDBRANCH   6  15
BRANCH   5  33
HETATM   33  O1  UNL     1     -13.298  25.570   6.951  1.00  0.00    -0.344 OA
ATOM     34  H1  UNL     1     -13.866  25.209   7.621  1.00  0.00     0.219 HD
ENDBRANCH   5  33
BRANCH   1  35
HETATM   35  N1  UNL     1     -14.228  28.828   3.468  1.00  0.00    -0.381 N 
ATOM     36  H12 UNL     1     -15.243  28.862   3.558  1.00  0.00     0.157 HD
ATOM     37  H11 UNL     1     -13.667  28.599   2.647  1.00  0.00     0.157 HD
ENDBRANCH   1  35
TORSDOF 10
ENDMDL
MODEL 4
REMARK VINA RESULT: -6.613507753      2.815      3.623
REMARK  10 active torsions:
REMARK  status: ('A' for Active; 'I' for Inactive)
REMARK    1  A    between atoms: N1_1  and  C1_4 
REMARK    2  A    between atoms: C3_8  and  O1_9 
REMARK    3  A    between atoms: N3_11  and  C4_12 
REMARK    4  A    between atoms: C4_12  and  N4_13 
REMARK    5  A    between atoms: N4_13  and  S1_15 
REMARK    6  A    between atoms: S1_15  and  N5_18 
REMARK       I    between atoms: N5_18  and  C5_20 
REMARK    7  A    between atoms: C5_20  and  C6_22 
REMARK    8  A    between atoms: C6_22  and  N6_23 
REMARK    9  A    between atoms: C6_22  and  C7_27 
REMARK   10  A    between atoms: C7_27  and  O5_28 
ROOT
HETATM    1  C1  UNL     1      -9.622  25.125  10.562  1.00  0.00     0.169 C 
HETATM    2  N2  UNL     1     -10.376  25.203   9.436  1.00  0.00    -0.334 N 
ATOM      3  H2  UNL     1     -10.716  24.317   9.061  1.00  0.00     0.168 HD
HETATM    4  C2  UNL     1     -10.730  26.307   8.753  1.00  0.00     0.102 A 
HETATM    5  C3  UNL     1     -11.762  26.385   7.821  1.00  0.00     0.172 A 
HETATM    6  N3  UNL     1     -11.755  27.640   7.382  1.00  0.00    -0.318 N 
HETATM    7  C8  UNL     1     -10.771  28.351   7.993  1.00  0.00     0.114 A 
HETATM    8  C9  UNL     1     -10.107  27.529   8.867  1.00  0.00     0.079 A 
HETATM    9  C10 UNL     1      -9.026  27.940   9.654  1.00  0.00     0.262 C 
HETATM   10  O6  UNL     1      -8.637  29.120   9.496  1.00  0.00    -0.267 OA
HETATM   11  N7  UNL     1      -8.336  27.238  10.564  1.00  0.00    -0.287 N 
ATOM     12  H7  UNL     1      -7.489  27.665  10.941  1.00  0.00     0.172 HD
HETATM   13  C11 UNL     1      -8.669  26.007  11.023  1.00  0.00     0.292 C 
HETATM   14  O7  UNL     1      -7.990  25.653  12.020  1.00  0.00    -0.264 OA
ENDROOT
BRANCH   6  15
HETATM   15  C4  UNL     1     -12.648  28.200   6.364  1.00  0.00     0.266 C 
BRANCH  15  16
HETATM   16  N4  UNL     1     -11.935  28.253   5.157  1.00  0.00    -0.285 N 
ATOM     17  H4  UNL     1     -10.917  28.322   5.186  1.00  0.00     0.175 HD
BRANCH  16  18
HETATM   18  S1  UNL     1     -12.699  28.207   3.675  1.00  0.00     0.322 S 
HETATM   19  O2  UNL     1     -14.093  27.567   3.798  1.00  0.00    -0.182 OA
HETATM   20  O3  UNL     1     -11.957  27.153   2.791  1.00  0.00    -0.182 OA
BRANCH  18  21
HETATM   21  N5  UNL     1     -12.741  29.658   2.791  1.00  0.00    -0.235 N 
HETATM   22  C5  UNL     1     -13.050  30.917   3.285  1.00  0.00     0.265 C 
HETATM   23  O4  UNL     1     -13.317  31.071   4.507  1.00  0.00    -0.270 OA
ATOM     24  H5  UNL     1     -12.515  29.598   1.798  1.00  0.00     0.183 HD
BRANCH  22  25
HETATM   25  C6  UNL     1     -13.097  32.156   2.473  1.00  0.00     0.298 C 
BRANCH  25  26
HETATM   26  N6  UNL     1     -13.984  32.118   1.361  1.00  0.00    -0.064 N 
ATOM     27  H63 UNL     1     -14.950  32.194   1.679  1.00  0.00     0.275 HD
ATOM     28  H62 UNL     1     -13.906  32.979   0.819  1.00  0.00     0.275 HD
ATOM     29  H61 UNL     1     -13.879  31.307   0.751  1.00  0.00     0.275 HD
ENDBRANCH  25  26
BRANCH  25  30
HETATM   30  C7  UNL     1     -13.190  33.439   3.204  1.00  0.00     0.206 C 
BRANCH  30  31
HETATM   31  O5  UNL     1     -14.512  33.492   3.741  1.00  0.00    -0.398 OA
ATOM     32  H5  UNL     1     -14.983  34.131   3.218  1.00  0.00     0.209 HD
ENDBRANCH  30  31
ENDBRANCH  25  30
ENDBRANCH  22  25
ENDBRANCH  18  21
ENDBRANCH  16  18
ENDBRANCH  15  16
ENDBRANCH   6  15
BRANCH   5  33
HETATM   33  O1  UNL     1     -12.602  25.326   7.464  1.00  0.00    -0.344 OA
ATOM     34  H1  UNL     1     -13.534  25.287   7.640  1.00  0.00     0.219 HD
ENDBRANCH   5  33
BRANCH   1  35
HETATM   35  N1  UNL     1      -9.855  24.078  11.273  1.00  0.00    -0.381 N 
ATOM     36  H12 UNL     1     -10.102  24.220  12.251  1.00  0.00     0.157 HD
ATOM     37  H11 UNL     1      -9.764  23.201  10.758  1.00  0.00     0.157 HD
ENDBRANCH   1  35
TORSDOF 10
ENDMDL
MODEL 5
REMARK VINA RESULT: -6.613071306      5.000      7.317
REMARK  10 active torsions:
REMARK  status: ('A' for Active; 'I' for Inactive)
REMARK    1  A    between atoms: N1_1  and  C1_4 
REMARK    2  A    between atoms: C3_8  and  O1_9 
REMARK    3  A    between atoms: N3_11  and  C4_12 
REMARK    4  A    between atoms: C4_12  and  N4_13 
REMARK    5  A    between atoms: N4_13  and  S1_15 
REMARK    6  A    between atoms: S1_15  and  N5_18 
REMARK       I    between atoms: N5_18  and  C5_20 
REMARK    7  A    between atoms: C5_20  and  C6_22 
REMARK    8  A    between atoms: C6_22  and  N6_23 
REMARK    9  A    between atoms: C6_22  and  C7_27 
REMARK   10  A    between atoms: C7_27  and  O5_28 
ROOT
HETATM    1  C1  UNL     1     -13.010  26.991   6.358  1.00  0.00     0.169 C 
HETATM    2  N2  UNL     1     -12.402  28.122   6.798  1.00  0.00    -0.334 N 
ATOM      3  H2  UNL     1     -12.188  28.157   7.794  1.00  0.00     0.168 HD
HETATM    4  C2  UNL     1     -12.047  29.203   6.079  1.00  0.00     0.102 A 
HETATM    5  C3  UNL     1     -11.140  30.179   6.482  1.00  0.00     0.172 A 
HETATM    6  N3  UNL     1     -11.098  31.062   5.490  1.00  0.00    -0.318 N 
HETATM    7  C8  UNL     1     -11.933  30.687   4.485  1.00  0.00     0.114 A 
HETATM    8  C9  UNL     1     -12.547  29.511   4.835  1.00  0.00     0.079 A 
HETATM    9  C10 UNL     1     -13.481  28.851   4.028  1.00  0.00     0.262 C 
HETATM   10  O6  UNL     1     -13.787  29.414   2.953  1.00  0.00    -0.267 OA
HETATM   11  N7  UNL     1     -14.106  27.686   4.251  1.00  0.00    -0.287 N 
ATOM     12  H7  UNL     1     -14.859  27.429   3.613  1.00  0.00     0.172 HD
HETATM   13  C11 UNL     1     -13.820  26.821   5.256  1.00  0.00     0.292 C 
HETATM   14  O7  UNL     1     -14.394  25.710   5.127  1.00  0.00    -0.264 OA
ENDROOT
BRANCH   6  15
HETATM   15  C4  UNL     1     -10.299  32.290   5.463  1.00  0.00     0.266 C 
BRANCH  15  16
HETATM   16  N4  UNL     1     -11.139  33.351   5.832  1.00  0.00    -0.285 N 
ATOM     17  H4  UNL     1     -11.540  33.361   6.770  1.00  0.00     0.175 HD
BRANCH  16  18
HETATM   18  S1  UNL     1     -11.502  34.597   4.785  1.00  0.00     0.322 S 
HETATM   19  O2  UNL     1     -10.354  35.620   4.732  1.00  0.00    -0.182 OA
HETATM   20  O3  UNL     1     -12.639  35.449   5.438  1.00  0.00    -0.182 OA
BRANCH  18  21
HETATM   21  N5  UNL     1     -12.036  34.159   3.232  1.00  0.00    -0.235 N 
HETATM   22  C5  UNL     1     -13.235  33.538   2.915  1.00  0.00     0.265 C 
HETATM   23  O4  UNL     1     -14.065  33.261   3.822  1.00  0.00    -0.270 OA
ATOM     24  H5  UNL     1     -11.412  34.375   2.454  1.00  0.00     0.183 HD
BRANCH  22  25
HETATM   25  C6  UNL     1     -13.653  33.152   1.546  1.00  0.00     0.298 C 
BRANCH  25  26
HETATM   26  N6  UNL     1     -14.013  31.784   1.387  1.00  0.00    -0.064 N 
ATOM     27  H63 UNL     1     -14.837  31.570   1.948  1.00  0.00     0.275 HD
ATOM     28  H62 UNL     1     -14.389  31.627   0.451  1.00  0.00     0.275 HD
ATOM     29  H61 UNL     1     -13.270  31.114   1.585  1.00  0.00     0.275 HD
ENDBRANCH  25  26
BRANCH  25  30
HETATM   30  C7  UNL     1     -14.597  34.052   0.850  1.00  0.00     0.206 C 
BRANCH  30  31
HETATM   31  O5  UNL     1     -15.855  33.892   1.508  1.00  0.00    -0.398 OA
ATOM     32  H5  UNL     1     -16.465  33.598   0.841  1.00  0.00     0.209 HD
ENDBRANCH  30  31
ENDBRANCH  25  30
ENDBRANCH  22  25
ENDBRANCH  18  21
ENDBRANCH  16  18
ENDBRANCH  15  16
ENDBRANCH   6  15
BRANCH   5  33
HETATM   33  O1  UNL     1     -10.443  30.175   7.694  1.00  0.00    -0.344 OA
ATOM     34  H1  UNL     1      -9.587  29.788   7.829  1.00  0.00     0.219 HD
ENDBRANCH   5  33
BRANCH   1  35
HETATM   35  N1  UNL     1     -12.777  25.957   7.087  1.00  0.00    -0.381 N 
ATOM     36  H12 UNL     1     -12.063  26.044   7.810  1.00  0.00     0.157 HD
ATOM     37  H11 UNL     1     -13.353  25.148   6.852  1.00  0.00     0.157 HD
ENDBRANCH   1  35
TORSDOF 10
ENDMDL
