MODEL 1
REMARK VINA RESULT: -6.982683613      0.000      0.000
REMARK  4 active torsions:
REMARK  status: ('A' for Active; 'I' for Inactive)
REMARK    1  A    between atoms: C2_2  and  N1_3 
REMARK    2  A    between atoms: C2_2  and  C11_23 
REMARK       I    between atoms: N1_3  and  C3_5 
REMARK    3  A    between atoms: C3_5  and  C4_7 
REMARK    4  A    between atoms: C8_12  and  N2_13 
REMARK       I    between atoms: N2_13  and  C9_15 
ROOT
HETATM    1  C4  UNL     1      44.272  70.256  86.275  1.00  0.00     0.075 C 
HETATM    2  C5  UNL     1      44.334  68.791  86.129  1.00  0.00     0.083 C 
HETATM    3  C6  UNL     1      44.044  68.268  84.762  1.00  0.00     0.096 C 
HETATM    4 CL1  UNL     1      42.346  67.814  84.549  1.00  0.00    -0.124 Cl
HETATM    5  C7  UNL     1      44.559  69.113  83.661  1.00  0.00     0.054 A 
HETATM    6  C8  UNL     1      43.611  69.935  82.850  1.00  0.00     0.114 A 
HETATM    7  C10 UNL     1      44.486  70.548  83.900  1.00  0.00     0.112 A 
HETATM    8  N5  UNL     1      43.899  71.004  85.081  1.00  0.00    -0.382 N 
ATOM      9  H5  UNL     1      43.260  71.798  85.107  1.00  0.00     0.160 HD
ENDROOT
BRANCH   1  10
HETATM   10  C3  UNL     1      43.734  70.833  87.497  1.00  0.00     0.264 C 
HETATM   11  N1  UNL     1      43.953  72.162  87.942  1.00  0.00    -0.344 N 
ATOM     12  H1  UNL     1      44.484  72.836  87.390  1.00  0.00     0.163 HD
HETATM   13  O1  UNL     1      43.021  70.021  88.194  1.00  0.00    -0.266 OA
BRANCH  11  14
HETATM   14  C2  UNL     1      43.372  72.510  89.243  1.00  0.00     0.170 C 
HETATM   15  C1  UNL     1      44.608  72.857  90.139  1.00  0.00     0.042 C 
BRANCH  14  16
HETATM   16  C11 UNL     1      42.509  73.682  89.240  1.00  0.00     0.253 C 
HETATM   17  N6  UNL     1      42.970  74.920  89.742  1.00  0.00    -0.060 NA
HETATM   18  O2  UNL     1      41.297  73.708  88.802  1.00  0.00    -0.275 OA
ENDBRANCH  14  16
ENDBRANCH  11  14
ENDBRANCH   1  10
BRANCH   6  19
HETATM   19  N2  UNL     1      43.939  70.180  81.459  1.00  0.00    -0.358 N 
HETATM   20  C9  UNL     1      43.295  69.358  80.463  1.00  0.00     0.182 C 
HETATM   21  N3  UNL     1      42.313  69.943  79.805  1.00  0.00    -0.374 N 
HETATM   22  N4  UNL     1      43.669  68.054  80.144  1.00  0.00    -0.064 NA
ATOM     23  H32 UNL     1      42.040  70.896  80.038  1.00  0.00     0.158 HD
ATOM     24  H31 UNL     1      41.858  69.362  79.101  1.00  0.00     0.158 HD
ATOM     25  H2  UNL     1      44.602  70.908  81.194  1.00  0.00     0.162 HD
ENDBRANCH   6  19
TORSDOF 4
ENDMDL
MODEL 2
REMARK VINA RESULT: -6.978434192      3.618      8.244
REMARK  4 active torsions:
REMARK  status: ('A' for Active; 'I' for Inactive)
REMARK    1  A    between atoms: C2_2  and  N1_3 
REMARK    2  A    between atoms: C2_2  and  C11_23 
REMARK       I    between atoms: N1_3  and  C3_5 
REMARK    3  A    between atoms: C3_5  and  C4_7 
REMARK    4  A    between atoms: C8_12  and  N2_13 
REMARK       I    between atoms: N2_13  and  C9_15 
ROOT
HETATM    1  C4  UNL     1      44.047  70.711  88.529  1.00  0.00     0.075 C 
HETATM    2  C5  UNL     1      45.121  71.592  88.037  1.00  0.00     0.083 C 
HETATM    3  C6  UNL     1      45.477  72.733  88.930  1.00  0.00     0.096 C 
HETATM    4 CL1  UNL     1      44.615  74.222  88.513  1.00  0.00    -0.124 Cl
HETATM    5  C7  UNL     1      45.423  72.420  90.375  1.00  0.00     0.054 A 
HETATM    6  C8  UNL     1      44.304  72.951  91.209  1.00  0.00     0.114 A 
HETATM    7  C10 UNL     1      44.348  71.521  90.771  1.00  0.00     0.112 A 
HETATM    8  N5  UNL     1      43.444  71.086  89.802  1.00  0.00    -0.382 N 
ATOM      9  H5  UNL     1      42.439  71.035  89.970  1.00  0.00     0.160 HD
ENDROOT
BRANCH   1  10
HETATM   10  C3  UNL     1      43.087  70.155  87.588  1.00  0.00     0.264 C 
HETATM   11  N1  UNL     1      43.354  69.114  86.663  1.00  0.00    -0.344 N 
ATOM     12  H1  UNL     1      44.257  68.640  86.630  1.00  0.00     0.163 HD
HETATM   13  O1  UNL     1      41.925  70.702  87.638  1.00  0.00    -0.266 OA
BRANCH  11  14
HETATM   14  C2  UNL     1      42.257  68.759  85.757  1.00  0.00     0.170 C 
HETATM   15  C1  UNL     1      42.939  68.626  84.355  1.00  0.00     0.042 C 
BRANCH  14  16
HETATM   16  C11 UNL     1      41.612  67.484  86.038  1.00  0.00     0.253 C 
HETATM   17  N6  UNL     1      42.159  66.276  85.549  1.00  0.00    -0.060 NA
HETATM   18  O2  UNL     1      40.533  67.336  86.726  1.00  0.00    -0.275 OA
ENDBRANCH  14  16
ENDBRANCH  11  14
ENDBRANCH   1  10
BRANCH   6  19
HETATM   19  N2  UNL     1      44.573  73.248  92.603  1.00  0.00    -0.358 N 
HETATM   20  C9  UNL     1      45.299  74.459  92.903  1.00  0.00     0.182 C 
HETATM   21  N3  UNL     1      44.564  75.453  93.363  1.00  0.00    -0.374 N 
HETATM   22  N4  UNL     1      46.679  74.611  92.782  1.00  0.00    -0.064 NA
ATOM     23  H32 UNL     1      43.555  75.342  93.451  1.00  0.00     0.158 HD
ATOM     24  H31 UNL     1      45.077  76.308  93.575  1.00  0.00     0.158 HD
ATOM     25  H2  UNL     1      44.260  72.623  93.345  1.00  0.00     0.162 HD
ENDBRANCH   6  19
TORSDOF 4
ENDMDL
MODEL 3
REMARK VINA RESULT: -6.912459633      1.101      1.109
REMARK  4 active torsions:
REMARK  status: ('A' for Active; 'I' for Inactive)
REMARK    1  A    between atoms: C2_2  and  N1_3 
REMARK    2  A    between atoms: C2_2  and  C11_23 
REMARK       I    between atoms: N1_3  and  C3_5 
REMARK    3  A    between atoms: C3_5  and  C4_7 
REMARK    4  A    between atoms: C8_12  and  N2_13 
REMARK       I    between atoms: N2_13  and  C9_15 
ROOT
HETATM    1  C4  UNL     1      44.245  70.486  86.609  1.00  0.00     0.075 C 
HETATM    2  C5  UNL     1      44.239  69.016  86.513  1.00  0.00     0.083 C 
HETATM    3  C6  UNL     1      43.951  68.461  85.159  1.00  0.00     0.096 C 
HETATM    4 CL1  UNL     1      42.239  68.080  84.925  1.00  0.00    -0.124 Cl
HETATM    5  C7  UNL     1      44.528  69.242  84.042  1.00  0.00     0.054 A 
HETATM    6  C8  UNL     1      43.637  70.080  83.184  1.00  0.00     0.114 A 
HETATM    7  C10 UNL     1      44.519  70.686  84.231  1.00  0.00     0.112 A 
HETATM    8  N5  UNL     1      43.931  71.209  85.384  1.00  0.00    -0.382 N 
ATOM      9  H5  UNL     1      43.331  72.033  85.369  1.00  0.00     0.160 HD
ENDROOT
BRANCH   1  10
HETATM   10  C3  UNL     1      43.710  71.129  87.800  1.00  0.00     0.264 C 
HETATM   11  N1  UNL     1      44.483  71.766  88.804  1.00  0.00    -0.344 N 
ATOM     12  H1  UNL     1      45.496  71.858  88.730  1.00  0.00     0.163 HD
HETATM   13  O1  UNL     1      42.430  71.071  87.900  1.00  0.00    -0.266 OA
BRANCH  11  14
HETATM   14  C2  UNL     1      43.739  72.286  89.956  1.00  0.00     0.170 C 
HETATM   15  C1  UNL     1      44.550  71.788  91.199  1.00  0.00     0.042 C 
BRANCH  14  16
HETATM   16  C11 UNL     1      43.675  73.738  90.046  1.00  0.00     0.253 C 
HETATM   17  N6  UNL     1      42.776  74.472  89.239  1.00  0.00    -0.060 NA
HETATM   18  O2  UNL     1      44.395  74.464  90.830  1.00  0.00    -0.275 OA
ENDBRANCH  14  16
ENDBRANCH  11  14
ENDBRANCH   1  10
BRANCH   6  19
HETATM   19  N2  UNL     1      44.003  70.261  81.793  1.00  0.00    -0.358 N 
HETATM   20  C9  UNL     1      43.408  69.376  80.821  1.00  0.00     0.182 C 
HETATM   21  N3  UNL     1      42.436  69.905  80.104  1.00  0.00    -0.374 N 
HETATM   22  N4  UNL     1      43.818  68.066  80.580  1.00  0.00    -0.064 NA
ATOM     23  H32 UNL     1      42.136  70.863  80.280  1.00  0.00     0.158 HD
ATOM     24  H31 UNL     1      42.015  69.280  79.417  1.00  0.00     0.158 HD
ATOM     25  H2  UNL     1      44.660  70.989  81.511  1.00  0.00     0.162 HD
ENDBRANCH   6  19
TORSDOF 4
ENDMDL
MODEL 4
REMARK VINA RESULT: -6.710782808      3.262      8.277
REMARK  4 active torsions:
REMARK  status: ('A' for Active; 'I' for Inactive)
REMARK    1  A    between atoms: C2_2  and  N1_3 
REMARK    2  A    between atoms: C2_2  and  C11_23 
REMARK       I    between atoms: N1_3  and  C3_5 
REMARK    3  A    between atoms: C3_5  and  C4_7 
REMARK    4  A    between atoms: C8_12  and  N2_13 
REMARK       I    between atoms: N2_13  and  C9_15 
ROOT
HETATM    1  C4  UNL     1      44.487  72.155  87.590  1.00  0.00     0.075 C 
HETATM    2  C5  UNL     1      43.390  72.050  88.567  1.00  0.00     0.083 C 
HETATM    3  C6  UNL     1      43.693  72.567  89.933  1.00  0.00     0.096 C 
HETATM    4 CL1  UNL     1      44.256  71.301  91.034  1.00  0.00    -0.124 Cl
HETATM    5  C7  UNL     1      44.548  73.775  89.955  1.00  0.00     0.054 A 
HETATM    6  C8  UNL     1      45.977  73.665  90.377  1.00  0.00     0.114 A 
HETATM    7  C10 UNL     1      45.590  73.810  88.938  1.00  0.00     0.112 A 
HETATM    8  N5  UNL     1      45.738  72.713  88.089  1.00  0.00    -0.382 N 
ATOM      9  H5  UNL     1      46.650  72.331  87.836  1.00  0.00     0.160 HD
ENDROOT
BRANCH   1  10
HETATM   10  C3  UNL     1      44.689  71.091  86.619  1.00  0.00     0.264 C 
HETATM   11  N1  UNL     1      44.050  71.002  85.355  1.00  0.00    -0.344 N 
ATOM     12  H1  UNL     1      43.422  71.730  85.015  1.00  0.00     0.163 HD
HETATM   13  O1  UNL     1      45.512  70.179  87.000  1.00  0.00    -0.266 OA
BRANCH  11  14
HETATM   14  C2  UNL     1      44.347  69.802  84.566  1.00  0.00     0.170 C 
HETATM   15  C1  UNL     1      43.037  68.950  84.647  1.00  0.00     0.042 C 
BRANCH  14  16
HETATM   16  C11 UNL     1      44.612  70.041  83.155  1.00  0.00     0.253 C 
HETATM   17  N6  UNL     1      44.497  68.994  82.212  1.00  0.00    -0.060 NA
HETATM   18  O2  UNL     1      44.960  71.173  82.647  1.00  0.00    -0.275 OA
ENDBRANCH  14  16
ENDBRANCH  11  14
ENDBRANCH   1  10
BRANCH   6  19
HETATM   19  N2  UNL     1      46.581  74.804  91.040  1.00  0.00    -0.358 N 
HETATM   20  C9  UNL     1      47.050  74.623  92.393  1.00  0.00     0.182 C 
HETATM   21  N3  UNL     1      48.357  74.502  92.520  1.00  0.00    -0.374 N 
HETATM   22  N4  UNL     1      46.236  74.613  93.524  1.00  0.00    -0.064 NA
ATOM     23  H32 UNL     1      48.953  74.509  91.693  1.00  0.00     0.158 HD
ATOM     24  H31 UNL     1      48.689  74.374  93.476  1.00  0.00     0.158 HD
ATOM     25  H2  UNL     1      46.671  75.703  90.567  1.00  0.00     0.162 HD
ENDBRANCH   6  19
TORSDOF 4
ENDMDL
MODEL 5
REMARK VINA RESULT: -6.706561406      3.413      7.930
REMARK  4 active torsions:
REMARK  status: ('A' for Active; 'I' for Inactive)
REMARK    1  A    between atoms: C2_2  and  N1_3 
REMARK    2  A    between atoms: C2_2  and  C11_23 
REMARK       I    between atoms: N1_3  and  C3_5 
REMARK    3  A    between atoms: C3_5  and  C4_7 
REMARK    4  A    between atoms: C8_12  and  N2_13 
REMARK       I    between atoms: N2_13  and  C9_15 
ROOT
HETATM    1  C4  UNL     1      43.944  70.610  88.254  1.00  0.00     0.075 C 
HETATM    2  C5  UNL     1      45.293  71.077  87.887  1.00  0.00     0.083 C 
HETATM    3  C6  UNL     1      45.688  72.403  88.444  1.00  0.00     0.096 C 
HETATM    4 CL1  UNL     1      45.362  73.738  87.329  1.00  0.00    -0.124 Cl
HETATM    5  C7  UNL     1      45.197  72.662  89.816  1.00  0.00     0.054 A 
HETATM    6  C8  UNL     1      44.076  73.624  90.034  1.00  0.00     0.114 A 
HETATM    7  C10 UNL     1      43.867  72.143  90.102  1.00  0.00     0.112 A 
HETATM    8  N5  UNL     1      43.155  71.516  89.079  1.00  0.00    -0.382 N 
ATOM      9  H5  UNL     1      42.161  71.679  88.920  1.00  0.00     0.160 HD
ENDROOT
BRANCH   1  10
HETATM   10  C3  UNL     1      43.143  69.891  87.276  1.00  0.00     0.264 C 
HETATM   11  N1  UNL     1      43.605  68.826  86.460  1.00  0.00    -0.344 N 
ATOM     12  H1  UNL     1      44.550  68.452  86.545  1.00  0.00     0.163 HD
HETATM   13  O1  UNL     1      41.931  70.309  87.178  1.00  0.00    -0.266 OA
BRANCH  11  14
HETATM   14  C2  UNL     1      42.643  68.294  85.490  1.00  0.00     0.170 C 
HETATM   15  C1  UNL     1      43.099  68.898  84.120  1.00  0.00     0.042 C 
BRANCH  14  16
HETATM   16  C11 UNL     1      42.655  66.846  85.339  1.00  0.00     0.253 C 
HETATM   17  N6  UNL     1      41.602  66.058  85.856  1.00  0.00    -0.060 NA
HETATM   18  O2  UNL     1      43.580  66.170  84.749  1.00  0.00    -0.275 OA
ENDBRANCH  14  16
ENDBRANCH  11  14
ENDBRANCH   1  10
BRANCH   6  19
HETATM   19  N2  UNL     1      44.053  74.375  91.274  1.00  0.00    -0.358 N 
HETATM   20  C9  UNL     1      44.678  75.676  91.282  1.00  0.00     0.182 C 
HETATM   21  N3  UNL     1      43.845  76.697  91.242  1.00  0.00    -0.374 N 
HETATM   22  N4  UNL     1      46.051  75.899  91.372  1.00  0.00    -0.064 NA
ATOM     23  H32 UNL     1      42.841  76.534  91.176  1.00  0.00     0.158 HD
ATOM     24  H31 UNL     1      44.286  77.616  91.248  1.00  0.00     0.158 HD
ATOM     25  H2  UNL     1      43.610  73.997  92.111  1.00  0.00     0.162 HD
ENDBRANCH   6  19
TORSDOF 4
ENDMDL
