MODEL 1
REMARK VINA RESULT: -7.038455213      0.000      0.000
REMARK  6 active torsions:
REMARK  status: ('A' for Active; 'I' for Inactive)
REMARK    1  A    between atoms: C13_13  and  C14_14 
REMARK    2  A    between atoms: C14_14  and  C15_15 
REMARK    3  A    between atoms: C15_15  and  O1_16 
REMARK    4  A    between atoms: O1_16  and  C16_17 
REMARK    5  A    between atoms: C16_17  and  C17_19 
REMARK    6  A    between atoms: C17_19  and  C18_20 
ROOT
HETATM    1  C1  UNL     1       0.132  13.432  -1.528  1.00  0.00     0.015 C 
HETATM    2  C2  UNL     1      -0.573  12.228  -0.943  1.00  0.00    -0.044 C 
HETATM    3  C3  UNL     1      -1.993  12.247  -1.440  1.00  0.00     0.015 C 
HETATM    4  C4  UNL     1      -0.611  12.421   0.558  1.00  0.00     0.009 C 
HETATM    5  C5  UNL     1       0.772  12.547   1.155  1.00  0.00     0.001 C 
HETATM    6  C6  UNL     1       1.736  11.633   0.401  1.00  0.00     0.005 C 
HETATM    7  C7  UNL     1       0.908  10.467  -0.097  1.00  0.00    -0.005 C 
HETATM    8  C8  UNL     1       0.146  10.945  -1.299  1.00  0.00    -0.002 C 
HETATM    9  C9  UNL     1      -0.798   9.847  -1.690  1.00  0.00     0.006 C 
HETATM   10  C10 UNL     1      -0.326   8.476  -1.233  1.00  0.00     0.010 C 
HETATM   11  C11 UNL     1       1.137   8.353  -1.467  1.00  0.00    -0.036 C 
HETATM   12  C12 UNL     1       1.500   8.735  -2.868  1.00  0.00     0.016 C 
HETATM   13  C13 UNL     1       1.806   7.109  -1.040  1.00  0.00    -0.004 C 
HETATM   14  C19 UNL     1       1.544   7.103   0.442  1.00  0.00     0.006 C 
HETATM   15  C20 UNL     1       1.999   8.505   0.800  1.00  0.00     0.006 C 
HETATM   16  C21 UNL     1       1.808   9.341  -0.471  1.00  0.00    -0.002 C 
ENDROOT
BRANCH  13  17
HETATM   17  C14 UNL     1       1.714   5.868  -1.777  1.00  0.00     0.032 C 
BRANCH  17  18
HETATM   18  C15 UNL     1       2.871   5.299  -2.489  1.00  0.00     0.179 C 
BRANCH  18  19
HETATM   19  O1  UNL     1       2.956   5.657  -3.846  1.00  0.00    -0.321 OA
BRANCH  19  20
HETATM   20  C16 UNL     1       4.019   6.300  -4.411  1.00  0.00     0.268 C 
HETATM   21  O2  UNL     1       4.915   6.777  -3.667  1.00  0.00    -0.265 OA
BRANCH  20  22
HETATM   22  C17 UNL     1       4.148   6.455  -5.913  1.00  0.00     0.224 C 
BRANCH  22  23
HETATM   23  C18 UNL     1       4.014   7.856  -6.324  1.00  0.00     0.182 C 
HETATM   24  O3  UNL     1       3.158   8.608  -5.810  1.00  0.00    -0.648 OA
HETATM   25  O4  UNL     1       4.890   8.314  -7.318  1.00  0.00    -0.648 OA
ENDBRANCH  22  23
ENDBRANCH  20  22
ENDBRANCH  19  20
ENDBRANCH  18  19
ENDBRANCH  17  18
ENDBRANCH  13  17
TORSDOF 6
ENDMDL
MODEL 2
REMARK VINA RESULT: -6.947707362      2.837      7.029
REMARK  6 active torsions:
REMARK  status: ('A' for Active; 'I' for Inactive)
REMARK    1  A    between atoms: C13_13  and  C14_14 
REMARK    2  A    between atoms: C14_14  and  C15_15 
REMARK    3  A    between atoms: C15_15  and  O1_16 
REMARK    4  A    between atoms: O1_16  and  C16_17 
REMARK    5  A    between atoms: C16_17  and  C17_19 
REMARK    6  A    between atoms: C17_19  and  C18_20 
ROOT
HETATM    1  C1  UNL     1       4.969   8.107  -7.265  1.00  0.00     0.015 C 
HETATM    2  C2  UNL     1       5.394   7.216  -6.118  1.00  0.00    -0.044 C 
HETATM    3  C3  UNL     1       6.839   7.509  -5.826  1.00  0.00     0.015 C 
HETATM    4  C4  UNL     1       5.308   5.787  -6.612  1.00  0.00     0.009 C 
HETATM    5  C5  UNL     1       3.913   5.418  -7.061  1.00  0.00     0.001 C 
HETATM    6  C6  UNL     1       2.890   6.110  -6.163  1.00  0.00     0.005 C 
HETATM    7  C7  UNL     1       3.552   6.262  -4.810  1.00  0.00    -0.005 C 
HETATM    8  C8  UNL     1       4.506   7.417  -4.910  1.00  0.00    -0.002 C 
HETATM    9  C9  UNL     1       5.283   7.463  -3.628  1.00  0.00     0.006 C 
HETATM   10  C10 UNL     1       4.539   6.824  -2.467  1.00  0.00     0.010 C 
HETATM   11  C11 UNL     1       3.108   7.227  -2.515  1.00  0.00    -0.036 C 
HETATM   12  C12 UNL     1       2.963   8.711  -2.646  1.00  0.00     0.016 C 
HETATM   13  C13 UNL     1       2.195   6.668  -1.499  1.00  0.00    -0.004 C 
HETATM   14  C19 UNL     1       2.298   5.189  -1.763  1.00  0.00     0.006 C 
HETATM   15  C20 UNL     1       2.055   5.167  -3.260  1.00  0.00     0.006 C 
HETATM   16  C21 UNL     1       2.517   6.536  -3.776  1.00  0.00    -0.002 C 
ENDROOT
BRANCH  13  17
HETATM   17  C14 UNL     1       2.149   7.138  -0.132  1.00  0.00     0.032 C 
BRANCH  17  18
HETATM   18  C15 UNL     1       0.982   7.860   0.403  1.00  0.00     0.179 C 
BRANCH  18  19
HETATM   19  O1  UNL     1       1.099   9.260   0.377  1.00  0.00    -0.321 OA
BRANCH  19  20
HETATM   20  C16 UNL     1       0.269  10.094  -0.317  1.00  0.00     0.268 C 
HETATM   21  O2  UNL     1      -0.561   9.601  -1.125  1.00  0.00    -0.265 OA
BRANCH  20  22
HETATM   22  C17 UNL     1       0.322  11.598  -0.140  1.00  0.00     0.224 C 
BRANCH  22  23
HETATM   23  C18 UNL     1       1.093  12.239  -1.208  1.00  0.00     0.182 C 
HETATM   24  O3  UNL     1       2.267  11.894  -1.464  1.00  0.00    -0.648 OA
HETATM   25  O4  UNL     1       0.454  13.258  -1.930  1.00  0.00    -0.648 OA
ENDBRANCH  22  23
ENDBRANCH  20  22
ENDBRANCH  19  20
ENDBRANCH  18  19
ENDBRANCH  17  18
ENDBRANCH  13  17
TORSDOF 6
ENDMDL
MODEL 3
REMARK VINA RESULT: -6.862434882      5.924      8.963
REMARK  6 active torsions:
REMARK  status: ('A' for Active; 'I' for Inactive)
REMARK    1  A    between atoms: C13_13  and  C14_14 
REMARK    2  A    between atoms: C14_14  and  C15_15 
REMARK    3  A    between atoms: C15_15  and  O1_16 
REMARK    4  A    between atoms: O1_16  and  C16_17 
REMARK    5  A    between atoms: C16_17  and  C17_19 
REMARK    6  A    between atoms: C17_19  and  C18_20 
ROOT
HETATM    1  C1  UNL     1      -3.198   0.262  -2.441  1.00  0.00     0.015 C 
HETATM    2  C2  UNL     1      -2.650  -0.329  -1.160  1.00  0.00    -0.044 C 
HETATM    3  C3  UNL     1      -1.971  -1.623  -1.512  1.00  0.00     0.015 C 
HETATM    4  C4  UNL     1      -3.837  -0.659  -0.280  1.00  0.00     0.009 C 
HETATM    5  C5  UNL     1      -4.675   0.560   0.033  1.00  0.00     0.001 C 
HETATM    6  C6  UNL     1      -3.766   1.776   0.189  1.00  0.00     0.005 C 
HETATM    7  C7  UNL     1      -2.443   1.250   0.705  1.00  0.00    -0.005 C 
HETATM    8  C8  UNL     1      -1.721   0.642  -0.463  1.00  0.00    -0.002 C 
HETATM    9  C9  UNL     1      -0.492  -0.027   0.076  1.00  0.00     0.006 C 
HETATM   10  C10 UNL     1      -0.024   0.574   1.391  1.00  0.00     0.010 C 
HETATM   11  C11 UNL     1      -0.126   2.056   1.321  1.00  0.00    -0.036 C 
HETATM   12  C12 UNL     1       0.532   2.591   0.087  1.00  0.00     0.016 C 
HETATM   13  C13 UNL     1       0.232   2.834   2.523  1.00  0.00    -0.004 C 
HETATM   14  C19 UNL     1      -0.756   2.321   3.536  1.00  0.00     0.006 C 
HETATM   15  C20 UNL     1      -2.046   2.472   2.752  1.00  0.00     0.006 C 
HETATM   16  C21 UNL     1      -1.648   2.372   1.274  1.00  0.00    -0.002 C 
ENDROOT
BRANCH  13  17
HETATM   17  C14 UNL     1       1.598   3.076   2.930  1.00  0.00     0.032 C 
BRANCH  17  18
HETATM   18  C15 UNL     1       2.251   4.380   2.726  1.00  0.00     0.179 C 
BRANCH  18  19
HETATM   19  O1  UNL     1       1.576   5.239   1.842  1.00  0.00    -0.321 OA
BRANCH  19  20
HETATM   20  C16 UNL     1       2.189   6.133   1.011  1.00  0.00     0.268 C 
HETATM   21  O2  UNL     1       3.230   6.722   1.404  1.00  0.00    -0.265 OA
BRANCH  20  22
HETATM   22  C17 UNL     1       1.649   6.433  -0.372  1.00  0.00     0.224 C 
BRANCH  22  23
HETATM   23  C18 UNL     1       1.273   7.843  -0.509  1.00  0.00     0.182 C 
HETATM   24  O3  UNL     1       0.549   8.411   0.337  1.00  0.00    -0.648 OA
HETATM   25  O4  UNL     1       1.762   8.526  -1.632  1.00  0.00    -0.648 OA
ENDBRANCH  22  23
ENDBRANCH  20  22
ENDBRANCH  19  20
ENDBRANCH  18  19
ENDBRANCH  17  18
ENDBRANCH  13  17
TORSDOF 6
ENDMDL
MODEL 4
REMARK VINA RESULT: -6.850103243      7.486      9.615
REMARK  6 active torsions:
REMARK  status: ('A' for Active; 'I' for Inactive)
REMARK    1  A    between atoms: C13_13  and  C14_14 
REMARK    2  A    between atoms: C14_14  and  C15_15 
REMARK    3  A    between atoms: C15_15  and  O1_16 
REMARK    4  A    between atoms: O1_16  and  C16_17 
REMARK    5  A    between atoms: C16_17  and  C17_19 
REMARK    6  A    between atoms: C17_19  and  C18_20 
ROOT
HETATM    1  C1  UNL     1      -4.566  -0.157   0.767  1.00  0.00     0.015 C 
HETATM    2  C2  UNL     1      -4.139   1.256   1.100  1.00  0.00    -0.044 C 
HETATM    3  C3  UNL     1      -5.076   1.778   2.154  1.00  0.00     0.015 C 
HETATM    4  C4  UNL     1      -4.345   2.088  -0.148  1.00  0.00     0.009 C 
HETATM    5  C5  UNL     1      -3.544   1.571  -1.321  1.00  0.00     0.001 C 
HETATM    6  C6  UNL     1      -2.204   1.035  -0.823  1.00  0.00     0.005 C 
HETATM    7  C7  UNL     1      -1.859   1.840   0.411  1.00  0.00    -0.005 C 
HETATM    8  C8  UNL     1      -2.691   1.302   1.539  1.00  0.00    -0.002 C 
HETATM    9  C9  UNL     1      -2.477   2.204   2.717  1.00  0.00     0.006 C 
HETATM   10  C10 UNL     1      -1.146   2.936   2.662  1.00  0.00     0.010 C 
HETATM   11  C11 UNL     1      -0.085   2.000   2.207  1.00  0.00    -0.036 C 
HETATM   12  C12 UNL     1      -0.100   0.730   3.001  1.00  0.00     0.016 C 
HETATM   13  C13 UNL     1       1.282   2.530   2.034  1.00  0.00    -0.004 C 
HETATM   14  C19 UNL     1       1.077   3.589   0.984  1.00  0.00     0.006 C 
HETATM   15  C20 UNL     1       0.314   2.792  -0.056  1.00  0.00     0.006 C 
HETATM   16  C21 UNL     1      -0.411   1.684   0.720  1.00  0.00    -0.002 C 
ENDROOT
BRANCH  13  17
HETATM   17  C14 UNL     1       2.172   2.798   3.141  1.00  0.00     0.032 C 
BRANCH  17  18
HETATM   18  C15 UNL     1       3.359   3.658   2.994  1.00  0.00     0.179 C 
BRANCH  18  19
HETATM   19  O1  UNL     1       4.364   3.435   3.950  1.00  0.00    -0.321 OA
BRANCH  19  20
HETATM   20  C16 UNL     1       4.885   4.399   4.765  1.00  0.00     0.268 C 
HETATM   21  O2  UNL     1       4.192   4.835   5.720  1.00  0.00    -0.265 OA
BRANCH  20  22
HETATM   22  C17 UNL     1       6.277   4.958   4.548  1.00  0.00     0.224 C 
BRANCH  22  23
HETATM   23  C18 UNL     1       6.264   6.421   4.471  1.00  0.00     0.182 C 
HETATM   24  O3  UNL     1       7.064   7.117   5.133  1.00  0.00    -0.648 OA
HETATM   25  O4  UNL     1       5.313   7.005   3.622  1.00  0.00    -0.648 OA
ENDBRANCH  22  23
ENDBRANCH  20  22
ENDBRANCH  19  20
ENDBRANCH  18  19
ENDBRANCH  17  18
ENDBRANCH  13  17
TORSDOF 6
ENDMDL
MODEL 5
REMARK VINA RESULT: -6.827425498      7.265      9.710
REMARK  6 active torsions:
REMARK  status: ('A' for Active; 'I' for Inactive)
REMARK    1  A    between atoms: C13_13  and  C14_14 
REMARK    2  A    between atoms: C14_14  and  C15_15 
REMARK    3  A    between atoms: C15_15  and  O1_16 
REMARK    4  A    between atoms: O1_16  and  C16_17 
REMARK    5  A    between atoms: C16_17  and  C17_19 
REMARK    6  A    between atoms: C17_19  and  C18_20 
ROOT
HETATM    1  C1  UNL     1      -4.108  -0.148   0.609  1.00  0.00     0.015 C 
HETATM    2  C2  UNL     1      -3.787   1.287   0.967  1.00  0.00    -0.044 C 
HETATM    3  C3  UNL     1      -4.790   1.734   1.995  1.00  0.00     0.015 C 
HETATM    4  C4  UNL     1      -4.009   2.116  -0.280  1.00  0.00     0.009 C 
HETATM    5  C5  UNL     1      -3.138   1.665  -1.431  1.00  0.00     0.001 C 
HETATM    6  C6  UNL     1      -1.782   1.214  -0.895  1.00  0.00     0.005 C 
HETATM    7  C7  UNL     1      -1.531   2.028   0.357  1.00  0.00    -0.005 C 
HETATM    8  C8  UNL     1      -2.360   1.424   1.453  1.00  0.00    -0.002 C 
HETATM    9  C9  UNL     1      -2.245   2.326   2.645  1.00  0.00     0.006 C 
HETATM   10  C10 UNL     1      -0.965   3.147   2.639  1.00  0.00     0.010 C 
HETATM   11  C11 UNL     1       0.170   2.287   2.211  1.00  0.00    -0.036 C 
HETATM   12  C12 UNL     1       0.216   1.012   2.993  1.00  0.00     0.016 C 
HETATM   13  C13 UNL     1       1.503   2.910   2.086  1.00  0.00    -0.004 C 
HETATM   14  C19 UNL     1       1.262   3.963   1.038  1.00  0.00     0.006 C 
HETATM   15  C20 UNL     1       0.587   3.127  -0.032  1.00  0.00     0.006 C 
HETATM   16  C21 UNL     1      -0.086   1.966   0.710  1.00  0.00    -0.002 C 
ENDROOT
BRANCH  13  17
HETATM   17  C14 UNL     1       2.338   3.225   3.223  1.00  0.00     0.032 C 
BRANCH  17  18
HETATM   18  C15 UNL     1       3.753   3.603   3.067  1.00  0.00     0.179 C 
BRANCH  18  19
HETATM   19  O1  UNL     1       4.269   4.381   4.119  1.00  0.00    -0.321 OA
BRANCH  19  20
HETATM   20  C16 UNL     1       5.357   5.200   4.014  1.00  0.00     0.268 C 
HETATM   21  O2  UNL     1       5.195   6.388   3.631  1.00  0.00    -0.265 OA
BRANCH  20  22
HETATM   22  C17 UNL     1       6.753   4.716   4.346  1.00  0.00     0.224 C 
BRANCH  22  23
HETATM   23  C18 UNL     1       7.054   4.875   5.771  1.00  0.00     0.182 C 
HETATM   24  O3  UNL     1       7.404   3.904   6.477  1.00  0.00    -0.648 OA
HETATM   25  O4  UNL     1       6.929   6.164   6.308  1.00  0.00    -0.648 OA
ENDBRANCH  22  23
ENDBRANCH  20  22
ENDBRANCH  19  20
ENDBRANCH  18  19
ENDBRANCH  17  18
ENDBRANCH  13  17
TORSDOF 6
ENDMDL
