MODEL 1
REMARK VINA RESULT: -8.229390495      0.000      0.000
REMARK  6 active torsions:
REMARK  status: ('A' for Active; 'I' for Inactive)
REMARK    1  A    between atoms: C11_11  and  C12_12 
REMARK    2  A    between atoms: C12_12  and  C13_13 
REMARK    3  A    between atoms: C13_13  and  C14_14 
REMARK    4  A    between atoms: C14_14  and  C15_15 
REMARK    5  A    between atoms: C15_15  and  O2_17 
REMARK    6  A    between atoms: O2_17  and  C16_18 
ROOT
HETATM    1  C16 UNL     1      -0.114  13.406  -1.457  1.00  0.00     0.302 C 
HETATM    2  C17 UNL     1      -1.239  12.788  -0.783  1.00  0.00     0.085 C 
HETATM    3  N1  UNL     1      -2.134  12.272  -0.251  1.00  0.00    -0.195 NA
ENDROOT
BRANCH   1   4
HETATM    4  O2  UNL     1       1.068  13.095  -0.739  1.00  0.00    -0.307 OA
BRANCH   4   5
HETATM    5  C15 UNL     1       1.475  11.773  -0.689  1.00  0.00     0.259 C 
HETATM    6  O1  UNL     1       1.243  11.045   0.320  1.00  0.00    -0.265 OA
BRANCH   5   7
HETATM    7  C14 UNL     1       2.203  11.208  -1.853  1.00  0.00     0.111 C 
BRANCH   7   8
HETATM    8  C13 UNL     1       1.507   9.963  -2.385  1.00  0.00     0.010 C 
BRANCH   8   9
HETATM    9  C12 UNL     1       2.510   8.863  -2.441  1.00  0.00     0.005 C 
BRANCH   9  10
HETATM   10  C11 UNL     1       1.967   7.514  -2.049  1.00  0.00    -0.014 C 
HETATM   11  C10 UNL     1       0.749   7.780  -1.173  1.00  0.00     0.005 C 
HETATM   12  C9  UNL     1       1.299   7.493   0.211  1.00  0.00     0.010 C 
HETATM   13  C8  UNL     1       2.059   6.190  -0.077  1.00  0.00    -0.040 C 
HETATM   14  C7  UNL     1       2.872   5.741   1.088  1.00  0.00     0.010 C 
HETATM   15  C18 UNL     1       2.924   6.678  -1.246  1.00  0.00     0.014 C 
HETATM   16  C19 UNL     1       1.049   5.187  -0.508  1.00  0.00     0.015 C 
HETATM   17  C6  UNL     1       1.893   5.131   2.084  1.00  0.00     0.014 C 
HETATM   18  C4  UNL     1       1.449   3.763   1.539  1.00  0.00    -0.022 C 
HETATM   19  C3  UNL     1       0.215   3.379   2.273  1.00  0.00    -0.015 C 
HETATM   20  C5  UNL     1       2.542   2.805   2.004  1.00  0.00     0.020 C 
HETATM   21  C20 UNL     1       1.303   3.780   0.061  1.00  0.00    -0.002 C 
HETATM   22  C2  UNL     1      -0.591   2.466   1.751  1.00  0.00    -0.087 C 
HETATM   23  C1  UNL     1      -1.818   2.108   2.519  1.00  0.00     0.043 C 
HETATM   24  C22 UNL     1      -0.260   1.855   0.444  1.00  0.00     0.034 C 
HETATM   25  C21 UNL     1       0.201   2.932  -0.501  1.00  0.00     0.010 C 
ENDBRANCH   9  10
ENDBRANCH   8   9
ENDBRANCH   7   8
ENDBRANCH   5   7
ENDBRANCH   4   5
ENDBRANCH   1   4
TORSDOF 6
ENDMDL
MODEL 2
REMARK VINA RESULT: -7.988291796      1.706      3.384
REMARK  6 active torsions:
REMARK  status: ('A' for Active; 'I' for Inactive)
REMARK    1  A    between atoms: C11_11  and  C12_12 
REMARK    2  A    between atoms: C12_12  and  C13_13 
REMARK    3  A    between atoms: C13_13  and  C14_14 
REMARK    4  A    between atoms: C14_14  and  C15_15 
REMARK    5  A    between atoms: C15_15  and  O2_17 
REMARK    6  A    between atoms: O2_17  and  C16_18 
ROOT
HETATM    1  C16 UNL     1       0.261  13.261  -1.038  1.00  0.00     0.302 C 
HETATM    2  C17 UNL     1      -1.044  12.695  -0.755  1.00  0.00     0.085 C 
HETATM    3  N1  UNL     1      -2.097  12.251  -0.547  1.00  0.00    -0.195 NA
ENDROOT
BRANCH   1   4
HETATM    4  O2  UNL     1       0.840  12.543  -2.115  1.00  0.00    -0.307 OA
BRANCH   4   5
HETATM    5  C15 UNL     1       1.757  11.550  -1.821  1.00  0.00     0.259 C 
HETATM    6  O1  UNL     1       2.956  11.821  -1.521  1.00  0.00    -0.265 OA
BRANCH   5   7
HETATM    7  C14 UNL     1       1.311  10.134  -1.866  1.00  0.00     0.111 C 
BRANCH   7   8
HETATM    8  C13 UNL     1       1.108   9.578  -0.463  1.00  0.00     0.010 C 
BRANCH   8   9
HETATM    9  C12 UNL     1       0.861   8.113  -0.580  1.00  0.00     0.005 C 
BRANCH   9  10
HETATM   10  C11 UNL     1       1.689   7.272   0.354  1.00  0.00    -0.014 C 
HETATM   11  C10 UNL     1       2.640   6.465  -0.523  1.00  0.00     0.005 C 
HETATM   12  C9  UNL     1       1.988   5.096  -0.502  1.00  0.00     0.010 C 
HETATM   13  C8  UNL     1       1.670   4.983   0.996  1.00  0.00    -0.040 C 
HETATM   14  C7  UNL     1       0.846   3.781   1.309  1.00  0.00     0.010 C 
HETATM   15  C18 UNL     1       0.892   6.293   1.169  1.00  0.00     0.014 C 
HETATM   16  C19 UNL     1       2.971   5.005   1.716  1.00  0.00     0.015 C 
HETATM   17  C6  UNL     1       1.794   2.588   1.262  1.00  0.00     0.014 C 
HETATM   18  C4  UNL     1       2.677   2.630   2.522  1.00  0.00    -0.022 C 
HETATM   19  C3  UNL     1       3.842   1.744   2.269  1.00  0.00    -0.015 C 
HETATM   20  C5  UNL     1       1.834   1.938   3.589  1.00  0.00     0.020 C 
HETATM   21  C20 UNL     1       3.033   4.022   2.898  1.00  0.00    -0.002 C 
HETATM   22  C2  UNL     1       4.938   1.893   2.997  1.00  0.00    -0.087 C 
HETATM   23  C1  UNL     1       6.086   0.984   2.713  1.00  0.00     0.043 C 
HETATM   24  C22 UNL     1       4.992   2.945   4.038  1.00  0.00     0.034 C 
HETATM   25  C21 UNL     1       4.399   4.213   3.488  1.00  0.00     0.010 C 
ENDBRANCH   9  10
ENDBRANCH   8   9
ENDBRANCH   7   8
ENDBRANCH   5   7
ENDBRANCH   4   5
ENDBRANCH   1   4
TORSDOF 6
ENDMDL
MODEL 3
REMARK VINA RESULT: -7.950219809      0.929      2.525
REMARK  6 active torsions:
REMARK  status: ('A' for Active; 'I' for Inactive)
REMARK    1  A    between atoms: C11_11  and  C12_12 
REMARK    2  A    between atoms: C12_12  and  C13_13 
REMARK    3  A    between atoms: C13_13  and  C14_14 
REMARK    4  A    between atoms: C14_14  and  C15_15 
REMARK    5  A    between atoms: C15_15  and  O2_17 
REMARK    6  A    between atoms: O2_17  and  C16_18 
ROOT
HETATM    1  C16 UNL     1       0.079  13.307  -1.399  1.00  0.00     0.302 C 
HETATM    2  C17 UNL     1      -1.116  12.728  -0.817  1.00  0.00     0.085 C 
HETATM    3  N1  UNL     1      -2.068  12.244  -0.359  1.00  0.00    -0.195 NA
ENDROOT
BRANCH   1   4
HETATM    4  O2  UNL     1       1.205  12.839  -0.676  1.00  0.00    -0.307 OA
BRANCH   4   5
HETATM    5  C15 UNL     1       1.506  11.490  -0.735  1.00  0.00     0.259 C 
HETATM    6  O1  UNL     1       1.309  10.722   0.252  1.00  0.00    -0.265 OA
BRANCH   5   7
HETATM    7  C14 UNL     1       2.079  10.943  -1.990  1.00  0.00     0.111 C 
BRANCH   7   8
HETATM    8  C13 UNL     1       1.236   9.794  -2.524  1.00  0.00     0.010 C 
BRANCH   8   9
HETATM    9  C12 UNL     1       2.139   8.635  -2.769  1.00  0.00     0.005 C 
BRANCH   9  10
HETATM   10  C11 UNL     1       2.369   7.765  -1.562  1.00  0.00    -0.014 C 
HETATM   11  C10 UNL     1       3.381   6.706  -1.982  1.00  0.00     0.005 C 
HETATM   12  C9  UNL     1       2.493   5.491  -2.166  1.00  0.00     0.010 C 
HETATM   13  C8  UNL     1       1.631   5.604  -0.900  1.00  0.00    -0.040 C 
HETATM   14  C7  UNL     1       0.516   4.616  -0.885  1.00  0.00     0.010 C 
HETATM   15  C18 UNL     1       1.140   7.046  -1.081  1.00  0.00     0.014 C 
HETATM   16  C19 UNL     1       2.551   5.468   0.261  1.00  0.00     0.015 C 
HETATM   17  C6  UNL     1       1.139   3.272  -0.527  1.00  0.00     0.014 C 
HETATM   18  C4  UNL     1       1.485   3.291   0.972  1.00  0.00    -0.022 C 
HETATM   19  C3  UNL     1       2.446   2.184   1.213  1.00  0.00    -0.015 C 
HETATM   20  C5  UNL     1       0.183   2.888   1.659  1.00  0.00     0.020 C 
HETATM   21  C20 UNL     1       1.965   4.627   1.409  1.00  0.00    -0.002 C 
HETATM   22  C2  UNL     1       3.204   2.210   2.300  1.00  0.00    -0.087 C 
HETATM   23  C1  UNL     1       4.155   1.081   2.506  1.00  0.00     0.043 C 
HETATM   24  C22 UNL     1       3.092   3.343   3.247  1.00  0.00     0.034 C 
HETATM   25  C21 UNL     1       3.026   4.630   2.469  1.00  0.00     0.010 C 
ENDBRANCH   9  10
ENDBRANCH   8   9
ENDBRANCH   7   8
ENDBRANCH   5   7
ENDBRANCH   4   5
ENDBRANCH   1   4
TORSDOF 6
ENDMDL
MODEL 4
REMARK VINA RESULT: -7.933323495      3.592      4.582
REMARK  6 active torsions:
REMARK  status: ('A' for Active; 'I' for Inactive)
REMARK    1  A    between atoms: C11_11  and  C12_12 
REMARK    2  A    between atoms: C12_12  and  C13_13 
REMARK    3  A    between atoms: C13_13  and  C14_14 
REMARK    4  A    between atoms: C14_14  and  C15_15 
REMARK    5  A    between atoms: C15_15  and  O2_17 
REMARK    6  A    between atoms: O2_17  and  C16_18 
ROOT
HETATM    1  C16 UNL     1       4.478   6.391  -6.215  1.00  0.00     0.302 C 
HETATM    2  C17 UNL     1       5.800   6.975  -6.097  1.00  0.00     0.085 C 
HETATM    3  N1  UNL     1       6.861   7.443  -6.027  1.00  0.00    -0.195 NA
ENDROOT
BRANCH   1   4
HETATM    4  O2  UNL     1       3.580   7.394  -6.661  1.00  0.00    -0.307 OA
BRANCH   4   5
HETATM    5  C15 UNL     1       3.278   8.433  -5.798  1.00  0.00     0.259 C 
HETATM    6  O1  UNL     1       3.429   9.643  -6.137  1.00  0.00    -0.265 OA
BRANCH   5   7
HETATM    7  C14 UNL     1       2.769   8.106  -4.443  1.00  0.00     0.111 C 
BRANCH   7   8
HETATM    8  C13 UNL     1       2.405   9.369  -3.673  1.00  0.00     0.010 C 
BRANCH   8   9
HETATM    9  C12 UNL     1       2.430   9.045  -2.219  1.00  0.00     0.005 C 
BRANCH   9  10
HETATM   10  C11 UNL     1       1.884   7.683  -1.881  1.00  0.00    -0.014 C 
HETATM   11  C10 UNL     1       0.706   7.914  -0.943  1.00  0.00     0.005 C 
HETATM   12  C9  UNL     1       1.306   7.542   0.399  1.00  0.00     0.010 C 
HETATM   13  C8  UNL     1       2.036   6.249   0.008  1.00  0.00    -0.040 C 
HETATM   14  C7  UNL     1       2.888   5.726   1.113  1.00  0.00     0.010 C 
HETATM   15  C18 UNL     1       2.860   6.792  -1.166  1.00  0.00     0.014 C 
HETATM   16  C19 UNL     1       0.995   5.284  -0.436  1.00  0.00     0.015 C 
HETATM   17  C6  UNL     1       1.941   5.072   2.112  1.00  0.00     0.014 C 
HETATM   18  C4  UNL     1       1.456   3.742   1.510  1.00  0.00    -0.022 C 
HETATM   19  C3  UNL     1       0.248   3.332   2.271  1.00  0.00    -0.015 C 
HETATM   20  C5  UNL     1       2.553   2.747   1.876  1.00  0.00     0.020 C 
HETATM   21  C20 UNL     1       1.252   3.844   0.042  1.00  0.00    -0.002 C 
HETATM   22  C2  UNL     1      -0.591   2.460   1.732  1.00  0.00    -0.087 C 
HETATM   23  C1  UNL     1      -1.792   2.074   2.528  1.00  0.00     0.043 C 
HETATM   24  C22 UNL     1      -0.322   1.920   0.380  1.00  0.00     0.034 C 
HETATM   25  C21 UNL     1       0.116   3.043  -0.521  1.00  0.00     0.010 C 
ENDBRANCH   9  10
ENDBRANCH   8   9
ENDBRANCH   7   8
ENDBRANCH   5   7
ENDBRANCH   4   5
ENDBRANCH   1   4
TORSDOF 6
ENDMDL
MODEL 5
REMARK VINA RESULT: -7.865917219      2.103      3.399
REMARK  6 active torsions:
REMARK  status: ('A' for Active; 'I' for Inactive)
REMARK    1  A    between atoms: C11_11  and  C12_12 
REMARK    2  A    between atoms: C12_12  and  C13_13 
REMARK    3  A    between atoms: C13_13  and  C14_14 
REMARK    4  A    between atoms: C14_14  and  C15_15 
REMARK    5  A    between atoms: C15_15  and  O2_17 
REMARK    6  A    between atoms: O2_17  and  C16_18 
ROOT
HETATM    1  C16 UNL     1      -0.892  12.100  -0.191  1.00  0.00     0.302 C 
HETATM    2  C17 UNL     1      -0.299  13.046  -1.116  1.00  0.00     0.085 C 
HETATM    3  N1  UNL     1       0.198  13.796  -1.852  1.00  0.00    -0.195 NA
ENDROOT
BRANCH   1   4
HETATM    4  O2  UNL     1      -0.760  10.797  -0.732  1.00  0.00    -0.307 OA
BRANCH   4   5
HETATM    5  C15 UNL     1       0.226   9.972  -0.220  1.00  0.00     0.259 C 
HETATM    6  O1  UNL     1       1.275  10.441   0.311  1.00  0.00    -0.265 OA
BRANCH   5   7
HETATM    7  C14 UNL     1       0.039   8.501  -0.307  1.00  0.00     0.111 C 
BRANCH   7   8
HETATM    8  C13 UNL     1       1.209   7.761   0.326  1.00  0.00     0.010 C 
BRANCH   8   9
HETATM    9  C12 UNL     1       1.997   7.125  -0.768  1.00  0.00     0.005 C 
BRANCH   9  10
HETATM   10  C11 UNL     1       2.338   5.679  -0.521  1.00  0.00    -0.014 C 
HETATM   11  C10 UNL     1       1.846   4.908  -1.739  1.00  0.00     0.005 C 
HETATM   12  C9  UNL     1       0.582   4.264  -1.203  1.00  0.00     0.010 C 
HETATM   13  C8  UNL     1       1.100   3.766   0.154  1.00  0.00    -0.040 C 
HETATM   14  C7  UNL     1       0.008   3.224   1.011  1.00  0.00     0.010 C 
HETATM   15  C18 UNL     1       1.667   5.088   0.686  1.00  0.00     0.014 C 
HETATM   16  C19 UNL     1       2.169   2.772  -0.132  1.00  0.00     0.015 C 
HETATM   17  C6  UNL     1      -0.327   1.844   0.457  1.00  0.00     0.014 C 
HETATM   18  C4  UNL     1       0.809   0.884   0.851  1.00  0.00    -0.022 C 
HETATM   19  C3  UNL     1       0.694  -0.312  -0.022  1.00  0.00    -0.015 C 
HETATM   20  C5  UNL     1       0.437   0.426   2.259  1.00  0.00     0.020 C 
HETATM   21  C20 UNL     1       2.135   1.552   0.806  1.00  0.00    -0.002 C 
HETATM   22  C2  UNL     1       1.745  -1.103  -0.179  1.00  0.00    -0.087 C 
HETATM   23  C1  UNL     1       1.589  -2.293  -1.063  1.00  0.00     0.043 C 
HETATM   24  C22 UNL     1       3.018  -0.777   0.504  1.00  0.00     0.034 C 
HETATM   25  C21 UNL     1       3.287   0.697   0.368  1.00  0.00     0.010 C 
ENDBRANCH   9  10
ENDBRANCH   8   9
ENDBRANCH   7   8
ENDBRANCH   5   7
ENDBRANCH   4   5
ENDBRANCH   1   4
TORSDOF 6
ENDMDL
