MODEL 1
REMARK VINA RESULT: -9.893947693      0.000      0.000
REMARK  4 active torsions:
REMARK  status: ('A' for Active; 'I' for Inactive)
REMARK    1  A    between atoms: C6_6  and  C7_7 
REMARK    2  A    between atoms: C7_7  and  C8_8 
REMARK    3  A    between atoms: C8_8  and  C9_9 
REMARK    4  A    between atoms: C9_9  and  N1_10 
ROOT
HETATM    1  C7  UNL     1      63.921  47.459  29.377  1.00  0.00    -0.035 C 
HETATM    2  C15 UNL     1      64.254  46.903  28.040  1.00  0.00     0.010 C 
HETATM    3  C16 UNL     1      63.947  47.928  27.011  1.00  0.00     0.001 C 
HETATM    4  C17 UNL     1      63.988  49.245  27.756  1.00  0.00     0.001 C 
HETATM    5  C18 UNL     1      64.351  48.932  29.167  1.00  0.00     0.010 C 
ENDROOT
BRANCH   1   6
HETATM    6  C6  UNL     1      64.897  46.942  30.382  1.00  0.00    -0.006 C 
HETATM    7  C5  UNL     1      66.260  46.602  29.833  1.00  0.00     0.006 C 
HETATM    8  C4  UNL     1      66.836  45.588  30.835  1.00  0.00     0.009 C 
HETATM    9  C2  UNL     1      66.864  46.159  32.227  1.00  0.00    -0.048 C 
HETATM   10  C1  UNL     1      67.956  47.185  32.302  1.00  0.00     0.015 C 
HETATM   11  C3  UNL     1      67.247  45.024  33.163  1.00  0.00     0.015 C 
HETATM   12  C20 UNL     1      65.530  46.667  32.697  1.00  0.00     0.009 C 
HETATM   13  C19 UNL     1      65.075  47.700  31.640  1.00  0.00     0.006 C 
ENDBRANCH   1   6
BRANCH   1  14
HETATM   14  C8  UNL     1      62.515  47.529  29.769  1.00  0.00     0.040 C 
BRANCH  14  15
HETATM   15  C9  UNL     1      61.532  46.550  29.279  1.00  0.00     0.273 C 
BRANCH  15  16
HETATM   16  N1  UNL     1      60.159  46.882  29.468  1.00  0.00     0.088 N 
HETATM   17  C10 UNL     1      59.527  45.973  30.395  1.00  0.00     0.272 C 
HETATM   18  C11 UNL     1      58.073  46.155  30.588  1.00  0.00     0.030 C 
HETATM   19  C12 UNL     1      57.300  46.676  29.415  1.00  0.00     0.003 C 
HETATM   20  C13 UNL     1      58.110  47.578  28.514  1.00  0.00     0.030 C 
HETATM   21  C14 UNL     1      59.409  46.850  28.235  1.00  0.00     0.272 C 
ENDBRANCH  15  16
ENDBRANCH  14  15
ENDBRANCH   1  14
TORSDOF 4
ENDMDL
MODEL 2
REMARK VINA RESULT: -9.575166288      0.447      1.353
REMARK  4 active torsions:
REMARK  status: ('A' for Active; 'I' for Inactive)
REMARK    1  A    between atoms: C6_6  and  C7_7 
REMARK    2  A    between atoms: C7_7  and  C8_8 
REMARK    3  A    between atoms: C8_8  and  C9_9 
REMARK    4  A    between atoms: C9_9  and  N1_10 
ROOT
HETATM    1  C7  UNL     1      64.009  47.602  29.318  1.00  0.00    -0.035 C 
HETATM    2  C15 UNL     1      64.304  46.936  28.023  1.00  0.00     0.010 C 
HETATM    3  C16 UNL     1      63.849  47.820  26.921  1.00  0.00     0.001 C 
HETATM    4  C17 UNL     1      63.823  49.207  27.527  1.00  0.00     0.001 C 
HETATM    5  C18 UNL     1      64.299  49.074  28.933  1.00  0.00     0.010 C 
ENDROOT
BRANCH   1   6
HETATM    6  C6  UNL     1      65.085  47.272  30.298  1.00  0.00    -0.006 C 
HETATM    7  C5  UNL     1      64.637  47.189  31.736  1.00  0.00     0.006 C 
HETATM    8  C4  UNL     1      65.914  47.442  32.553  1.00  0.00     0.009 C 
HETATM    9  C2  UNL     1      66.991  46.455  32.192  1.00  0.00    -0.048 C 
HETATM   10  C1  UNL     1      66.626  45.117  32.765  1.00  0.00     0.015 C 
HETATM   11  C3  UNL     1      68.262  46.912  32.890  1.00  0.00     0.015 C 
HETATM   12  C20 UNL     1      67.304  46.414  30.723  1.00  0.00     0.009 C 
HETATM   13  C19 UNL     1      65.962  46.114  30.014  1.00  0.00     0.006 C 
ENDBRANCH   1   6
BRANCH   1  14
HETATM   14  C8  UNL     1      62.629  47.603  29.799  1.00  0.00     0.040 C 
BRANCH  14  15
HETATM   15  C9  UNL     1      61.664  46.580  29.364  1.00  0.00     0.273 C 
BRANCH  15  16
HETATM   16  N1  UNL     1      60.285  46.901  29.525  1.00  0.00     0.088 N 
HETATM   17  C10 UNL     1      59.640  45.979  30.430  1.00  0.00     0.272 C 
HETATM   18  C11 UNL     1      58.181  46.149  30.593  1.00  0.00     0.030 C 
HETATM   19  C12 UNL     1      57.430  46.676  29.409  1.00  0.00     0.003 C 
HETATM   20  C13 UNL     1      58.253  47.592  28.534  1.00  0.00     0.030 C 
HETATM   21  C14 UNL     1      59.562  46.875  28.276  1.00  0.00     0.272 C 
ENDBRANCH  15  16
ENDBRANCH  14  15
ENDBRANCH   1  14
TORSDOF 4
ENDMDL
MODEL 3
REMARK VINA RESULT: -9.469720831      0.486      1.194
REMARK  4 active torsions:
REMARK  status: ('A' for Active; 'I' for Inactive)
REMARK    1  A    between atoms: C6_6  and  C7_7 
REMARK    2  A    between atoms: C7_7  and  C8_8 
REMARK    3  A    between atoms: C8_8  and  C9_9 
REMARK    4  A    between atoms: C9_9  and  N1_10 
ROOT
HETATM    1  C7  UNL     1      64.139  47.480  29.416  1.00  0.00    -0.035 C 
HETATM    2  C15 UNL     1      64.591  47.020  28.078  1.00  0.00     0.010 C 
HETATM    3  C16 UNL     1      64.305  48.090  27.088  1.00  0.00     0.001 C 
HETATM    4  C17 UNL     1      64.229  49.360  27.907  1.00  0.00     0.001 C 
HETATM    5  C18 UNL     1      64.509  48.981  29.321  1.00  0.00     0.010 C 
ENDROOT
BRANCH   1   6
HETATM    6  C6  UNL     1      65.067  46.949  30.458  1.00  0.00    -0.006 C 
HETATM    7  C5  UNL     1      66.475  46.683  29.985  1.00  0.00     0.006 C 
HETATM    8  C4  UNL     1      67.023  45.642  30.974  1.00  0.00     0.009 C 
HETATM    9  C2  UNL     1      66.940  46.147  32.390  1.00  0.00    -0.048 C 
HETATM   10  C1  UNL     1      67.986  47.205  32.583  1.00  0.00     0.015 C 
HETATM   11  C3  UNL     1      67.305  44.982  33.296  1.00  0.00     0.015 C 
HETATM   12  C20 UNL     1      65.561  46.585  32.795  1.00  0.00     0.009 C 
HETATM   13  C19 UNL     1      65.136  47.651  31.758  1.00  0.00     0.006 C 
ENDBRANCH   1   6
BRANCH   1  14
HETATM   14  C8  UNL     1      62.707  47.462  29.709  1.00  0.00     0.040 C 
BRANCH  14  15
HETATM   15  C9  UNL     1      61.727  46.987  28.719  1.00  0.00     0.273 C 
BRANCH  15  16
HETATM   16  N1  UNL     1      60.539  46.397  29.238  1.00  0.00     0.088 N 
HETATM   17  C10 UNL     1      59.362  46.997  28.654  1.00  0.00     0.272 C 
HETATM   18  C11 UNL     1      58.066  46.537  29.195  1.00  0.00     0.030 C 
HETATM   19  C12 UNL     1      58.050  46.119  30.634  1.00  0.00     0.003 C 
HETATM   20  C13 UNL     1      59.367  45.551  31.110  1.00  0.00     0.030 C 
HETATM   21  C14 UNL     1      60.438  46.529  30.672  1.00  0.00     0.272 C 
ENDBRANCH  15  16
ENDBRANCH  14  15
ENDBRANCH   1  14
TORSDOF 4
ENDMDL
MODEL 4
REMARK VINA RESULT: -8.787975169      3.162      5.598
REMARK  4 active torsions:
REMARK  status: ('A' for Active; 'I' for Inactive)
REMARK    1  A    between atoms: C6_6  and  C7_7 
REMARK    2  A    between atoms: C7_7  and  C8_8 
REMARK    3  A    between atoms: C8_8  and  C9_9 
REMARK    4  A    between atoms: C9_9  and  N1_10 
ROOT
HETATM    1  C7  UNL     1      66.263  46.254  32.705  1.00  0.00    -0.035 C 
HETATM    2  C15 UNL     1      66.418  45.049  33.559  1.00  0.00     0.010 C 
HETATM    3  C16 UNL     1      67.800  44.528  33.397  1.00  0.00     0.001 C 
HETATM    4  C17 UNL     1      68.605  45.718  32.921  1.00  0.00     0.001 C 
HETATM    5  C18 UNL     1      67.672  46.878  32.865  1.00  0.00     0.010 C 
ENDROOT
BRANCH   1   6
HETATM    6  C6  UNL     1      65.362  47.228  33.387  1.00  0.00    -0.006 C 
HETATM    7  C5  UNL     1      66.038  48.479  33.892  1.00  0.00     0.006 C 
HETATM    8  C4  UNL     1      65.116  48.989  35.012  1.00  0.00     0.009 C 
HETATM    9  C2  UNL     1      63.718  49.215  34.501  1.00  0.00    -0.048 C 
HETATM   10  C1  UNL     1      63.716  50.443  33.639  1.00  0.00     0.015 C 
HETATM   11  C3  UNL     1      62.848  49.513  35.711  1.00  0.00     0.015 C 
HETATM   12  C20 UNL     1      63.119  48.010  33.831  1.00  0.00     0.009 C 
HETATM   13  C19 UNL     1      64.106  47.617  32.708  1.00  0.00     0.006 C 
ENDBRANCH   1   6
BRANCH   1  14
HETATM   14  C8  UNL     1      66.096  46.066  31.264  1.00  0.00     0.040 C 
BRANCH  14  15
HETATM   15  C9  UNL     1      66.565  47.074  30.300  1.00  0.00     0.273 C 
BRANCH  15  16
HETATM   16  N1  UNL     1      65.740  47.289  29.158  1.00  0.00     0.088 N 
HETATM   17  C10 UNL     1      64.922  48.467  29.322  1.00  0.00     0.272 C 
HETATM   18  C11 UNL     1      63.947  48.731  28.244  1.00  0.00     0.030 C 
HETATM   19  C12 UNL     1      63.392  47.535  27.532  1.00  0.00     0.003 C 
HETATM   20  C13 UNL     1      64.351  46.369  27.481  1.00  0.00     0.030 C 
HETATM   21  C14 UNL     1      64.863  46.174  28.893  1.00  0.00     0.272 C 
ENDBRANCH  15  16
ENDBRANCH  14  15
ENDBRANCH   1  14
TORSDOF 4
ENDMDL
MODEL 5
REMARK VINA RESULT: -8.654632734      1.210      2.053
REMARK  4 active torsions:
REMARK  status: ('A' for Active; 'I' for Inactive)
REMARK    1  A    between atoms: C6_6  and  C7_7 
REMARK    2  A    between atoms: C7_7  and  C8_8 
REMARK    3  A    between atoms: C8_8  and  C9_9 
REMARK    4  A    between atoms: C9_9  and  N1_10 
ROOT
HETATM    1  C7  UNL     1      63.712  47.710  29.632  1.00  0.00    -0.035 C 
HETATM    2  C15 UNL     1      64.374  46.552  28.979  1.00  0.00     0.010 C 
HETATM    3  C16 UNL     1      64.529  46.849  27.532  1.00  0.00     0.001 C 
HETATM    4  C17 UNL     1      64.495  48.360  27.445  1.00  0.00     0.001 C 
HETATM    5  C18 UNL     1      64.360  48.871  28.838  1.00  0.00     0.010 C 
ENDROOT
BRANCH   1   6
HETATM    6  C6  UNL     1      64.256  47.875  31.012  1.00  0.00    -0.006 C 
HETATM    7  C5  UNL     1      63.241  47.744  32.120  1.00  0.00     0.006 C 
HETATM    8  C4  UNL     1      63.858  48.511  33.301  1.00  0.00     0.009 C 
HETATM    9  C2  UNL     1      65.216  47.963  33.650  1.00  0.00    -0.048 C 
HETATM   10  C1  UNL     1      65.038  46.633  34.322  1.00  0.00     0.015 C 
HETATM   11  C3  UNL     1      65.823  48.907  34.675  1.00  0.00     0.015 C 
HETATM   12  C20 UNL     1      66.169  47.926  32.489  1.00  0.00     0.009 C 
HETATM   13  C19 UNL     1      65.460  47.102  31.388  1.00  0.00     0.006 C 
ENDBRANCH   1   6
BRANCH   1  14
HETATM   14  C8  UNL     1      62.272  47.883  29.444  1.00  0.00     0.040 C 
BRANCH  14  15
HETATM   15  C9  UNL     1      61.378  46.729  29.265  1.00  0.00     0.273 C 
BRANCH  15  16
HETATM   16  N1  UNL     1      59.989  46.966  29.474  1.00  0.00     0.088 N 
HETATM   17  C10 UNL     1      59.438  46.024  30.420  1.00  0.00     0.272 C 
HETATM   18  C11 UNL     1      57.978  46.105  30.637  1.00  0.00     0.030 C 
HETATM   19  C12 UNL     1      57.151  46.559  29.473  1.00  0.00     0.003 C 
HETATM   20  C13 UNL     1      57.880  47.506  28.550  1.00  0.00     0.030 C 
HETATM   21  C14 UNL     1      59.222  46.868  28.255  1.00  0.00     0.272 C 
ENDBRANCH  15  16
ENDBRANCH  14  15
ENDBRANCH   1  14
TORSDOF 4
ENDMDL
