MODEL 1
REMARK VINA RESULT: -8.294377335      0.000      0.000
REMARK  7 active torsions:
REMARK  status: ('A' for Active; 'I' for Inactive)
REMARK    1  A    between atoms: C2_2  and  C3_3 
REMARK    2  A    between atoms: C3_3  and  C4_4 
REMARK    3  A    between atoms: C4_4  and  C5_5 
REMARK    4  A    between atoms: C4_4  and  C12_15 
REMARK    5  A    between atoms: C6_6  and  C7_7 
REMARK    6  A    between atoms: C7_7  and  N1_8 
REMARK    7  A    between atoms: N1_8  and  C8_11 
ROOT
HETATM    1  C4  UNL     1      64.944  47.829  33.485  1.00  0.00     0.077 C 
ENDROOT
BRANCH   1   2
HETATM    2  C3  UNL     1      65.231  49.002  34.329  1.00  0.00     0.044 C 
BRANCH   2   3
HETATM    3  C2  UNL     1      64.362  49.351  35.440  1.00  0.00    -0.036 C 
HETATM    4  C1  UNL     1      63.047  49.255  35.274  1.00  0.00     0.007 C 
ENDBRANCH   2   3
ENDBRANCH   1   2
BRANCH   1   5
HETATM    5  C5  UNL     1      64.318  48.268  32.187  1.00  0.00    -0.099 C 
HETATM    6  C6  UNL     1      63.816  48.595  31.134  1.00  0.00    -0.079 C 
BRANCH   6   7
HETATM    7  C7  UNL     1      63.238  48.989  29.852  1.00  0.00     0.326 C 
BRANCH   7   8
HETATM    8  N1  UNL     1      63.112  47.871  28.939  1.00  0.00    -0.057 N 
ATOM      9  H12 UNL     1      63.478  47.014  29.354  1.00  0.00     0.279 HD
ATOM     10  H11 UNL     1      62.138  47.594  28.827  1.00  0.00     0.279 HD
BRANCH   8  11
HETATM   11  C8  UNL     1      63.728  48.138  27.662  1.00  0.00     0.116 C 
HETATM   12  C9  UNL     1      65.022  48.907  27.811  1.00  0.00     0.045 C 
HETATM   13  C10 UNL     1      62.776  48.882  26.774  1.00  0.00     0.045 C 
HETATM   14  C11 UNL     1      64.061  46.801  27.034  1.00  0.00     0.045 C 
ENDBRANCH   8  11
ENDBRANCH   7   8
ENDBRANCH   6   7
ENDBRANCH   1   5
BRANCH   1  15
HETATM   15  C12 UNL     1      65.976  46.839  33.143  1.00  0.00    -0.025 C 
HETATM   16  C13 UNL     1      67.223  47.613  32.631  1.00  0.00     0.015 C 
HETATM   17  C14 UNL     1      68.308  46.683  32.217  1.00  0.00    -0.013 C 
HETATM   18  C15 UNL     1      68.716  45.767  33.322  1.00  0.00     0.009 C 
HETATM   19  C19 UNL     1      67.844  45.866  31.030  1.00  0.00     0.009 C 
HETATM   20  C16 UNL     1      67.488  44.996  33.752  1.00  0.00    -0.013 C 
HETATM   21  C17 UNL     1      67.020  44.135  32.604  1.00  0.00     0.009 C 
HETATM   22  C21 UNL     1      66.394  45.931  34.238  1.00  0.00     0.015 C 
HETATM   23  C18 UNL     1      66.658  45.075  31.461  1.00  0.00    -0.013 C 
HETATM   24  C20 UNL     1      65.568  46.023  31.937  1.00  0.00     0.015 C 
ENDBRANCH   1  15
TORSDOF 7
ENDMDL
MODEL 2
REMARK VINA RESULT: -8.046167741      0.140      1.511
REMARK  7 active torsions:
REMARK  status: ('A' for Active; 'I' for Inactive)
REMARK    1  A    between atoms: C2_2  and  C3_3 
REMARK    2  A    between atoms: C3_3  and  C4_4 
REMARK    3  A    between atoms: C4_4  and  C5_5 
REMARK    4  A    between atoms: C4_4  and  C12_15 
REMARK    5  A    between atoms: C6_6  and  C7_7 
REMARK    6  A    between atoms: C7_7  and  N1_8 
REMARK    7  A    between atoms: N1_8  and  C8_11 
ROOT
HETATM    1  C4  UNL     1      64.980  47.856  33.420  1.00  0.00     0.077 C 
ENDROOT
BRANCH   1   2
HETATM    2  C3  UNL     1      65.187  49.037  34.277  1.00  0.00     0.044 C 
BRANCH   2   3
HETATM    3  C2  UNL     1      64.346  49.272  35.438  1.00  0.00    -0.036 C 
HETATM    4  C1  UNL     1      63.029  49.314  35.272  1.00  0.00     0.007 C 
ENDBRANCH   2   3
ENDBRANCH   1   2
BRANCH   1   5
HETATM    5  C5  UNL     1      64.290  48.260  32.143  1.00  0.00    -0.099 C 
HETATM    6  C6  UNL     1      63.751  48.568  31.103  1.00  0.00    -0.079 C 
BRANCH   6   7
HETATM    7  C7  UNL     1      63.124  48.955  29.842  1.00  0.00     0.326 C 
BRANCH   7   8
HETATM    8  N1  UNL     1      63.034  47.849  28.911  1.00  0.00    -0.057 N 
ATOM      9  H12 UNL     1      63.392  46.988  29.325  1.00  0.00     0.279 HD
ATOM     10  H11 UNL     1      62.066  47.568  28.765  1.00  0.00     0.279 HD
BRANCH   8  11
HETATM   11  C8  UNL     1      63.688  48.137  27.657  1.00  0.00     0.116 C 
HETATM   12  C9  UNL     1      64.939  48.966  27.852  1.00  0.00     0.045 C 
HETATM   13  C10 UNL     1      62.739  48.831  26.726  1.00  0.00     0.045 C 
HETATM   14  C11 UNL     1      64.108  46.813  27.054  1.00  0.00     0.045 C 
ENDBRANCH   8  11
ENDBRANCH   7   8
ENDBRANCH   6   7
ENDBRANCH   1   5
BRANCH   1  15
HETATM   15  C12 UNL     1      66.083  46.961  33.040  1.00  0.00    -0.025 C 
HETATM   16  C13 UNL     1      65.625  46.148  31.796  1.00  0.00     0.015 C 
HETATM   17  C14 UNL     1      66.667  45.178  31.367  1.00  0.00    -0.013 C 
HETATM   18  C15 UNL     1      67.968  45.845  31.068  1.00  0.00     0.009 C 
HETATM   19  C19 UNL     1      66.870  44.143  32.454  1.00  0.00     0.009 C 
HETATM   20  C16 UNL     1      68.404  46.577  32.318  1.00  0.00    -0.013 C 
HETATM   21  C17 UNL     1      68.656  45.572  33.415  1.00  0.00     0.009 C 
HETATM   22  C21 UNL     1      67.376  47.617  32.732  1.00  0.00     0.015 C 
HETATM   23  C18 UNL     1      67.336  44.857  33.675  1.00  0.00    -0.013 C 
HETATM   24  C20 UNL     1      66.295  45.887  34.083  1.00  0.00     0.015 C 
ENDBRANCH   1  15
TORSDOF 7
ENDMDL
MODEL 3
REMARK VINA RESULT: -7.979935010      3.078      6.474
REMARK  7 active torsions:
REMARK  status: ('A' for Active; 'I' for Inactive)
REMARK    1  A    between atoms: C2_2  and  C3_3 
REMARK    2  A    between atoms: C3_3  and  C4_4 
REMARK    3  A    between atoms: C4_4  and  C5_5 
REMARK    4  A    between atoms: C4_4  and  C12_15 
REMARK    5  A    between atoms: C6_6  and  C7_7 
REMARK    6  A    between atoms: C7_7  and  N1_8 
REMARK    7  A    between atoms: N1_8  and  C8_11 
ROOT
HETATM    1  C4  UNL     1      61.203  47.185  29.957  1.00  0.00     0.077 C 
ENDROOT
BRANCH   1   2
HETATM    2  C3  UNL     1      60.368  45.999  29.698  1.00  0.00     0.044 C 
BRANCH   2   3
HETATM    3  C2  UNL     1      58.949  46.134  29.416  1.00  0.00    -0.036 C 
HETATM    4  C1  UNL     1      58.571  46.915  28.410  1.00  0.00     0.007 C 
ENDBRANCH   2   3
ENDBRANCH   1   2
BRANCH   1   5
HETATM    5  C5  UNL     1      61.701  47.166  31.378  1.00  0.00    -0.099 C 
HETATM    6  C6  UNL     1      62.105  47.177  32.520  1.00  0.00    -0.079 C 
BRANCH   6   7
HETATM    7  C7  UNL     1      62.617  47.195  33.888  1.00  0.00     0.326 C 
BRANCH   7   8
HETATM    8  N1  UNL     1      64.012  47.582  33.946  1.00  0.00    -0.057 N 
ATOM      9  H12 UNL     1      64.555  46.923  34.505  1.00  0.00     0.279 HD
ATOM     10  H11 UNL     1      64.470  47.446  33.045  1.00  0.00     0.279 HD
BRANCH   8  11
HETATM   11  C8  UNL     1      64.185  48.934  34.419  1.00  0.00     0.116 C 
HETATM   12  C9  UNL     1      65.508  49.117  35.129  1.00  0.00     0.045 C 
HETATM   13  C10 UNL     1      63.049  49.314  35.322  1.00  0.00     0.045 C 
HETATM   14  C11 UNL     1      64.188  49.840  33.206  1.00  0.00     0.045 C 
ENDBRANCH   8  11
ENDBRANCH   7   8
ENDBRANCH   6   7
ENDBRANCH   1   5
BRANCH   1  15
HETATM   15  C12 UNL     1      62.353  47.533  29.109  1.00  0.00    -0.025 C 
HETATM   16  C13 UNL     1      63.283  46.288  29.040  1.00  0.00     0.015 C 
HETATM   17  C14 UNL     1      64.503  46.565  28.236  1.00  0.00    -0.013 C 
HETATM   18  C15 UNL     1      64.174  47.013  26.851  1.00  0.00     0.009 C 
HETATM   19  C19 UNL     1      65.330  47.629  28.926  1.00  0.00     0.009 C 
HETATM   20  C16 UNL     1      63.317  48.253  26.963  1.00  0.00    -0.013 C 
HETATM   21  C17 UNL     1      64.123  49.352  27.611  1.00  0.00     0.009 C 
HETATM   22  C21 UNL     1      62.036  47.969  27.729  1.00  0.00     0.015 C 
HETATM   23  C18 UNL     1      64.502  48.865  29.004  1.00  0.00    -0.013 C 
HETATM   24  C20 UNL     1      63.228  48.568  29.779  1.00  0.00     0.015 C 
ENDBRANCH   1  15
TORSDOF 7
ENDMDL
MODEL 4
REMARK VINA RESULT: -7.929237000      3.132      6.351
REMARK  7 active torsions:
REMARK  status: ('A' for Active; 'I' for Inactive)
REMARK    1  A    between atoms: C2_2  and  C3_3 
REMARK    2  A    between atoms: C3_3  and  C4_4 
REMARK    3  A    between atoms: C4_4  and  C5_5 
REMARK    4  A    between atoms: C4_4  and  C12_15 
REMARK    5  A    between atoms: C6_6  and  C7_7 
REMARK    6  A    between atoms: C7_7  and  N1_8 
REMARK    7  A    between atoms: N1_8  and  C8_11 
ROOT
HETATM    1  C4  UNL     1      61.233  47.121  30.017  1.00  0.00     0.077 C 
ENDROOT
BRANCH   1   2
HETATM    2  C3  UNL     1      60.340  45.970  29.799  1.00  0.00     0.044 C 
BRANCH   2   3
HETATM    3  C2  UNL     1      58.928  46.165  29.520  1.00  0.00    -0.036 C 
HETATM    4  C1  UNL     1      58.582  46.929  28.489  1.00  0.00     0.007 C 
ENDBRANCH   2   3
ENDBRANCH   1   2
BRANCH   1   5
HETATM    5  C5  UNL     1      61.709  47.142  31.446  1.00  0.00    -0.099 C 
HETATM    6  C6  UNL     1      62.090  47.186  32.596  1.00  0.00    -0.079 C 
BRANCH   6   7
HETATM    7  C7  UNL     1      62.576  47.247  33.972  1.00  0.00     0.326 C 
BRANCH   7   8
HETATM    8  N1  UNL     1      63.984  47.577  34.042  1.00  0.00    -0.057 N 
ATOM      9  H12 UNL     1      64.482  46.939  34.664  1.00  0.00     0.279 HD
ATOM     10  H11 UNL     1      64.460  47.354  33.168  1.00  0.00     0.279 HD
BRANCH   8  11
HETATM   11  C8  UNL     1      64.205  48.952  34.419  1.00  0.00     0.116 C 
HETATM   12  C9  UNL     1      64.161  49.877  33.224  1.00  0.00     0.045 C 
HETATM   13  C10 UNL     1      65.514  49.087  35.139  1.00  0.00     0.045 C 
HETATM   14  C11 UNL     1      63.078  49.351  35.347  1.00  0.00     0.045 C 
ENDBRANCH   8  11
ENDBRANCH   7   8
ENDBRANCH   6   7
ENDBRANCH   1   5
BRANCH   1  15
HETATM   15  C12 UNL     1      62.413  47.368  29.175  1.00  0.00    -0.025 C 
HETATM   16  C13 UNL     1      63.198  48.556  29.798  1.00  0.00     0.015 C 
HETATM   17  C14 UNL     1      64.391  48.908  28.981  1.00  0.00    -0.013 C 
HETATM   18  C15 UNL     1      65.312  47.748  28.803  1.00  0.00     0.009 C 
HETATM   19  C19 UNL     1      63.942  49.409  27.625  1.00  0.00     0.009 C 
HETATM   20  C16 UNL     1      64.524  46.637  28.145  1.00  0.00    -0.013 C 
HETATM   21  C17 UNL     1      64.094  47.085  26.770  1.00  0.00     0.009 C 
HETATM   22  C21 UNL     1      63.338  46.224  29.000  1.00  0.00     0.015 C 
HETATM   23  C18 UNL     1      63.199  48.303  26.959  1.00  0.00    -0.013 C 
HETATM   24  C20 UNL     1      62.011  47.906  27.820  1.00  0.00     0.015 C 
ENDBRANCH   1  15
TORSDOF 7
ENDMDL
MODEL 5
REMARK VINA RESULT: -7.893237412      3.188      6.407
REMARK  7 active torsions:
REMARK  status: ('A' for Active; 'I' for Inactive)
REMARK    1  A    between atoms: C2_2  and  C3_3 
REMARK    2  A    between atoms: C3_3  and  C4_4 
REMARK    3  A    between atoms: C4_4  and  C5_5 
REMARK    4  A    between atoms: C4_4  and  C12_15 
REMARK    5  A    between atoms: C6_6  and  C7_7 
REMARK    6  A    between atoms: C7_7  and  N1_8 
REMARK    7  A    between atoms: N1_8  and  C8_11 
ROOT
HETATM    1  C4  UNL     1      61.278  47.169  30.084  1.00  0.00     0.077 C 
ENDROOT
BRANCH   1   2
HETATM    2  C3  UNL     1      60.479  45.963  29.805  1.00  0.00     0.044 C 
BRANCH   2   3
HETATM    3  C2  UNL     1      59.039  46.047  29.628  1.00  0.00    -0.036 C 
HETATM    4  C1  UNL     1      58.563  46.734  28.595  1.00  0.00     0.007 C 
ENDBRANCH   2   3
ENDBRANCH   1   2
BRANCH   1   5
HETATM    5  C5  UNL     1      61.722  47.171  31.524  1.00  0.00    -0.099 C 
HETATM    6  C6  UNL     1      62.089  47.198  32.678  1.00  0.00    -0.079 C 
BRANCH   6   7
HETATM    7  C7  UNL     1      62.559  47.227  34.060  1.00  0.00     0.326 C 
BRANCH   7   8
HETATM    8  N1  UNL     1      63.965  47.566  34.156  1.00  0.00    -0.057 N 
ATOM      9  H12 UNL     1      64.455  46.932  34.787  1.00  0.00     0.279 HD
ATOM     10  H11 UNL     1      64.457  47.345  33.291  1.00  0.00     0.279 HD
BRANCH   8  11
HETATM   11  C8  UNL     1      64.169  48.942  34.535  1.00  0.00     0.116 C 
HETATM   12  C9  UNL     1      65.499  49.143  35.228  1.00  0.00     0.045 C 
HETATM   13  C10 UNL     1      63.045  49.410  35.412  1.00  0.00     0.045 C 
HETATM   14  C11 UNL     1      64.189  49.763  33.263  1.00  0.00     0.045 C 
ENDBRANCH   8  11
ENDBRANCH   7   8
ENDBRANCH   6   7
ENDBRANCH   1   5
BRANCH   1  15
HETATM   15  C12 UNL     1      62.451  47.536  29.278  1.00  0.00    -0.025 C 
HETATM   16  C13 UNL     1      61.949  47.913  27.856  1.00  0.00     0.015 C 
HETATM   17  C14 UNL     1      63.080  48.255  26.953  1.00  0.00    -0.013 C 
HETATM   18  C15 UNL     1      63.913  49.369  27.493  1.00  0.00     0.009 C 
HETATM   19  C19 UNL     1      63.948  47.032  26.746  1.00  0.00     0.009 C 
HETATM   20  C16 UNL     1      64.425  48.940  28.850  1.00  0.00    -0.013 C 
HETATM   21  C17 UNL     1      65.330  47.745  28.679  1.00  0.00     0.009 C 
HETATM   22  C21 UNL     1      63.279  48.648  29.803  1.00  0.00     0.015 C 
HETATM   23  C18 UNL     1      64.485  46.630  28.076  1.00  0.00    -0.013 C 
HETATM   24  C20 UNL     1      63.328  46.332  29.016  1.00  0.00     0.015 C 
ENDBRANCH   1  15
TORSDOF 7
ENDMDL
