MODEL 1
REMARK VINA RESULT: -8.625925304      0.000      0.000
REMARK  4 active torsions:
REMARK  status: ('A' for Active; 'I' for Inactive)
REMARK    1  A    between atoms: C10_10  and  C11_11 
REMARK    2  A    between atoms: C11_11  and  C13_13 
REMARK    3  A    between atoms: C13_13  and  C14_14 
REMARK    4  A    between atoms: C20_20  and  N1_21 
ROOT
HETATM    1  C1  UNL     1       3.336  20.169  -6.083  1.00  0.00     0.010 C 
HETATM    2  C2  UNL     1       2.150  20.715  -5.390  1.00  0.00    -0.014 C 
HETATM    3  C3  UNL     1       1.879  22.114  -5.967  1.00  0.00     0.005 C 
HETATM    4  C4  UNL     1       0.587  22.003  -6.761  1.00  0.00     0.005 C 
HETATM    5  C5  UNL     1       0.505  20.484  -7.023  1.00  0.00    -0.010 C 
HETATM    6  C6  UNL     1      -0.849  20.045  -7.407  1.00  0.00     0.006 C 
HETATM    7  C7  UNL     1      -1.333  18.785  -6.663  1.00  0.00     0.010 C 
HETATM    8  C8  UNL     1      -0.172  17.912  -6.411  1.00  0.00    -0.036 C 
HETATM    9  C9  UNL     1       0.596  17.764  -7.701  1.00  0.00     0.016 C 
HETATM   10  C10 UNL     1      -0.310  16.600  -5.800  1.00  0.00    -0.002 C 
HETATM   11  C21 UNL     1       0.957  16.435  -4.932  1.00  0.00     0.006 C 
HETATM   12  C22 UNL     1       1.760  17.713  -5.125  1.00  0.00     0.006 C 
HETATM   13  C23 UNL     1       0.652  18.663  -5.345  1.00  0.00    -0.001 C 
HETATM   14  C24 UNL     1       0.852  20.051  -5.589  1.00  0.00    -0.002 C 
ENDROOT
BRANCH  10  15
HETATM   15  C11 UNL     1      -1.522  16.145  -5.124  1.00  0.00    -0.010 C 
HETATM   16  C12 UNL     1      -1.602  14.591  -5.206  1.00  0.00     0.010 C 
BRANCH  15  17
HETATM   17  C13 UNL     1      -1.648  16.386  -3.631  1.00  0.00     0.032 C 
BRANCH  17  18
HETATM   18  C14 UNL     1      -2.341  17.718  -3.531  1.00  0.00    -0.022 C 
HETATM   19  C15 UNL     1      -2.943  18.291  -2.565  1.00  0.00    -0.054 C 
HETATM   20  C16 UNL     1      -3.549  19.673  -2.827  1.00  0.00     0.036 C 
HETATM   21  C20 UNL     1      -3.132  17.832  -1.200  1.00  0.00     0.212 C 
HETATM   22  C17 UNL     1      -5.041  19.449  -2.605  1.00  0.00     0.004 C 
HETATM   23  C18 UNL     1      -5.351  18.821  -1.287  1.00  0.00     0.003 C 
HETATM   24  C19 UNL     1      -4.637  17.519  -1.064  1.00  0.00     0.037 C 
BRANCH  21  25
HETATM   25  N1  UNL     1      -2.359  16.751  -0.710  1.00  0.00    -0.071 N 
ATOM     26  H13 UNL     1      -2.171  16.112  -1.482  1.00  0.00     0.275 HD
ATOM     27  H12 UNL     1      -1.422  17.092  -0.496  1.00  0.00     0.275 HD
ATOM     28  H11 UNL     1      -2.697  16.209   0.085  1.00  0.00     0.275 HD
ENDBRANCH  21  25
ENDBRANCH  17  18
ENDBRANCH  15  17
ENDBRANCH  10  15
TORSDOF 4
ENDMDL
MODEL 2
REMARK VINA RESULT: -8.157370621      2.022      3.336
REMARK  4 active torsions:
REMARK  status: ('A' for Active; 'I' for Inactive)
REMARK    1  A    between atoms: C10_10  and  C11_11 
REMARK    2  A    between atoms: C11_11  and  C13_13 
REMARK    3  A    between atoms: C13_13  and  C14_14 
REMARK    4  A    between atoms: C20_20  and  N1_21 
ROOT
HETATM    1  C1  UNL     1       2.121  21.339  -5.721  1.00  0.00     0.010 C 
HETATM    2  C2  UNL     1       0.783  21.650  -6.267  1.00  0.00    -0.014 C 
HETATM    3  C3  UNL     1       0.894  21.643  -7.800  1.00  0.00     0.005 C 
HETATM    4  C4  UNL     1       0.118  20.427  -8.278  1.00  0.00     0.005 C 
HETATM    5  C5  UNL     1       0.078  19.555  -7.004  1.00  0.00    -0.010 C 
HETATM    6  C6  UNL     1      -0.964  18.514  -7.058  1.00  0.00     0.006 C 
HETATM    7  C7  UNL     1      -1.811  18.408  -5.775  1.00  0.00     0.010 C 
HETATM    8  C8  UNL     1      -0.955  18.725  -4.618  1.00  0.00    -0.036 C 
HETATM    9  C9  UNL     1       0.316  17.921  -4.736  1.00  0.00     0.016 C 
HETATM   10  C10 UNL     1      -1.439  18.630  -3.250  1.00  0.00    -0.002 C 
HETATM   11  C21 UNL     1      -0.735  19.785  -2.503  1.00  0.00     0.006 C 
HETATM   12  C22 UNL     1       0.139  20.476  -3.539  1.00  0.00     0.006 C 
HETATM   13  C23 UNL     1      -0.681  20.238  -4.744  1.00  0.00    -0.001 C 
HETATM   14  C24 UNL     1      -0.309  20.690  -6.041  1.00  0.00    -0.002 C 
ENDROOT
BRANCH  10  15
HETATM   15  C11 UNL     1      -2.851  18.506  -2.898  1.00  0.00    -0.010 C 
HETATM   16  C12 UNL     1      -2.994  17.526  -1.695  1.00  0.00     0.010 C 
BRANCH  15  17
HETATM   17  C13 UNL     1      -3.577  19.736  -2.386  1.00  0.00     0.032 C 
BRANCH  17  18
HETATM   18  C14 UNL     1      -4.862  19.197  -1.820  1.00  0.00    -0.022 C 
HETATM   19  C15 UNL     1      -6.031  19.095  -2.314  1.00  0.00    -0.054 C 
HETATM   20  C16 UNL     1      -7.125  18.488  -1.430  1.00  0.00     0.036 C 
HETATM   21  C20 UNL     1      -6.501  19.457  -3.640  1.00  0.00     0.212 C 
HETATM   22  C17 UNL     1      -8.128  19.627  -1.282  1.00  0.00     0.004 C 
HETATM   23  C18 UNL     1      -8.564  20.199  -2.590  1.00  0.00     0.003 C 
HETATM   24  C19 UNL     1      -7.425  20.677  -3.442  1.00  0.00     0.037 C 
BRANCH  21  25
HETATM   25  N1  UNL     1      -5.565  19.712  -4.671  1.00  0.00    -0.071 N 
ATOM     26  H13 UNL     1      -4.738  20.144  -4.259  1.00  0.00     0.275 HD
ATOM     27  H12 UNL     1      -5.188  18.822  -4.995  1.00  0.00     0.275 HD
ATOM     28  H11 UNL     1      -5.846  20.260  -5.484  1.00  0.00     0.275 HD
ENDBRANCH  21  25
ENDBRANCH  17  18
ENDBRANCH  15  17
ENDBRANCH  10  15
TORSDOF 4
ENDMDL
MODEL 3
REMARK VINA RESULT: -7.565537371      2.130      3.807
REMARK  4 active torsions:
REMARK  status: ('A' for Active; 'I' for Inactive)
REMARK    1  A    between atoms: C10_10  and  C11_11 
REMARK    2  A    between atoms: C11_11  and  C13_13 
REMARK    3  A    between atoms: C13_13  and  C14_14 
REMARK    4  A    between atoms: C20_20  and  N1_21 
ROOT
HETATM    1  C1  UNL     1       1.740  21.909  -6.629  1.00  0.00     0.010 C 
HETATM    2  C2  UNL     1       0.442  21.321  -7.021  1.00  0.00    -0.014 C 
HETATM    3  C3  UNL     1       0.673  20.500  -8.300  1.00  0.00     0.005 C 
HETATM    4  C4  UNL     1       0.504  19.042  -7.905  1.00  0.00     0.005 C 
HETATM    5  C5  UNL     1       0.719  19.099  -6.378  1.00  0.00    -0.010 C 
HETATM    6  C6  UNL     1       0.203  17.905  -5.684  1.00  0.00     0.006 C 
HETATM    7  C7  UNL     1      -0.630  18.223  -4.427  1.00  0.00     0.010 C 
HETATM    8  C8  UNL     1      -0.078  19.431  -3.789  1.00  0.00    -0.036 C 
HETATM    9  C9  UNL     1       1.416  19.259  -3.665  1.00  0.00     0.016 C 
HETATM   10  C10 UNL     1      -0.591  19.942  -2.528  1.00  0.00    -0.002 C 
HETATM   11  C21 UNL     1      -0.486  21.478  -2.654  1.00  0.00     0.006 C 
HETATM   12  C22 UNL     1       0.111  21.740  -4.030  1.00  0.00     0.006 C 
HETATM   13  C23 UNL     1      -0.437  20.577  -4.756  1.00  0.00    -0.001 C 
HETATM   14  C24 UNL     1      -0.177  20.325  -6.132  1.00  0.00    -0.002 C 
ENDROOT
BRANCH  10  15
HETATM   15  C11 UNL     1      -1.853  19.509  -1.932  1.00  0.00    -0.010 C 
HETATM   16  C12 UNL     1      -1.801  19.747  -0.394  1.00  0.00     0.010 C 
BRANCH  15  17
HETATM   17  C13 UNL     1      -3.122  20.245  -2.320  1.00  0.00     0.032 C 
BRANCH  17  18
HETATM   18  C14 UNL     1      -4.223  19.441  -1.682  1.00  0.00    -0.022 C 
HETATM   19  C15 UNL     1      -5.394  19.139  -2.081  1.00  0.00    -0.054 C 
HETATM   20  C16 UNL     1      -6.265  18.291  -1.148  1.00  0.00     0.036 C 
HETATM   21  C20 UNL     1      -6.049  19.466  -3.336  1.00  0.00     0.212 C 
HETATM   22  C17 UNL     1      -7.445  19.207  -0.842  1.00  0.00     0.004 C 
HETATM   23  C18 UNL     1      -8.104  19.745  -2.067  1.00  0.00     0.003 C 
HETATM   24  C19 UNL     1      -7.162  20.475  -2.981  1.00  0.00     0.037 C 
BRANCH  21  25
HETATM   25  N1  UNL     1      -5.280  19.946  -4.424  1.00  0.00    -0.071 N 
ATOM     26  H13 UNL     1      -5.827  20.648  -4.921  1.00  0.00     0.275 HD
ATOM     27  H12 UNL     1      -4.513  20.509  -4.056  1.00  0.00     0.275 HD
ATOM     28  H11 UNL     1      -4.902  19.287  -5.104  1.00  0.00     0.275 HD
ENDBRANCH  21  25
ENDBRANCH  17  18
ENDBRANCH  15  17
ENDBRANCH  10  15
TORSDOF 4
ENDMDL
MODEL 4
REMARK VINA RESULT: -7.057244595      1.170      1.757
REMARK  4 active torsions:
REMARK  status: ('A' for Active; 'I' for Inactive)
REMARK    1  A    between atoms: C10_10  and  C11_11 
REMARK    2  A    between atoms: C11_11  and  C13_13 
REMARK    3  A    between atoms: C13_13  and  C14_14 
REMARK    4  A    between atoms: C20_20  and  N1_21 
ROOT
HETATM    1  C1  UNL     1       3.450  20.195  -6.030  1.00  0.00     0.010 C 
HETATM    2  C2  UNL     1       2.240  20.785  -5.422  1.00  0.00    -0.014 C 
HETATM    3  C3  UNL     1       2.067  22.195  -6.009  1.00  0.00     0.005 C 
HETATM    4  C4  UNL     1       0.833  22.139  -6.895  1.00  0.00     0.005 C 
HETATM    5  C5  UNL     1       0.709  20.625  -7.172  1.00  0.00    -0.010 C 
HETATM    6  C6  UNL     1      -0.629  20.241  -7.655  1.00  0.00     0.006 C 
HETATM    7  C7  UNL     1      -1.215  18.999  -6.957  1.00  0.00     0.010 C 
HETATM    8  C8  UNL     1      -0.111  18.080  -6.626  1.00  0.00    -0.036 C 
HETATM    9  C9  UNL     1       0.742  17.905  -7.857  1.00  0.00     0.016 C 
HETATM   10  C10 UNL     1      -0.346  16.773  -6.035  1.00  0.00    -0.002 C 
HETATM   11  C21 UNL     1       0.847  16.555  -5.077  1.00  0.00     0.006 C 
HETATM   12  C22 UNL     1       1.712  17.801  -5.204  1.00  0.00     0.006 C 
HETATM   13  C23 UNL     1       0.661  18.795  -5.498  1.00  0.00    -0.001 C 
HETATM   14  C24 UNL     1       0.934  20.174  -5.719  1.00  0.00    -0.002 C 
ENDROOT
BRANCH  10  15
HETATM   15  C11 UNL     1      -1.621  16.365  -5.451  1.00  0.00    -0.010 C 
HETATM   16  C12 UNL     1      -1.356  15.345  -4.304  1.00  0.00     0.010 C 
BRANCH  15  17
HETATM   17  C13 UNL     1      -2.460  17.415  -4.748  1.00  0.00     0.032 C 
BRANCH  17  18
HETATM   18  C14 UNL     1      -2.357  17.055  -3.291  1.00  0.00    -0.022 C 
HETATM   19  C15 UNL     1      -2.810  17.619  -2.243  1.00  0.00    -0.054 C 
HETATM   20  C16 UNL     1      -2.500  16.962  -0.893  1.00  0.00     0.036 C 
HETATM   21  C20 UNL     1      -3.621  18.818  -2.123  1.00  0.00     0.212 C 
HETATM   22  C17 UNL     1      -1.677  18.021  -0.169  1.00  0.00     0.004 C 
HETATM   23  C18 UNL     1      -2.342  19.356  -0.127  1.00  0.00     0.003 C 
HETATM   24  C19 UNL     1      -2.707  19.885  -1.484  1.00  0.00     0.037 C 
BRANCH  21  25
HETATM   25  N1  UNL     1      -4.265  19.346  -3.268  1.00  0.00    -0.071 N 
ATOM     26  H13 UNL     1      -4.397  18.592  -3.943  1.00  0.00     0.275 HD
ATOM     27  H12 UNL     1      -5.230  19.570  -3.024  1.00  0.00     0.275 HD
ATOM     28  H11 UNL     1      -3.859  20.147  -3.752  1.00  0.00     0.275 HD
ENDBRANCH  21  25
ENDBRANCH  17  18
ENDBRANCH  15  17
ENDBRANCH  10  15
TORSDOF 4
ENDMDL
MODEL 5
REMARK VINA RESULT: -7.049503387      1.781      5.550
REMARK  4 active torsions:
REMARK  status: ('A' for Active; 'I' for Inactive)
REMARK    1  A    between atoms: C10_10  and  C11_11 
REMARK    2  A    between atoms: C11_11  and  C13_13 
REMARK    3  A    between atoms: C13_13  and  C14_14 
REMARK    4  A    between atoms: C20_20  and  N1_21 
ROOT
HETATM    1  C1  UNL     1      -4.325  18.916  -3.941  1.00  0.00     0.010 C 
HETATM    2  C2  UNL     1      -2.992  18.971  -3.306  1.00  0.00    -0.014 C 
HETATM    3  C3  UNL     1      -3.092  18.244  -1.955  1.00  0.00     0.005 C 
HETATM    4  C4  UNL     1      -2.280  16.968  -2.097  1.00  0.00     0.005 C 
HETATM    5  C5  UNL     1      -2.225  16.796  -3.631  1.00  0.00    -0.010 C 
HETATM    6  C6  UNL     1      -1.155  15.879  -4.064  1.00  0.00     0.006 C 
HETATM    7  C7  UNL     1      -0.315  16.410  -5.242  1.00  0.00     0.010 C 
HETATM    8  C8  UNL     1      -1.188  17.208  -6.121  1.00  0.00    -0.036 C 
HETATM    9  C9  UNL     1      -2.435  16.408  -6.401  1.00  0.00     0.016 C 
HETATM   10  C10 UNL     1      -0.711  17.778  -7.371  1.00  0.00    -0.002 C 
HETATM   11  C21 UNL     1      -1.452  19.129  -7.495  1.00  0.00     0.006 C 
HETATM   12  C22 UNL     1      -2.337  19.230  -6.261  1.00  0.00     0.006 C 
HETATM   13  C23 UNL     1      -1.501  18.478  -5.303  1.00  0.00    -0.001 C 
HETATM   14  C24 UNL     1      -1.876  18.259  -3.948  1.00  0.00    -0.002 C 
ENDROOT
BRANCH  10  15
HETATM   15  C11 UNL     1       0.701  17.872  -7.732  1.00  0.00    -0.010 C 
HETATM   16  C12 UNL     1       0.890  19.023  -8.765  1.00  0.00     0.010 C 
BRANCH  15  17
HETATM   17  C13 UNL     1       1.696  18.254  -6.652  1.00  0.00     0.032 C 
BRANCH  17  18
HETATM   18  C14 UNL     1       1.656  19.758  -6.630  1.00  0.00    -0.022 C 
HETATM   19  C15 UNL     1       1.788  20.597  -5.681  1.00  0.00    -0.054 C 
HETATM   20  C16 UNL     1       1.681  22.085  -6.028  1.00  0.00     0.036 C 
HETATM   21  C20 UNL     1       2.055  20.355  -4.273  1.00  0.00     0.212 C 
HETATM   22  C17 UNL     1       0.466  22.545  -5.230  1.00  0.00     0.004 C 
HETATM   23  C18 UNL     1       0.551  22.201  -3.781  1.00  0.00     0.003 C 
HETATM   24  C19 UNL     1       0.759  20.736  -3.526  1.00  0.00     0.037 C 
BRANCH  21  25
HETATM   25  N1  UNL     1       2.507  19.081  -3.854  1.00  0.00    -0.071 N 
ATOM     26  H13 UNL     1       3.322  18.827  -4.410  1.00  0.00     0.275 HD
ATOM     27  H12 UNL     1       2.916  19.171  -2.924  1.00  0.00     0.275 HD
ATOM     28  H11 UNL     1       1.860  18.293  -3.848  1.00  0.00     0.275 HD
ENDBRANCH  21  25
ENDBRANCH  17  18
ENDBRANCH  15  17
ENDBRANCH  10  15
TORSDOF 4
ENDMDL
