MODEL 1
REMARK VINA RESULT: -9.653756271      0.000      0.000
REMARK  3 active torsions:
REMARK  status: ('A' for Active; 'I' for Inactive)
REMARK    1  A    between atoms: C8_8  and  N1_9 
REMARK    2  A    between atoms: N1_9  and  C9_11 
REMARK    3  A    between atoms: C9_11  and  C11_13 
ROOT
HETATM    1  N1  UNL     1      -1.749  17.795  -4.280  1.00  0.00    -0.408 N 
ATOM      2  H1  UNL     1      -1.514  16.805  -4.354  1.00  0.00     0.154 HD
ENDROOT
BRANCH   1   3
HETATM    3  C8  UNL     1      -2.279  18.266  -3.071  1.00  0.00     0.028 C 
HETATM    4  C7  UNL     1      -1.481  19.145  -2.199  1.00  0.00     0.039 C 
HETATM    5  C5  UNL     1      -2.341  19.584  -1.003  1.00  0.00    -0.040 C 
HETATM    6  C4  UNL     1      -2.738  18.402  -0.148  1.00  0.00     0.018 C 
HETATM    7  C6  UNL     1      -1.529  20.549  -0.139  1.00  0.00     0.015 C 
HETATM    8  C25 UNL     1      -3.532  20.378  -1.496  1.00  0.00     0.023 C 
HETATM    9  C3  UNL     1      -3.572  17.479  -1.041  1.00  0.00     0.017 C 
HETATM   10  C2  UNL     1      -4.720  18.298  -1.485  1.00  0.00    -0.077 C 
HETATM   11  C21 UNL     1      -2.732  17.065  -2.236  1.00  0.00     0.039 C 
HETATM   12  C1  UNL     1      -5.940  18.005  -1.142  1.00  0.00     0.015 C 
HETATM   13  C23 UNL     1      -4.389  19.458  -2.339  1.00  0.00    -0.018 C 
HETATM   14  C22 UNL     1      -3.577  18.982  -3.497  1.00  0.00     0.044 C 
HETATM   15  C24 UNL     1      -5.586  20.191  -2.868  1.00  0.00     0.020 C 
ENDBRANCH   1   3
BRANCH   1  16
HETATM   16  C9  UNL     1      -1.527  18.617  -5.389  1.00  0.00     0.082 C 
HETATM   17  C10 UNL     1      -1.964  17.979  -6.657  1.00  0.00     0.032 C 
BRANCH  16  18
HETATM   18  C11 UNL     1      -0.133  19.183  -5.374  1.00  0.00    -0.020 C 
HETATM   19  C12 UNL     1       0.284  19.691  -6.741  1.00  0.00     0.016 C 
HETATM   20  C13 UNL     1       1.637  20.362  -6.682  1.00  0.00    -0.013 C 
HETATM   21  C14 UNL     1       2.666  19.400  -6.140  1.00  0.00     0.009 C 
HETATM   22  C18 UNL     1       1.581  21.581  -5.823  1.00  0.00     0.009 C 
HETATM   23  C15 UNL     1       2.237  19.025  -4.743  1.00  0.00    -0.013 C 
HETATM   24  C16 UNL     1       2.166  20.213  -3.829  1.00  0.00     0.009 C 
HETATM   25  C20 UNL     1       0.921  18.272  -4.852  1.00  0.00     0.016 C 
HETATM   26  C17 UNL     1       1.130  21.159  -4.438  1.00  0.00    -0.013 C 
HETATM   27  C19 UNL     1      -0.162  20.413  -4.448  1.00  0.00     0.016 C 
ENDBRANCH  16  18
ENDBRANCH   1  16
TORSDOF 3
ENDMDL
MODEL 2
REMARK VINA RESULT: -9.614690912      0.093      1.440
REMARK  3 active torsions:
REMARK  status: ('A' for Active; 'I' for Inactive)
REMARK    1  A    between atoms: C8_8  and  N1_9 
REMARK    2  A    between atoms: N1_9  and  C9_11 
REMARK    3  A    between atoms: C9_11  and  C11_13 
ROOT
HETATM    1  N1  UNL     1      -1.690  17.822  -4.282  1.00  0.00    -0.408 N 
ATOM      2  H1  UNL     1      -1.367  16.855  -4.327  1.00  0.00     0.154 HD
ENDROOT
BRANCH   1   3
HETATM    3  C8  UNL     1      -2.235  18.286  -3.078  1.00  0.00     0.028 C 
HETATM    4  C7  UNL     1      -1.459  19.183  -2.204  1.00  0.00     0.039 C 
HETATM    5  C5  UNL     1      -2.334  19.610  -1.015  1.00  0.00    -0.040 C 
HETATM    6  C4  UNL     1      -2.715  18.424  -0.158  1.00  0.00     0.018 C 
HETATM    7  C6  UNL     1      -1.544  20.592  -0.149  1.00  0.00     0.015 C 
HETATM    8  C25 UNL     1      -3.535  20.381  -1.517  1.00  0.00     0.023 C 
HETATM    9  C3  UNL     1      -3.527  17.484  -1.053  1.00  0.00     0.017 C 
HETATM   10  C2  UNL     1      -4.686  18.280  -1.507  1.00  0.00    -0.077 C 
HETATM   11  C21 UNL     1      -2.672  17.081  -2.241  1.00  0.00     0.039 C 
HETATM   12  C1  UNL     1      -5.904  17.968  -1.170  1.00  0.00     0.015 C 
HETATM   13  C23 UNL     1      -4.371  19.443  -2.362  1.00  0.00    -0.018 C 
HETATM   14  C22 UNL     1      -3.544  18.978  -3.514  1.00  0.00     0.044 C 
HETATM   15  C24 UNL     1      -5.577  20.154  -2.901  1.00  0.00     0.020 C 
ENDBRANCH   1   3
BRANCH   1  16
HETATM   16  C9  UNL     1      -1.568  18.618  -5.425  1.00  0.00     0.082 C 
HETATM   17  C10 UNL     1      -1.976  17.897  -6.657  1.00  0.00     0.032 C 
BRANCH  16  18
HETATM   18  C11 UNL     1      -0.231  19.306  -5.466  1.00  0.00    -0.020 C 
HETATM   19  C12 UNL     1      -0.184  20.502  -4.535  1.00  0.00     0.016 C 
HETATM   20  C13 UNL     1       1.199  21.109  -4.499  1.00  0.00    -0.013 C 
HETATM   21  C14 UNL     1       1.624  21.507  -5.891  1.00  0.00     0.009 C 
HETATM   22  C18 UNL     1       2.182  20.143  -3.927  1.00  0.00     0.009 C 
HETATM   23  C15 UNL     1       1.654  20.252  -6.727  1.00  0.00    -0.013 C 
HETATM   24  C16 UNL     1       2.630  19.240  -6.201  1.00  0.00     0.009 C 
HETATM   25  C20 UNL     1       0.232  19.723  -6.817  1.00  0.00     0.016 C 
HETATM   26  C17 UNL     1       2.165  18.893  -4.786  1.00  0.00    -0.013 C 
HETATM   27  C19 UNL     1       0.803  18.300  -4.927  1.00  0.00     0.016 C 
ENDBRANCH  16  18
ENDBRANCH   1  16
TORSDOF 3
ENDMDL
MODEL 3
REMARK VINA RESULT: -9.579354848      0.090      1.439
REMARK  3 active torsions:
REMARK  status: ('A' for Active; 'I' for Inactive)
REMARK    1  A    between atoms: C8_8  and  N1_9 
REMARK    2  A    between atoms: N1_9  and  C9_11 
REMARK    3  A    between atoms: C9_11  and  C11_13 
ROOT
HETATM    1  N1  UNL     1      -1.761  17.762  -4.244  1.00  0.00    -0.408 N 
ATOM      2  H1  UNL     1      -1.525  16.772  -4.305  1.00  0.00     0.154 HD
ENDROOT
BRANCH   1   3
HETATM    3  C8  UNL     1      -2.305  18.246  -3.047  1.00  0.00     0.028 C 
HETATM    4  C7  UNL     1      -1.512  19.125  -2.170  1.00  0.00     0.039 C 
HETATM    5  C5  UNL     1      -2.387  19.581  -0.991  1.00  0.00    -0.040 C 
HETATM    6  C4  UNL     1      -2.807  18.408  -0.132  1.00  0.00     0.018 C 
HETATM    7  C6  UNL     1      -1.579  20.544  -0.121  1.00  0.00     0.015 C 
HETATM    8  C25 UNL     1      -3.562  20.381  -1.507  1.00  0.00     0.023 C 
HETATM    9  C3  UNL     1      -3.636  17.486  -1.031  1.00  0.00     0.017 C 
HETATM   10  C2  UNL     1      -4.769  18.311  -1.499  1.00  0.00    -0.077 C 
HETATM   11  C21 UNL     1      -2.781  17.056  -2.210  1.00  0.00     0.039 C 
HETATM   12  C1  UNL     1      -5.997  18.033  -1.173  1.00  0.00     0.015 C 
HETATM   13  C23 UNL     1      -4.415  19.462  -2.356  1.00  0.00    -0.018 C 
HETATM   14  C22 UNL     1      -3.591  18.971  -3.499  1.00  0.00     0.044 C 
HETATM   15  C24 UNL     1      -5.597  20.202  -2.909  1.00  0.00     0.020 C 
ENDBRANCH   1   3
BRANCH   1  16
HETATM   16  C9  UNL     1      -1.528  18.571  -5.362  1.00  0.00     0.082 C 
HETATM   17  C10 UNL     1      -1.807  17.862  -6.636  1.00  0.00     0.032 C 
BRANCH  16  18
HETATM   18  C11 UNL     1      -0.195  19.262  -5.261  1.00  0.00    -0.020 C 
HETATM   19  C12 UNL     1       0.901  18.311  -4.824  1.00  0.00     0.016 C 
HETATM   20  C13 UNL     1       2.251  18.991  -4.843  1.00  0.00    -0.013 C 
HETATM   21  C14 UNL     1       2.226  20.211  -3.956  1.00  0.00     0.009 C 
HETATM   22  C18 UNL     1       2.620  19.385  -6.234  1.00  0.00     0.009 C 
HETATM   23  C15 UNL     1       1.188  21.152  -4.515  1.00  0.00    -0.013 C 
HETATM   24  C16 UNL     1       1.508  21.587  -5.915  1.00  0.00     0.009 C 
HETATM   25  C20 UNL     1      -0.165  20.470  -4.394  1.00  0.00     0.016 C 
HETATM   26  C17 UNL     1       1.543  20.313  -6.761  1.00  0.00    -0.013 C 
HETATM   27  C19 UNL     1       0.175  19.723  -6.684  1.00  0.00     0.016 C 
ENDBRANCH  16  18
ENDBRANCH   1  16
TORSDOF 3
ENDMDL
MODEL 4
REMARK VINA RESULT: -8.727714677      0.618      2.321
REMARK  3 active torsions:
REMARK  status: ('A' for Active; 'I' for Inactive)
REMARK    1  A    between atoms: C8_8  and  N1_9 
REMARK    2  A    between atoms: N1_9  and  C9_11 
REMARK    3  A    between atoms: C9_11  and  C11_13 
ROOT
HETATM    1  N1  UNL     1      -1.724  17.863  -4.504  1.00  0.00    -0.408 N 
ATOM      2  H1  UNL     1      -1.428  16.890  -4.418  1.00  0.00     0.154 HD
ENDROOT
BRANCH   1   3
HETATM    3  C8  UNL     1      -2.471  18.427  -3.462  1.00  0.00     0.028 C 
HETATM    4  C7  UNL     1      -3.870  18.832  -3.682  1.00  0.00     0.039 C 
HETATM    5  C5  UNL     1      -4.469  19.319  -2.352  1.00  0.00    -0.040 C 
HETATM    6  C4  UNL     1      -3.754  20.553  -1.847  1.00  0.00     0.018 C 
HETATM    7  C6  UNL     1      -5.939  19.676  -2.574  1.00  0.00     0.015 C 
HETATM    8  C25 UNL     1      -4.468  18.188  -1.348  1.00  0.00     0.023 C 
HETATM    9  C3  UNL     1      -2.297  20.145  -1.610  1.00  0.00     0.017 C 
HETATM   10  C2  UNL     1      -2.354  19.049  -0.620  1.00  0.00    -0.077 C 
HETATM   11  C21 UNL     1      -1.713  19.640  -2.917  1.00  0.00     0.039 C 
HETATM   12  C1  UNL     1      -1.839  19.174   0.568  1.00  0.00     0.015 C 
HETATM   13  C23 UNL     1      -3.028  17.813  -1.070  1.00  0.00    -0.018 C 
HETATM   14  C22 UNL     1      -2.399  17.363  -2.346  1.00  0.00     0.044 C 
HETATM   15  C24 UNL     1      -2.959  16.684  -0.084  1.00  0.00     0.020 C 
ENDBRANCH   1   3
BRANCH   1  16
HETATM   16  C9  UNL     1      -1.364  18.568  -5.657  1.00  0.00     0.082 C 
HETATM   17  C10 UNL     1      -1.701  17.825  -6.897  1.00  0.00     0.032 C 
BRANCH  16  18
HETATM   18  C11 UNL     1       0.043  19.092  -5.555  1.00  0.00    -0.020 C 
HETATM   19  C12 UNL     1       0.616  19.436  -6.915  1.00  0.00     0.016 C 
HETATM   20  C13 UNL     1       1.982  20.070  -6.786  1.00  0.00    -0.013 C 
HETATM   21  C14 UNL     1       2.911  19.144  -6.040  1.00  0.00     0.009 C 
HETATM   22  C18 UNL     1       1.888  21.376  -6.070  1.00  0.00     0.009 C 
HETATM   23  C15 UNL     1       2.329  18.934  -4.665  1.00  0.00    -0.013 C 
HETATM   24  C16 UNL     1       2.212  20.216  -3.893  1.00  0.00     0.009 C 
HETATM   25  C20 UNL     1       1.001  18.213  -4.832  1.00  0.00     0.016 C 
HETATM   26  C17 UNL     1       1.282  21.120  -4.704  1.00  0.00    -0.013 C 
HETATM   27  C19 UNL     1      -0.031  20.415  -4.770  1.00  0.00     0.016 C 
ENDBRANCH  16  18
ENDBRANCH   1  16
TORSDOF 3
ENDMDL
MODEL 5
REMARK VINA RESULT: -8.718027261      0.627      2.679
REMARK  3 active torsions:
REMARK  status: ('A' for Active; 'I' for Inactive)
REMARK    1  A    between atoms: C8_8  and  N1_9 
REMARK    2  A    between atoms: N1_9  and  C9_11 
REMARK    3  A    between atoms: C9_11  and  C11_13 
ROOT
HETATM    1  N1  UNL     1      -1.650  17.859  -4.466  1.00  0.00    -0.408 N 
ATOM      2  H1  UNL     1      -1.256  16.930  -4.317  1.00  0.00     0.154 HD
ENDROOT
BRANCH   1   3
HETATM    3  C8  UNL     1      -2.420  18.429  -3.444  1.00  0.00     0.028 C 
HETATM    4  C7  UNL     1      -3.810  18.844  -3.701  1.00  0.00     0.039 C 
HETATM    5  C5  UNL     1      -4.439  19.336  -2.387  1.00  0.00    -0.040 C 
HETATM    6  C4  UNL     1      -3.730  20.565  -1.864  1.00  0.00     0.018 C 
HETATM    7  C6  UNL     1      -5.900  19.702  -2.647  1.00  0.00     0.015 C 
HETATM    8  C25 UNL     1      -4.473  18.205  -1.383  1.00  0.00     0.023 C 
HETATM    9  C3  UNL     1      -2.282  20.146  -1.589  1.00  0.00     0.017 C 
HETATM   10  C2  UNL     1      -2.373  19.051  -0.600  1.00  0.00    -0.077 C 
HETATM   11  C21 UNL     1      -1.667  19.637  -2.880  1.00  0.00     0.039 C 
HETATM   12  C1  UNL     1      -1.887  19.173   0.601  1.00  0.00     0.015 C 
HETATM   13  C23 UNL     1      -3.043  17.819  -1.067  1.00  0.00    -0.018 C 
HETATM   14  C22 UNL     1      -2.385  17.365  -2.326  1.00  0.00     0.044 C 
HETATM   15  C24 UNL     1      -3.008  16.690  -0.080  1.00  0.00     0.020 C 
ENDBRANCH   1   3
BRANCH   1  16
HETATM   16  C9  UNL     1      -1.394  18.503  -5.682  1.00  0.00     0.082 C 
HETATM   17  C10 UNL     1      -1.659  17.624  -6.848  1.00  0.00     0.032 C 
BRANCH  16  18
HETATM   18  C11 UNL     1      -0.058  19.194  -5.658  1.00  0.00    -0.020 C 
HETATM   19  C12 UNL     1      -0.118  20.511  -4.909  1.00  0.00     0.016 C 
HETATM   20  C13 UNL     1       1.254  21.134  -4.793  1.00  0.00    -0.013 C 
HETATM   21  C14 UNL     1       1.847  21.334  -6.165  1.00  0.00     0.009 C 
HETATM   22  C18 UNL     1       2.154  20.271  -3.973  1.00  0.00     0.009 C 
HETATM   23  C15 UNL     1       1.973  19.973  -6.803  1.00  0.00    -0.013 C 
HETATM   24  C16 UNL     1       2.872  19.058  -6.023  1.00  0.00     0.009 C 
HETATM   25  C20 UNL     1       0.569  19.419  -6.988  1.00  0.00     0.016 C 
HETATM   26  C17 UNL     1       2.235  18.911  -4.640  1.00  0.00    -0.013 C 
HETATM   27  C19 UNL     1       0.898  18.288  -4.859  1.00  0.00     0.016 C 
ENDBRANCH  16  18
ENDBRANCH   1  16
TORSDOF 3
ENDMDL
