MODEL 1
REMARK VINA RESULT: -5.890343033      0.000      0.000
REMARK  4 active torsions:
REMARK  status: ('A' for Active; 'I' for Inactive)
REMARK    1  A    between atoms: C5_7  and  C6_8 
REMARK    2  A    between atoms: C6_8  and  N2_10 
REMARK    3  A    between atoms: N2_10  and  N3_12 
REMARK    4  A    between atoms: N3_12  and  C7_13 
ROOT
HETATM    1  C6  UNL     1      14.783   6.257   1.774  1.00  0.00     0.131 C 
HETATM    2  S1  UNL     1      14.444   6.172   3.360  1.00  0.00    -0.058 SA
ENDROOT
BRANCH   1   3
HETATM    3  C5  UNL     1      14.408   5.105   0.940  1.00  0.00     0.067 A 
HETATM    4  C3  UNL     1      15.161   3.999   0.634  1.00  0.00     0.026 A 
HETATM    5  N1  UNL     1      14.614   3.095  -0.133  1.00  0.00    -0.357 N 
HETATM    6  C4  UNL     1      16.578   3.826   1.161  1.00  0.00     0.070 C 
HETATM    7  C2  UNL     1      13.385   3.266  -0.578  1.00  0.00     0.048 A 
ATOM      8  H1  UNL     1      15.136   2.256  -0.387  1.00  0.00     0.166 HD
HETATM    9  C1  UNL     1      12.539   2.399  -1.455  1.00  0.00     0.076 C 
HETATM   10  S2  UNL     1      12.955   4.767   0.101  1.00  0.00    -0.072 SA
ENDBRANCH   1   3
BRANCH   1  11
HETATM   11  N2  UNL     1      15.414   7.415   1.268  1.00  0.00    -0.292 N 
ATOM     12  H2  UNL     1      15.485   7.542   0.258  1.00  0.00     0.183 HD
BRANCH  11  13
HETATM   13  N3  UNL     1      15.935   8.378   2.106  1.00  0.00    -0.131 NA
BRANCH  13  14
HETATM   14  C7  UNL     1      15.705   9.723   1.664  1.00  0.00     0.040 C 
HETATM   15  C8  UNL     1      16.609  10.008   0.483  1.00  0.00     0.035 C 
HETATM   16  C9  UNL     1      16.013  10.750   2.727  1.00  0.00     0.035 C 
HETATM   17  C10 UNL     1      14.254   9.880   1.239  1.00  0.00     0.035 C 
ENDBRANCH  13  14
ENDBRANCH  11  13
ENDBRANCH   1  11
TORSDOF 4
ENDMDL
MODEL 2
REMARK VINA RESULT: -5.754552547      2.561      3.850
REMARK  4 active torsions:
REMARK  status: ('A' for Active; 'I' for Inactive)
REMARK    1  A    between atoms: C5_7  and  C6_8 
REMARK    2  A    between atoms: C6_8  and  N2_10 
REMARK    3  A    between atoms: N2_10  and  N3_12 
REMARK    4  A    between atoms: N3_12  and  C7_13 
ROOT
HETATM    1  C6  UNL     1      12.889   4.622  -0.211  1.00  0.00     0.131 C 
HETATM    2  S1  UNL     1      11.792   5.531   0.569  1.00  0.00    -0.058 SA
ENDROOT
BRANCH   1   3
HETATM    3  C5  UNL     1      12.384   3.521  -1.046  1.00  0.00     0.067 A 
HETATM    4  C3  UNL     1      12.840   2.228  -1.110  1.00  0.00     0.026 A 
HETATM    5  N1  UNL     1      12.229   1.417  -1.932  1.00  0.00    -0.357 N 
HETATM    6  C4  UNL     1      14.010   1.750  -0.262  1.00  0.00     0.070 C 
HETATM    7  C2  UNL     1      11.218   1.854  -2.657  1.00  0.00     0.048 A 
ATOM      8  H1  UNL     1      12.534   0.447  -2.013  1.00  0.00     0.166 HD
HETATM    9  C1  UNL     1      10.361   1.145  -3.656  1.00  0.00     0.076 C 
HETATM   10  S2  UNL     1      11.100   3.483  -2.177  1.00  0.00    -0.072 SA
ENDBRANCH   1   3
BRANCH   1  11
HETATM   11  N2  UNL     1      14.261   4.921  -0.061  1.00  0.00    -0.292 N 
ATOM     12  H2  UNL     1      14.953   4.324  -0.512  1.00  0.00     0.183 HD
BRANCH  11  13
HETATM   13  N3  UNL     1      14.687   6.001   0.684  1.00  0.00    -0.131 NA
BRANCH  13  14
HETATM   14  C7  UNL     1      15.517   5.649   1.800  1.00  0.00     0.040 C 
HETATM   15  C8  UNL     1      14.656   5.589   3.044  1.00  0.00     0.035 C 
HETATM   16  C9  UNL     1      16.612   6.657   2.056  1.00  0.00     0.035 C 
HETATM   17  C10 UNL     1      16.151   4.289   1.557  1.00  0.00     0.035 C 
ENDBRANCH  13  14
ENDBRANCH  11  13
ENDBRANCH   1  11
TORSDOF 4
ENDMDL
MODEL 3
REMARK VINA RESULT: -5.655551779      2.929      7.172
REMARK  4 active torsions:
REMARK  status: ('A' for Active; 'I' for Inactive)
REMARK    1  A    between atoms: C5_7  and  C6_8 
REMARK    2  A    between atoms: C6_8  and  N2_10 
REMARK    3  A    between atoms: N2_10  and  N3_12 
REMARK    4  A    between atoms: N3_12  and  C7_13 
ROOT
HETATM    1  C6  UNL     1      14.967   9.651   2.592  1.00  0.00     0.131 C 
HETATM    2  S1  UNL     1      13.895  10.050   1.439  1.00  0.00    -0.058 SA
ENDROOT
BRANCH   1   3
HETATM    3  C5  UNL     1      15.887  10.703   3.052  1.00  0.00     0.067 A 
HETATM    4  C3  UNL     1      17.115  11.039   2.539  1.00  0.00     0.026 A 
HETATM    5  N1  UNL     1      17.758  12.018   3.117  1.00  0.00    -0.357 N 
HETATM    6  C4  UNL     1      17.711  10.305   1.347  1.00  0.00     0.070 C 
HETATM    7  C2  UNL     1      17.222  12.639   4.148  1.00  0.00     0.048 A 
ATOM      8  H1  UNL     1      18.675  12.302   2.770  1.00  0.00     0.166 HD
HETATM    9  C1  UNL     1      17.738  13.773   4.976  1.00  0.00     0.076 C 
HETATM   10  S2  UNL     1      15.739  11.825   4.336  1.00  0.00    -0.072 SA
ENDBRANCH   1   3
BRANCH   1  11
HETATM   11  N2  UNL     1      14.973   8.333   3.099  1.00  0.00    -0.292 N 
ATOM     12  H2  UNL     1      14.628   8.162   4.043  1.00  0.00     0.183 HD
BRANCH  11  13
HETATM   13  N3  UNL     1      15.435   7.273   2.348  1.00  0.00    -0.131 NA
BRANCH  13  14
HETATM   14  C7  UNL     1      14.661   6.075   2.491  1.00  0.00     0.040 C 
HETATM   15  C8  UNL     1      15.486   4.902   2.006  1.00  0.00     0.035 C 
HETATM   16  C9  UNL     1      13.388   6.099   1.678  1.00  0.00     0.035 C 
HETATM   17  C10 UNL     1      14.302   5.870   3.954  1.00  0.00     0.035 C 
ENDBRANCH  13  14
ENDBRANCH  11  13
ENDBRANCH   1  11
TORSDOF 4
ENDMDL
MODEL 4
REMARK VINA RESULT: -5.653993578      1.365      2.082
REMARK  4 active torsions:
REMARK  status: ('A' for Active; 'I' for Inactive)
REMARK    1  A    between atoms: C5_7  and  C6_8 
REMARK    2  A    between atoms: C6_8  and  N2_10 
REMARK    3  A    between atoms: N2_10  and  N3_12 
REMARK    4  A    between atoms: N3_12  and  C7_13 
ROOT
HETATM    1  C6  UNL     1      15.000   6.194   1.886  1.00  0.00     0.131 C 
HETATM    2  S1  UNL     1      14.416   6.180   3.402  1.00  0.00    -0.058 SA
ENDROOT
BRANCH   1   3
HETATM    3  C5  UNL     1      14.871   4.957   1.101  1.00  0.00     0.067 A 
HETATM    4  C3  UNL     1      13.875   4.608   0.223  1.00  0.00     0.026 A 
HETATM    5  N1  UNL     1      13.973   3.447  -0.365  1.00  0.00    -0.357 N 
HETATM    6  C4  UNL     1      12.698   5.533  -0.057  1.00  0.00     0.070 C 
HETATM    7  C2  UNL     1      15.001   2.663  -0.106  1.00  0.00     0.048 A 
ATOM      8  H1  UNL     1      13.255   3.146  -1.024  1.00  0.00     0.166 HD
HETATM    9  C1  UNL     1      15.347   1.308  -0.635  1.00  0.00     0.076 C 
HETATM   10  S2  UNL     1      15.889   3.582   1.018  1.00  0.00    -0.072 SA
ENDBRANCH   1   3
BRANCH   1  11
HETATM   11  N2  UNL     1      15.597   7.373   1.391  1.00  0.00    -0.292 N 
ATOM     12  H2  UNL     1      15.800   7.448   0.394  1.00  0.00     0.183 HD
BRANCH  11  13
HETATM   13  N3  UNL     1      15.913   8.427   2.222  1.00  0.00    -0.131 NA
BRANCH  13  14
HETATM   14  C7  UNL     1      15.613   9.716   1.671  1.00  0.00     0.040 C 
HETATM   15  C8  UNL     1      15.829  10.765   2.741  1.00  0.00     0.035 C 
HETATM   16  C9  UNL     1      14.181   9.836   1.204  1.00  0.00     0.035 C 
HETATM   17  C10 UNL     1      16.535   9.997   0.495  1.00  0.00     0.035 C 
ENDBRANCH  13  14
ENDBRANCH  11  13
ENDBRANCH   1  11
TORSDOF 4
ENDMDL
MODEL 5
REMARK VINA RESULT: -5.636275695      2.949      7.156
REMARK  4 active torsions:
REMARK  status: ('A' for Active; 'I' for Inactive)
REMARK    1  A    between atoms: C5_7  and  C6_8 
REMARK    2  A    between atoms: C6_8  and  N2_10 
REMARK    3  A    between atoms: N2_10  and  N3_12 
REMARK    4  A    between atoms: N3_12  and  C7_13 
ROOT
HETATM    1  C6  UNL     1      14.887   9.659   2.616  1.00  0.00     0.131 C 
HETATM    2  S1  UNL     1      13.788  10.087   1.499  1.00  0.00    -0.058 SA
ENDROOT
BRANCH   1   3
HETATM    3  C5  UNL     1      15.841  10.689   3.054  1.00  0.00     0.067 A 
HETATM    4  C3  UNL     1      17.066  10.996   2.515  1.00  0.00     0.026 A 
HETATM    5  N1  UNL     1      17.744  11.960   3.076  1.00  0.00    -0.357 N 
HETATM    6  C4  UNL     1      17.618  10.247   1.311  1.00  0.00     0.070 C 
HETATM    7  C2  UNL     1      17.245  12.595   4.118  1.00  0.00     0.048 A 
ATOM      8  H1  UNL     1      18.659  12.222   2.709  1.00  0.00     0.166 HD
HETATM    9  C1  UNL     1      17.806  13.716   4.933  1.00  0.00     0.076 C 
HETATM   10  S2  UNL     1      15.747  11.816   4.340  1.00  0.00    -0.072 SA
ENDBRANCH   1   3
BRANCH   1  11
HETATM   11  N2  UNL     1      14.883   8.338   3.114  1.00  0.00    -0.292 N 
ATOM     12  H2  UNL     1      14.466   8.151   4.026  1.00  0.00     0.183 HD
BRANCH  11  13
HETATM   13  N3  UNL     1      15.428   7.294   2.397  1.00  0.00    -0.131 NA
BRANCH  13  14
HETATM   14  C7  UNL     1      14.689   6.069   2.494  1.00  0.00     0.040 C 
HETATM   15  C8  UNL     1      14.320   5.838   3.944  1.00  0.00     0.035 C 
HETATM   16  C9  UNL     1      15.479   4.868   2.032  1.00  0.00     0.035 C 
HETATM   17  C10 UNL     1      13.421   6.170   1.660  1.00  0.00     0.035 C 
ENDBRANCH  13  14
ENDBRANCH  11  13
ENDBRANCH   1  11
TORSDOF 4
ENDMDL
