MODEL 1
REMARK VINA RESULT: -6.016090656      0.000      0.000
REMARK  1 active torsions:
REMARK  status: ('A' for Active; 'I' for Inactive)
REMARK    1  A    between atoms: O1_1  and  C1_3 
ROOT
HETATM    1  C1  UNL     1      26.231  32.738  47.620  1.00  0.00     0.147 C 
HETATM    2  C2  UNL     1      26.417  34.232  47.845  1.00  0.00     0.202 C 
HETATM    3  O2  UNL     1      25.549  34.860  46.980  1.00  0.00    -0.356 OA
HETATM    4  C3  UNL     1      26.128  35.381  45.865  1.00  0.00     0.321 C 
HETATM    5  C4  UNL     1      26.745  34.427  44.925  1.00  0.00     0.062 C 
HETATM    6  C5  UNL     1      27.518  33.308  45.537  1.00  0.00     0.012 C 
HETATM    7  C6  UNL     1      26.693  32.296  46.264  1.00  0.00     0.027 C 
HETATM    8  C7  UNL     1      25.578  31.756  45.401  1.00  0.00     0.093 C 
HETATM    9  S1  UNL     1      23.963  32.396  45.841  1.00  0.00    -0.096 SA
HETATM   10  S2  UNL     1      23.364  34.055  44.702  1.00  0.00    -0.070 SA
HETATM   11  C8  UNL     1      23.765  35.630  45.505  1.00  0.00     0.321 C 
HETATM   12  N1  UNL     1      25.081  36.114  45.133  1.00  0.00    -0.040 N 
ATOM     13  H11 UNL     1      25.228  36.075  44.124  1.00  0.00     0.281 HD
ATOM     14  H12 UNL     1      25.165  37.122  45.262  1.00  0.00     0.281 HD
ENDROOT
BRANCH   1  15
HETATM   15  O1  UNL     1      26.846  32.024  48.662  1.00  0.00    -0.393 OA
ATOM     16  H1  UNL     1      26.822  31.094  48.469  1.00  0.00     0.210 HD
ENDBRANCH   1  15
TORSDOF 1
ENDMDL
MODEL 2
REMARK VINA RESULT: -5.866740743      1.543      1.929
REMARK  1 active torsions:
REMARK  status: ('A' for Active; 'I' for Inactive)
REMARK    1  A    between atoms: O1_1  and  C1_3 
ROOT
HETATM    1  C1  UNL     1      25.634  32.959  47.832  1.00  0.00     0.147 C 
HETATM    2  C2  UNL     1      24.360  33.790  47.882  1.00  0.00     0.202 C 
HETATM    3  O2  UNL     1      23.954  33.947  46.576  1.00  0.00    -0.356 OA
HETATM    4  C3  UNL     1      24.227  35.163  46.033  1.00  0.00     0.321 C 
HETATM    5  C4  UNL     1      25.649  35.523  45.880  1.00  0.00     0.062 C 
HETATM    6  C5  UNL     1      26.545  35.156  47.015  1.00  0.00     0.012 C 
HETATM    7  C6  UNL     1      26.775  33.689  47.187  1.00  0.00     0.027 C 
HETATM    8  C7  UNL     1      27.250  33.041  45.909  1.00  0.00     0.093 C 
HETATM    9  S1  UNL     1      25.990  32.063  45.094  1.00  0.00    -0.096 SA
HETATM   10  S2  UNL     1      24.948  33.096  43.591  1.00  0.00    -0.070 SA
HETATM   11  C8  UNL     1      23.411  33.841  44.199  1.00  0.00     0.321 C 
HETATM   12  N1  UNL     1      23.615  35.190  44.694  1.00  0.00    -0.040 N 
ATOM     13  H11 UNL     1      24.159  35.754  44.040  1.00  0.00     0.281 HD
ATOM     14  H12 UNL     1      22.752  35.732  44.683  1.00  0.00     0.281 HD
ENDROOT
BRANCH   1  15
HETATM   15  O1  UNL     1      25.947  32.496  49.121  1.00  0.00    -0.393 OA
ATOM     16  H1  UNL     1      25.355  32.888  49.753  1.00  0.00     0.210 HD
ENDBRANCH   1  15
TORSDOF 1
ENDMDL
MODEL 3
REMARK VINA RESULT: -5.839622310      2.367      3.071
REMARK  1 active torsions:
REMARK  status: ('A' for Active; 'I' for Inactive)
REMARK    1  A    between atoms: O1_1  and  C1_3 
ROOT
HETATM    1  C1  UNL     1      26.174  35.711  46.317  1.00  0.00     0.147 C 
HETATM    2  C2  UNL     1      24.992  36.096  45.439  1.00  0.00     0.202 C 
HETATM    3  O2  UNL     1      23.956  35.268  45.808  1.00  0.00    -0.356 OA
HETATM    4  C3  UNL     1      23.715  34.236  44.956  1.00  0.00     0.321 C 
HETATM    5  C4  UNL     1      24.780  33.226  44.811  1.00  0.00     0.062 C 
HETATM    6  C5  UNL     1      26.176  33.749  44.745  1.00  0.00     0.012 C 
HETATM    7  C6  UNL     1      26.691  34.335  46.019  1.00  0.00     0.027 C 
HETATM    8  C7  UNL     1      26.540  33.379  47.178  1.00  0.00     0.093 C 
HETATM    9  S1  UNL     1      25.214  33.820  48.299  1.00  0.00    -0.096 SA
HETATM   10  S2  UNL     1      23.401  32.836  47.904  1.00  0.00    -0.070 SA
HETATM   11  C8  UNL     1      22.297  33.813  46.850  1.00  0.00     0.321 C 
HETATM   12  N1  UNL     1      22.509  33.544  45.440  1.00  0.00    -0.040 N 
ATOM     13  H11 UNL     1      22.543  32.543  45.246  1.00  0.00     0.281 HD
ATOM     14  H12 UNL     1      21.688  33.780  44.882  1.00  0.00     0.281 HD
ENDROOT
BRANCH   1  15
HETATM   15  O1  UNL     1      27.171  36.696  46.225  1.00  0.00    -0.393 OA
ATOM     16  H1  UNL     1      28.026  36.297  46.337  1.00  0.00     0.210 HD
ENDBRANCH   1  15
TORSDOF 1
ENDMDL
MODEL 4
REMARK VINA RESULT: -5.764109941      2.546      3.953
REMARK  1 active torsions:
REMARK  status: ('A' for Active; 'I' for Inactive)
REMARK    1  A    between atoms: O1_1  and  C1_3 
ROOT
HETATM    1  C1  UNL     1      24.524  35.342  45.672  1.00  0.00     0.147 C 
HETATM    2  C2  UNL     1      24.501  34.300  44.563  1.00  0.00     0.202 C 
HETATM    3  O2  UNL     1      25.238  33.233  45.025  1.00  0.00    -0.356 OA
HETATM    4  C3  UNL     1      26.494  33.140  44.512  1.00  0.00     0.321 C 
HETATM    5  C4  UNL     1      27.432  34.231  44.838  1.00  0.00     0.062 C 
HETATM    6  C5  UNL     1      26.870  35.612  44.806  1.00  0.00     0.012 C 
HETATM    7  C6  UNL     1      25.891  35.920  45.893  1.00  0.00     0.027 C 
HETATM    8  C7  UNL     1      26.454  35.611  47.260  1.00  0.00     0.093 C 
HETATM    9  S1  UNL     1      25.774  34.124  47.992  1.00  0.00    -0.096 SA
HETATM   10  S2  UNL     1      26.942  32.408  47.677  1.00  0.00    -0.070 SA
HETATM   11  C8  UNL     1      26.405  31.459  46.228  1.00  0.00     0.321 C 
HETATM   12  N1  UNL     1      27.079  31.886  45.016  1.00  0.00    -0.040 N 
ATOM     13  H11 UNL     1      28.087  31.965  45.150  1.00  0.00     0.281 HD
ATOM     14  H12 UNL     1      27.076  31.155  44.304  1.00  0.00     0.281 HD
ENDROOT
BRANCH   1  15
HETATM   15  O1  UNL     1      23.555  36.326  45.416  1.00  0.00    -0.393 OA
ATOM     16  H1  UNL     1      23.013  36.447  46.187  1.00  0.00     0.210 HD
ENDBRANCH   1  15
TORSDOF 1
ENDMDL
MODEL 5
REMARK VINA RESULT: -5.658725080      2.351      3.112
REMARK  1 active torsions:
REMARK  status: ('A' for Active; 'I' for Inactive)
REMARK    1  A    between atoms: O1_1  and  C1_3 
ROOT
HETATM    1  C1  UNL     1      25.439  32.005  45.505  1.00  0.00     0.147 C 
HETATM    2  C2  UNL     1      25.707  32.884  44.293  1.00  0.00     0.202 C 
HETATM    3  O2  UNL     1      26.041  34.126  44.787  1.00  0.00    -0.356 OA
HETATM    4  C3  UNL     1      25.050  35.055  44.717  1.00  0.00     0.321 C 
HETATM    5  C4  UNL     1      23.839  34.802  45.519  1.00  0.00     0.062 C 
HETATM    6  C5  UNL     1      23.343  33.395  45.535  1.00  0.00     0.012 C 
HETATM    7  C6  UNL     1      24.217  32.428  46.267  1.00  0.00     0.027 C 
HETATM    8  C7  UNL     1      24.523  32.896  47.669  1.00  0.00     0.093 C 
HETATM    9  S1  UNL     1      26.191  33.516  47.867  1.00  0.00    -0.096 SA
HETATM   10  S2  UNL     1      26.356  35.600  47.675  1.00  0.00    -0.070 SA
HETATM   11  C8  UNL     1      26.794  36.109  45.991  1.00  0.00     0.321 C 
HETATM   12  N1  UNL     1      25.622  36.335  45.166  1.00  0.00    -0.040 N 
ATOM     13  H11 UNL     1      24.929  36.913  45.642  1.00  0.00     0.281 HD
ATOM     14  H12 UNL     1      25.825  36.955  44.382  1.00  0.00     0.281 HD
ENDROOT
BRANCH   1  15
HETATM   15  O1  UNL     1      25.392  30.658  45.110  1.00  0.00    -0.393 OA
ATOM     16  H1  UNL     1      26.028  30.157  45.608  1.00  0.00     0.210 HD
ENDBRANCH   1  15
TORSDOF 1
ENDMDL
