MODEL 1
REMARK VINA RESULT: -7.248307650      0.000      0.000
REMARK  1 active torsions:
REMARK  status: ('A' for Active; 'I' for Inactive)
REMARK    1  A    between atoms: C5_5  and  O1_6 
ROOT
HETATM    1  C1  UNL     1      27.095  37.638  44.903  1.00  0.00     0.039 C 
HETATM    2  C2  UNL     1      26.874  36.157  45.109  1.00  0.00     0.119 C 
HETATM    3  C3  UNL     1      27.741  35.328  44.191  1.00  0.00     0.035 C 
HETATM    4  C4  UNL     1      27.458  33.895  44.489  1.00  0.00     0.052 C 
HETATM    5  C5  UNL     1      26.004  33.547  44.565  1.00  0.00     0.158 C 
HETATM    6  C6  UNL     1      25.874  32.398  45.497  1.00  0.00     0.152 C 
HETATM    7  N1  UNL     1      25.768  31.154  45.188  1.00  0.00    -0.381 N 
ATOM      8  H11 UNL     1      25.679  30.365  45.829  1.00  0.00     0.158 HD
ATOM      9  H12 UNL     1      25.755  30.747  44.253  1.00  0.00     0.158 HD
HETATM   10  O2  UNL     1      25.890  32.948  46.761  1.00  0.00    -0.302 OA
HETATM   11  C7  UNL     1      25.186  34.174  46.659  1.00  0.00     0.305 C 
HETATM   12  O3  UNL     1      23.901  33.935  47.090  1.00  0.00    -0.357 OA
HETATM   13  C8  UNL     1      23.006  34.460  46.206  1.00  0.00     0.174 C 
HETATM   14  C9  UNL     1      23.704  34.466  44.865  1.00  0.00     0.073 C 
HETATM   15  C10 UNL     1      25.168  34.591  45.237  1.00  0.00     0.151 C 
HETATM   16  O4  UNL     1      25.543  35.882  44.996  1.00  0.00    -0.366 OA
ENDROOT
BRANCH   5  17
HETATM   17  O1  UNL     1      25.486  33.153  43.333  1.00  0.00    -0.378 OA
ATOM     18  H1  UNL     1      24.566  32.921  43.384  1.00  0.00     0.211 HD
ENDBRANCH   5  17
TORSDOF 1
ENDMDL
MODEL 2
REMARK VINA RESULT: -7.108922772      2.446      3.750
REMARK  1 active torsions:
REMARK  status: ('A' for Active; 'I' for Inactive)
REMARK    1  A    between atoms: C5_5  and  O1_6 
ROOT
HETATM    1  C1  UNL     1      28.209  31.036  46.092  1.00  0.00     0.039 C 
HETATM    2  C2  UNL     1      26.858  31.654  46.371  1.00  0.00     0.119 C 
HETATM    3  C3  UNL     1      25.915  31.489  45.203  1.00  0.00     0.035 C 
HETATM    4  C4  UNL     1      24.617  32.113  45.590  1.00  0.00     0.052 C 
HETATM    5  C5  UNL     1      24.736  33.478  46.194  1.00  0.00     0.158 C 
HETATM    6  C6  UNL     1      23.584  33.654  47.115  1.00  0.00     0.152 C 
HETATM    7  N1  UNL     1      22.481  34.271  46.871  1.00  0.00    -0.381 N 
ATOM      8  H11 UNL     1      21.690  34.391  47.504  1.00  0.00     0.158 HD
ATOM      9  H12 UNL     1      22.212  34.741  46.008  1.00  0.00     0.158 HD
HETATM   10  O2  UNL     1      23.947  33.018  48.282  1.00  0.00    -0.302 OA
HETATM   11  C7  UNL     1      25.334  33.260  48.440  1.00  0.00     0.305 C 
HETATM   12  O3  UNL     1      25.460  34.317  49.312  1.00  0.00    -0.357 OA
HETATM   13  C8  UNL     1      26.341  35.232  48.814  1.00  0.00     0.174 C 
HETATM   14  C9  UNL     1      26.287  35.082  47.311  1.00  0.00     0.073 C 
HETATM   15  C10 UNL     1      25.902  33.629  47.121  1.00  0.00     0.151 C 
HETATM   16  O4  UNL     1      27.029  32.951  46.754  1.00  0.00    -0.366 OA
ENDROOT
BRANCH   5  17
HETATM   17  O1  UNL     1      24.672  34.490  45.239  1.00  0.00    -0.378 OA
ATOM     18  H1  UNL     1      24.363  34.176  44.398  1.00  0.00     0.211 HD
ENDBRANCH   5  17
TORSDOF 1
ENDMDL
MODEL 3
REMARK VINA RESULT: -7.000836676      2.144      3.441
REMARK  1 active torsions:
REMARK  status: ('A' for Active; 'I' for Inactive)
REMARK    1  A    between atoms: C5_5  and  O1_6 
ROOT
HETATM    1  C1  UNL     1      28.514  31.314  45.826  1.00  0.00     0.039 C 
HETATM    2  C2  UNL     1      27.412  32.334  45.657  1.00  0.00     0.119 C 
HETATM    3  C3  UNL     1      27.819  33.448  44.721  1.00  0.00     0.035 C 
HETATM    4  C4  UNL     1      26.661  34.381  44.612  1.00  0.00     0.052 C 
HETATM    5  C5  UNL     1      26.046  34.769  45.921  1.00  0.00     0.158 C 
HETATM    6  C6  UNL     1      24.613  35.063  45.665  1.00  0.00     0.152 C 
HETATM    7  N1  UNL     1      24.073  36.219  45.498  1.00  0.00    -0.381 N 
ATOM      8  H11 UNL     1      23.089  36.420  45.322  1.00  0.00     0.158 HD
ATOM      9  H12 UNL     1      24.537  37.127  45.514  1.00  0.00     0.158 HD
HETATM   10  O2  UNL     1      23.986  33.835  45.643  1.00  0.00    -0.302 OA
HETATM   11  C7  UNL     1      24.633  33.052  46.631  1.00  0.00     0.305 C 
HETATM   12  O3  UNL     1      23.854  33.111  47.763  1.00  0.00    -0.357 OA
HETATM   13  C8  UNL     1      24.630  33.383  48.851  1.00  0.00     0.174 C 
HETATM   14  C9  UNL     1      25.822  34.152  48.328  1.00  0.00     0.073 C 
HETATM   15  C10 UNL     1      25.964  33.646  46.906  1.00  0.00     0.151 C 
HETATM   16  O4  UNL     1      27.014  32.773  46.885  1.00  0.00    -0.366 OA
ENDROOT
BRANCH   5  17
HETATM   17  O1  UNL     1      26.623  35.917  46.460  1.00  0.00    -0.378 OA
ATOM     18  H1  UNL     1      26.736  36.604  45.813  1.00  0.00     0.211 HD
ENDBRANCH   5  17
TORSDOF 1
ENDMDL
MODEL 4
REMARK VINA RESULT: -6.980775880      2.002      3.689
REMARK  1 active torsions:
REMARK  status: ('A' for Active; 'I' for Inactive)
REMARK    1  A    between atoms: C5_5  and  O1_6 
ROOT
HETATM    1  C1  UNL     1      23.572  32.943  49.352  1.00  0.00     0.039 C 
HETATM    2  C2  UNL     1      24.548  33.351  48.273  1.00  0.00     0.119 C 
HETATM    3  C3  UNL     1      25.721  34.117  48.840  1.00  0.00     0.035 C 
HETATM    4  C4  UNL     1      26.623  34.451  47.701  1.00  0.00     0.052 C 
HETATM    5  C5  UNL     1      25.932  35.032  46.506  1.00  0.00     0.158 C 
HETATM    6  C6  UNL     1      26.735  34.664  45.311  1.00  0.00     0.152 C 
HETATM    7  N1  UNL     1      27.596  35.396  44.697  1.00  0.00    -0.381 N 
ATOM      8  H11 UNL     1      28.147  35.143  43.877  1.00  0.00     0.158 HD
ATOM      9  H12 UNL     1      27.874  36.350  44.927  1.00  0.00     0.158 HD
HETATM   10  O2  UNL     1      26.360  33.374  45.001  1.00  0.00    -0.302 OA
HETATM   11  C7  UNL     1      24.971  33.299  45.273  1.00  0.00     0.305 C 
HETATM   12  O3  UNL     1      24.317  33.473  44.074  1.00  0.00    -0.357 OA
HETATM   13  C8  UNL     1      23.314  34.385  44.218  1.00  0.00     0.174 C 
HETATM   14  C9  UNL     1      23.737  35.292  45.351  1.00  0.00     0.073 C 
HETATM   15  C10 UNL     1      24.612  34.396  46.204  1.00  0.00     0.151 C 
HETATM   16  O4  UNL     1      23.879  34.026  47.295  1.00  0.00    -0.366 OA
ENDROOT
BRANCH   5  17
HETATM   17  O1  UNL     1      25.862  36.422  46.556  1.00  0.00    -0.378 OA
ATOM     18  H1  UNL     1      26.500  36.796  47.152  1.00  0.00     0.211 HD
ENDBRANCH   5  17
TORSDOF 1
ENDMDL
MODEL 5
REMARK VINA RESULT: -6.961357797      1.859      3.737
REMARK  1 active torsions:
REMARK  status: ('A' for Active; 'I' for Inactive)
REMARK    1  A    between atoms: C5_5  and  O1_6 
ROOT
HETATM    1  C1  UNL     1      28.642  31.061  45.954  1.00  0.00     0.039 C 
HETATM    2  C2  UNL     1      27.465  31.998  45.816  1.00  0.00     0.119 C 
HETATM    3  C3  UNL     1      26.200  31.257  45.445  1.00  0.00     0.035 C 
HETATM    4  C4  UNL     1      25.107  32.267  45.354  1.00  0.00     0.052 C 
HETATM    5  C5  UNL     1      25.450  33.489  44.559  1.00  0.00     0.158 C 
HETATM    6  C6  UNL     1      24.645  34.611  45.108  1.00  0.00     0.152 C 
HETATM    7  N1  UNL     1      23.541  35.077  44.641  1.00  0.00    -0.381 N 
ATOM      8  H11 UNL     1      22.988  35.847  45.018  1.00  0.00     0.158 HD
ATOM      9  H12 UNL     1      23.032  34.757  43.817  1.00  0.00     0.158 HD
HETATM   10  O2  UNL     1      25.332  35.044  46.221  1.00  0.00    -0.302 OA
HETATM   11  C7  UNL     1      26.707  34.931  45.896  1.00  0.00     0.305 C 
HETATM   12  O3  UNL     1      27.130  36.180  45.501  1.00  0.00    -0.357 OA
HETATM   13  C8  UNL     1      27.840  36.087  44.340  1.00  0.00     0.174 C 
HETATM   14  C9  UNL     1      27.318  34.857  43.633  1.00  0.00     0.073 C 
HETATM   15  C10 UNL     1      26.849  33.975  44.772  1.00  0.00     0.151 C 
HETATM   16  O4  UNL     1      27.786  32.997  44.945  1.00  0.00    -0.366 OA
ENDROOT
BRANCH   5  17
HETATM   17  O1  UNL     1      25.124  33.355  43.212  1.00  0.00    -0.378 OA
ATOM     18  H1  UNL     1      25.520  34.031  42.674  1.00  0.00     0.211 HD
ENDBRANCH   5  17
TORSDOF 1
ENDMDL
