MODEL 1
REMARK VINA RESULT: -6.210145980      0.000      0.000
REMARK  2 active torsions:
REMARK  status: ('A' for Active; 'I' for Inactive)
REMARK    1  A    between atoms: C2_2  and  C4_5 
REMARK    2  A    between atoms: C8_9  and  N1_10 
REMARK       I    between atoms: N1_10  and  C9_12 
REMARK       I    between atoms: C9_12  and  N2_14 
ROOT
HETATM    1  N1  UNL     1      13.713  23.485  -9.823  1.00  0.00    -0.338 N 
ATOM      2  H1  UNL     1      13.980  22.642  -9.314  1.00  0.00     0.164 HD
HETATM    3  C9  UNL     1      14.581  24.589  -9.777  1.00  0.00     0.329 C 
HETATM    4  O1  UNL     1      14.273  25.632 -10.392  1.00  0.00    -0.246 OA
HETATM    5  N2  UNL     1      15.783  24.516  -9.044  1.00  0.00    -0.245 N 
ATOM      6  H2  UNL     1      16.004  23.650  -8.553  1.00  0.00     0.183 HD
HETATM    7  C10 UNL     1      16.692  25.588  -8.960  1.00  0.00     0.185 C 
HETATM    8  N3  UNL     1      17.431  26.484  -8.884  1.00  0.00    -0.172 NA
ENDROOT
BRANCH   1   9
HETATM    9  C8  UNL     1      12.463  23.473 -10.551  1.00  0.00     0.086 C 
HETATM   10  C7  UNL     1      12.635  23.276 -12.016  1.00  0.00     0.026 C 
HETATM   11  C6  UNL     1      12.497  21.824 -12.449  1.00  0.00     0.013 C 
HETATM   12  C4  UNL     1      11.141  21.267 -12.159  1.00  0.00    -0.023 C 
HETATM   13  C5  UNL     1      11.328  19.915 -11.509  1.00  0.00     0.017 C 
HETATM   14  C12 UNL     1      10.494  22.166 -11.124  1.00  0.00     0.013 C 
HETATM   15  C11 UNL     1      11.495  22.451 -10.020  1.00  0.00     0.026 C 
BRANCH  12  16
HETATM   16  C2  UNL     1      10.261  21.192 -13.384  1.00  0.00     0.037 C 
HETATM   17  C1  UNL     1       9.258  20.064 -13.294  1.00  0.00     0.033 C 
HETATM   18  C3  UNL     1      11.057  20.961 -14.645  1.00  0.00     0.033 C 
HETATM   19 CL1  UNL     1       9.336  22.693 -13.617  1.00  0.00    -0.119 Cl
ENDBRANCH  12  16
ENDBRANCH   1   9
TORSDOF 2
ENDMDL
MODEL 2
REMARK VINA RESULT: -6.193399493      1.486      1.983
REMARK  2 active torsions:
REMARK  status: ('A' for Active; 'I' for Inactive)
REMARK    1  A    between atoms: C2_2  and  C4_5 
REMARK    2  A    between atoms: C8_9  and  N1_10 
REMARK       I    between atoms: N1_10  and  C9_12 
REMARK       I    between atoms: C9_12  and  N2_14 
ROOT
HETATM    1  N1  UNL     1      13.696  23.541  -9.938  1.00  0.00    -0.338 N 
ATOM      2  H1  UNL     1      13.847  22.760  -9.299  1.00  0.00     0.164 HD
HETATM    3  C9  UNL     1      14.613  24.605  -9.910  1.00  0.00     0.329 C 
HETATM    4  O1  UNL     1      14.448  25.572 -10.681  1.00  0.00    -0.246 OA
HETATM    5  N2  UNL     1      15.706  24.576  -9.018  1.00  0.00    -0.245 N 
ATOM      6  H2  UNL     1      15.811  23.771  -8.401  1.00  0.00     0.183 HD
HETATM    7  C10 UNL     1      16.657  25.611  -8.944  1.00  0.00     0.185 C 
HETATM    8  N3  UNL     1      17.431  26.479  -8.878  1.00  0.00    -0.172 NA
ENDROOT
BRANCH   1   9
HETATM    9  C8  UNL     1      12.550  23.489 -10.819  1.00  0.00     0.086 C 
HETATM   10  C7  UNL     1      12.387  22.173 -11.496  1.00  0.00     0.026 C 
HETATM   11  C6  UNL     1      11.432  21.236 -10.771  1.00  0.00     0.013 C 
HETATM   12  C4  UNL     1      10.044  21.784 -10.692  1.00  0.00    -0.023 C 
HETATM   13  C5  UNL     1       9.562  21.608  -9.269  1.00  0.00     0.017 C 
HETATM   14  C12 UNL     1      10.131  23.277 -10.944  1.00  0.00     0.013 C 
HETATM   15  C11 UNL     1      11.269  23.853 -10.122  1.00  0.00     0.026 C 
BRANCH  12  16
HETATM   16  C2  UNL     1       9.104  21.156 -11.692  1.00  0.00     0.037 C 
HETATM   17  C1  UNL     1       8.718  22.118 -12.792  1.00  0.00     0.033 C 
HETATM   18  C3  UNL     1       7.817  20.694 -11.053  1.00  0.00     0.033 C 
HETATM   19 CL1  UNL     1       9.837  19.737 -12.476  1.00  0.00    -0.119 Cl
ENDBRANCH  12  16
ENDBRANCH   1   9
TORSDOF 2
ENDMDL
MODEL 3
REMARK VINA RESULT: -6.173385168      1.454      1.742
REMARK  2 active torsions:
REMARK  status: ('A' for Active; 'I' for Inactive)
REMARK    1  A    between atoms: C2_2  and  C4_5 
REMARK    2  A    between atoms: C8_9  and  N1_10 
REMARK       I    between atoms: N1_10  and  C9_12 
REMARK       I    between atoms: C9_12  and  N2_14 
ROOT
HETATM    1  N1  UNL     1      13.722  23.518  -9.983  1.00  0.00    -0.338 N 
ATOM      2  H1  UNL     1      13.891  22.714  -9.378  1.00  0.00     0.164 HD
HETATM    3  C9  UNL     1      14.625  24.592  -9.922  1.00  0.00     0.329 C 
HETATM    4  O1  UNL     1      14.437  25.588 -10.652  1.00  0.00    -0.246 OA
HETATM    5  N2  UNL     1      15.730  24.543  -9.046  1.00  0.00    -0.245 N 
ATOM      6  H2  UNL     1      15.853  23.715  -8.464  1.00  0.00     0.183 HD
HETATM    7  C10 UNL     1      16.668  25.587  -8.941  1.00  0.00     0.185 C 
HETATM    8  N3  UNL     1      17.431  26.461  -8.850  1.00  0.00    -0.172 NA
ENDROOT
BRANCH   1   9
HETATM    9  C8  UNL     1      12.566  23.486 -10.852  1.00  0.00     0.086 C 
HETATM   10  C7  UNL     1      12.385  22.181 -11.544  1.00  0.00     0.026 C 
HETATM   11  C6  UNL     1      11.431  21.241 -10.821  1.00  0.00     0.013 C 
HETATM   12  C4  UNL     1      10.049  21.799 -10.718  1.00  0.00    -0.023 C 
HETATM   13  C5  UNL     1       9.581  21.607  -9.292  1.00  0.00     0.017 C 
HETATM   14  C12 UNL     1      10.144  23.294 -10.952  1.00  0.00     0.013 C 
HETATM   15  C11 UNL     1      11.295  23.851 -10.135  1.00  0.00     0.026 C 
BRANCH  12  16
HETATM   16  C2  UNL     1       9.092  21.191 -11.716  1.00  0.00     0.037 C 
HETATM   17  C1  UNL     1       9.590  19.866 -12.246  1.00  0.00     0.033 C 
HETATM   18  C3  UNL     1       8.877  22.081 -12.915  1.00  0.00     0.033 C 
HETATM   19 CL1  UNL     1       7.494  20.894 -10.992  1.00  0.00    -0.119 Cl
ENDBRANCH  12  16
ENDBRANCH   1   9
TORSDOF 2
ENDMDL
MODEL 4
REMARK VINA RESULT: -6.017297143      6.937      8.620
REMARK  2 active torsions:
REMARK  status: ('A' for Active; 'I' for Inactive)
REMARK    1  A    between atoms: C2_2  and  C4_5 
REMARK    2  A    between atoms: C8_9  and  N1_10 
REMARK       I    between atoms: N1_10  and  C9_12 
REMARK       I    between atoms: C9_12  and  N2_14 
ROOT
HETATM    1  N1  UNL     1       8.129  18.032 -13.383  1.00  0.00    -0.338 N 
ATOM      2  H1  UNL     1       8.131  18.820 -12.735  1.00  0.00     0.164 HD
HETATM    3  C9  UNL     1       7.773  16.768 -12.884  1.00  0.00     0.329 C 
HETATM    4  O1  UNL     1       7.767  15.787 -13.658  1.00  0.00    -0.246 OA
HETATM    5  N2  UNL     1       7.428  16.612 -11.525  1.00  0.00    -0.245 N 
ATOM      6  H2  UNL     1       7.444  17.433 -10.921  1.00  0.00     0.183 HD
HETATM    7  C10 UNL     1       7.063  15.372 -10.968  1.00  0.00     0.185 C 
HETATM    8  N3  UNL     1       6.776  14.340 -10.512  1.00  0.00    -0.172 NA
ENDROOT
BRANCH   1   9
HETATM    9  C8  UNL     1       8.495  18.280 -14.760  1.00  0.00     0.086 C 
HETATM   10  C7  UNL     1       7.820  19.472 -15.344  1.00  0.00     0.026 C 
HETATM   11  C6  UNL     1       8.655  20.741 -15.259  1.00  0.00     0.013 C 
HETATM   12  C4  UNL     1       9.936  20.633 -16.020  1.00  0.00    -0.023 C 
HETATM   13  C5  UNL     1      11.045  21.150 -15.130  1.00  0.00     0.017 C 
HETATM   14  C12 UNL     1      10.207  19.159 -16.247  1.00  0.00     0.013 C 
HETATM   15  C11 UNL     1       9.982  18.408 -14.948  1.00  0.00     0.026 C 
BRANCH  12  16
HETATM   16  C2  UNL     1       9.894  21.350 -17.348  1.00  0.00     0.037 C 
HETATM   17  C1  UNL     1      10.718  20.644 -18.402  1.00  0.00     0.033 C 
HETATM   18  C3  UNL     1      10.430  22.758 -17.255  1.00  0.00     0.033 C 
HETATM   19 CL1  UNL     1       8.234  21.465 -17.977  1.00  0.00    -0.119 Cl
ENDBRANCH  12  16
ENDBRANCH   1   9
TORSDOF 2
ENDMDL
MODEL 5
REMARK VINA RESULT: -5.917121708      4.274      6.262
REMARK  2 active torsions:
REMARK  status: ('A' for Active; 'I' for Inactive)
REMARK    1  A    between atoms: C2_2  and  C4_5 
REMARK    2  A    between atoms: C8_9  and  N1_10 
REMARK       I    between atoms: N1_10  and  C9_12 
REMARK       I    between atoms: C9_12  and  N2_14 
ROOT
HETATM    1  N1  UNL     1      12.036  19.606 -12.157  1.00  0.00    -0.338 N 
ATOM      2  H1  UNL     1      11.369  19.745 -12.916  1.00  0.00     0.164 HD
HETATM    3  C9  UNL     1      12.712  18.376 -12.088  1.00  0.00     0.329 C 
HETATM    4  O1  UNL     1      13.533  18.183 -11.167  1.00  0.00    -0.246 OA
HETATM    5  N2  UNL     1      12.464  17.375 -13.051  1.00  0.00    -0.245 N 
ATOM      6  H2  UNL     1      11.788  17.566 -13.789  1.00  0.00     0.183 HD
HETATM    7  C10 UNL     1      13.110  16.124 -13.035  1.00  0.00     0.185 C 
HETATM    8  N3  UNL     1      13.637  15.087 -13.006  1.00  0.00    -0.172 NA
ENDROOT
BRANCH   1   9
HETATM    9  C8  UNL     1      12.231  20.685 -11.214  1.00  0.00     0.086 C 
HETATM   10  C7  UNL     1      13.261  21.669 -11.648  1.00  0.00     0.026 C 
HETATM   11  C6  UNL     1      12.679  22.873 -12.372  1.00  0.00     0.013 C 
HETATM   12  C4  UNL     1      11.753  23.667 -11.508  1.00  0.00    -0.023 C 
HETATM   13  C5  UNL     1      10.505  23.954 -12.313  1.00  0.00     0.017 C 
HETATM   14  C12 UNL     1      11.335  22.776 -10.354  1.00  0.00     0.013 C 
HETATM   15  C11 UNL     1      10.952  21.411 -10.895  1.00  0.00     0.026 C 
BRANCH  12  16
HETATM   16  C2  UNL     1      12.385  24.928 -10.970  1.00  0.00     0.037 C 
HETATM   17  C1  UNL     1      11.404  26.077 -10.915  1.00  0.00     0.033 C 
HETATM   18  C3  UNL     1      13.544  25.392 -11.817  1.00  0.00     0.033 C 
HETATM   19 CL1  UNL     1      13.006  24.695  -9.319  1.00  0.00    -0.119 Cl
ENDBRANCH  12  16
ENDBRANCH   1   9
TORSDOF 2
ENDMDL
