MODEL 1
REMARK VINA RESULT: -6.372725423      0.000      0.000
REMARK  6 active torsions:
REMARK  status: ('A' for Active; 'I' for Inactive)
REMARK    1  A    between atoms: C4_5  and  O1_6 
REMARK    2  A    between atoms: C4_5  and  C5_8 
REMARK    3  A    between atoms: C5_8  and  S2_9 
REMARK    4  A    between atoms: S2_9  and  C6_10 
REMARK    5  A    between atoms: C6_10  and  C7_11 
REMARK    6  A    between atoms: C7_11  and  C8_12 
ROOT
HETATM    1  S2  UNL     1      14.015   2.241  20.075  1.00  0.00    -0.165 SA
ENDROOT
BRANCH   1   2
HETATM    2  C5  UNL     1      14.769   0.927  19.144  1.00  0.00     0.123 C 
BRANCH   2   3
HETATM    3  C4  UNL     1      14.577  -0.449  19.686  1.00  0.00     0.122 C 
HETATM    4  S1  UNL     1      12.860  -1.010  19.646  1.00  0.00    -0.129 SA
HETATM    5  C3  UNL     1      12.754  -2.739  20.102  1.00  0.00     0.091 C 
HETATM    6  C2  UNL     1      13.501  -3.130  21.321  1.00  0.00     0.052 C 
HETATM    7  C1  UNL     1      13.829  -4.618  21.211  1.00  0.00     0.022 C 
HETATM    8  S3  UNL     1      15.022  -2.260  21.641  1.00  0.00    -0.160 SA
HETATM    9  C9  UNL     1      14.999  -0.526  21.153  1.00  0.00     0.124 C 
BRANCH   3  10
HETATM   10  O1  UNL     1      15.419  -1.378  19.024  1.00  0.00    -0.378 OA
ATOM     11  H1  UNL     1      16.240  -0.968  18.780  1.00  0.00     0.211 HD
ENDBRANCH   3  10
ENDBRANCH   2   3
ENDBRANCH   1   2
BRANCH   1  12
HETATM   12  C6  UNL     1      15.137   3.430  20.793  1.00  0.00     0.081 C 
BRANCH  12  13
HETATM   13  C7  UNL     1      16.536   2.886  20.974  1.00  0.00     0.089 C 
BRANCH  13  14
HETATM   14  C8  UNL     1      17.447   4.039  21.180  1.00  0.00     0.110 A 
HETATM   15  N1  UNL     1      17.252   5.312  20.791  1.00  0.00    -0.271 N 
HETATM   16  N2  UNL     1      18.307   6.039  21.172  1.00  0.00    -0.005 NA
ATOM     17  H1  UNL     1      16.437   5.663  20.290  1.00  0.00     0.185 HD
HETATM   18  N3  UNL     1      19.164   5.249  21.793  1.00  0.00    -0.225 N 
HETATM   19  N4  UNL     1      18.643   4.049  21.795  1.00  0.00    -0.275 N 
ATOM     20  H3  UNL     1      20.061   5.522  22.194  1.00  0.00     0.205 HD
ATOM     21  H4  UNL     1      19.086   3.228  22.209  1.00  0.00     0.189 HD
ENDBRANCH  13  14
ENDBRANCH  12  13
ENDBRANCH   1  12
TORSDOF 6
ENDMDL
MODEL 2
REMARK VINA RESULT: -6.335373846      3.731      6.079
REMARK  6 active torsions:
REMARK  status: ('A' for Active; 'I' for Inactive)
REMARK    1  A    between atoms: C4_5  and  O1_6 
REMARK    2  A    between atoms: C4_5  and  C5_8 
REMARK    3  A    between atoms: C5_8  and  S2_9 
REMARK    4  A    between atoms: S2_9  and  C6_10 
REMARK    5  A    between atoms: C6_10  and  C7_11 
REMARK    6  A    between atoms: C7_11  and  C8_12 
ROOT
HETATM    1  S2  UNL     1      13.148  -1.556  18.587  1.00  0.00    -0.165 SA
ENDROOT
BRANCH   1   2
HETATM    2  C5  UNL     1      12.717  -0.152  19.590  1.00  0.00     0.123 C 
BRANCH   2   3
HETATM    3  C4  UNL     1      13.842   0.754  19.961  1.00  0.00     0.122 C 
HETATM    4  S1  UNL     1      13.367   2.495  20.058  1.00  0.00    -0.129 SA
HETATM    5  C3  UNL     1      14.710   3.475  20.722  1.00  0.00     0.091 C 
HETATM    6  C2  UNL     1      16.043   3.232  20.119  1.00  0.00     0.052 C 
HETATM    7  C1  UNL     1      17.101   3.622  21.151  1.00  0.00     0.022 C 
HETATM    8  S3  UNL     1      16.389   1.569  19.587  1.00  0.00    -0.160 SA
HETATM    9  C9  UNL     1      14.962   0.692  18.924  1.00  0.00     0.124 C 
BRANCH   3  10
HETATM   10  O1  UNL     1      14.452   0.337  21.171  1.00  0.00    -0.378 OA
ATOM     11  H1  UNL     1      15.390   0.480  21.137  1.00  0.00     0.211 HD
ENDBRANCH   3  10
ENDBRANCH   2   3
ENDBRANCH   1   2
BRANCH   1  12
HETATM   12  C6  UNL     1      13.288  -3.114  19.447  1.00  0.00     0.081 C 
BRANCH  12  13
HETATM   13  C7  UNL     1      14.722  -3.556  19.637  1.00  0.00     0.089 C 
BRANCH  13  14
HETATM   14  C8  UNL     1      15.291  -2.772  20.761  1.00  0.00     0.110 A 
HETATM   15  N1  UNL     1      16.432  -2.060  20.764  1.00  0.00    -0.271 N 
HETATM   16  N2  UNL     1      16.582  -1.502  21.968  1.00  0.00    -0.005 NA
ATOM     17  H1  UNL     1      17.075  -1.962  19.978  1.00  0.00     0.185 HD
HETATM   18  N3  UNL     1      15.558  -1.849  22.726  1.00  0.00    -0.225 N 
HETATM   19  N4  UNL     1      14.785  -2.612  21.997  1.00  0.00    -0.275 N 
ATOM     20  H3  UNL     1      15.400  -1.574  23.696  1.00  0.00     0.205 HD
ATOM     21  H4  UNL     1      13.913  -3.030  22.323  1.00  0.00     0.189 HD
ENDBRANCH  13  14
ENDBRANCH  12  13
ENDBRANCH   1  12
TORSDOF 6
ENDMDL
MODEL 3
REMARK VINA RESULT: -6.151835996      3.636      4.366
REMARK  6 active torsions:
REMARK  status: ('A' for Active; 'I' for Inactive)
REMARK    1  A    between atoms: C4_5  and  O1_6 
REMARK    2  A    between atoms: C4_5  and  C5_8 
REMARK    3  A    between atoms: C5_8  and  S2_9 
REMARK    4  A    between atoms: S2_9  and  C6_10 
REMARK    5  A    between atoms: C6_10  and  C7_11 
REMARK    6  A    between atoms: C7_11  and  C8_12 
ROOT
HETATM    1  S2  UNL     1      13.400   0.634  19.530  1.00  0.00    -0.165 SA
ENDROOT
BRANCH   1   2
HETATM    2  C5  UNL     1      12.776  -0.814  18.708  1.00  0.00     0.123 C 
BRANCH   2   3
HETATM    3  C4  UNL     1      12.911  -2.097  19.457  1.00  0.00     0.122 C 
HETATM    4  S1  UNL     1      14.073  -3.257  18.702  1.00  0.00    -0.129 SA
HETATM    5  C3  UNL     1      14.342  -4.664  19.776  1.00  0.00     0.091 C 
HETATM    6  C2  UNL     1      13.119  -5.292  20.332  1.00  0.00     0.052 C 
HETATM    7  C1  UNL     1      13.503  -5.993  21.635  1.00  0.00     0.022 C 
HETATM    8  S3  UNL     1      11.751  -4.207  20.681  1.00  0.00    -0.160 SA
HETATM    9  C9  UNL     1      11.577  -2.839  19.522  1.00  0.00     0.124 C 
BRANCH   3  10
HETATM   10  O1  UNL     1      13.255  -1.861  20.812  1.00  0.00    -0.378 OA
ATOM     11  H1  UNL     1      12.481  -1.887  21.361  1.00  0.00     0.211 HD
ENDBRANCH   3  10
ENDBRANCH   2   3
ENDBRANCH   1   2
BRANCH   1  12
HETATM   12  C6  UNL     1      15.137   0.974  19.297  1.00  0.00     0.081 C 
BRANCH  12  13
HETATM   13  C7  UNL     1      15.881   1.160  20.601  1.00  0.00     0.089 C 
BRANCH  13  14
HETATM   14  C8  UNL     1      15.870  -0.140  21.317  1.00  0.00     0.110 A 
HETATM   15  N1  UNL     1      16.330  -1.321  20.868  1.00  0.00    -0.271 N 
HETATM   16  N2  UNL     1      16.137  -2.241  21.818  1.00  0.00    -0.005 NA
ATOM     17  H1  UNL     1      16.756  -1.488  19.957  1.00  0.00     0.185 HD
HETATM   18  N3  UNL     1      15.562  -1.663  22.857  1.00  0.00    -0.225 N 
HETATM   19  N4  UNL     1      15.403  -0.401  22.551  1.00  0.00    -0.275 N 
ATOM     20  H3  UNL     1      15.292  -2.114  23.731  1.00  0.00     0.205 HD
ATOM     21  H4  UNL     1      14.982   0.295  23.168  1.00  0.00     0.189 HD
ENDBRANCH  13  14
ENDBRANCH  12  13
ENDBRANCH   1  12
TORSDOF 6
ENDMDL
MODEL 4
REMARK VINA RESULT: -6.069160188      1.516      1.857
REMARK  6 active torsions:
REMARK  status: ('A' for Active; 'I' for Inactive)
REMARK    1  A    between atoms: C4_5  and  O1_6 
REMARK    2  A    between atoms: C4_5  and  C5_8 
REMARK    3  A    between atoms: C5_8  and  S2_9 
REMARK    4  A    between atoms: S2_9  and  C6_10 
REMARK    5  A    between atoms: C6_10  and  C7_11 
REMARK    6  A    between atoms: C7_11  and  C8_12 
ROOT
HETATM    1  S2  UNL     1      15.702   0.661  20.850  1.00  0.00    -0.165 SA
ENDROOT
BRANCH   1   2
HETATM    2  C5  UNL     1      14.633  -0.284  19.788  1.00  0.00     0.123 C 
BRANCH   2   3
HETATM    3  C4  UNL     1      14.285  -1.653  20.266  1.00  0.00     0.122 C 
HETATM    4  S1  UNL     1      14.905  -2.972  19.198  1.00  0.00    -0.129 SA
HETATM    5  C3  UNL     1      14.639  -4.572  19.957  1.00  0.00     0.091 C 
HETATM    6  C2  UNL     1      13.280  -4.807  20.502  1.00  0.00     0.052 C 
HETATM    7  C1  UNL     1      13.395  -5.858  21.607  1.00  0.00     0.022 C 
HETATM    8  S3  UNL     1      12.434  -3.395  21.181  1.00  0.00    -0.160 SA
HETATM    9  C9  UNL     1      12.771  -1.848  20.321  1.00  0.00     0.124 C 
BRANCH   3  10
HETATM   10  O1  UNL     1      14.719  -1.850  21.601  1.00  0.00    -0.378 OA
ATOM     11  H1  UNL     1      14.938  -2.762  21.749  1.00  0.00     0.211 HD
ENDBRANCH   3  10
ENDBRANCH   2   3
ENDBRANCH   1   2
BRANCH   1  12
HETATM   12  C6  UNL     1      16.442   2.112  20.118  1.00  0.00     0.081 C 
BRANCH  12  13
HETATM   13  C7  UNL     1      15.995   3.398  20.777  1.00  0.00     0.089 C 
BRANCH  13  14
HETATM   14  C8  UNL     1      17.211   4.172  21.129  1.00  0.00     0.110 A 
HETATM   15  N1  UNL     1      17.460   5.466  20.863  1.00  0.00    -0.271 N 
HETATM   16  N2  UNL     1      18.664   5.777  21.351  1.00  0.00    -0.005 NA
ATOM     17  H1  UNL     1      16.834   6.104  20.371  1.00  0.00     0.185 HD
HETATM   18  N3  UNL     1      19.181   4.703  21.919  1.00  0.00    -0.225 N 
HETATM   19  N4  UNL     1      18.304   3.741  21.783  1.00  0.00    -0.275 N 
ATOM     20  H3  UNL     1      20.090   4.636  22.377  1.00  0.00     0.205 HD
ATOM     21  H4  UNL     1      18.433   2.789  22.128  1.00  0.00     0.189 HD
ENDBRANCH  13  14
ENDBRANCH  12  13
ENDBRANCH   1  12
TORSDOF 6
ENDMDL
MODEL 5
REMARK VINA RESULT: -6.050109747      3.221      3.822
REMARK  6 active torsions:
REMARK  status: ('A' for Active; 'I' for Inactive)
REMARK    1  A    between atoms: C4_5  and  O1_6 
REMARK    2  A    between atoms: C4_5  and  C5_8 
REMARK    3  A    between atoms: C5_8  and  S2_9 
REMARK    4  A    between atoms: S2_9  and  C6_10 
REMARK    5  A    between atoms: C6_10  and  C7_11 
REMARK    6  A    between atoms: C7_11  and  C8_12 
ROOT
HETATM    1  S2  UNL     1      12.386   0.484  18.516  1.00  0.00    -0.165 SA
ENDROOT
BRANCH   1   2
HETATM    2  C5  UNL     1      12.468  -1.146  17.809  1.00  0.00     0.123 C 
BRANCH   2   3
HETATM    3  C4  UNL     1      12.824  -2.247  18.750  1.00  0.00     0.122 C 
HETATM    4  S1  UNL     1      11.820  -3.735  18.536  1.00  0.00    -0.129 SA
HETATM    5  C3  UNL     1      12.458  -5.071  19.542  1.00  0.00     0.091 C 
HETATM    6  C2  UNL     1      12.757  -4.728  20.953  1.00  0.00     0.052 C 
HETATM    7  C1  UNL     1      13.821  -5.703  21.457  1.00  0.00     0.022 C 
HETATM    8  S3  UNL     1      13.342  -3.076  21.268  1.00  0.00    -0.160 SA
HETATM    9  C9  UNL     1      12.616  -1.818  20.202  1.00  0.00     0.124 C 
BRANCH   3  10
HETATM   10  O1  UNL     1      14.203  -2.562  18.665  1.00  0.00    -0.378 OA
ATOM     11  H1  UNL     1      14.601  -2.117  17.926  1.00  0.00     0.211 HD
ENDBRANCH   3  10
ENDBRANCH   2   3
ENDBRANCH   1   2
BRANCH   1  12
HETATM   12  C6  UNL     1      13.756   1.565  18.142  1.00  0.00     0.081 C 
BRANCH  12  13
HETATM   13  C7  UNL     1      14.437   2.103  19.380  1.00  0.00     0.089 C 
BRANCH  13  14
HETATM   14  C8  UNL     1      15.131   0.971  20.042  1.00  0.00     0.110 A 
HETATM   15  N1  UNL     1      15.298   0.775  21.362  1.00  0.00    -0.271 N 
HETATM   16  N2  UNL     1      15.974  -0.364  21.541  1.00  0.00    -0.005 NA
ATOM     17  H1  UNL     1      14.965   1.392  22.102  1.00  0.00     0.185 HD
HETATM   18  N3  UNL     1      16.237  -0.890  20.358  1.00  0.00    -0.225 N 
HETATM   19  N4  UNL     1      15.730  -0.085  19.461  1.00  0.00    -0.275 N 
ATOM     20  H3  UNL     1      16.741  -1.759  20.179  1.00  0.00     0.205 HD
ATOM     21  H4  UNL     1      15.781  -0.238  18.453  1.00  0.00     0.189 HD
ENDBRANCH  13  14
ENDBRANCH  12  13
ENDBRANCH   1  12
TORSDOF 6
ENDMDL
