MODEL 1
REMARK VINA RESULT: -7.714856529      0.000      0.000
REMARK  14 active torsions:
REMARK  status: ('A' for Active; 'I' for Inactive)
REMARK    1  A    between atoms: C2_2  and  C3_3 
REMARK    2  A    between atoms: C3_3  and  O1_4 
REMARK    3  A    between atoms: O1_4  and  C4_5 
REMARK    4  A    between atoms: C5_6  and  O2_7 
REMARK    5  A    between atoms: O2_7  and  C6_8 
REMARK    6  A    between atoms: C12_14  and  O3_15 
REMARK    7  A    between atoms: C13_18  and  C14_19 
REMARK    8  A    between atoms: C14_19  and  O5_20 
REMARK    9  A    between atoms: C15_22  and  O6_23 
REMARK   10  A    between atoms: C16_25  and  O7_26 
REMARK   11  A    between atoms: C17_28  and  C18_29 
REMARK   12  A    between atoms: C17_28  and  C20_33 
REMARK   13  A    between atoms: C18_29  and  O9_31 
REMARK   14  A    between atoms: C20_33  and  C22_35 
ROOT
HETATM    1  C4  UNL     1      21.252 -38.638   4.397  1.00  0.00     0.214 C 
HETATM    2  C5  UNL     1      20.154 -37.589   4.615  1.00  0.00     0.292 C 
HETATM    3  O4  UNL     1      20.712 -36.344   4.722  1.00  0.00    -0.348 OA
HETATM    4  C13 UNL     1      22.058 -36.273   4.919  1.00  0.00     0.179 C 
HETATM    5  C15 UNL     1      22.871 -36.915   3.825  1.00  0.00     0.180 C 
HETATM    6  C16 UNL     1      22.057 -38.110   3.271  1.00  0.00     0.183 C 
ENDROOT
BRANCH   1   7
HETATM    7  O1  UNL     1      20.803 -39.909   4.429  1.00  0.00    -0.342 OA
BRANCH   7   8
HETATM    8  C3  UNL     1      20.776 -40.968   5.294  1.00  0.00     0.059 C 
HETATM    9  C17 UNL     1      19.680 -41.476   5.819  1.00  0.00     0.055 C 
BRANCH   8  10
HETATM   10  C2  UNL     1      22.113 -41.516   5.603  1.00  0.00     0.061 C 
HETATM   11  C1  UNL     1      22.581 -40.791   6.869  1.00  0.00     0.012 C 
ENDBRANCH   8  10
BRANCH   9  12
HETATM   12  C18 UNL     1      19.572 -42.593   6.747  1.00  0.00     0.292 C 
HETATM   13  O8  UNL     1      19.620 -43.823   6.350  1.00  0.00    -0.259 OA
BRANCH  12  14
HETATM   14  O9  UNL     1      19.410 -42.461   8.085  1.00  0.00    -0.323 OA
HETATM   15  C19 UNL     1      18.623 -43.296   8.907  1.00  0.00     0.213 C 
ENDBRANCH  12  14
ENDBRANCH   9  12
BRANCH   9  16
HETATM   16  C20 UNL     1      18.309 -40.990   5.510  1.00  0.00     0.061 C 
HETATM   17  C21 UNL     1      17.177 -41.872   5.453  1.00  0.00     0.021 C 
BRANCH  16  18
HETATM   18  C22 UNL     1      18.033 -39.934   6.564  1.00  0.00     0.062 C 
HETATM   19  N1  UNL     1      17.244 -40.220   7.511  1.00  0.00    -0.410 N 
ATOM     20  H12 UNL     1      16.812 -41.143   7.551  1.00  0.00     0.155 HD
ATOM     21  H11 UNL     1      17.059 -39.509   8.219  1.00  0.00     0.155 HD
ENDBRANCH  16  18
ENDBRANCH   9  16
ENDBRANCH   7   8
ENDBRANCH   1   7
BRANCH   2  22
HETATM   22  O2  UNL     1      19.235 -37.542   3.597  1.00  0.00    -0.351 OA
BRANCH  22  23
HETATM   23  C6  UNL     1      18.006 -37.085   4.068  1.00  0.00     0.153 C 
HETATM   24  C7  UNL     1      16.933 -37.985   3.599  1.00  0.00     0.039 C 
HETATM   25  C8  UNL     1      15.658 -37.372   3.185  1.00  0.00    -0.016 C 
HETATM   26  C9  UNL     1      14.988 -38.301   2.160  1.00  0.00     0.010 C 
HETATM   27  C10 UNL     1      15.730 -36.028   2.565  1.00  0.00     0.007 C 
HETATM   28  C11 UNL     1      17.175 -35.685   2.220  1.00  0.00     0.034 C 
HETATM   29  C12 UNL     1      17.874 -35.658   3.586  1.00  0.00     0.147 C 
BRANCH  29  30
HETATM   30  O3  UNL     1      17.110 -34.890   4.447  1.00  0.00    -0.393 OA
ATOM     31  H3  UNL     1      17.396 -33.984   4.464  1.00  0.00     0.210 HD
ENDBRANCH  29  30
ENDBRANCH  22  23
ENDBRANCH   2  22
BRANCH   6  32
HETATM   32  O7  UNL     1      21.240 -37.478   2.293  1.00  0.00    -0.390 OA
ATOM     33  H7  UNL     1      21.091 -38.042   1.543  1.00  0.00     0.210 HD
ENDBRANCH   6  32
BRANCH   5  34
HETATM   34  O6  UNL     1      23.163 -36.044   2.794  1.00  0.00    -0.390 OA
ATOM     35  H6  UNL     1      24.089 -35.840   2.735  1.00  0.00     0.210 HD
ENDBRANCH   5  34
BRANCH   4  36
HETATM   36  C14 UNL     1      22.426 -34.779   4.892  1.00  0.00     0.198 C 
BRANCH  36  37
HETATM   37  O5  UNL     1      21.312 -33.984   5.069  1.00  0.00    -0.398 OA
ATOM     38  H5  UNL     1      21.311 -33.577   5.926  1.00  0.00     0.209 HD
ENDBRANCH  36  37
ENDBRANCH   4  36
TORSDOF 14
ENDMDL
MODEL 2
REMARK VINA RESULT: -7.582737724      1.494      2.311
REMARK  14 active torsions:
REMARK  status: ('A' for Active; 'I' for Inactive)
REMARK    1  A    between atoms: C2_2  and  C3_3 
REMARK    2  A    between atoms: C3_3  and  O1_4 
REMARK    3  A    between atoms: O1_4  and  C4_5 
REMARK    4  A    between atoms: C5_6  and  O2_7 
REMARK    5  A    between atoms: O2_7  and  C6_8 
REMARK    6  A    between atoms: C12_14  and  O3_15 
REMARK    7  A    between atoms: C13_18  and  C14_19 
REMARK    8  A    between atoms: C14_19  and  O5_20 
REMARK    9  A    between atoms: C15_22  and  O6_23 
REMARK   10  A    between atoms: C16_25  and  O7_26 
REMARK   11  A    between atoms: C17_28  and  C18_29 
REMARK   12  A    between atoms: C17_28  and  C20_33 
REMARK   13  A    between atoms: C18_29  and  O9_31 
REMARK   14  A    between atoms: C20_33  and  C22_35 
ROOT
HETATM    1  C4  UNL     1      20.542 -38.641   4.605  1.00  0.00     0.214 C 
HETATM    2  C5  UNL     1      19.674 -37.376   4.567  1.00  0.00     0.292 C 
HETATM    3  O4  UNL     1      20.470 -36.263   4.584  1.00  0.00    -0.348 OA
HETATM    4  C13 UNL     1      21.778 -36.431   4.924  1.00  0.00     0.179 C 
HETATM    5  C15 UNL     1      22.531 -37.370   4.016  1.00  0.00     0.180 C 
HETATM    6  C16 UNL     1      21.535 -38.448   3.522  1.00  0.00     0.183 C 
ENDROOT
BRANCH   1   7
HETATM    7  O1  UNL     1      19.835 -39.780   4.740  1.00  0.00    -0.342 OA
BRANCH   7   8
HETATM    8  C3  UNL     1      19.033 -40.389   5.665  1.00  0.00     0.059 C 
HETATM    9  C17 UNL     1      19.410 -40.710   6.887  1.00  0.00     0.055 C 
BRANCH   8  10
HETATM   10  C2  UNL     1      17.668 -40.670   5.175  1.00  0.00     0.061 C 
HETATM   11  C1  UNL     1      17.677 -42.134   4.724  1.00  0.00     0.012 C 
ENDBRANCH   8  10
BRANCH   9  12
HETATM   12  C18 UNL     1      18.620 -41.361   7.921  1.00  0.00     0.292 C 
HETATM   13  O8  UNL     1      18.654 -42.641   8.109  1.00  0.00    -0.259 OA
BRANCH  12  14
HETATM   14  O9  UNL     1      17.787 -40.712   8.769  1.00  0.00    -0.323 OA
HETATM   15  C19 UNL     1      17.626 -40.992  10.143  1.00  0.00     0.213 C 
ENDBRANCH  12  14
ENDBRANCH   9  12
BRANCH   9  16
HETATM   16  C20 UNL     1      20.757 -40.413   7.444  1.00  0.00     0.061 C 
HETATM   17  C21 UNL     1      20.976 -40.191   8.846  1.00  0.00     0.021 C 
BRANCH  16  18
HETATM   18  C22 UNL     1      21.614 -41.588   7.012  1.00  0.00     0.062 C 
HETATM   19  N1  UNL     1      22.353 -41.452   5.994  1.00  0.00    -0.410 N 
ATOM     20  H12 UNL     1      22.361 -40.567   5.487  1.00  0.00     0.155 HD
ATOM     21  H11 UNL     1      22.930 -42.242   5.704  1.00  0.00     0.155 HD
ENDBRANCH  16  18
ENDBRANCH   9  16
ENDBRANCH   7   8
ENDBRANCH   1   7
BRANCH   2  22
HETATM   22  O2  UNL     1      18.877 -37.295   3.452  1.00  0.00    -0.351 OA
BRANCH  22  23
HETATM   23  C6  UNL     1      17.602 -36.852   3.794  1.00  0.00     0.153 C 
HETATM   24  C7  UNL     1      16.598 -37.827   3.321  1.00  0.00     0.039 C 
HETATM   25  C8  UNL     1      15.339 -37.297   2.767  1.00  0.00    -0.016 C 
HETATM   26  C9  UNL     1      14.780 -38.329   1.774  1.00  0.00     0.010 C 
HETATM   27  C10 UNL     1      15.412 -36.004   2.048  1.00  0.00     0.007 C 
HETATM   28  C11 UNL     1      16.867 -35.632   1.784  1.00  0.00     0.034 C 
HETATM   29  C12 UNL     1      17.459 -35.472   3.191  1.00  0.00     0.147 C 
BRANCH  29  30
HETATM   30  O3  UNL     1      16.606 -34.671   3.929  1.00  0.00    -0.393 OA
ATOM     31  H3  UNL     1      16.922 -34.539   4.816  1.00  0.00     0.210 HD
ENDBRANCH  29  30
ENDBRANCH  22  23
ENDBRANCH   2  22
BRANCH   6  32
HETATM   32  O7  UNL     1      20.957 -37.813   2.388  1.00  0.00    -0.390 OA
ATOM     33  H7  UNL     1      21.527 -37.140   2.035  1.00  0.00     0.210 HD
ENDBRANCH   6  32
BRANCH   5  34
HETATM   34  O6  UNL     1      23.088 -36.729   2.927  1.00  0.00    -0.390 OA
ATOM     35  H6  UNL     1      23.158 -35.790   3.049  1.00  0.00     0.210 HD
ENDBRANCH   5  34
BRANCH   4  36
HETATM   36  C14 UNL     1      22.453 -35.058   4.757  1.00  0.00     0.198 C 
BRANCH  36  37
HETATM   37  O5  UNL     1      21.702 -34.056   5.335  1.00  0.00    -0.398 OA
ATOM     38  H5  UNL     1      21.325 -34.338   6.160  1.00  0.00     0.209 HD
ENDBRANCH  36  37
ENDBRANCH   4  36
TORSDOF 14
ENDMDL
MODEL 3
REMARK VINA RESULT: -7.579123506      1.467      2.346
REMARK  14 active torsions:
REMARK  status: ('A' for Active; 'I' for Inactive)
REMARK    1  A    between atoms: C2_2  and  C3_3 
REMARK    2  A    between atoms: C3_3  and  O1_4 
REMARK    3  A    between atoms: O1_4  and  C4_5 
REMARK    4  A    between atoms: C5_6  and  O2_7 
REMARK    5  A    between atoms: O2_7  and  C6_8 
REMARK    6  A    between atoms: C12_14  and  O3_15 
REMARK    7  A    between atoms: C13_18  and  C14_19 
REMARK    8  A    between atoms: C14_19  and  O5_20 
REMARK    9  A    between atoms: C15_22  and  O6_23 
REMARK   10  A    between atoms: C16_25  and  O7_26 
REMARK   11  A    between atoms: C17_28  and  C18_29 
REMARK   12  A    between atoms: C17_28  and  C20_33 
REMARK   13  A    between atoms: C18_29  and  O9_31 
REMARK   14  A    between atoms: C20_33  and  C22_35 
ROOT
HETATM    1  C4  UNL     1      20.433 -38.457   4.405  1.00  0.00     0.214 C 
HETATM    2  C5  UNL     1      19.295 -37.428   4.424  1.00  0.00     0.292 C 
HETATM    3  O4  UNL     1      19.808 -36.167   4.568  1.00  0.00    -0.348 OA
HETATM    4  C13 UNL     1      21.108 -36.059   4.956  1.00  0.00     0.179 C 
HETATM    5  C15 UNL     1      22.086 -36.716   4.015  1.00  0.00     0.180 C 
HETATM    6  C16 UNL     1      21.384 -37.946   3.391  1.00  0.00     0.183 C 
ENDROOT
BRANCH   1   7
HETATM    7  O1  UNL     1      20.007 -39.736   4.416  1.00  0.00    -0.342 OA
BRANCH   7   8
HETATM    8  C3  UNL     1      19.403 -40.612   5.275  1.00  0.00     0.059 C 
HETATM    9  C17 UNL     1      20.006 -41.205   6.285  1.00  0.00     0.055 C 
BRANCH   8  10
HETATM   10  C2  UNL     1      17.976 -40.849   4.974  1.00  0.00     0.061 C 
HETATM   11  C1  UNL     1      17.191 -39.906   5.892  1.00  0.00     0.012 C 
ENDBRANCH   8  10
BRANCH   9  12
HETATM   12  C18 UNL     1      19.434 -42.149   7.235  1.00  0.00     0.292 C 
HETATM   13  O8  UNL     1      19.454 -43.426   7.031  1.00  0.00    -0.259 OA
BRANCH  12  14
HETATM   14  O9  UNL     1      18.836 -41.795   8.397  1.00  0.00    -0.323 OA
HETATM   15  C19 UNL     1      17.522 -42.136   8.786  1.00  0.00     0.213 C 
ENDBRANCH  12  14
ENDBRANCH   9  12
BRANCH   9  16
HETATM   16  C20 UNL     1      21.427 -40.970   6.658  1.00  0.00     0.061 C 
HETATM   17  C21 UNL     1      21.908 -41.145   7.999  1.00  0.00     0.021 C 
BRANCH  16  18
HETATM   18  C22 UNL     1      22.216 -41.894   5.748  1.00  0.00     0.062 C 
HETATM   19  N1  UNL     1      22.883 -41.383   4.802  1.00  0.00    -0.410 N 
ATOM     20  H12 UNL     1      22.881 -40.372   4.668  1.00  0.00     0.155 HD
ATOM     21  H11 UNL     1      23.413 -42.004   4.191  1.00  0.00     0.155 HD
ENDBRANCH  16  18
ENDBRANCH   9  16
ENDBRANCH   7   8
ENDBRANCH   1   7
BRANCH   2  22
HETATM   22  O2  UNL     1      18.534 -37.435   3.282  1.00  0.00    -0.351 OA
BRANCH  22  23
HETATM   23  C6  UNL     1      17.258 -36.940   3.541  1.00  0.00     0.153 C 
HETATM   24  C7  UNL     1      16.248 -37.903   3.059  1.00  0.00     0.039 C 
HETATM   25  C8  UNL     1      15.035 -37.361   2.421  1.00  0.00    -0.016 C 
HETATM   26  C9  UNL     1      14.492 -38.417   1.444  1.00  0.00     0.010 C 
HETATM   27  C10 UNL     1      15.185 -36.102   1.654  1.00  0.00     0.007 C 
HETATM   28  C11 UNL     1      16.662 -35.785   1.448  1.00  0.00     0.034 C 
HETATM   29  C12 UNL     1      17.190 -35.583   2.875  1.00  0.00     0.147 C 
BRANCH  29  30
HETATM   30  O3  UNL     1      16.328 -34.726   3.536  1.00  0.00    -0.393 OA
ATOM     31  H3  UNL     1      16.110 -33.966   3.010  1.00  0.00     0.210 HD
ENDBRANCH  29  30
ENDBRANCH  22  23
ENDBRANCH   2  22
BRANCH   6  32
HETATM   32  O7  UNL     1      20.707 -37.366   2.283  1.00  0.00    -0.390 OA
ATOM     33  H7  UNL     1      21.011 -36.482   2.111  1.00  0.00     0.210 HD
ENDBRANCH   6  32
BRANCH   5  34
HETATM   34  O6  UNL     1      22.509 -35.871   3.008  1.00  0.00    -0.390 OA
ATOM     35  H6  UNL     1      22.463 -36.272   2.148  1.00  0.00     0.210 HD
ENDBRANCH   5  34
BRANCH   4  36
HETATM   36  C14 UNL     1      21.449 -34.558   4.931  1.00  0.00     0.198 C 
BRANCH  36  37
HETATM   37  O5  UNL     1      22.571 -34.285   5.685  1.00  0.00    -0.398 OA
ATOM     38  H5  UNL     1      23.277 -34.888   5.487  1.00  0.00     0.209 HD
ENDBRANCH  36  37
ENDBRANCH   4  36
TORSDOF 14
ENDMDL
MODEL 4
REMARK VINA RESULT: -7.533550806      2.106      5.881
REMARK  14 active torsions:
REMARK  status: ('A' for Active; 'I' for Inactive)
REMARK    1  A    between atoms: C2_2  and  C3_3 
REMARK    2  A    between atoms: C3_3  and  O1_4 
REMARK    3  A    between atoms: O1_4  and  C4_5 
REMARK    4  A    between atoms: C5_6  and  O2_7 
REMARK    5  A    between atoms: O2_7  and  C6_8 
REMARK    6  A    between atoms: C12_14  and  O3_15 
REMARK    7  A    between atoms: C13_18  and  C14_19 
REMARK    8  A    between atoms: C14_19  and  O5_20 
REMARK    9  A    between atoms: C15_22  and  O6_23 
REMARK   10  A    between atoms: C16_25  and  O7_26 
REMARK   11  A    between atoms: C17_28  and  C18_29 
REMARK   12  A    between atoms: C17_28  and  C20_33 
REMARK   13  A    between atoms: C18_29  and  O9_31 
REMARK   14  A    between atoms: C20_33  and  C22_35 
ROOT
HETATM    1  C4  UNL     1      20.223 -37.937   4.200  1.00  0.00     0.214 C 
HETATM    2  C5  UNL     1      21.107 -39.020   4.833  1.00  0.00     0.292 C 
HETATM    3  O4  UNL     1      22.272 -39.145   4.125  1.00  0.00    -0.348 OA
HETATM    4  C13 UNL     1      22.324 -38.565   2.894  1.00  0.00     0.179 C 
HETATM    5  C15 UNL     1      22.096 -37.075   2.908  1.00  0.00     0.180 C 
HETATM    6  C16 UNL     1      21.113 -36.760   4.062  1.00  0.00     0.183 C 
ENDROOT
BRANCH   1   7
HETATM    7  O1  UNL     1      18.994 -37.852   4.746  1.00  0.00    -0.342 OA
BRANCH   7   8
HETATM    8  C3  UNL     1      17.703 -38.169   4.427  1.00  0.00     0.059 C 
HETATM    9  C17 UNL     1      16.957 -37.496   3.573  1.00  0.00     0.055 C 
BRANCH   8  10
HETATM   10  C2  UNL     1      17.191 -39.359   5.135  1.00  0.00     0.061 C 
HETATM   11  C1  UNL     1      17.565 -40.561   4.262  1.00  0.00     0.012 C 
ENDBRANCH   8  10
BRANCH   9  12
HETATM   12  C18 UNL     1      15.580 -37.766   3.188  1.00  0.00     0.292 C 
HETATM   13  O8  UNL     1      15.282 -38.567   2.216  1.00  0.00    -0.259 OA
BRANCH  12  14
HETATM   14  O9  UNL     1      14.497 -37.218   3.789  1.00  0.00    -0.323 OA
HETATM   15  C19 UNL     1      13.443 -36.544   3.135  1.00  0.00     0.213 C 
ENDBRANCH  12  14
ENDBRANCH   9  12
BRANCH   9  16
HETATM   16  C20 UNL     1      17.436 -36.317   2.802  1.00  0.00     0.061 C 
HETATM   17  C21 UNL     1      16.883 -35.958   1.527  1.00  0.00     0.021 C 
BRANCH  16  18
HETATM   18  C22 UNL     1      17.248 -35.145   3.747  1.00  0.00     0.062 C 
HETATM   19  N1  UNL     1      18.254 -34.719   4.385  1.00  0.00    -0.410 N 
ATOM     20  H12 UNL     1      19.163 -35.165   4.257  1.00  0.00     0.155 HD
ATOM     21  H11 UNL     1      18.128 -33.930   5.020  1.00  0.00     0.155 HD
ENDBRANCH  16  18
ENDBRANCH   9  16
ENDBRANCH   7   8
ENDBRANCH   1   7
BRANCH   2  22
HETATM   22  O2  UNL     1      21.445 -38.755   6.137  1.00  0.00    -0.351 OA
BRANCH  22  23
HETATM   23  C6  UNL     1      21.621 -39.940   6.847  1.00  0.00     0.153 C 
HETATM   24  C7  UNL     1      21.184 -41.081   6.017  1.00  0.00     0.039 C 
HETATM   25  C8  UNL     1      20.465 -42.180   6.689  1.00  0.00    -0.016 C 
HETATM   26  C9  UNL     1      19.558 -42.864   5.654  1.00  0.00     0.010 C 
HETATM   27  C10 UNL     1      19.607 -41.815   7.840  1.00  0.00     0.007 C 
HETATM   28  C11 UNL     1      19.425 -40.302   7.902  1.00  0.00     0.034 C 
HETATM   29  C12 UNL     1      20.849 -39.778   8.137  1.00  0.00     0.147 C 
BRANCH  29  30
HETATM   30  O3  UNL     1      21.411 -40.505   9.171  1.00  0.00    -0.393 OA
ATOM     31  H3  UNL     1      21.743 -41.345   8.875  1.00  0.00     0.210 HD
ENDBRANCH  29  30
ENDBRANCH  22  23
ENDBRANCH   2  22
BRANCH   6  32
HETATM   32  O7  UNL     1      21.994 -36.636   5.171  1.00  0.00    -0.390 OA
ATOM     33  H7  UNL     1      22.901 -36.572   4.892  1.00  0.00     0.210 HD
ENDBRANCH   6  32
BRANCH   5  34
HETATM   34  O6  UNL     1      23.261 -36.357   3.091  1.00  0.00    -0.390 OA
ATOM     35  H6  UNL     1      23.478 -35.811   2.345  1.00  0.00     0.210 HD
ENDBRANCH   5  34
BRANCH   4  36
HETATM   36  C14 UNL     1      23.760 -38.763   2.378  1.00  0.00     0.198 C 
BRANCH  36  37
HETATM   37  O5  UNL     1      23.860 -38.450   1.038  1.00  0.00    -0.398 OA
ATOM     38  H5  UNL     1      23.740 -37.519   0.890  1.00  0.00     0.209 HD
ENDBRANCH  36  37
ENDBRANCH   4  36
TORSDOF 14
ENDMDL
MODEL 5
REMARK VINA RESULT: -7.495921959      2.224      6.118
REMARK  14 active torsions:
REMARK  status: ('A' for Active; 'I' for Inactive)
REMARK    1  A    between atoms: C2_2  and  C3_3 
REMARK    2  A    between atoms: C3_3  and  O1_4 
REMARK    3  A    between atoms: O1_4  and  C4_5 
REMARK    4  A    between atoms: C5_6  and  O2_7 
REMARK    5  A    between atoms: O2_7  and  C6_8 
REMARK    6  A    between atoms: C12_14  and  O3_15 
REMARK    7  A    between atoms: C13_18  and  C14_19 
REMARK    8  A    between atoms: C14_19  and  O5_20 
REMARK    9  A    between atoms: C15_22  and  O6_23 
REMARK   10  A    between atoms: C16_25  and  O7_26 
REMARK   11  A    between atoms: C17_28  and  C18_29 
REMARK   12  A    between atoms: C17_28  and  C20_33 
REMARK   13  A    between atoms: C18_29  and  O9_31 
REMARK   14  A    between atoms: C20_33  and  C22_35 
ROOT
HETATM    1  C4  UNL     1      20.241 -37.921   4.223  1.00  0.00     0.214 C 
HETATM    2  C5  UNL     1      21.038 -39.142   4.703  1.00  0.00     0.292 C 
HETATM    3  O4  UNL     1      22.206 -39.244   3.997  1.00  0.00    -0.348 OA
HETATM    4  C13 UNL     1      22.322 -38.499   2.863  1.00  0.00     0.179 C 
HETATM    5  C15 UNL     1      22.193 -37.014   3.090  1.00  0.00     0.180 C 
HETATM    6  C16 UNL     1      21.209 -36.801   4.267  1.00  0.00     0.183 C 
ENDROOT
BRANCH   1   7
HETATM    7  O1  UNL     1      19.009 -37.832   4.763  1.00  0.00    -0.342 OA
BRANCH   7   8
HETATM    8  C3  UNL     1      17.720 -38.156   4.442  1.00  0.00     0.059 C 
HETATM    9  C17 UNL     1      16.972 -37.490   3.585  1.00  0.00     0.055 C 
BRANCH   8  10
HETATM   10  C2  UNL     1      17.213 -39.347   5.153  1.00  0.00     0.061 C 
HETATM   11  C1  UNL     1      17.630 -40.552   4.303  1.00  0.00     0.012 C 
ENDBRANCH   8  10
BRANCH   9  12
HETATM   12  C18 UNL     1      15.597 -37.768   3.198  1.00  0.00     0.292 C 
HETATM   13  O8  UNL     1      15.305 -38.562   2.219  1.00  0.00    -0.259 OA
BRANCH  12  14
HETATM   14  O9  UNL     1      14.510 -37.235   3.806  1.00  0.00    -0.323 OA
HETATM   15  C19 UNL     1      13.512 -36.459   3.179  1.00  0.00     0.213 C 
ENDBRANCH  12  14
ENDBRANCH   9  12
BRANCH   9  16
HETATM   16  C20 UNL     1      17.446 -36.310   2.812  1.00  0.00     0.061 C 
HETATM   17  C21 UNL     1      16.877 -35.944   1.545  1.00  0.00     0.021 C 
BRANCH  16  18
HETATM   18  C22 UNL     1      17.277 -35.140   3.763  1.00  0.00     0.062 C 
HETATM   19  N1  UNL     1      18.297 -34.710   4.375  1.00  0.00    -0.410 N 
ATOM     20  H12 UNL     1      19.204 -35.150   4.222  1.00  0.00     0.155 HD
ATOM     21  H11 UNL     1      18.183 -33.922   5.015  1.00  0.00     0.155 HD
ENDBRANCH  16  18
ENDBRANCH   9  16
ENDBRANCH   7   8
ENDBRANCH   1   7
BRANCH   2  22
HETATM   22  O2  UNL     1      21.365 -39.091   6.035  1.00  0.00    -0.351 OA
BRANCH  22  23
HETATM   23  C6  UNL     1      21.252 -40.352   6.615  1.00  0.00     0.153 C 
HETATM   24  C7  UNL     1      19.912 -40.500   7.218  1.00  0.00     0.039 C 
HETATM   25  C8  UNL     1      19.817 -41.207   8.508  1.00  0.00    -0.016 C 
HETATM   26  C9  UNL     1      18.574 -40.689   9.250  1.00  0.00     0.010 C 
HETATM   27  C10 UNL     1      20.963 -41.067   9.437  1.00  0.00     0.007 C 
HETATM   28  C11 UNL     1      21.893 -39.957   8.960  1.00  0.00     0.034 C 
HETATM   29  C12 UNL     1      22.393 -40.465   7.602  1.00  0.00     0.147 C 
BRANCH  29  30
HETATM   30  O3  UNL     1      22.813 -41.774   7.759  1.00  0.00    -0.393 OA
ATOM     31  H3  UNL     1      22.410 -42.188   8.513  1.00  0.00     0.210 HD
ENDBRANCH  29  30
ENDBRANCH  22  23
ENDBRANCH   2  22
BRANCH   6  32
HETATM   32  O7  UNL     1      22.074 -36.898   5.391  1.00  0.00    -0.390 OA
ATOM     33  H7  UNL     1      21.587 -36.997   6.201  1.00  0.00     0.210 HD
ENDBRANCH   6  32
BRANCH   5  34
HETATM   34  O6  UNL     1      23.399 -36.412   3.388  1.00  0.00    -0.390 OA
ATOM     35  H6  UNL     1      23.684 -36.579   4.278  1.00  0.00     0.210 HD
ENDBRANCH   5  34
BRANCH   4  36
HETATM   36  C14 UNL     1      23.752 -38.719   2.340  1.00  0.00     0.198 C 
BRANCH  36  37
HETATM   37  O5  UNL     1      23.889 -38.262   1.045  1.00  0.00    -0.398 OA
ATOM     38  H5  UNL     1      24.797 -38.276   0.768  1.00  0.00     0.209 HD
ENDBRANCH  36  37
ENDBRANCH   4  36
TORSDOF 14
ENDMDL
