MODEL 1
REMARK VINA RESULT: -7.997645409      0.000      0.000
REMARK  6 active torsions:
REMARK  status: ('A' for Active; 'I' for Inactive)
REMARK    1  A    between atoms: C2_2  and  C3_3 
REMARK    2  A    between atoms: C4_8  and  N3_9 
REMARK    3  A    between atoms: N3_9  and  C5_11 
REMARK    4  A    between atoms: C8_14  and  C9_15 
REMARK    5  A    between atoms: C9_15  and  N4_16 
REMARK    6  A    between atoms: N5_23  and  C16_24 
ROOT
HETATM    1  C3  UNL     1      -4.078   1.334  11.960  1.00  0.00     0.138 A 
HETATM    2  N1  UNL     1      -3.850   1.685  10.682  1.00  0.00    -0.273 N 
ATOM      3  H1  UNL     1      -3.631   1.039   9.923  1.00  0.00     0.189 HD
HETATM    4  N2  UNL     1      -3.954   3.018  10.562  1.00  0.00    -0.130 N 
ATOM      5  H2  UNL     1      -3.830   3.562   9.708  1.00  0.00     0.205 HD
HETATM    6  C4  UNL     1      -4.251   3.500  11.781  1.00  0.00     0.715 A 
HETATM    7  N5  UNL     1      -4.327   2.471  12.635  1.00  0.00     0.036 N 
ENDROOT
BRANCH   6   8
HETATM    8  N3  UNL     1      -4.431   4.752  12.063  1.00  0.00    -0.219 N 
ATOM      9  H3  UNL     1      -3.871   5.189  12.795  1.00  0.00     0.178 HD
BRANCH   8  10
HETATM   10  C5  UNL     1      -5.420   5.537  11.351  1.00  0.00     0.099 C 
HETATM   11  C6  UNL     1      -6.253   6.249  12.389  1.00  0.00     0.026 C 
HETATM   12  C7  UNL     1      -7.187   7.262  11.821  1.00  0.00     0.008 C 
HETATM   13  C8  UNL     1      -6.543   8.157  10.787  1.00  0.00     0.014 C 
HETATM   14  C14 UNL     1      -5.073   7.912  10.723  1.00  0.00     0.008 C 
HETATM   15  C15 UNL     1      -4.728   6.477  10.405  1.00  0.00     0.026 C 
BRANCH  13  16
HETATM   16  C9  UNL     1      -7.240   7.883   9.472  1.00  0.00     0.277 C 
BRANCH  16  17
HETATM   17  N4  UNL     1      -6.803   8.736   8.410  1.00  0.00     0.088 N 
HETATM   18  C10 UNL     1      -7.522   8.361   7.211  1.00  0.00     0.272 C 
HETATM   19  C11 UNL     1      -8.619   9.399   7.105  1.00  0.00     0.032 C 
HETATM   20  C12 UNL     1      -7.829  10.663   7.474  1.00  0.00     0.032 C 
HETATM   21  C13 UNL     1      -7.006  10.131   8.638  1.00  0.00     0.272 C 
ENDBRANCH  16  17
ENDBRANCH  13  16
ENDBRANCH   8  10
ENDBRANCH   6   8
BRANCH   7  22
HETATM   22  C16 UNL     1      -4.620   2.526  14.033  1.00  0.00     0.704 A 
HETATM   23  N6  UNL     1      -5.754   3.066  14.470  1.00  0.00    -0.198 N 
HETATM   24  C17 UNL     1      -6.085   3.147  15.771  1.00  0.00     0.149 A 
ATOM     25  H6  UNL     1      -6.407   3.439  13.781  1.00  0.00     0.183 HD
HETATM   26  C18 UNL     1      -5.227   2.653  16.728  1.00  0.00     0.148 A 
HETATM   27  F1  UNL     1      -5.538   2.722  18.041  1.00  0.00    -0.203 F 
HETATM   28  C19 UNL     1      -4.046   2.091  16.265  1.00  0.00     0.149 A 
HETATM   29  N7  UNL     1      -3.756   2.031  14.952  1.00  0.00    -0.198 N 
ATOM     30  H7  UNL     1      -2.878   1.611  14.647  1.00  0.00     0.183 HD
ENDBRANCH   7  22
BRANCH   1  31
HETATM   31  C2  UNL     1      -4.065  -0.032  12.542  1.00  0.00     0.075 C 
HETATM   32  C1  UNL     1      -3.716  -1.081  11.539  1.00  0.00     0.013 C 
ENDBRANCH   1  31
TORSDOF 6
ENDMDL
MODEL 2
REMARK VINA RESULT: -7.680834249      2.114      3.587
REMARK  6 active torsions:
REMARK  status: ('A' for Active; 'I' for Inactive)
REMARK    1  A    between atoms: C2_2  and  C3_3 
REMARK    2  A    between atoms: C4_8  and  N3_9 
REMARK    3  A    between atoms: N3_9  and  C5_11 
REMARK    4  A    between atoms: C8_14  and  C9_15 
REMARK    5  A    between atoms: C9_15  and  N4_16 
REMARK    6  A    between atoms: N5_23  and  C16_24 
ROOT
HETATM    1  C3  UNL     1      -4.320   2.933  14.830  1.00  0.00     0.138 A 
HETATM    2  N1  UNL     1      -4.451   4.131  15.426  1.00  0.00    -0.273 N 
ATOM      3  H1  UNL     1      -4.658   4.280  16.414  1.00  0.00     0.189 HD
HETATM    4  N2  UNL     1      -4.266   5.102  14.517  1.00  0.00    -0.130 N 
ATOM      5  H2  UNL     1      -4.308   6.107  14.685  1.00  0.00     0.205 HD
HETATM    6  C4  UNL     1      -4.017   4.498  13.342  1.00  0.00     0.715 A 
HETATM    7  N5  UNL     1      -4.050   3.172  13.534  1.00  0.00     0.036 N 
ENDROOT
BRANCH   6   8
HETATM    8  N3  UNL     1      -3.786   5.110  12.224  1.00  0.00    -0.219 N 
ATOM      9  H3  UNL     1      -2.828   5.197  11.885  1.00  0.00     0.178 HD
BRANCH   8  10
HETATM   10  C5  UNL     1      -4.875   5.672  11.448  1.00  0.00     0.099 C 
HETATM   11  C6  UNL     1      -5.891   6.202  12.431  1.00  0.00     0.026 C 
HETATM   12  C7  UNL     1      -6.981   7.000  11.798  1.00  0.00     0.008 C 
HETATM   13  C8  UNL     1      -6.478   8.003  10.785  1.00  0.00     0.014 C 
HETATM   14  C14 UNL     1      -4.988   8.064  10.801  1.00  0.00     0.008 C 
HETATM   15  C15 UNL     1      -4.339   6.729  10.525  1.00  0.00     0.026 C 
BRANCH  13  16
HETATM   16  C9  UNL     1      -7.032   7.585   9.440  1.00  0.00     0.277 C 
BRANCH  16  17
HETATM   17  N4  UNL     1      -6.708   8.495   8.385  1.00  0.00     0.088 N 
HETATM   18  C10 UNL     1      -7.485   8.124   7.222  1.00  0.00     0.272 C 
HETATM   19  C11 UNL     1      -8.636   9.108   7.224  1.00  0.00     0.032 C 
HETATM   20  C12 UNL     1      -7.888  10.397   7.590  1.00  0.00     0.032 C 
HETATM   21  C13 UNL     1      -6.965   9.869   8.678  1.00  0.00     0.272 C 
ENDBRANCH  16  17
ENDBRANCH  13  16
ENDBRANCH   8  10
ENDBRANCH   6   8
BRANCH   7  22
HETATM   22  C16 UNL     1      -3.840   2.150  12.557  1.00  0.00     0.704 A 
HETATM   23  N6  UNL     1      -2.617   1.700  12.296  1.00  0.00    -0.198 N 
HETATM   24  C17 UNL     1      -2.355   0.742  11.388  1.00  0.00     0.149 A 
ATOM     25  H6  UNL     1      -1.834   2.104  12.811  1.00  0.00     0.183 HD
HETATM   26  C18 UNL     1      -3.388   0.175  10.675  1.00  0.00     0.148 A 
HETATM   27  F1  UNL     1      -3.151  -0.789   9.758  1.00  0.00    -0.203 F 
HETATM   28  C19 UNL     1      -4.661   0.650  10.952  1.00  0.00     0.149 A 
HETATM   29  N7  UNL     1      -4.876   1.611  11.870  1.00  0.00    -0.198 N 
ATOM     30  H7  UNL     1      -5.826   1.936  12.049  1.00  0.00     0.183 HD
ENDBRANCH   7  22
BRANCH   1  31
HETATM   31  C2  UNL     1      -4.443   1.592  15.455  1.00  0.00     0.075 C 
HETATM   32  C1  UNL     1      -5.116   1.636  16.787  1.00  0.00     0.013 C 
ENDBRANCH   1  31
TORSDOF 6
ENDMDL
MODEL 3
REMARK VINA RESULT: -7.635176588      3.362      7.992
REMARK  6 active torsions:
REMARK  status: ('A' for Active; 'I' for Inactive)
REMARK    1  A    between atoms: C2_2  and  C3_3 
REMARK    2  A    between atoms: C4_8  and  N3_9 
REMARK    3  A    between atoms: N3_9  and  C5_11 
REMARK    4  A    between atoms: C8_14  and  C9_15 
REMARK    5  A    between atoms: C9_15  and  N4_16 
REMARK    6  A    between atoms: N5_23  and  C16_24 
ROOT
HETATM    1  C3  UNL     1      -3.241   5.395   8.206  1.00  0.00     0.138 A 
HETATM    2  N1  UNL     1      -2.166   4.916   8.856  1.00  0.00    -0.273 N 
ATOM      3  H1  UNL     1      -1.364   4.464   8.417  1.00  0.00     0.189 HD
HETATM    4  N2  UNL     1      -2.315   5.124  10.175  1.00  0.00    -0.130 N 
ATOM      5  H2  UNL     1      -1.656   4.864  10.909  1.00  0.00     0.205 HD
HETATM    6  C4  UNL     1      -3.496   5.743  10.343  1.00  0.00     0.715 A 
HETATM    7  N5  UNL     1      -4.062   5.908   9.140  1.00  0.00     0.036 N 
ENDROOT
BRANCH   6   8
HETATM    8  N3  UNL     1      -3.989   6.109  11.484  1.00  0.00    -0.219 N 
ATOM      9  H3  UNL     1      -4.236   7.087  11.636  1.00  0.00     0.178 HD
BRANCH   8  10
HETATM   10  C5  UNL     1      -4.192   5.145  12.548  1.00  0.00     0.099 C 
HETATM   11  C6  UNL     1      -3.723   5.792  13.829  1.00  0.00     0.026 C 
HETATM   12  C7  UNL     1      -4.054   5.010  15.054  1.00  0.00     0.008 C 
HETATM   13  C8  UNL     1      -5.476   4.498  15.073  1.00  0.00     0.014 C 
HETATM   14  C14 UNL     1      -6.251   5.059  13.929  1.00  0.00     0.008 C 
HETATM   15  C15 UNL     1      -5.637   4.739  12.586  1.00  0.00     0.026 C 
BRANCH  13  16
HETATM   16  C9  UNL     1      -5.401   2.987  15.043  1.00  0.00     0.277 C 
BRANCH  16  17
HETATM   17  N4  UNL     1      -5.154   2.406  16.327  1.00  0.00     0.088 N 
HETATM   18  C10 UNL     1      -6.315   2.647  17.156  1.00  0.00     0.272 C 
HETATM   19  C11 UNL     1      -7.072   1.337  17.114  1.00  0.00     0.032 C 
HETATM   20  C12 UNL     1      -5.905   0.348  17.244  1.00  0.00     0.032 C 
HETATM   21  C13 UNL     1      -4.897   1.001  16.311  1.00  0.00     0.272 C 
ENDBRANCH  16  17
ENDBRANCH  13  16
ENDBRANCH   8  10
ENDBRANCH   6   8
BRANCH   7  22
HETATM   22  C16 UNL     1      -5.322   6.519   8.852  1.00  0.00     0.704 A 
HETATM   23  N6  UNL     1      -6.303   5.822   8.288  1.00  0.00    -0.198 N 
HETATM   24  C17 UNL     1      -7.509   6.341   7.992  1.00  0.00     0.149 A 
ATOM     25  H6  UNL     1      -6.132   4.841   8.067  1.00  0.00     0.183 HD
HETATM   26  C18 UNL     1      -7.774   7.662   8.278  1.00  0.00     0.148 A 
HETATM   27  F1  UNL     1      -8.977   8.205   7.991  1.00  0.00    -0.203 F 
HETATM   28  C19 UNL     1      -6.745   8.383   8.866  1.00  0.00     0.149 A 
HETATM   29  N7  UNL     1      -5.554   7.822   9.144  1.00  0.00    -0.198 N 
ATOM     30  H7  UNL     1      -4.819   8.383   9.577  1.00  0.00     0.183 HD
ENDBRANCH   7  22
BRANCH   1  31
HETATM   31  C2  UNL     1      -3.498   5.378   6.744  1.00  0.00     0.075 C 
HETATM   32  C1  UNL     1      -2.247   5.493   5.938  1.00  0.00     0.013 C 
ENDBRANCH   1  31
TORSDOF 6
ENDMDL
MODEL 4
REMARK VINA RESULT: -7.619582738      1.499      2.233
REMARK  6 active torsions:
REMARK  status: ('A' for Active; 'I' for Inactive)
REMARK    1  A    between atoms: C2_2  and  C3_3 
REMARK    2  A    between atoms: C4_8  and  N3_9 
REMARK    3  A    between atoms: N3_9  and  C5_11 
REMARK    4  A    between atoms: C8_14  and  C9_15 
REMARK    5  A    between atoms: C9_15  and  N4_16 
REMARK    6  A    between atoms: N5_23  and  C16_24 
ROOT
HETATM    1  C3  UNL     1      -3.091   1.010  11.951  1.00  0.00     0.138 A 
HETATM    2  N1  UNL     1      -2.181   0.980  10.961  1.00  0.00    -0.273 N 
ATOM      3  H1  UNL     1      -1.916   0.152  10.428  1.00  0.00     0.189 HD
HETATM    4  N2  UNL     1      -1.676   2.212  10.786  1.00  0.00    -0.130 N 
ATOM      5  H2  UNL     1      -0.967   2.487  10.105  1.00  0.00     0.205 HD
HETATM    6  C4  UNL     1      -2.281   3.016  11.677  1.00  0.00     0.715 A 
HETATM    7  N5  UNL     1      -3.146   2.281  12.389  1.00  0.00     0.036 N 
ENDROOT
BRANCH   6   8
HETATM    8  N3  UNL     1      -2.054   4.285  11.811  1.00  0.00    -0.219 N 
ATOM      9  H3  UNL     1      -1.358   4.604  12.484  1.00  0.00     0.178 HD
BRANCH   8  10
HETATM   10  C5  UNL     1      -2.780   5.255  11.014  1.00  0.00     0.099 C 
HETATM   11  C6  UNL     1      -3.743   4.483  10.144  1.00  0.00     0.026 C 
HETATM   12  C7  UNL     1      -4.713   5.345   9.410  1.00  0.00     0.008 C 
HETATM   13  C8  UNL     1      -5.340   6.413  10.276  1.00  0.00     0.014 C 
HETATM   14  C14 UNL     1      -4.957   6.224  11.705  1.00  0.00     0.008 C 
HETATM   15  C15 UNL     1      -3.462   6.238  11.921  1.00  0.00     0.026 C 
BRANCH  13  16
HETATM   16  C9  UNL     1      -4.891   7.748   9.721  1.00  0.00     0.277 C 
BRANCH  16  17
HETATM   17  N4  UNL     1      -5.971   8.560   9.250  1.00  0.00     0.088 N 
HETATM   18  C10 UNL     1      -5.785   8.769   7.830  1.00  0.00     0.272 C 
HETATM   19  C11 UNL     1      -6.731   7.777   7.189  1.00  0.00     0.032 C 
HETATM   20  C12 UNL     1      -7.956   7.946   8.099  1.00  0.00     0.032 C 
HETATM   21  C13 UNL     1      -7.271   8.007   9.456  1.00  0.00     0.272 C 
ENDBRANCH  16  17
ENDBRANCH  13  16
ENDBRANCH   8  10
ENDBRANCH   6   8
BRANCH   7  22
HETATM   22  C16 UNL     1      -4.001   2.729  13.443  1.00  0.00     0.704 A 
HETATM   23  N6  UNL     1      -3.590   2.707  14.707  1.00  0.00    -0.198 N 
HETATM   24  C17 UNL     1      -4.348   3.115  15.742  1.00  0.00     0.149 A 
ATOM     25  H6  UNL     1      -2.651   2.362  14.904  1.00  0.00     0.183 HD
HETATM   26  C18 UNL     1      -5.621   3.587  15.513  1.00  0.00     0.148 A 
HETATM   27  F1  UNL     1      -6.401   4.003  16.536  1.00  0.00    -0.203 F 
HETATM   28  C19 UNL     1      -6.043   3.607  14.192  1.00  0.00     0.149 A 
HETATM   29  N7  UNL     1      -5.250   3.188  13.188  1.00  0.00    -0.198 N 
ATOM     30  H7  UNL     1      -5.593   3.217  12.228  1.00  0.00     0.183 HD
ENDBRANCH   7  22
BRANCH   1  31
HETATM   31  C2  UNL     1      -3.894  -0.122  12.478  1.00  0.00     0.075 C 
HETATM   32  C1  UNL     1      -3.782  -1.349  11.635  1.00  0.00     0.013 C 
ENDBRANCH   1  31
TORSDOF 6
ENDMDL
MODEL 5
REMARK VINA RESULT: -7.614508257      2.338      3.734
REMARK  6 active torsions:
REMARK  status: ('A' for Active; 'I' for Inactive)
REMARK    1  A    between atoms: C2_2  and  C3_3 
REMARK    2  A    between atoms: C4_8  and  N3_9 
REMARK    3  A    between atoms: N3_9  and  C5_11 
REMARK    4  A    between atoms: C8_14  and  C9_15 
REMARK    5  A    between atoms: C9_15  and  N4_16 
REMARK    6  A    between atoms: N5_23  and  C16_24 
ROOT
HETATM    1  C3  UNL     1      -4.199   2.882  14.836  1.00  0.00     0.138 A 
HETATM    2  N1  UNL     1      -4.310   4.077  15.443  1.00  0.00    -0.273 N 
ATOM      3  H1  UNL     1      -4.545   4.221  16.425  1.00  0.00     0.189 HD
HETATM    4  N2  UNL     1      -4.065   5.052  14.552  1.00  0.00    -0.130 N 
ATOM      5  H2  UNL     1      -4.078   6.056  14.731  1.00  0.00     0.205 HD
HETATM    6  C4  UNL     1      -3.797   4.453  13.379  1.00  0.00     0.715 A 
HETATM    7  N5  UNL     1      -3.879   3.127  13.552  1.00  0.00     0.036 N 
ENDROOT
BRANCH   6   8
HETATM    8  N3  UNL     1      -3.509   5.070  12.276  1.00  0.00    -0.219 N 
ATOM      9  H3  UNL     1      -2.534   5.165  11.991  1.00  0.00     0.178 HD
BRANCH   8  10
HETATM   10  C5  UNL     1      -4.558   5.627  11.444  1.00  0.00     0.099 C 
HETATM   11  C6  UNL     1      -4.339   7.120  11.395  1.00  0.00     0.026 C 
HETATM   12  C7  UNL     1      -5.211   7.825  10.412  1.00  0.00     0.008 C 
HETATM   13  C8  UNL     1      -5.272   7.138   9.067  1.00  0.00     0.014 C 
HETATM   14  C14 UNL     1      -4.297   6.011   9.007  1.00  0.00     0.008 C 
HETATM   15  C15 UNL     1      -4.518   4.981  10.089  1.00  0.00     0.026 C 
BRANCH  13  16
HETATM   16  C9  UNL     1      -6.703   6.684   8.870  1.00  0.00     0.277 C 
BRANCH  16  17
HETATM   17  N4  UNL     1      -7.302   7.195   7.676  1.00  0.00     0.088 N 
HETATM   18  C10 UNL     1      -8.467   7.966   8.055  1.00  0.00     0.272 C 
HETATM   19  C11 UNL     1      -7.989   9.401   7.995  1.00  0.00     0.032 C 
HETATM   20  C12 UNL     1      -7.165   9.356   6.701  1.00  0.00     0.032 C 
HETATM   21  C13 UNL     1      -6.451   8.026   6.886  1.00  0.00     0.272 C 
ENDBRANCH  16  17
ENDBRANCH  13  16
ENDBRANCH   8  10
ENDBRANCH   6   8
BRANCH   7  22
HETATM   22  C16 UNL     1      -3.671   2.110  12.570  1.00  0.00     0.704 A 
HETATM   23  N6  UNL     1      -4.700   1.535  11.957  1.00  0.00    -0.198 N 
HETATM   24  C17 UNL     1      -4.568   0.573  11.025  1.00  0.00     0.149 A 
ATOM     25  H6  UNL     1      -5.642   1.839  12.207  1.00  0.00     0.183 HD
HETATM   26  C18 UNL     1      -3.312   0.140  10.663  1.00  0.00     0.148 A 
HETATM   27  F1  UNL     1      -3.154  -0.824   9.730  1.00  0.00    -0.203 F 
HETATM   28  C19 UNL     1      -2.243   0.744  11.307  1.00  0.00     0.149 A 
HETATM   29  N7  UNL     1      -2.422   1.703  12.234  1.00  0.00    -0.198 N 
ATOM     30  H7  UNL     1      -1.613   2.126  12.687  1.00  0.00     0.183 HD
ENDBRANCH   7  22
BRANCH   1  31
HETATM   31  C2  UNL     1      -4.387   1.539  15.439  1.00  0.00     0.075 C 
HETATM   32  C1  UNL     1      -5.069   1.593  16.766  1.00  0.00     0.013 C 
ENDBRANCH   1  31
TORSDOF 6
ENDMDL
