MODEL 1
REMARK VINA RESULT: -7.168389107      0.000      0.000
REMARK  7 active torsions:
REMARK  status: ('A' for Active; 'I' for Inactive)
REMARK    1  A    between atoms: C2_2  and  O1_3 
REMARK    2  A    between atoms: O1_3  and  C3_4 
REMARK    3  A    between atoms: C3_4  and  C4_6 
REMARK    4  A    between atoms: C5_8  and  N1_9 
REMARK    5  A    between atoms: N1_9  and  C6_11 
REMARK    6  A    between atoms: C6_11  and  C7_12 
REMARK    7  A    between atoms: C7_12  and  N2_13 
ROOT
HETATM    1  N1  UNL     1      10.875  -6.167  10.798  1.00  0.00    -0.368 N 
ATOM      2  H1  UNL     1      10.311  -5.511  11.338  1.00  0.00     0.161 HD
ENDROOT
BRANCH   1   3
HETATM    3  C5  UNL     1      11.518  -5.729   9.740  1.00  0.00     0.145 A 
HETATM    4  S1  UNL     1      11.172  -4.396   8.735  1.00  0.00    -0.046 SA
HETATM    5  C4  UNL     1      12.486  -4.557   7.654  1.00  0.00     0.105 A 
HETATM    6  C16 UNL     1      13.126  -5.659   8.149  1.00  0.00     0.030 A 
HETATM    7  N3  UNL     1      12.625  -6.238   9.200  1.00  0.00    -0.339 N 
HETATM    8  C17 UNL     1      14.381  -6.149   7.450  1.00  0.00     0.070 C 
ATOM      9  H3  UNL     1      13.071  -7.063   9.603  1.00  0.00     0.168 HD
BRANCH   5  10
HETATM   10  C3  UNL     1      12.809  -3.709   6.494  1.00  0.00     0.302 C 
HETATM   11  O2  UNL     1      12.475  -4.092   5.352  1.00  0.00    -0.259 OA
BRANCH  10  12
HETATM   12  O1  UNL     1      13.468  -2.524   6.731  1.00  0.00    -0.317 OA
BRANCH  12  13
HETATM   13  C2  UNL     1      12.842  -1.484   7.467  1.00  0.00     0.174 C 
HETATM   14  C1  UNL     1      11.506  -1.227   6.778  1.00  0.00     0.034 C 
ENDBRANCH  12  13
ENDBRANCH  10  12
ENDBRANCH   5  10
ENDBRANCH   1   3
BRANCH   1  15
HETATM   15  C6  UNL     1      10.937  -7.524  11.215  1.00  0.00     0.163 C 
BRANCH  15  16
HETATM   16  C7  UNL     1       9.893  -8.429  10.669  1.00  0.00     0.178 C 
HETATM   17  C11 UNL     1       9.190  -9.064  11.870  1.00  0.00     0.046 C 
HETATM   18  C12 UNL     1       8.005  -9.874  11.453  1.00  0.00     0.040 C 
HETATM   19  C13 UNL     1       7.046  -9.170  10.548  1.00  0.00     0.170 C 
HETATM   20  F1  UNL     1       6.359  -8.216  11.246  1.00  0.00    -0.249 F 
HETATM   21  C14 UNL     1       7.785  -8.528   9.398  1.00  0.00     0.040 C 
HETATM   22  C15 UNL     1       8.825  -7.582  10.010  1.00  0.00     0.046 C 
BRANCH  16  23
HETATM   23  N2  UNL     1      10.299  -9.438   9.765  1.00  0.00     0.124 N 
HETATM   24  C8  UNL     1      11.348 -10.315  10.152  1.00  0.00     0.302 C 
HETATM   25  C9  UNL     1      12.420 -10.092   9.140  1.00  0.00     0.200 C 
HETATM   26  O3  UNL     1      11.995  -9.144   8.249  1.00  0.00    -0.361 OA
HETATM   27  C10 UNL     1      10.636  -8.924   8.457  1.00  0.00     0.441 C 
ENDBRANCH  16  23
ENDBRANCH  15  16
ENDBRANCH   1  15
TORSDOF 7
ENDMDL
MODEL 2
REMARK VINA RESULT: -7.055879710      1.251      1.573
REMARK  7 active torsions:
REMARK  status: ('A' for Active; 'I' for Inactive)
REMARK    1  A    between atoms: C2_2  and  O1_3 
REMARK    2  A    between atoms: O1_3  and  C3_4 
REMARK    3  A    between atoms: C3_4  and  C4_6 
REMARK    4  A    between atoms: C5_8  and  N1_9 
REMARK    5  A    between atoms: N1_9  and  C6_11 
REMARK    6  A    between atoms: C6_11  and  C7_12 
REMARK    7  A    between atoms: C7_12  and  N2_13 
ROOT
HETATM    1  N1  UNL     1      10.748  -6.134  10.729  1.00  0.00    -0.368 N 
ATOM      2  H1  UNL     1       9.761  -5.892  10.812  1.00  0.00     0.161 HD
ENDROOT
BRANCH   1   3
HETATM    3  C5  UNL     1      11.421  -5.706   9.686  1.00  0.00     0.145 A 
HETATM    4  S1  UNL     1      11.111  -4.376   8.666  1.00  0.00    -0.046 SA
HETATM    5  C4  UNL     1      12.451  -4.552   7.619  1.00  0.00     0.105 A 
HETATM    6  C16 UNL     1      13.070  -5.655   8.136  1.00  0.00     0.030 A 
HETATM    7  N3  UNL     1      12.539  -6.226   9.178  1.00  0.00    -0.339 N 
HETATM    8  C17 UNL     1      14.339  -6.158   7.472  1.00  0.00     0.070 C 
ATOM      9  H3  UNL     1      12.967  -7.052   9.595  1.00  0.00     0.168 HD
BRANCH   5  10
HETATM   10  C3  UNL     1      12.809  -3.713   6.464  1.00  0.00     0.302 C 
HETATM   11  O2  UNL     1      12.496  -4.095   5.316  1.00  0.00    -0.259 OA
BRANCH  10  12
HETATM   12  O1  UNL     1      13.479  -2.535   6.712  1.00  0.00    -0.317 OA
BRANCH  12  13
HETATM   13  C2  UNL     1      12.865  -1.499   7.463  1.00  0.00     0.174 C 
HETATM   14  C1  UNL     1      11.547  -1.194   6.759  1.00  0.00     0.034 C 
ENDBRANCH  12  13
ENDBRANCH  10  12
ENDBRANCH   5  10
ENDBRANCH   1   3
BRANCH   1  15
HETATM   15  C6  UNL     1      11.348  -6.923  11.747  1.00  0.00     0.163 C 
BRANCH  15  16
HETATM   16  C7  UNL     1      10.810  -8.298  11.917  1.00  0.00     0.178 C 
HETATM   17  C11 UNL     1      10.557  -8.489  13.413  1.00  0.00     0.046 C 
HETATM   18  C12 UNL     1       9.858  -9.780  13.696  1.00  0.00     0.040 C 
HETATM   19  C13 UNL     1       8.629 -10.024  12.882  1.00  0.00     0.170 C 
HETATM   20  F1  UNL     1       7.622  -9.195  13.296  1.00  0.00    -0.249 F 
HETATM   21  C14 UNL     1       8.914  -9.789  11.417  1.00  0.00     0.040 C 
HETATM   22  C15 UNL     1       9.433  -8.352  11.291  1.00  0.00     0.046 C 
BRANCH  16  23
HETATM   23  N2  UNL     1      11.581  -9.375  11.421  1.00  0.00     0.124 N 
HETATM   24  C8  UNL     1      12.936  -9.487  11.832  1.00  0.00     0.302 C 
HETATM   25  C9  UNL     1      13.724  -9.388  10.569  1.00  0.00     0.200 C 
HETATM   26  O3  UNL     1      12.858  -9.224   9.522  1.00  0.00    -0.361 OA
HETATM   27  C10 UNL     1      11.565  -9.466   9.979  1.00  0.00     0.441 C 
ENDBRANCH  16  23
ENDBRANCH  15  16
ENDBRANCH   1  15
TORSDOF 7
ENDMDL
MODEL 3
REMARK VINA RESULT: -6.873463800      2.517      3.764
REMARK  7 active torsions:
REMARK  status: ('A' for Active; 'I' for Inactive)
REMARK    1  A    between atoms: C2_2  and  O1_3 
REMARK    2  A    between atoms: O1_3  and  C3_4 
REMARK    3  A    between atoms: C3_4  and  C4_6 
REMARK    4  A    between atoms: C5_8  and  N1_9 
REMARK    5  A    between atoms: N1_9  and  C6_11 
REMARK    6  A    between atoms: C6_11  and  C7_12 
REMARK    7  A    between atoms: C7_12  and  N2_13 
ROOT
HETATM    1  N1  UNL     1      14.146  -8.026   9.401  1.00  0.00    -0.368 N 
ATOM      2  H1  UNL     1      14.989  -8.462   9.026  1.00  0.00     0.161 HD
ENDROOT
BRANCH   1   3
HETATM    3  C5  UNL     1      13.676  -6.949   8.817  1.00  0.00     0.145 A 
HETATM    4  S1  UNL     1      14.222  -6.149   7.413  1.00  0.00    -0.046 SA
HETATM    5  C4  UNL     1      13.062  -4.894   7.379  1.00  0.00     0.105 A 
HETATM    6  C16 UNL     1      12.305  -5.178   8.482  1.00  0.00     0.030 A 
HETATM    7  N3  UNL     1      12.628  -6.217   9.196  1.00  0.00    -0.339 N 
HETATM    8  C17 UNL     1      11.135  -4.272   8.817  1.00  0.00     0.070 C 
ATOM      9  H3  UNL     1      12.092  -6.465  10.027  1.00  0.00     0.168 HD
BRANCH   5  10
HETATM   10  C3  UNL     1      12.943  -3.802   6.399  1.00  0.00     0.302 C 
HETATM   11  O2  UNL     1      12.297  -4.000   5.347  1.00  0.00    -0.259 OA
BRANCH  10  12
HETATM   12  O1  UNL     1      13.556  -2.605   6.696  1.00  0.00    -0.317 OA
BRANCH  12  13
HETATM   13  C2  UNL     1      12.883  -1.621   7.467  1.00  0.00     0.174 C 
HETATM   14  C1  UNL     1      11.566  -1.352   6.746  1.00  0.00     0.034 C 
ENDBRANCH  12  13
ENDBRANCH  10  12
ENDBRANCH   5  10
ENDBRANCH   1   3
BRANCH   1  15
HETATM   15  C6  UNL     1      13.521  -8.607  10.537  1.00  0.00     0.163 C 
BRANCH  15  16
HETATM   16  C7  UNL     1      12.674  -9.802  10.283  1.00  0.00     0.178 C 
HETATM   17  C11 UNL     1      13.086 -10.350   8.916  1.00  0.00     0.046 C 
HETATM   18  C12 UNL     1      12.418 -11.653   8.618  1.00  0.00     0.040 C 
HETATM   19  C13 UNL     1      12.534 -12.682   9.695  1.00  0.00     0.170 C 
HETATM   20  F1  UNL     1      13.814 -13.161   9.749  1.00  0.00    -0.249 F 
HETATM   21  C14 UNL     1      12.154 -12.090  11.031  1.00  0.00     0.040 C 
HETATM   22  C15 UNL     1      13.074 -10.886  11.261  1.00  0.00     0.046 C 
BRANCH  16  23
HETATM   23  N2  UNL     1      11.270  -9.638  10.330  1.00  0.00     0.124 N 
HETATM   24  C8  UNL     1      10.588  -9.281   9.135  1.00  0.00     0.302 C 
HETATM   25  C9  UNL     1       9.948  -7.970   9.444  1.00  0.00     0.200 C 
HETATM   26  O3  UNL     1      10.263  -7.618  10.728  1.00  0.00    -0.361 OA
HETATM   27  C10 UNL     1      10.841  -8.717  11.356  1.00  0.00     0.441 C 
ENDBRANCH  16  23
ENDBRANCH  15  16
ENDBRANCH   1  15
TORSDOF 7
ENDMDL
MODEL 4
REMARK VINA RESULT: -6.814581916      2.615      3.788
REMARK  7 active torsions:
REMARK  status: ('A' for Active; 'I' for Inactive)
REMARK    1  A    between atoms: C2_2  and  O1_3 
REMARK    2  A    between atoms: O1_3  and  C3_4 
REMARK    3  A    between atoms: C3_4  and  C4_6 
REMARK    4  A    between atoms: C5_8  and  N1_9 
REMARK    5  A    between atoms: N1_9  and  C6_11 
REMARK    6  A    between atoms: C6_11  and  C7_12 
REMARK    7  A    between atoms: C7_12  and  N2_13 
ROOT
HETATM    1  N1  UNL     1      14.173  -7.932   9.407  1.00  0.00    -0.368 N 
ATOM      2  H1  UNL     1      14.763  -7.809  10.230  1.00  0.00     0.161 HD
ENDROOT
BRANCH   1   3
HETATM    3  C5  UNL     1      13.698  -6.868   8.802  1.00  0.00     0.145 A 
HETATM    4  S1  UNL     1      14.289  -6.046   7.430  1.00  0.00    -0.046 SA
HETATM    5  C4  UNL     1      13.092  -4.830   7.339  1.00  0.00     0.105 A 
HETATM    6  C16 UNL     1      12.289  -5.142   8.400  1.00  0.00     0.030 A 
HETATM    7  N3  UNL     1      12.609  -6.172   9.128  1.00  0.00    -0.339 N 
HETATM    8  C17 UNL     1      11.074  -4.276   8.676  1.00  0.00     0.070 C 
ATOM      9  H3  UNL     1      12.039  -6.440   9.930  1.00  0.00     0.168 HD
BRANCH   5  10
HETATM   10  C3  UNL     1      12.988  -3.739   6.355  1.00  0.00     0.302 C 
HETATM   11  O2  UNL     1      12.370  -3.941   5.288  1.00  0.00    -0.259 OA
BRANCH  10  12
HETATM   12  O1  UNL     1      13.584  -2.537   6.667  1.00  0.00    -0.317 OA
BRANCH  12  13
HETATM   13  C2  UNL     1      12.887  -1.560   7.426  1.00  0.00     0.174 C 
HETATM   14  C1  UNL     1      11.557  -1.344   6.711  1.00  0.00     0.034 C 
ENDBRANCH  12  13
ENDBRANCH  10  12
ENDBRANCH   5  10
ENDBRANCH   1   3
BRANCH   1  15
HETATM   15  C6  UNL     1      13.892  -9.249   8.955  1.00  0.00     0.163 C 
BRANCH  15  16
HETATM   16  C7  UNL     1      13.109 -10.109   9.879  1.00  0.00     0.178 C 
HETATM   17  C11 UNL     1      13.677 -11.524   9.751  1.00  0.00     0.046 C 
HETATM   18  C12 UNL     1      13.078 -12.455  10.756  1.00  0.00     0.040 C 
HETATM   19  C13 UNL     1      13.107 -11.963  12.166  1.00  0.00     0.170 C 
HETATM   20  F1  UNL     1      14.387 -11.999  12.648  1.00  0.00    -0.249 F 
HETATM   21  C14 UNL     1      12.572 -10.552  12.242  1.00  0.00     0.040 C 
HETATM   22  C15 UNL     1      13.432  -9.700  11.300  1.00  0.00     0.046 C 
BRANCH  16  23
HETATM   23  N2  UNL     1      11.704 -10.142   9.721  1.00  0.00     0.124 N 
HETATM   24  C8  UNL     1      11.171 -10.294   8.412  1.00  0.00     0.302 C 
HETATM   25  C9  UNL     1      10.366  -9.059   8.186  1.00  0.00     0.200 C 
HETATM   26  O3  UNL     1      10.453  -8.267   9.299  1.00  0.00    -0.361 OA
HETATM   27  C10 UNL     1      11.040  -9.008  10.321  1.00  0.00     0.441 C 
ENDBRANCH  16  23
ENDBRANCH  15  16
ENDBRANCH   1  15
TORSDOF 7
ENDMDL
MODEL 5
REMARK VINA RESULT: -6.765485516      2.116      2.787
REMARK  7 active torsions:
REMARK  status: ('A' for Active; 'I' for Inactive)
REMARK    1  A    between atoms: C2_2  and  O1_3 
REMARK    2  A    between atoms: O1_3  and  C3_4 
REMARK    3  A    between atoms: C3_4  and  C4_6 
REMARK    4  A    between atoms: C5_8  and  N1_9 
REMARK    5  A    between atoms: N1_9  and  C6_11 
REMARK    6  A    between atoms: C6_11  and  C7_12 
REMARK    7  A    between atoms: C7_12  and  N2_13 
ROOT
HETATM    1  N1  UNL     1      11.008  -6.364  10.562  1.00  0.00    -0.368 N 
ATOM      2  H1  UNL     1      10.006  -6.195  10.651  1.00  0.00     0.161 HD
ENDROOT
BRANCH   1   3
HETATM    3  C5  UNL     1      11.647  -5.861   9.532  1.00  0.00     0.145 A 
HETATM    4  S1  UNL     1      11.267  -4.498   8.579  1.00  0.00    -0.046 SA
HETATM    5  C4  UNL     1      12.597  -4.570   7.508  1.00  0.00     0.105 A 
HETATM    6  C16 UNL     1      13.269  -5.670   7.964  1.00  0.00     0.030 A 
HETATM    7  N3  UNL     1      12.777  -6.309   8.984  1.00  0.00    -0.339 N 
HETATM    8  C17 UNL     1      14.546  -6.088   7.260  1.00  0.00     0.070 C 
ATOM      9  H3  UNL     1      13.245  -7.135   9.357  1.00  0.00     0.168 HD
BRANCH   5  10
HETATM   10  C3  UNL     1      12.903  -3.664   6.389  1.00  0.00     0.302 C 
HETATM   11  O2  UNL     1      12.601  -4.012   5.227  1.00  0.00    -0.259 OA
BRANCH  10  12
HETATM   12  O1  UNL     1      13.512  -2.465   6.684  1.00  0.00    -0.317 OA
BRANCH  12  13
HETATM   13  C2  UNL     1      12.842  -1.487   7.465  1.00  0.00     0.174 C 
HETATM   14  C1  UNL     1      11.531  -1.199   6.742  1.00  0.00     0.034 C 
ENDBRANCH  12  13
ENDBRANCH  10  12
ENDBRANCH   5  10
ENDBRANCH   1   3
BRANCH   1  15
HETATM   15  C6  UNL     1      11.665  -7.136  11.558  1.00  0.00     0.163 C 
BRANCH  15  16
HETATM   16  C7  UNL     1      11.142  -8.510  11.776  1.00  0.00     0.178 C 
HETATM   17  C11 UNL     1       9.620  -8.426  11.654  1.00  0.00     0.046 C 
HETATM   18  C12 UNL     1       8.986  -9.779  11.692  1.00  0.00     0.040 C 
HETATM   19  C13 UNL     1       9.571 -10.777  10.746  1.00  0.00     0.170 C 
HETATM   20  F1  UNL     1       9.221 -10.464   9.461  1.00  0.00    -0.249 F 
HETATM   21  C14 UNL     1      11.076 -10.801  10.873  1.00  0.00     0.040 C 
HETATM   22  C15 UNL     1      11.567  -9.373  10.607  1.00  0.00     0.046 C 
BRANCH  16  23
HETATM   23  N2  UNL     1      11.490  -9.166  12.980  1.00  0.00     0.124 N 
HETATM   24  C8  UNL     1      11.002  -8.640  14.206  1.00  0.00     0.302 C 
HETATM   25  C9  UNL     1      12.226  -8.287  14.980  1.00  0.00     0.200 C 
HETATM   26  O3  UNL     1      13.327  -8.592  14.226  1.00  0.00    -0.361 OA
HETATM   27  C10 UNL     1      12.915  -9.349  13.133  1.00  0.00     0.441 C 
ENDBRANCH  16  23
ENDBRANCH  15  16
ENDBRANCH   1  15
TORSDOF 7
ENDMDL
