MODEL 1
REMARK VINA RESULT: -8.650910174      0.000      0.000
REMARK  14 active torsions:
REMARK  status: ('A' for Active; 'I' for Inactive)
REMARK    1  A    between atoms: C2_2  and  N1_4 
REMARK    2  A    between atoms: N1_4  and  C4_6 
REMARK    3  A    between atoms: C5_7  and  C6_8 
REMARK    4  A    between atoms: C8_10  and  O1_11 
REMARK    5  A    between atoms: C9_13  and  N2_14 
REMARK    6  A    between atoms: N2_14  and  C10_16 
REMARK    7  A    between atoms: C12_23  and  C13_24 
REMARK    8  A    between atoms: C16_38  and  O3_39 
REMARK    9  A    between atoms: C17_44  and  C18_45 
REMARK   10  A    between atoms: C18_45  and  O5_46 
REMARK   11  A    between atoms: C18_45  and  C19_48 
REMARK   12  A    between atoms: C19_48  and  O6_49 
REMARK   13  A    between atoms: C19_48  and  C20_51 
REMARK   14  A    between atoms: C20_51  and  O7_52 
ROOT
HETATM    1  C6  UNL     1      17.223  48.062  -9.106  1.00  0.00     0.032 A 
HETATM    2  C7  UNL     1      18.291  47.396  -9.678  1.00  0.00     0.055 A 
HETATM    3  C8  UNL     1      18.887  46.295  -9.074  1.00  0.00     0.094 A 
HETATM    4  C9  UNL     1      18.399  45.846  -7.864  1.00  0.00     0.084 A 
HETATM    5  C12 UNL     1      17.336  46.480  -7.264  1.00  0.00     0.058 A 
HETATM    6  C16 UNL     1      16.750  47.588  -7.883  1.00  0.00     0.093 A 
ENDROOT
BRANCH   1   7
HETATM    7  C5  UNL     1      16.614  49.235  -9.765  1.00  0.00     0.097 A 
HETATM    8  C4  UNL     1      17.245  50.436 -10.077  1.00  0.00     0.093 A 
HETATM    9  C17 UNL     1      16.273  51.277 -10.628  1.00  0.00     0.136 A 
HETATM   10  O4  UNL     1      15.163  50.590 -10.629  1.00  0.00    -0.237 OA
HETATM   11  N12 UNL     1      15.334  49.402 -10.133  1.00  0.00    -0.258 N 
ATOM     12  H12 UNL     1      14.601  48.699 -10.036  1.00  0.00     0.195 HD
BRANCH   8  13
HETATM   13  N1  UNL     1      18.616  50.699  -9.887  1.00  0.00    -0.382 N 
ATOM     14  H1  UNL     1      18.900  51.125  -9.005  1.00  0.00     0.160 HD
BRANCH  13  15
HETATM   15  C2  UNL     1      19.643  50.407 -10.852  1.00  0.00     0.073 C 
HETATM   16  C1  UNL     1      20.829  49.656 -10.338  1.00  0.00     0.031 C 
HETATM   17  C3  UNL     1      20.179  51.754 -11.382  1.00  0.00     0.031 C 
ENDBRANCH  13  15
ENDBRANCH   8  13
BRANCH   9  18
HETATM   18  C18 UNL     1      16.561  52.656 -11.087  1.00  0.00     0.210 C 
BRANCH  18  19
HETATM   19  O5  UNL     1      16.936  53.476 -10.018  1.00  0.00    -0.386 OA
ATOM     20  H5  UNL     1      17.400  54.247 -10.324  1.00  0.00     0.210 HD
ENDBRANCH  18  19
BRANCH  18  21
HETATM   21  C19 UNL     1      15.333  53.277 -11.714  1.00  0.00     0.177 C 
BRANCH  21  22
HETATM   22  O6  UNL     1      15.543  53.404 -13.105  1.00  0.00    -0.390 OA
ATOM     23  H6  UNL     1      14.760  53.767 -13.504  1.00  0.00     0.210 HD
ENDBRANCH  21  22
BRANCH  21  24
HETATM   24  C20 UNL     1      15.104  54.685 -11.163  1.00  0.00     0.198 C 
BRANCH  24  25
HETATM   25  O7  UNL     1      14.193  54.594 -10.102  1.00  0.00    -0.398 OA
ATOM     26  H7  UNL     1      13.326  54.786 -10.441  1.00  0.00     0.209 HD
ENDBRANCH  24  25
ENDBRANCH  21  24
ENDBRANCH  18  21
ENDBRANCH   9  18
ENDBRANCH   1   7
BRANCH   6  27
HETATM   27  O3  UNL     1      15.689  48.234  -7.292  1.00  0.00    -0.359 OA
ATOM     28  H3  UNL     1      15.217  47.792  -6.596  1.00  0.00     0.217 HD
ENDBRANCH   6  27
BRANCH   3  29
HETATM   29  O1  UNL     1      19.949  45.708  -9.733  1.00  0.00    -0.358 OA
ATOM     30  H1  UNL     1      20.683  45.416  -9.205  1.00  0.00     0.217 HD
ENDBRANCH   3  29
BRANCH   5  31
HETATM   31  C13 UNL     1      16.805  46.013  -6.005  1.00  0.00     0.097 A 
HETATM   32  N6  UNL     1      15.875  45.077  -5.714  1.00  0.00    -0.279 N 
HETATM   33  N7  UNL     1      15.717  44.999  -4.395  1.00  0.00     0.003 NA
ATOM     34  H6  UNL     1      15.370  44.516  -6.400  1.00  0.00     0.184 HD
HETATM   35  N8  UNL     1      16.532  45.872  -3.794  1.00  0.00    -0.157 N 
HETATM   36  N9  UNL     1      16.763  46.185  -2.527  1.00  0.00    -0.208 N 
HETATM   37  C15 UNL     1      17.207  46.504  -4.775  1.00  0.00     0.172 A 
HETATM   38  N10 UNL     1      17.651  47.112  -2.201  1.00  0.00    -0.224 N 
ATOM     39  H9  UNL     1      16.247  45.704  -1.790  1.00  0.00     0.211 HD
HETATM   40  N11 UNL     1      18.347  47.767  -3.099  1.00  0.00    -0.249 N 
ATOM     41  H10 UNL     1      17.799  47.324  -1.215  1.00  0.00     0.210 HD
HETATM   42  C14 UNL     1      18.126  47.464  -4.393  1.00  0.00     0.293 A 
ATOM     43  H11 UNL     1      19.027  48.476  -2.829  1.00  0.00     0.192 HD
HETATM   44  O2  UNL     1      18.747  48.043  -5.313  1.00  0.00    -0.264 OA
ENDBRANCH   5  31
BRANCH   4  45
HETATM   45  N2  UNL     1      19.052  44.746  -7.268  1.00  0.00    -0.324 N 
ATOM     46  H2  UNL     1      18.913  43.829  -7.694  1.00  0.00     0.169 HD
BRANCH  45  47
HETATM   47  C10 UNL     1      19.890  44.818  -6.117  1.00  0.00     0.193 C 
HETATM   48  N3  UNL     1      20.819  45.628  -5.861  1.00  0.00    -0.346 N 
HETATM   49  C11 UNL     1      21.413  45.354  -4.583  1.00  0.00     0.259 C 
ATOM     50  H3  UNL     1      21.113  46.383  -6.482  1.00  0.00     0.163 HD
HETATM   51  N4  UNL     1      20.466  44.467  -3.950  1.00  0.00    -0.119 NA
HETATM   52  N5  UNL     1      19.765  43.923  -5.022  1.00  0.00    -0.274 N 
ATOM     53  H5  UNL     1      19.254  43.040  -5.021  1.00  0.00     0.185 HD
ENDBRANCH  45  47
ENDBRANCH   4  45
TORSDOF 14
ENDMDL
MODEL 2
REMARK VINA RESULT: -8.531866317      3.643      6.952
REMARK  14 active torsions:
REMARK  status: ('A' for Active; 'I' for Inactive)
REMARK    1  A    between atoms: C2_2  and  N1_4 
REMARK    2  A    between atoms: N1_4  and  C4_6 
REMARK    3  A    between atoms: C5_7  and  C6_8 
REMARK    4  A    between atoms: C8_10  and  O1_11 
REMARK    5  A    between atoms: C9_13  and  N2_14 
REMARK    6  A    between atoms: N2_14  and  C10_16 
REMARK    7  A    between atoms: C12_23  and  C13_24 
REMARK    8  A    between atoms: C16_38  and  O3_39 
REMARK    9  A    between atoms: C17_44  and  C18_45 
REMARK   10  A    between atoms: C18_45  and  O5_46 
REMARK   11  A    between atoms: C18_45  and  C19_48 
REMARK   12  A    between atoms: C19_48  and  O6_49 
REMARK   13  A    between atoms: C19_48  and  C20_51 
REMARK   14  A    between atoms: C20_51  and  O7_52 
ROOT
HETATM    1  C6  UNL     1      20.385  47.163  -8.301  1.00  0.00     0.032 A 
HETATM    2  C7  UNL     1      20.966  46.680  -7.143  1.00  0.00     0.055 A 
HETATM    3  C8  UNL     1      20.484  47.005  -5.880  1.00  0.00     0.094 A 
HETATM    4  C9  UNL     1      19.389  47.836  -5.773  1.00  0.00     0.084 A 
HETATM    5  C12 UNL     1      18.781  48.336  -6.901  1.00  0.00     0.058 A 
HETATM    6  C16 UNL     1      19.280  48.002  -8.164  1.00  0.00     0.093 A 
ENDROOT
BRANCH   1   7
HETATM    7  C5  UNL     1      20.923  46.810  -9.629  1.00  0.00     0.097 A 
HETATM    8  C4  UNL     1      21.583  45.633  -9.975  1.00  0.00     0.093 A 
HETATM    9  C17 UNL     1      21.970  45.759 -11.312  1.00  0.00     0.136 A 
HETATM   10  O4  UNL     1      21.552  46.935 -11.698  1.00  0.00    -0.237 OA
HETATM   11  N12 UNL     1      20.943  47.564 -10.739  1.00  0.00    -0.258 N 
ATOM     12  H12 UNL     1      20.537  48.497 -10.818  1.00  0.00     0.195 HD
BRANCH   8  13
HETATM   13  N1  UNL     1      21.771  44.533  -9.115  1.00  0.00    -0.382 N 
ATOM     14  H1  UNL     1      22.720  44.332  -8.801  1.00  0.00     0.160 HD
BRANCH  13  15
HETATM   15  C2  UNL     1      20.715  43.672  -8.650  1.00  0.00     0.073 C 
HETATM   16  C1  UNL     1      21.149  42.422  -7.954  1.00  0.00     0.031 C 
HETATM   17  C3  UNL     1      19.904  43.223  -9.884  1.00  0.00     0.031 C 
ENDBRANCH  13  15
ENDBRANCH   8  13
BRANCH   9  18
HETATM   18  C18 UNL     1      22.705  44.703 -12.046  1.00  0.00     0.210 C 
BRANCH  18  19
HETATM   19  O5  UNL     1      23.076  43.660 -11.192  1.00  0.00    -0.386 OA
ATOM     20  H5  UNL     1      22.710  42.833 -11.482  1.00  0.00     0.210 HD
ENDBRANCH  18  19
BRANCH  18  21
HETATM   21  C19 UNL     1      23.977  45.257 -12.650  1.00  0.00     0.177 C 
BRANCH  21  22
HETATM   22  O6  UNL     1      23.639  46.123 -13.714  1.00  0.00    -0.390 OA
ATOM     23  H6  UNL     1      23.710  47.022 -13.414  1.00  0.00     0.210 HD
ENDBRANCH  21  22
BRANCH  21  24
HETATM   24  C20 UNL     1      24.825  44.129 -13.237  1.00  0.00     0.198 C 
BRANCH  24  25
HETATM   25  O7  UNL     1      25.957  43.969 -12.428  1.00  0.00    -0.398 OA
ATOM     26  H7  UNL     1      25.753  44.307 -11.564  1.00  0.00     0.209 HD
ENDBRANCH  24  25
ENDBRANCH  21  24
ENDBRANCH  18  21
ENDBRANCH   9  18
ENDBRANCH   1   7
BRANCH   6  27
HETATM   27  O3  UNL     1      18.685  48.498  -9.300  1.00  0.00    -0.359 OA
ATOM     28  H3  UNL     1      18.539  49.435  -9.366  1.00  0.00     0.217 HD
ENDBRANCH   6  27
BRANCH   3  29
HETATM   29  O1  UNL     1      21.143  46.467  -4.792  1.00  0.00    -0.358 OA
ATOM     30  H1  UNL     1      20.610  46.151  -4.072  1.00  0.00     0.217 HD
ENDBRANCH   3  29
BRANCH   5  31
HETATM   31  C13 UNL     1      17.624  49.196  -6.805  1.00  0.00     0.097 A 
HETATM   32  N6  UNL     1      17.507  50.541  -6.747  1.00  0.00    -0.279 N 
HETATM   33  N7  UNL     1      16.222  50.874  -6.663  1.00  0.00     0.003 NA
ATOM     34  H6  UNL     1      18.285  51.200  -6.766  1.00  0.00     0.184 HD
HETATM   35  N8  UNL     1      15.471  49.768  -6.663  1.00  0.00    -0.157 N 
HETATM   36  N9  UNL     1      14.166  49.548  -6.601  1.00  0.00    -0.208 N 
HETATM   37  C15 UNL     1      16.324  48.727  -6.749  1.00  0.00     0.172 A 
HETATM   38  N10 UNL     1      13.676  48.318  -6.624  1.00  0.00    -0.224 N 
ATOM     39  H9  UNL     1      13.527  50.340  -6.535  1.00  0.00     0.211 HD
HETATM   40  N11 UNL     1      14.442  47.257  -6.708  1.00  0.00    -0.249 N 
ATOM     41  H10 UNL     1      12.666  48.191  -6.574  1.00  0.00     0.210 HD
HETATM   42  C14 UNL     1      15.772  47.459  -6.771  1.00  0.00     0.293 A 
ATOM     43  H11 UNL     1      14.047  46.317  -6.726  1.00  0.00     0.192 HD
HETATM   44  O2  UNL     1      16.574  46.500  -6.851  1.00  0.00    -0.264 OA
ENDBRANCH   5  31
BRANCH   4  45
HETATM   45  N2  UNL     1      18.950  48.168  -4.473  1.00  0.00    -0.324 N 
ATOM     46  H2  UNL     1      19.416  48.942  -4.001  1.00  0.00     0.169 HD
BRANCH  45  47
HETATM   47  C10 UNL     1      17.904  47.502  -3.769  1.00  0.00     0.193 C 
HETATM   48  N3  UNL     1      17.128  47.952  -2.885  1.00  0.00    -0.346 N 
HETATM   49  C11 UNL     1      16.210  46.946  -2.434  1.00  0.00     0.259 C 
ATOM     50  H3  UNL     1      17.150  48.910  -2.535  1.00  0.00     0.163 HD
HETATM   51  N4  UNL     1      16.321  45.910  -3.434  1.00  0.00    -0.119 NA
HETATM   52  N5  UNL     1      17.569  46.142  -4.004  1.00  0.00    -0.274 N 
ATOM     53  H5  UNL     1      18.141  45.458  -4.500  1.00  0.00     0.185 HD
ENDBRANCH  45  47
ENDBRANCH   4  45
TORSDOF 14
ENDMDL
MODEL 3
REMARK VINA RESULT: -8.523874925      1.886      2.795
REMARK  14 active torsions:
REMARK  status: ('A' for Active; 'I' for Inactive)
REMARK    1  A    between atoms: C2_2  and  N1_4 
REMARK    2  A    between atoms: N1_4  and  C4_6 
REMARK    3  A    between atoms: C5_7  and  C6_8 
REMARK    4  A    between atoms: C8_10  and  O1_11 
REMARK    5  A    between atoms: C9_13  and  N2_14 
REMARK    6  A    between atoms: N2_14  and  C10_16 
REMARK    7  A    between atoms: C12_23  and  C13_24 
REMARK    8  A    between atoms: C16_38  and  O3_39 
REMARK    9  A    between atoms: C17_44  and  C18_45 
REMARK   10  A    between atoms: C18_45  and  O5_46 
REMARK   11  A    between atoms: C18_45  and  C19_48 
REMARK   12  A    between atoms: C19_48  and  O6_49 
REMARK   13  A    between atoms: C19_48  and  C20_51 
REMARK   14  A    between atoms: C20_51  and  O7_52 
ROOT
HETATM    1  C6  UNL     1      18.012  47.632 -10.197  1.00  0.00     0.032 A 
HETATM    2  C7  UNL     1      18.900  47.094 -11.110  1.00  0.00     0.055 A 
HETATM    3  C8  UNL     1      19.788  46.080 -10.771  1.00  0.00     0.094 A 
HETATM    4  C9  UNL     1      19.786  45.588  -9.482  1.00  0.00     0.084 A 
HETATM    5  C12 UNL     1      18.916  46.094  -8.545  1.00  0.00     0.058 A 
HETATM    6  C16 UNL     1      18.032  47.117  -8.901  1.00  0.00     0.093 A 
ENDROOT
BRANCH   1   7
HETATM    7  C5  UNL     1      17.085  48.715 -10.581  1.00  0.00     0.097 A 
HETATM    8  C4  UNL     1      17.425  49.941 -11.147  1.00  0.00     0.093 A 
HETATM    9  C17 UNL     1      16.242  50.673 -11.279  1.00  0.00     0.136 A 
HETATM   10  O4  UNL     1      15.291  49.905 -10.817  1.00  0.00    -0.237 OA
HETATM   11  N12 UNL     1      15.755  48.764 -10.405  1.00  0.00    -0.258 N 
ATOM     12  H12 UNL     1      15.191  48.014 -10.006  1.00  0.00     0.195 HD
BRANCH   8  13
HETATM   13  N1  UNL     1      18.728  50.318 -11.531  1.00  0.00    -0.382 N 
ATOM     14  H1  UNL     1      19.016  50.120 -12.489  1.00  0.00     0.160 HD
BRANCH  13  15
HETATM   15  C2  UNL     1      19.679  50.962 -10.664  1.00  0.00     0.073 C 
HETATM   16  C1  UNL     1      20.449  52.093 -11.264  1.00  0.00     0.031 C 
HETATM   17  C3  UNL     1      20.720  49.901 -10.246  1.00  0.00     0.031 C 
ENDBRANCH  13  15
ENDBRANCH   8  13
BRANCH   9  18
HETATM   18  C18 UNL     1      16.193  52.041 -11.846  1.00  0.00     0.210 C 
BRANCH  18  19
HETATM   19  O5  UNL     1      17.235  52.247 -12.755  1.00  0.00    -0.386 OA
ATOM     20  H5  UNL     1      16.906  52.570 -13.586  1.00  0.00     0.210 HD
ENDBRANCH  18  19
BRANCH  18  21
HETATM   21  C19 UNL     1      16.344  53.077 -10.754  1.00  0.00     0.177 C 
BRANCH  21  22
HETATM   22  O6  UNL     1      15.858  52.540  -9.542  1.00  0.00    -0.390 OA
ATOM     23  H6  UNL     1      14.937  52.755  -9.456  1.00  0.00     0.210 HD
ENDBRANCH  21  22
BRANCH  21  24
HETATM   24  C20 UNL     1      15.500  54.312 -11.070  1.00  0.00     0.198 C 
BRANCH  24  25
HETATM   25  O7  UNL     1      14.496  54.414 -10.098  1.00  0.00    -0.398 OA
ATOM     26  H7  UNL     1      14.898  54.701  -9.286  1.00  0.00     0.209 HD
ENDBRANCH  24  25
ENDBRANCH  21  24
ENDBRANCH  18  21
ENDBRANCH   9  18
ENDBRANCH   1   7
BRANCH   6  27
HETATM   27  O3  UNL     1      17.159  47.636  -7.972  1.00  0.00    -0.359 OA
ATOM     28  H3  UNL     1      16.986  47.138  -7.182  1.00  0.00     0.217 HD
ENDBRANCH   6  27
BRANCH   3  29
HETATM   29  O1  UNL     1      20.632  45.619 -11.762  1.00  0.00    -0.358 OA
ATOM     30  H1  UNL     1      20.412  44.791 -12.173  1.00  0.00     0.217 HD
ENDBRANCH   3  29
BRANCH   5  31
HETATM   31  C13 UNL     1      18.893  45.580  -7.196  1.00  0.00     0.097 A 
HETATM   32  N6  UNL     1      18.064  44.708  -6.581  1.00  0.00    -0.279 N 
HETATM   33  N7  UNL     1      18.445  44.543  -5.317  1.00  0.00     0.003 NA
ATOM     34  H6  UNL     1      17.267  44.245  -7.020  1.00  0.00     0.184 HD
HETATM   35  N8  UNL     1      19.523  45.294  -5.073  1.00  0.00    -0.157 N 
HETATM   36  N9  UNL     1      20.280  45.489  -4.003  1.00  0.00    -0.208 N 
HETATM   37  C15 UNL     1      19.809  45.940  -6.223  1.00  0.00     0.172 A 
HETATM   38  N10 UNL     1      21.319  46.309  -4.038  1.00  0.00    -0.224 N 
ATOM     39  H9  UNL     1      20.058  44.999  -3.137  1.00  0.00     0.211 HD
HETATM   40  N11 UNL     1      21.659  46.969  -5.119  1.00  0.00    -0.249 N 
ATOM     41  H10 UNL     1      21.876  46.432  -3.192  1.00  0.00     0.210 HD
HETATM   42  C14 UNL     1      20.903  46.785  -6.218  1.00  0.00     0.293 A 
ATOM     43  H11 UNL     1      22.464  47.595  -5.127  1.00  0.00     0.192 HD
HETATM   44  O2  UNL     1      21.157  47.379  -7.291  1.00  0.00    -0.264 OA
ENDBRANCH   5  31
BRANCH   4  45
HETATM   45  N2  UNL     1      20.725  44.581  -9.170  1.00  0.00    -0.324 N 
ATOM     46  H2  UNL     1      21.708  44.849  -9.133  1.00  0.00     0.169 HD
BRANCH  45  47
HETATM   47  C10 UNL     1      20.402  43.218  -8.903  1.00  0.00     0.193 C 
HETATM   48  N3  UNL     1      19.632  42.446  -9.534  1.00  0.00    -0.346 N 
HETATM   49  C11 UNL     1      19.590  41.144  -8.930  1.00  0.00     0.259 C 
ATOM     50  H3  UNL     1      19.107  42.711 -10.366  1.00  0.00     0.163 HD
HETATM   51  N4  UNL     1      20.725  41.145  -8.037  1.00  0.00    -0.119 NA
HETATM   52  N5  UNL     1      20.961  42.498  -7.814  1.00  0.00    -0.274 N 
ATOM     53  H5  UNL     1      21.447  42.900  -7.013  1.00  0.00     0.185 HD
ENDBRANCH  45  47
ENDBRANCH   4  45
TORSDOF 14
ENDMDL
MODEL 4
REMARK VINA RESULT: -8.493309471      1.275      2.162
REMARK  14 active torsions:
REMARK  status: ('A' for Active; 'I' for Inactive)
REMARK    1  A    between atoms: C2_2  and  N1_4 
REMARK    2  A    between atoms: N1_4  and  C4_6 
REMARK    3  A    between atoms: C5_7  and  C6_8 
REMARK    4  A    between atoms: C8_10  and  O1_11 
REMARK    5  A    between atoms: C9_13  and  N2_14 
REMARK    6  A    between atoms: N2_14  and  C10_16 
REMARK    7  A    between atoms: C12_23  and  C13_24 
REMARK    8  A    between atoms: C16_38  and  O3_39 
REMARK    9  A    between atoms: C17_44  and  C18_45 
REMARK   10  A    between atoms: C18_45  and  O5_46 
REMARK   11  A    between atoms: C18_45  and  C19_48 
REMARK   12  A    between atoms: C19_48  and  O6_49 
REMARK   13  A    between atoms: C19_48  and  C20_51 
REMARK   14  A    between atoms: C20_51  and  O7_52 
ROOT
HETATM    1  C6  UNL     1      17.739  48.176  -8.925  1.00  0.00     0.032 A 
HETATM    2  C7  UNL     1      18.262  47.151  -9.691  1.00  0.00     0.055 A 
HETATM    3  C8  UNL     1      19.119  46.193  -9.160  1.00  0.00     0.094 A 
HETATM    4  C9  UNL     1      19.461  46.264  -7.826  1.00  0.00     0.084 A 
HETATM    5  C12 UNL     1      18.960  47.267  -7.030  1.00  0.00     0.058 A 
HETATM    6  C16 UNL     1      18.101  48.224  -7.580  1.00  0.00     0.093 A 
ENDROOT
BRANCH   1   7
HETATM    7  C5  UNL     1      16.837  49.185  -9.516  1.00  0.00     0.097 A 
HETATM    8  C4  UNL     1      17.158  50.114 -10.503  1.00  0.00     0.093 A 
HETATM    9  C17 UNL     1      16.023  50.905 -10.705  1.00  0.00     0.136 A 
HETATM   10  O4  UNL     1      15.117  50.448  -9.883  1.00  0.00    -0.237 OA
HETATM   11  N12 UNL     1      15.564  49.451  -9.182  1.00  0.00    -0.258 N 
ATOM     12  H12 UNL     1      15.027  48.944  -8.479  1.00  0.00     0.195 HD
BRANCH   8  13
HETATM   13  N1  UNL     1      18.397  50.184 -11.170  1.00  0.00    -0.382 N 
ATOM     14  H1  UNL     1      18.469  49.740 -12.086  1.00  0.00     0.160 HD
BRANCH  13  15
HETATM   15  C2  UNL     1      19.568  50.840 -10.649  1.00  0.00     0.073 C 
HETATM   16  C1  UNL     1      20.210  51.844 -11.551  1.00  0.00     0.031 C 
HETATM   17  C3  UNL     1      20.630  49.752 -10.384  1.00  0.00     0.031 C 
ENDBRANCH  13  15
ENDBRANCH   8  13
BRANCH   9  18
HETATM   18  C18 UNL     1      15.973  52.014 -11.685  1.00  0.00     0.210 C 
BRANCH  18  19
HETATM   19  O5  UNL     1      16.844  51.783 -12.754  1.00  0.00    -0.386 OA
ATOM     20  H5  UNL     1      17.308  52.576 -12.995  1.00  0.00     0.210 HD
ENDBRANCH  18  19
BRANCH  18  21
HETATM   21  C19 UNL     1      16.395  53.316 -11.041  1.00  0.00     0.177 C 
BRANCH  21  22
HETATM   22  O6  UNL     1      16.574  53.106  -9.656  1.00  0.00    -0.390 OA
ATOM     23  H6  UNL     1      17.492  53.228  -9.442  1.00  0.00     0.210 HD
ENDBRANCH  21  22
BRANCH  21  24
HETATM   24  C20 UNL     1      15.299  54.371 -11.199  1.00  0.00     0.198 C 
BRANCH  24  25
HETATM   25  O7  UNL     1      14.529  54.377 -10.028  1.00  0.00    -0.398 OA
ATOM     26  H7  UNL     1      14.231  55.267  -9.875  1.00  0.00     0.209 HD
ENDBRANCH  24  25
ENDBRANCH  21  24
ENDBRANCH  18  21
ENDBRANCH   9  18
ENDBRANCH   1   7
BRANCH   6  27
HETATM   27  O3  UNL     1      17.595  49.236  -6.797  1.00  0.00    -0.359 OA
ATOM     28  H3  UNL     1      16.667  49.235  -6.595  1.00  0.00     0.217 HD
ENDBRANCH   6  27
BRANCH   3  29
HETATM   29  O1  UNL     1      19.584  45.215 -10.016  1.00  0.00    -0.358 OA
ATOM     30  H1  UNL     1      20.432  45.357 -10.422  1.00  0.00     0.217 HD
ENDBRANCH   3  29
BRANCH   5  31
HETATM   31  C13 UNL     1      19.297  47.345  -5.628  1.00  0.00     0.097 A 
HETATM   32  N6  UNL     1      20.368  47.867  -4.989  1.00  0.00    -0.279 N 
HETATM   33  N7  UNL     1      20.231  47.698  -3.677  1.00  0.00     0.003 NA
ATOM     34  H6  UNL     1      21.160  48.321  -5.444  1.00  0.00     0.184 HD
HETATM   35  N8  UNL     1      19.079  47.068  -3.424  1.00  0.00    -0.157 N 
HETATM   36  N9  UNL     1      18.479  46.671  -2.311  1.00  0.00    -0.208 N 
HETATM   37  C15 UNL     1      18.495  46.844  -4.618  1.00  0.00     0.172 A 
HETATM   38  N10 UNL     1      17.307  46.055  -2.347  1.00  0.00    -0.224 N 
ATOM     39  H9  UNL     1      18.927  46.843  -1.411  1.00  0.00     0.211 HD
HETATM   40  N11 UNL     1      16.678  45.805  -3.469  1.00  0.00    -0.249 N 
ATOM     41  H10 UNL     1      16.878  45.765  -1.468  1.00  0.00     0.210 HD
HETATM   42  C14 UNL     1      17.271  46.199  -4.612  1.00  0.00     0.293 A 
ATOM     43  H11 UNL     1      15.775  45.330  -3.477  1.00  0.00     0.192 HD
HETATM   44  O2  UNL     1      16.739  45.997  -5.727  1.00  0.00    -0.264 OA
ENDBRANCH   5  31
BRANCH   4  45
HETATM   45  N2  UNL     1      20.359  45.292  -7.333  1.00  0.00    -0.324 N 
ATOM     46  H2  UNL     1      21.345  45.398  -7.571  1.00  0.00     0.169 HD
BRANCH  45  47
HETATM   47  C10 UNL     1      19.992  44.173  -6.529  1.00  0.00     0.193 C 
HETATM   48  N3  UNL     1      20.653  43.590  -5.630  1.00  0.00    -0.346 N 
HETATM   49  C11 UNL     1      19.911  42.502  -5.060  1.00  0.00     0.259 C 
ATOM     50  H3  UNL     1      21.595  43.856  -5.344  1.00  0.00     0.163 HD
HETATM   51  N4  UNL     1      18.559  42.736  -5.512  1.00  0.00    -0.119 NA
HETATM   52  N5  UNL     1      18.729  43.533  -6.640  1.00  0.00    -0.274 N 
ATOM     53  H5  UNL     1      18.066  43.638  -7.408  1.00  0.00     0.185 HD
ENDBRANCH  45  47
ENDBRANCH   4  45
TORSDOF 14
ENDMDL
MODEL 5
REMARK VINA RESULT: -8.359002725      2.442      3.511
REMARK  14 active torsions:
REMARK  status: ('A' for Active; 'I' for Inactive)
REMARK    1  A    between atoms: C2_2  and  N1_4 
REMARK    2  A    between atoms: N1_4  and  C4_6 
REMARK    3  A    between atoms: C5_7  and  C6_8 
REMARK    4  A    between atoms: C8_10  and  O1_11 
REMARK    5  A    between atoms: C9_13  and  N2_14 
REMARK    6  A    between atoms: N2_14  and  C10_16 
REMARK    7  A    between atoms: C12_23  and  C13_24 
REMARK    8  A    between atoms: C16_38  and  O3_39 
REMARK    9  A    between atoms: C17_44  and  C18_45 
REMARK   10  A    between atoms: C18_45  and  O5_46 
REMARK   11  A    between atoms: C18_45  and  C19_48 
REMARK   12  A    between atoms: C19_48  and  O6_49 
REMARK   13  A    between atoms: C19_48  and  C20_51 
REMARK   14  A    between atoms: C20_51  and  O7_52 
ROOT
HETATM    1  C6  UNL     1      19.702  48.733 -10.557  1.00  0.00     0.032 A 
HETATM    2  C7  UNL     1      20.139  47.694 -11.359  1.00  0.00     0.055 A 
HETATM    3  C8  UNL     1      20.016  46.363 -10.979  1.00  0.00     0.094 A 
HETATM    4  C9  UNL     1      19.439  46.062  -9.763  1.00  0.00     0.084 A 
HETATM    5  C12 UNL     1      18.990  47.066  -8.938  1.00  0.00     0.058 A 
HETATM    6  C16 UNL     1      19.123  48.400  -9.333  1.00  0.00     0.093 A 
ENDROOT
BRANCH   1   7
HETATM    7  C5  UNL     1      19.852  50.139 -10.981  1.00  0.00     0.097 A 
HETATM    8  C4  UNL     1      18.827  51.047 -11.235  1.00  0.00     0.093 A 
HETATM    9  C17 UNL     1      19.428  52.231 -11.671  1.00  0.00     0.136 A 
HETATM   10  O4  UNL     1      20.714  52.005 -11.662  1.00  0.00    -0.237 OA
HETATM   11  N12 UNL     1      20.986  50.799 -11.266  1.00  0.00    -0.258 N 
ATOM     12  H12 UNL     1      21.924  50.409 -11.183  1.00  0.00     0.195 HD
BRANCH   8  13
HETATM   13  N1  UNL     1      17.455  50.788 -11.041  1.00  0.00    -0.382 N 
ATOM     14  H1  UNL     1      16.989  51.255 -10.264  1.00  0.00     0.160 HD
BRANCH  13  15
HETATM   15  C2  UNL     1      16.667  49.910 -11.866  1.00  0.00     0.073 C 
HETATM   16  C1  UNL     1      15.934  50.557 -12.996  1.00  0.00     0.031 C 
HETATM   17  C3  UNL     1      15.593  49.265 -10.964  1.00  0.00     0.031 C 
ENDBRANCH  13  15
ENDBRANCH   8  13
BRANCH   9  18
HETATM   18  C18 UNL     1      18.659  53.441 -12.043  1.00  0.00     0.210 C 
BRANCH  18  19
HETATM   19  O5  UNL     1      18.621  53.609 -13.431  1.00  0.00    -0.386 OA
ATOM     20  H5  UNL     1      19.126  54.369 -13.698  1.00  0.00     0.210 HD
ENDBRANCH  18  19
BRANCH  18  21
HETATM   21  C19 UNL     1      19.300  54.682 -11.463  1.00  0.00     0.177 C 
BRANCH  21  22
HETATM   22  O6  UNL     1      20.086  54.313 -10.348  1.00  0.00    -0.390 OA
ATOM     23  H6  UNL     1      20.753  53.698 -10.632  1.00  0.00     0.210 HD
ENDBRANCH  21  22
BRANCH  21  24
HETATM   24  C20 UNL     1      18.231  55.651 -10.959  1.00  0.00     0.198 C 
BRANCH  24  25
HETATM   25  O7  UNL     1      18.498  56.915 -11.502  1.00  0.00    -0.398 OA
ATOM     26  H7  UNL     1      19.076  57.377 -10.906  1.00  0.00     0.209 HD
ENDBRANCH  24  25
ENDBRANCH  21  24
ENDBRANCH  18  21
ENDBRANCH   9  18
ENDBRANCH   1   7
BRANCH   6  27
HETATM   27  O3  UNL     1      18.681  49.415  -8.516  1.00  0.00    -0.359 OA
ATOM     28  H3  UNL     1      17.779  49.401  -8.219  1.00  0.00     0.217 HD
ENDBRANCH   6  27
BRANCH   3  29
HETATM   29  O1  UNL     1      20.489  45.407 -11.857  1.00  0.00    -0.358 OA
ATOM     30  H1  UNL     1      20.086  44.547 -11.824  1.00  0.00     0.217 HD
ENDBRANCH   3  29
BRANCH   5  31
HETATM   31  C13 UNL     1      18.370  46.765  -7.668  1.00  0.00     0.097 A 
HETATM   32  N6  UNL     1      17.104  46.418  -7.346  1.00  0.00    -0.279 N 
HETATM   33  N7  UNL     1      17.010  46.243  -6.030  1.00  0.00     0.003 NA
ATOM     34  H6  UNL     1      16.338  46.307  -8.010  1.00  0.00     0.184 HD
HETATM   35  N8  UNL     1      18.200  46.467  -5.462  1.00  0.00    -0.157 N 
HETATM   36  N9  UNL     1      18.639  46.427  -4.213  1.00  0.00    -0.208 N 
HETATM   37  C15 UNL     1      19.046  46.791  -6.461  1.00  0.00     0.172 A 
HETATM   38  N10 UNL     1      19.902  46.699  -3.921  1.00  0.00    -0.224 N 
ATOM     39  H9  UNL     1      17.993  46.182  -3.463  1.00  0.00     0.211 HD
HETATM   40  N11 UNL     1      20.783  47.019  -4.838  1.00  0.00    -0.249 N 
ATOM     41  H10 UNL     1      20.200  46.657  -2.947  1.00  0.00     0.210 HD
HETATM   42  C14 UNL     1      20.356  47.067  -6.115  1.00  0.00     0.293 A 
ATOM     43  H11 UNL     1      21.751  47.224  -4.594  1.00  0.00     0.192 HD
HETATM   44  O2  UNL     1      21.132  47.367  -7.051  1.00  0.00    -0.264 OA
ENDBRANCH   5  31
BRANCH   4  45
HETATM   45  N2  UNL     1      19.363  44.700  -9.400  1.00  0.00    -0.324 N 
ATOM     46  H2  UNL     1      18.527  44.185  -9.676  1.00  0.00     0.169 HD
BRANCH  45  47
HETATM   47  C10 UNL     1      20.366  43.989  -8.676  1.00  0.00     0.193 C 
HETATM   48  N3  UNL     1      20.325  43.532  -7.504  1.00  0.00    -0.346 N 
HETATM   49  C11 UNL     1      21.554  42.876  -7.157  1.00  0.00     0.259 C 
ATOM     50  H3  UNL     1      19.522  43.616  -6.881  1.00  0.00     0.163 HD
HETATM   51  N4  UNL     1      22.218  42.702  -8.428  1.00  0.00    -0.119 NA
HETATM   52  N5  UNL     1      21.632  43.672  -9.235  1.00  0.00    -0.274 N 
ATOM     53  H5  UNL     1      22.039  44.081 -10.076  1.00  0.00     0.185 HD
ENDBRANCH  45  47
ENDBRANCH   4  45
TORSDOF 14
ENDMDL
