MODEL 1
REMARK VINA RESULT: -7.327134081      0.000      0.000
REMARK  10 active torsions:
REMARK  status: ('A' for Active; 'I' for Inactive)
REMARK    1  A    between atoms: C2_2  and  O1_3 
REMARK    2  A    between atoms: O1_3  and  C3_4 
REMARK    3  A    between atoms: C5_6  and  N1_7 
REMARK    4  A    between atoms: C11_13  and  N2_14 
REMARK    5  A    between atoms: N2_14  and  C12_16 
REMARK    6  A    between atoms: C13_19  and  N4_20 
REMARK    7  A    between atoms: C19_29  and  N7_30 
REMARK    8  A    between atoms: N7_30  and  C20_32 
REMARK    9  A    between atoms: C20_32  and  C21_33 
REMARK   10  A    between atoms: C21_33  and  O2_34 
ROOT
HETATM    1  C12 UNL     1     -13.100   2.015 -10.612  1.00  0.00     0.712 A 
HETATM    2  N3  UNL     1     -13.737   2.873  -9.803  1.00  0.00    -0.021 N 
ATOM      3  H3  UNL     1     -13.237   3.272  -9.009  1.00  0.00     0.203 HD
HETATM    4  C13 UNL     1     -15.006   3.215 -10.010  1.00  0.00     0.709 A 
HETATM    5  N6  UNL     1     -15.675   2.696 -11.051  1.00  0.00    -0.021 N 
ATOM      6  H6  UNL     1     -16.647   2.960 -11.209  1.00  0.00     0.203 HD
HETATM    7  C19 UNL     1     -15.075   1.832 -11.887  1.00  0.00     0.707 A 
HETATM    8  N8  UNL     1     -13.794   1.512 -11.643  1.00  0.00    -0.021 N 
ATOM      9  H8  UNL     1     -13.327   0.857 -12.271  1.00  0.00     0.203 HD
ENDROOT
BRANCH   1  10
HETATM   10  N2  UNL     1     -11.875   1.661 -10.443  1.00  0.00    -0.187 N 
ATOM     11  H2  UNL     1     -11.683   0.748 -10.030  1.00  0.00     0.184 HD
BRANCH  10  12
HETATM   12  C11 UNL     1     -10.780   2.483 -10.804  1.00  0.00     0.088 A 
HETATM   13  C3  UNL     1     -10.420   3.517  -9.955  1.00  0.00     0.098 A 
HETATM   14  C4  UNL     1      -9.353   4.309 -10.316  1.00  0.00     0.068 A 
HETATM   15  C5  UNL     1      -8.634   4.111 -11.488  1.00  0.00     0.032 A 
HETATM   16  C8  UNL     1      -9.018   3.081 -12.301  1.00  0.00     0.038 A 
HETATM   17  C9  UNL     1     -10.088   2.270 -11.957  1.00  0.00    -0.030 A 
HETATM   18  C10 UNL     1     -10.428   1.172 -12.914  1.00  0.00     0.050 C 
BRANCH  13  19
HETATM   19  O1  UNL     1     -11.086   3.764  -8.786  1.00  0.00    -0.349 OA
BRANCH  19  20
HETATM   20  C2  UNL     1     -10.752   3.369  -7.496  1.00  0.00     0.171 C 
HETATM   21  C1  UNL     1     -11.196   2.001  -7.098  1.00  0.00     0.034 C 
ENDBRANCH  19  20
ENDBRANCH  13  19
BRANCH  15  22
HETATM   22  N1  UNL     1      -7.539   4.946 -11.833  1.00  0.00    -0.389 N 
HETATM   23  C6  UNL     1      -7.308   6.203 -11.171  1.00  0.00     0.149 C 
HETATM   24  C7  UNL     1      -6.636   4.514 -12.877  1.00  0.00     0.149 C 
ENDBRANCH  15  22
ENDBRANCH  10  12
ENDBRANCH   1  10
BRANCH   4  25
HETATM   25  N4  UNL     1     -15.610   4.134  -9.105  1.00  0.00    -0.213 N 
HETATM   26  C14 UNL     1     -14.859   5.212  -8.540  1.00  0.00     0.171 C 
HETATM   27  C15 UNL     1     -15.622   6.499  -8.423  1.00  0.00     0.292 C 
HETATM   28  N5  UNL     1     -17.007   6.267  -8.724  1.00  0.00     0.087 N 
HETATM   29  C16 UNL     1     -17.839   7.426  -8.517  1.00  0.00     0.310 C 
HETATM   30  C17 UNL     1     -17.518   5.093  -8.031  1.00  0.00     0.292 C 
HETATM   31  C18 UNL     1     -17.026   3.890  -8.806  1.00  0.00     0.171 C 
ENDBRANCH   4  25
BRANCH   7  32
HETATM   32  N7  UNL     1     -15.709   1.327 -12.890  1.00  0.00    -0.223 N 
ATOM     33  H7  UNL     1     -16.708   1.144 -12.798  1.00  0.00     0.177 HD
BRANCH  32  34
HETATM   34  C20 UNL     1     -15.058   1.013 -14.134  1.00  0.00     0.164 C 
BRANCH  34  35
HETATM   35  C21 UNL     1     -15.152   2.216 -15.050  1.00  0.00     0.184 C 
BRANCH  35  36
HETATM   36  O2  UNL     1     -16.311   2.937 -14.818  1.00  0.00    -0.399 OA
ATOM     37  H2  UNL     1     -16.967   2.758 -15.480  1.00  0.00     0.209 HD
ENDBRANCH  35  36
ENDBRANCH  34  35
ENDBRANCH  32  34
ENDBRANCH   7  32
TORSDOF 10
ENDMDL
MODEL 2
REMARK VINA RESULT: -6.826518033      1.114      2.292
REMARK  10 active torsions:
REMARK  status: ('A' for Active; 'I' for Inactive)
REMARK    1  A    between atoms: C2_2  and  O1_3 
REMARK    2  A    between atoms: O1_3  and  C3_4 
REMARK    3  A    between atoms: C5_6  and  N1_7 
REMARK    4  A    between atoms: C11_13  and  N2_14 
REMARK    5  A    between atoms: N2_14  and  C12_16 
REMARK    6  A    between atoms: C13_19  and  N4_20 
REMARK    7  A    between atoms: C19_29  and  N7_30 
REMARK    8  A    between atoms: N7_30  and  C20_32 
REMARK    9  A    between atoms: C20_32  and  C21_33 
REMARK   10  A    between atoms: C21_33  and  O2_34 
ROOT
HETATM    1  C12 UNL     1     -12.530   2.048 -10.411  1.00  0.00     0.712 A 
HETATM    2  N3  UNL     1     -13.216   2.910  -9.648  1.00  0.00    -0.021 N 
ATOM      3  H3  UNL     1     -12.742   3.374  -8.873  1.00  0.00     0.203 HD
HETATM    4  C13 UNL     1     -14.501   3.173  -9.875  1.00  0.00     0.709 A 
HETATM    5  N6  UNL     1     -15.135   2.568 -10.890  1.00  0.00    -0.021 N 
ATOM      6  H6  UNL     1     -16.120   2.771 -11.063  1.00  0.00     0.203 HD
HETATM    7  C19 UNL     1     -14.486   1.696 -11.681  1.00  0.00     0.707 A 
HETATM    8  N8  UNL     1     -13.191   1.458 -11.418  1.00  0.00    -0.021 N 
ATOM      9  H8  UNL     1     -12.687   0.798 -12.011  1.00  0.00     0.203 HD
ENDROOT
BRANCH   1  10
HETATM   10  N2  UNL     1     -11.289   1.769 -10.222  1.00  0.00    -0.187 N 
ATOM     11  H2  UNL     1     -11.052   0.899  -9.744  1.00  0.00     0.184 HD
BRANCH  10  12
HETATM   12  C11 UNL     1     -10.236   2.615 -10.647  1.00  0.00     0.088 A 
HETATM   13  C3  UNL     1      -9.908   2.638 -11.993  1.00  0.00     0.098 A 
HETATM   14  C4  UNL     1      -8.884   3.465 -12.395  1.00  0.00     0.068 A 
HETATM   15  C5  UNL     1      -8.175   4.268 -11.509  1.00  0.00     0.032 A 
HETATM   16  C8  UNL     1      -8.528   4.219 -10.189  1.00  0.00     0.038 A 
HETATM   17  C9  UNL     1      -9.556   3.394  -9.762  1.00  0.00    -0.030 A 
HETATM   18  C10 UNL     1      -9.863   3.414  -8.298  1.00  0.00     0.050 C 
BRANCH  13  19
HETATM   19  O1  UNL     1     -10.567   1.873 -12.916  1.00  0.00    -0.349 OA
BRANCH  19  20
HETATM   20  C2  UNL     1     -10.123   0.733 -13.576  1.00  0.00     0.171 C 
HETATM   21  C1  UNL     1     -10.154  -0.531 -12.785  1.00  0.00     0.034 C 
ENDBRANCH  19  20
ENDBRANCH  13  19
BRANCH  15  22
HETATM   22  N1  UNL     1      -7.124   5.110 -11.955  1.00  0.00    -0.389 N 
HETATM   23  C6  UNL     1      -6.958   6.447 -11.448  1.00  0.00     0.149 C 
HETATM   24  C7  UNL     1      -6.198   4.604 -12.944  1.00  0.00     0.149 C 
ENDBRANCH  15  22
ENDBRANCH  10  12
ENDBRANCH   1  10
BRANCH   4  25
HETATM   25  N4  UNL     1     -15.157   4.102  -9.018  1.00  0.00    -0.213 N 
HETATM   26  C14 UNL     1     -14.491   5.284  -8.567  1.00  0.00     0.171 C 
HETATM   27  C15 UNL     1     -15.367   6.503  -8.516  1.00  0.00     0.292 C 
HETATM   28  N5  UNL     1     -16.733   6.125  -8.744  1.00  0.00     0.087 N 
HETATM   29  C16 UNL     1     -17.661   7.216  -8.592  1.00  0.00     0.310 C 
HETATM   30  C17 UNL     1     -17.109   4.967  -7.944  1.00  0.00     0.292 C 
HETATM   31  C18 UNL     1     -16.534   3.757  -8.645  1.00  0.00     0.171 C 
ENDBRANCH   4  25
BRANCH   7  32
HETATM   32  N7  UNL     1     -15.087   1.109 -12.659  1.00  0.00    -0.223 N 
ATOM     33  H7  UNL     1     -15.967   0.626 -12.476  1.00  0.00     0.177 HD
BRANCH  32  34
HETATM   34  C20 UNL     1     -14.561   1.110 -13.998  1.00  0.00     0.164 C 
BRANCH  34  35
HETATM   35  C21 UNL     1     -15.499   1.900 -14.888  1.00  0.00     0.184 C 
BRANCH  35  36
HETATM   36  O2  UNL     1     -16.799   1.433 -14.790  1.00  0.00    -0.399 OA
ATOM     37  H2  UNL     1     -16.940   0.973 -13.972  1.00  0.00     0.209 HD
ENDBRANCH  35  36
ENDBRANCH  34  35
ENDBRANCH  32  34
ENDBRANCH   7  32
TORSDOF 10
ENDMDL
MODEL 3
REMARK VINA RESULT: -6.746292136      3.197      7.698
REMARK  10 active torsions:
REMARK  status: ('A' for Active; 'I' for Inactive)
REMARK    1  A    between atoms: C2_2  and  O1_3 
REMARK    2  A    between atoms: O1_3  and  C3_4 
REMARK    3  A    between atoms: C5_6  and  N1_7 
REMARK    4  A    between atoms: C11_13  and  N2_14 
REMARK    5  A    between atoms: N2_14  and  C12_16 
REMARK    6  A    between atoms: C13_19  and  N4_20 
REMARK    7  A    between atoms: C19_29  and  N7_30 
REMARK    8  A    between atoms: N7_30  and  C20_32 
REMARK    9  A    between atoms: C20_32  and  C21_33 
REMARK   10  A    between atoms: C21_33  and  O2_34 
ROOT
HETATM    1  C12 UNL     1     -12.428   1.838  -9.964  1.00  0.00     0.712 A 
HETATM    2  N3  UNL     1     -11.158   1.950 -10.376  1.00  0.00    -0.021 N 
ATOM      3  H3  UNL     1     -10.674   1.124 -10.727  1.00  0.00     0.203 HD
HETATM    4  C13 UNL     1     -10.512   3.113 -10.336  1.00  0.00     0.709 A 
HETATM    5  N6  UNL     1     -11.137   4.207  -9.875  1.00  0.00    -0.021 N 
ATOM      6  H6  UNL     1     -10.641   5.098  -9.846  1.00  0.00     0.203 HD
HETATM    7  C19 UNL     1     -12.411   4.140  -9.452  1.00  0.00     0.707 A 
HETATM    8  N8  UNL     1     -13.027   2.948  -9.508  1.00  0.00    -0.021 N 
ATOM      9  H8  UNL     1     -13.994   2.884  -9.190  1.00  0.00     0.203 HD
ENDROOT
BRANCH   1  10
HETATM   10  N2  UNL     1     -13.084   0.731  -9.988  1.00  0.00    -0.187 N 
ATOM     11  H2  UNL     1     -13.483   0.420 -10.873  1.00  0.00     0.184 HD
BRANCH  10  12
HETATM   12  C11 UNL     1     -13.276  -0.074  -8.839  1.00  0.00     0.088 A 
HETATM   13  C3  UNL     1     -12.198  -0.792  -8.346  1.00  0.00     0.098 A 
HETATM   14  C4  UNL     1     -12.395  -1.571  -7.228  1.00  0.00     0.068 A 
HETATM   15  C5  UNL     1     -13.623  -1.661  -6.584  1.00  0.00     0.032 A 
HETATM   16  C8  UNL     1     -14.664  -0.938  -7.099  1.00  0.00     0.038 A 
HETATM   17  C9  UNL     1     -14.487  -0.147  -8.223  1.00  0.00    -0.030 A 
HETATM   18  C10 UNL     1     -15.687   0.604  -8.705  1.00  0.00     0.050 C 
BRANCH  13  19
HETATM   19  O1  UNL     1     -10.963  -0.746  -8.933  1.00  0.00    -0.349 OA
BRANCH  19  20
HETATM   20  C2  UNL     1      -9.713  -0.740  -8.327  1.00  0.00     0.171 C 
HETATM   21  C1  UNL     1      -9.303   0.546  -7.690  1.00  0.00     0.034 C 
ENDBRANCH  19  20
ENDBRANCH  13  19
BRANCH  15  22
HETATM   22  N1  UNL     1     -13.796  -2.473  -5.434  1.00  0.00    -0.389 N 
HETATM   23  C6  UNL     1     -13.701  -1.932  -4.103  1.00  0.00     0.149 C 
HETATM   24  C7  UNL     1     -14.075  -3.882  -5.611  1.00  0.00     0.149 C 
ENDBRANCH  15  22
ENDBRANCH  10  12
ENDBRANCH   1  10
BRANCH   4  25
HETATM   25  N4  UNL     1      -9.163   3.148 -10.793  1.00  0.00    -0.213 N 
HETATM   26  C14 UNL     1      -8.497   1.953 -11.209  1.00  0.00     0.171 C 
HETATM   27  C15 UNL     1      -7.609   2.129 -12.408  1.00  0.00     0.292 C 
HETATM   28  N5  UNL     1      -7.492   3.526 -12.719  1.00  0.00     0.087 N 
HETATM   29  C16 UNL     1      -6.558   3.797 -13.783  1.00  0.00     0.310 C 
HETATM   30  C17 UNL     1      -7.215   4.319 -11.530  1.00  0.00     0.292 C 
HETATM   31  C18 UNL     1      -8.531   4.472 -10.801  1.00  0.00     0.171 C 
ENDBRANCH   4  25
BRANCH   7  32
HETATM   32  N7  UNL     1     -13.021   5.185  -9.007  1.00  0.00    -0.223 N 
ATOM     33  H7  UNL     1     -12.471   6.010  -8.767  1.00  0.00     0.177 HD
BRANCH  32  34
HETATM   34  C20 UNL     1     -14.449   5.231  -8.838  1.00  0.00     0.164 C 
BRANCH  34  35
HETATM   35  C21 UNL     1     -14.826   6.571  -8.240  1.00  0.00     0.184 C 
BRANCH  35  36
HETATM   36  O2  UNL     1     -13.703   7.288  -7.863  1.00  0.00    -0.399 OA
ATOM     37  H2  UNL     1     -13.419   7.051  -6.989  1.00  0.00     0.209 HD
ENDBRANCH  35  36
ENDBRANCH  34  35
ENDBRANCH  32  34
ENDBRANCH   7  32
TORSDOF 10
ENDMDL
MODEL 4
REMARK VINA RESULT: -6.716871103      3.113      5.112
REMARK  10 active torsions:
REMARK  status: ('A' for Active; 'I' for Inactive)
REMARK    1  A    between atoms: C2_2  and  O1_3 
REMARK    2  A    between atoms: O1_3  and  C3_4 
REMARK    3  A    between atoms: C5_6  and  N1_7 
REMARK    4  A    between atoms: C11_13  and  N2_14 
REMARK    5  A    between atoms: N2_14  and  C12_16 
REMARK    6  A    between atoms: C13_19  and  N4_20 
REMARK    7  A    between atoms: C19_29  and  N7_30 
REMARK    8  A    between atoms: N7_30  and  C20_32 
REMARK    9  A    between atoms: C20_32  and  C21_33 
REMARK   10  A    between atoms: C21_33  and  O2_34 
ROOT
HETATM    1  C12 UNL     1     -13.281   1.621 -10.064  1.00  0.00     0.712 A 
HETATM    2  N3  UNL     1     -13.919   2.577  -9.374  1.00  0.00    -0.021 N 
ATOM      3  H3  UNL     1     -13.528   2.896  -8.488  1.00  0.00     0.203 HD
HETATM    4  C13 UNL     1     -15.052   3.118  -9.816  1.00  0.00     0.709 A 
HETATM    5  N6  UNL     1     -15.577   2.705 -10.980  1.00  0.00    -0.021 N 
ATOM      6  H6  UNL     1     -16.445   3.120 -11.318  1.00  0.00     0.203 HD
HETATM    7  C19 UNL     1     -14.971   1.749 -11.704  1.00  0.00     0.707 A 
HETATM    8  N8  UNL     1     -13.830   1.229 -11.222  1.00  0.00    -0.021 N 
ATOM      9  H8  UNL     1     -13.359   0.503 -11.763  1.00  0.00     0.203 HD
ENDROOT
BRANCH   1  10
HETATM   10  N2  UNL     1     -12.185   1.076  -9.668  1.00  0.00    -0.187 N 
ATOM     11  H2  UNL     1     -11.337   1.233 -10.213  1.00  0.00     0.184 HD
BRANCH  10  12
HETATM   12  C11 UNL     1     -12.103   0.269  -8.507  1.00  0.00     0.088 A 
HETATM   13  C3  UNL     1     -12.520  -1.050  -8.587  1.00  0.00     0.098 A 
HETATM   14  C4  UNL     1     -12.435  -1.826  -7.453  1.00  0.00     0.068 A 
HETATM   15  C5  UNL     1     -11.952  -1.338  -6.245  1.00  0.00     0.032 A 
HETATM   16  C8  UNL     1     -11.549  -0.032  -6.204  1.00  0.00     0.038 A 
HETATM   17  C9  UNL     1     -11.625   0.767  -7.334  1.00  0.00    -0.030 A 
HETATM   18  C10 UNL     1     -11.160   2.180  -7.184  1.00  0.00     0.050 C 
BRANCH  13  19
HETATM   19  O1  UNL     1     -13.004  -1.591  -9.746  1.00  0.00    -0.349 OA
BRANCH  19  20
HETATM   20  C2  UNL     1     -12.355  -2.416 -10.658  1.00  0.00     0.171 C 
HETATM   21  C1  UNL     1     -12.104  -1.827 -12.006  1.00  0.00     0.034 C 
ENDBRANCH  19  20
ENDBRANCH  13  19
BRANCH  15  22
HETATM   22  N1  UNL     1     -11.877  -2.163  -5.093  1.00  0.00    -0.389 N 
HETATM   23  C6  UNL     1     -12.362  -3.518  -5.098  1.00  0.00     0.149 C 
HETATM   24  C7  UNL     1     -11.296  -1.620  -3.884  1.00  0.00     0.149 C 
ENDBRANCH  15  22
ENDBRANCH  10  12
ENDBRANCH   1  10
BRANCH   4  25
HETATM   25  N4  UNL     1     -15.668   4.128  -9.024  1.00  0.00    -0.213 N 
HETATM   26  C14 UNL     1     -14.915   5.243  -8.538  1.00  0.00     0.171 C 
HETATM   27  C15 UNL     1     -15.657   6.548  -8.570  1.00  0.00     0.292 C 
HETATM   28  N5  UNL     1     -17.035   6.311  -8.897  1.00  0.00     0.087 N 
HETATM   29  C16 UNL     1     -17.850   7.497  -8.830  1.00  0.00     0.310 C 
HETATM   30  C17 UNL     1     -17.591   5.216  -8.114  1.00  0.00     0.292 C 
HETATM   31  C18 UNL     1     -17.097   3.937  -8.753  1.00  0.00     0.171 C 
ENDBRANCH   4  25
BRANCH   7  32
HETATM   32  N7  UNL     1     -15.467   1.345 -12.823  1.00  0.00    -0.223 N 
ATOM     33  H7  UNL     1     -16.440   1.037 -12.847  1.00  0.00     0.177 HD
BRANCH  32  34
HETATM   34  C20 UNL     1     -14.700   1.313 -14.040  1.00  0.00     0.164 C 
BRANCH  34  35
HETATM   35  C21 UNL     1     -15.550   1.866 -15.165  1.00  0.00     0.184 C 
BRANCH  35  36
HETATM   36  O2  UNL     1     -16.158   3.055 -14.801  1.00  0.00    -0.399 OA
ATOM     37  H2  UNL     1     -16.554   3.484 -15.549  1.00  0.00     0.209 HD
ENDBRANCH  35  36
ENDBRANCH  34  35
ENDBRANCH  32  34
ENDBRANCH   7  32
TORSDOF 10
ENDMDL
MODEL 5
REMARK VINA RESULT: -6.711552056      1.702      2.015
REMARK  10 active torsions:
REMARK  status: ('A' for Active; 'I' for Inactive)
REMARK    1  A    between atoms: C2_2  and  O1_3 
REMARK    2  A    between atoms: O1_3  and  C3_4 
REMARK    3  A    between atoms: C5_6  and  N1_7 
REMARK    4  A    between atoms: C11_13  and  N2_14 
REMARK    5  A    between atoms: N2_14  and  C12_16 
REMARK    6  A    between atoms: C13_19  and  N4_20 
REMARK    7  A    between atoms: C19_29  and  N7_30 
REMARK    8  A    between atoms: N7_30  and  C20_32 
REMARK    9  A    between atoms: C20_32  and  C21_33 
REMARK   10  A    between atoms: C21_33  and  O2_34 
ROOT
HETATM    1  C12 UNL     1     -13.643   1.275 -11.080  1.00  0.00     0.712 A 
HETATM    2  N3  UNL     1     -14.127   2.155 -10.192  1.00  0.00    -0.021 N 
ATOM      3  H3  UNL     1     -13.597   2.347  -9.342  1.00  0.00     0.203 HD
HETATM    4  C13 UNL     1     -15.282   2.784 -10.394  1.00  0.00     0.709 A 
HETATM    5  N6  UNL     1     -15.989   2.540 -11.507  1.00  0.00    -0.021 N 
ATOM      6  H6  UNL     1     -16.874   3.023 -11.660  1.00  0.00     0.203 HD
HETATM    7  C19 UNL     1     -15.541   1.664 -12.424  1.00  0.00     0.707 A 
HETATM    8  N8  UNL     1     -14.371   1.051 -12.183  1.00  0.00    -0.021 N 
ATOM      9  H8  UNL     1     -14.020   0.384 -12.870  1.00  0.00     0.203 HD
ENDROOT
BRANCH   1  10
HETATM   10  N2  UNL     1     -12.531   0.648 -10.919  1.00  0.00    -0.187 N 
ATOM     11  H2  UNL     1     -12.476  -0.329 -11.205  1.00  0.00     0.184 HD
BRANCH  10  12
HETATM   12  C11 UNL     1     -11.379   1.256 -10.362  1.00  0.00     0.088 A 
HETATM   13  C3  UNL     1     -11.209   1.216  -8.987  1.00  0.00     0.098 A 
HETATM   14  C4  UNL     1     -10.086   1.809  -8.456  1.00  0.00     0.068 A 
HETATM   15  C5  UNL     1      -9.128   2.439  -9.241  1.00  0.00     0.032 A 
HETATM   16  C8  UNL     1      -9.330   2.458 -10.594  1.00  0.00     0.038 A 
HETATM   17  C9  UNL     1     -10.453   1.867 -11.150  1.00  0.00    -0.030 A 
HETATM   18  C10 UNL     1     -10.580   1.943 -12.638  1.00  0.00     0.050 C 
BRANCH  13  19
HETATM   19  O1  UNL     1     -12.114   0.610  -8.159  1.00  0.00    -0.349 OA
BRANCH  19  20
HETATM   20  C2  UNL     1     -11.942  -0.511  -7.355  1.00  0.00     0.171 C 
HETATM   21  C1  UNL     1     -11.853  -0.254  -5.888  1.00  0.00     0.034 C 
ENDBRANCH  19  20
ENDBRANCH  13  19
BRANCH  15  22
HETATM   22  N1  UNL     1      -7.980   3.042  -8.665  1.00  0.00    -0.389 N 
HETATM   23  C6  UNL     1      -8.079   4.200  -7.816  1.00  0.00     0.149 C 
HETATM   24  C7  UNL     1      -6.680   2.471  -8.941  1.00  0.00     0.149 C 
ENDBRANCH  15  22
ENDBRANCH  10  12
ENDBRANCH   1  10
BRANCH   4  25
HETATM   25  N4  UNL     1     -15.726   3.706  -9.402  1.00  0.00    -0.213 N 
HETATM   26  C14 UNL     1     -14.823   4.646  -8.815  1.00  0.00     0.171 C 
HETATM   27  C15 UNL     1     -15.417   6.005  -8.578  1.00  0.00     0.292 C 
HETATM   28  N5  UNL     1     -16.832   5.961  -8.818  1.00  0.00     0.087 N 
HETATM   29  C16 UNL     1     -17.505   7.193  -8.496  1.00  0.00     0.310 C 
HETATM   30  C17 UNL     1     -17.450   4.812  -8.170  1.00  0.00     0.292 C 
HETATM   31  C18 UNL     1     -17.146   3.614  -9.042  1.00  0.00     0.171 C 
ENDBRANCH   4  25
BRANCH   7  32
HETATM   32  N7  UNL     1     -16.213   1.422 -13.497  1.00  0.00    -0.223 N 
ATOM     33  H7  UNL     1     -17.228   1.349 -13.436  1.00  0.00     0.177 HD
BRANCH  32  34
HETATM   34  C20 UNL     1     -15.581   1.251 -14.779  1.00  0.00     0.164 C 
BRANCH  34  35
HETATM   35  C21 UNL     1     -15.425   2.610 -15.429  1.00  0.00     0.184 C 
BRANCH  35  36
HETATM   36  O2  UNL     1     -16.519   3.419 -15.176  1.00  0.00    -0.399 OA
ATOM     37  H2  UNL     1     -17.032   3.563 -15.962  1.00  0.00     0.209 HD
ENDBRANCH  35  36
ENDBRANCH  34  35
ENDBRANCH  32  34
ENDBRANCH   7  32
TORSDOF 10
ENDMDL
