MODEL 1
REMARK VINA RESULT: -6.636568900      0.000      0.000
REMARK  6 active torsions:
REMARK  status: ('A' for Active; 'I' for Inactive)
REMARK    1  A    between atoms: C3_3  and  C4_4 
REMARK    2  A    between atoms: C4_4  and  C5_5 
REMARK    3  A    between atoms: C5_5  and  N1_6 
REMARK    4  A    between atoms: N1_6  and  C6_8 
REMARK    5  A    between atoms: C9_17  and  C10_18 
REMARK    6  A    between atoms: C10_18  and  N5_19 
ROOT
HETATM    1  C1  UNL     1      15.668  21.622  41.288  1.00  0.00     0.012 C 
HETATM    2  C2  UNL     1      15.688  21.530  40.080  1.00  0.00    -0.117 C 
HETATM    3  C3  UNL     1      15.697  21.401  38.615  1.00  0.00     0.094 C 
ENDROOT
BRANCH   3   4
HETATM    4  C4  UNL     1      14.605  22.320  38.059  1.00  0.00     0.032 C 
BRANCH   4   5
HETATM    5  C5  UNL     1      14.795  22.536  36.583  1.00  0.00     0.122 C 
BRANCH   5   6
HETATM    6  N1  UNL     1      14.053  21.588  35.800  1.00  0.00    -0.375 N 
ATOM      7  H1  UNL     1      14.110  20.596  36.029  1.00  0.00     0.161 HD
BRANCH   6   8
HETATM    8  C6  UNL     1      13.318  21.969  34.814  1.00  0.00     0.117 A 
HETATM    9  N2  UNL     1      12.236  22.710  35.085  1.00  0.00    -0.319 N 
HETATM   10  C7  UNL     1      11.420  23.146  34.098  1.00  0.00     0.178 A 
ATOM     11  H2  UNL     1      12.023  22.950  36.054  1.00  0.00     0.170 HD
HETATM   12  S1  UNL     1      10.099  24.053  34.444  1.00  0.00    -0.040 SA
HETATM   13  N3  UNL     1      11.719  22.819  32.839  1.00  0.00    -0.321 N 
HETATM   14  C8  UNL     1      12.814  22.065  32.522  1.00  0.00     0.133 A 
ATOM     15  H3  UNL     1      11.109  23.143  32.088  1.00  0.00     0.169 HD
HETATM   16  N4  UNL     1      12.968  21.759  31.142  1.00  0.00    -0.082 NA
HETATM   17  C9  UNL     1      13.657  21.611  33.498  1.00  0.00     0.059 A 
BRANCH  17  18
HETATM   18  C10 UNL     1      14.814  20.766  33.300  1.00  0.00     0.078 C 
BRANCH  18  19
HETATM   19  N5  UNL     1      14.610  19.326  33.346  1.00  0.00    -0.292 NA
HETATM   20  C11 UNL     1      15.746  18.803  34.188  1.00  0.00     0.095 C 
HETATM   21  C12 UNL     1      15.696  17.345  33.801  1.00  0.00     0.016 C 
HETATM   22  C13 UNL     1      15.715  17.472  32.297  1.00  0.00     0.016 C 
HETATM   23  C14 UNL     1      14.990  18.752  32.037  1.00  0.00     0.095 C 
ENDBRANCH  18  19
ENDBRANCH  17  18
ENDBRANCH   6   8
ENDBRANCH   5   6
ENDBRANCH   4   5
ENDBRANCH   3   4
TORSDOF 6
ENDMDL
MODEL 2
REMARK VINA RESULT: -6.636240616      2.526      4.674
REMARK  6 active torsions:
REMARK  status: ('A' for Active; 'I' for Inactive)
REMARK    1  A    between atoms: C3_3  and  C4_4 
REMARK    2  A    between atoms: C4_4  and  C5_5 
REMARK    3  A    between atoms: C5_5  and  N1_6 
REMARK    4  A    between atoms: N1_6  and  C6_8 
REMARK    5  A    between atoms: C9_17  and  C10_18 
REMARK    6  A    between atoms: C10_18  and  N5_19 
ROOT
HETATM    1  C1  UNL     1      16.078  21.249  41.606  1.00  0.00     0.012 C 
HETATM    2  C2  UNL     1      15.544  21.582  40.570  1.00  0.00    -0.117 C 
HETATM    3  C3  UNL     1      14.908  22.007  39.314  1.00  0.00     0.094 C 
ENDROOT
BRANCH   3   4
HETATM    4  C4  UNL     1      15.794  21.534  38.158  1.00  0.00     0.032 C 
BRANCH   4   5
HETATM    5  C5  UNL     1      14.976  20.812  37.124  1.00  0.00     0.122 C 
BRANCH   5   6
HETATM    6  N1  UNL     1      15.284  21.250  35.791  1.00  0.00    -0.375 N 
ATOM      7  H1  UNL     1      15.570  22.216  35.635  1.00  0.00     0.161 HD
BRANCH   6   8
HETATM    8  C6  UNL     1      15.206  20.444  34.790  1.00  0.00     0.117 A 
HETATM    9  N2  UNL     1      16.051  19.406  34.751  1.00  0.00    -0.319 N 
HETATM   10  C7  UNL     1      16.023  18.519  33.730  1.00  0.00     0.178 A 
ATOM     11  H2  UNL     1      16.728  19.282  35.504  1.00  0.00     0.170 HD
HETATM   12  S1  UNL     1      17.063  17.252  33.694  1.00  0.00    -0.040 SA
HETATM   13  N3  UNL     1      15.129  18.702  32.756  1.00  0.00    -0.321 N 
HETATM   14  C8  UNL     1      14.250  19.749  32.761  1.00  0.00     0.133 A 
ATOM     15  H3  UNL     1      15.100  18.039  31.981  1.00  0.00     0.169 HD
HETATM   16  N4  UNL     1      13.394  19.836  31.629  1.00  0.00    -0.082 NA
HETATM   17  C9  UNL     1      14.254  20.661  33.779  1.00  0.00     0.059 A 
BRANCH  17  18
HETATM   18  C10 UNL     1      13.415  21.836  33.876  1.00  0.00     0.078 C 
BRANCH  18  19
HETATM   19  N5  UNL     1      12.073  21.660  34.410  1.00  0.00    -0.292 NA
HETATM   20  C11 UNL     1      11.221  22.632  33.636  1.00  0.00     0.095 C 
HETATM   21  C12 UNL     1      10.015  22.688  34.544  1.00  0.00     0.016 C 
HETATM   22  C13 UNL     1      10.692  22.982  35.860  1.00  0.00     0.016 C 
HETATM   23  C14 UNL     1      12.011  22.288  35.747  1.00  0.00     0.095 C 
ENDBRANCH  18  19
ENDBRANCH  17  18
ENDBRANCH   6   8
ENDBRANCH   5   6
ENDBRANCH   4   5
ENDBRANCH   3   4
TORSDOF 6
ENDMDL
MODEL 3
REMARK VINA RESULT: -6.541150825      2.233      5.269
REMARK  6 active torsions:
REMARK  status: ('A' for Active; 'I' for Inactive)
REMARK    1  A    between atoms: C3_3  and  C4_4 
REMARK    2  A    between atoms: C4_4  and  C5_5 
REMARK    3  A    between atoms: C5_5  and  N1_6 
REMARK    4  A    between atoms: N1_6  and  C6_8 
REMARK    5  A    between atoms: C9_17  and  C10_18 
REMARK    6  A    between atoms: C10_18  and  N5_19 
ROOT
HETATM    1  C1  UNL     1      11.934  24.897  29.995  1.00  0.00     0.012 C 
HETATM    2  C2  UNL     1      12.301  23.808  30.378  1.00  0.00    -0.117 C 
HETATM    3  C3  UNL     1      12.767  22.494  30.848  1.00  0.00     0.094 C 
ENDROOT
BRANCH   3   4
HETATM    4  C4  UNL     1      12.431  22.385  32.337  1.00  0.00     0.032 C 
BRANCH   4   5
HETATM    5  C5  UNL     1      13.132  23.461  33.119  1.00  0.00     0.122 C 
BRANCH   5   6
HETATM    6  N1  UNL     1      14.330  22.979  33.746  1.00  0.00    -0.375 N 
ATOM      7  H1  UNL     1      15.149  22.776  33.171  1.00  0.00     0.161 HD
BRANCH   6   8
HETATM    8  C6  UNL     1      14.391  22.800  35.020  1.00  0.00     0.117 A 
HETATM    9  N2  UNL     1      13.800  23.704  35.811  1.00  0.00    -0.319 N 
HETATM   10  C7  UNL     1      13.823  23.577  37.157  1.00  0.00     0.178 A 
ATOM     11  H2  UNL     1      13.323  24.503  35.391  1.00  0.00     0.170 HD
HETATM   12  S1  UNL     1      13.094  24.691  38.115  1.00  0.00    -0.040 SA
HETATM   13  N3  UNL     1      14.453  22.525  37.684  1.00  0.00    -0.321 N 
HETATM   14  C8  UNL     1      15.068  21.582  36.909  1.00  0.00     0.133 A 
ATOM     15  H3  UNL     1      14.476  22.421  38.698  1.00  0.00     0.169 HD
HETATM   16  N4  UNL     1      15.739  20.548  37.620  1.00  0.00    -0.082 NA
HETATM   17  C9  UNL     1      15.061  21.683  35.546  1.00  0.00     0.059 A 
BRANCH  17  18
HETATM   18  C10 UNL     1      15.716  20.783  34.620  1.00  0.00     0.078 C 
BRANCH  18  19
HETATM   19  N5  UNL     1      14.938  19.665  34.108  1.00  0.00    -0.292 NA
HETATM   20  C11 UNL     1      15.728  18.440  34.494  1.00  0.00     0.095 C 
HETATM   21  C12 UNL     1      15.101  17.432  33.561  1.00  0.00     0.016 C 
HETATM   22  C13 UNL     1      15.228  18.172  32.252  1.00  0.00     0.016 C 
HETATM   23  C14 UNL     1      15.101  19.610  32.640  1.00  0.00     0.095 C 
ENDBRANCH  18  19
ENDBRANCH  17  18
ENDBRANCH   6   8
ENDBRANCH   5   6
ENDBRANCH   4   5
ENDBRANCH   3   4
TORSDOF 6
ENDMDL
MODEL 4
REMARK VINA RESULT: -6.518893898      3.276      6.851
REMARK  6 active torsions:
REMARK  status: ('A' for Active; 'I' for Inactive)
REMARK    1  A    between atoms: C3_3  and  C4_4 
REMARK    2  A    between atoms: C4_4  and  C5_5 
REMARK    3  A    between atoms: C5_5  and  N1_6 
REMARK    4  A    between atoms: N1_6  and  C6_8 
REMARK    5  A    between atoms: C9_17  and  C10_18 
REMARK    6  A    between atoms: C10_18  and  N5_19 
ROOT
HETATM    1  C1  UNL     1      11.908  25.352  29.585  1.00  0.00     0.012 C 
HETATM    2  C2  UNL     1      12.552  24.494  30.148  1.00  0.00    -0.117 C 
HETATM    3  C3  UNL     1      13.320  23.456  30.852  1.00  0.00     0.094 C 
ENDROOT
BRANCH   3   4
HETATM    4  C4  UNL     1      12.613  22.117  30.625  1.00  0.00     0.032 C 
BRANCH   4   5
HETATM    5  C5  UNL     1      13.535  20.971  30.939  1.00  0.00     0.122 C 
BRANCH   5   6
HETATM    6  N1  UNL     1      13.210  20.345  32.189  1.00  0.00    -0.375 N 
ATOM      7  H1  UNL     1      12.243  20.082  32.382  1.00  0.00     0.161 HD
BRANCH   6   8
HETATM    8  C6  UNL     1      14.117  20.108  33.072  1.00  0.00     0.117 A 
HETATM    9  N2  UNL     1      14.879  19.019  32.914  1.00  0.00    -0.319 N 
HETATM   10  C7  UNL     1      15.852  18.711  33.801  1.00  0.00     0.178 A 
ATOM     11  H2  UNL     1      14.723  18.410  32.110  1.00  0.00     0.170 HD
HETATM   12  S1  UNL     1      16.779  17.374  33.597  1.00  0.00    -0.040 SA
HETATM   13  N3  UNL     1      16.038  19.522  34.846  1.00  0.00    -0.321 N 
HETATM   14  C8  UNL     1      15.280  20.642  35.041  1.00  0.00     0.133 A 
ATOM     15  H3  UNL     1      16.769  19.297  35.521  1.00  0.00     0.169 HD
HETATM   16  N4  UNL     1      15.565  21.376  36.226  1.00  0.00    -0.082 NA
HETATM   17  C9  UNL     1      14.290  20.980  34.160  1.00  0.00     0.059 A 
BRANCH  17  18
HETATM   18  C10 UNL     1      13.389  22.106  34.280  1.00  0.00     0.078 C 
BRANCH  18  19
HETATM   19  N5  UNL     1      12.025  21.831  34.707  1.00  0.00    -0.292 NA
HETATM   20  C11 UNL     1      11.178  22.820  33.948  1.00  0.00     0.095 C 
HETATM   21  C12 UNL     1       9.915  22.755  34.773  1.00  0.00     0.016 C 
HETATM   22  C13 UNL     1      10.490  22.979  36.151  1.00  0.00     0.016 C 
HETATM   23  C14 UNL     1      11.845  22.354  36.079  1.00  0.00     0.095 C 
ENDBRANCH  18  19
ENDBRANCH  17  18
ENDBRANCH   6   8
ENDBRANCH   5   6
ENDBRANCH   4   5
ENDBRANCH   3   4
TORSDOF 6
ENDMDL
MODEL 5
REMARK VINA RESULT: -6.432714413      2.430      5.777
REMARK  6 active torsions:
REMARK  status: ('A' for Active; 'I' for Inactive)
REMARK    1  A    between atoms: C3_3  and  C4_4 
REMARK    2  A    between atoms: C4_4  and  C5_5 
REMARK    3  A    between atoms: C5_5  and  N1_6 
REMARK    4  A    between atoms: N1_6  and  C6_8 
REMARK    5  A    between atoms: C9_17  and  C10_18 
REMARK    6  A    between atoms: C10_18  and  N5_19 
ROOT
HETATM    1  C1  UNL     1      14.882  19.461  31.147  1.00  0.00     0.012 C 
HETATM    2  C2  UNL     1      15.272  18.569  31.869  1.00  0.00    -0.117 C 
HETATM    3  C3  UNL     1      15.762  17.500  32.752  1.00  0.00     0.094 C 
ENDROOT
BRANCH   3   4
HETATM    4  C4  UNL     1      15.072  17.661  34.108  1.00  0.00     0.032 C 
BRANCH   4   5
HETATM    5  C5  UNL     1      15.674  18.803  34.878  1.00  0.00     0.122 C 
BRANCH   5   6
HETATM    6  N1  UNL     1      14.850  19.977  34.835  1.00  0.00    -0.375 N 
ATOM      7  H1  UNL     1      14.066  20.015  34.183  1.00  0.00     0.161 HD
BRANCH   6   8
HETATM    8  C6  UNL     1      15.082  20.983  35.605  1.00  0.00     0.117 A 
HETATM    9  N2  UNL     1      15.126  20.768  36.925  1.00  0.00    -0.319 N 
HETATM   10  C7  UNL     1      15.367  21.778  37.792  1.00  0.00     0.178 A 
ATOM     11  H2  UNL     1      14.975  19.825  37.285  1.00  0.00     0.170 HD
HETATM   12  S1  UNL     1      15.419  21.501  39.407  1.00  0.00    -0.040 SA
HETATM   13  N3  UNL     1      15.561  23.003  37.298  1.00  0.00    -0.321 N 
HETATM   14  C8  UNL     1      15.523  23.263  35.957  1.00  0.00     0.133 A 
ATOM     15  H3  UNL     1      15.743  23.772  37.944  1.00  0.00     0.169 HD
HETATM   16  N4  UNL     1      15.699  24.626  35.592  1.00  0.00    -0.082 NA
HETATM   17  C9  UNL     1      15.283  22.262  35.057  1.00  0.00     0.059 A 
BRANCH  17  18
HETATM   18  C10 UNL     1      15.167  22.414  33.623  1.00  0.00     0.078 C 
BRANCH  18  19
HETATM   19  N5  UNL     1      13.846  22.252  33.035  1.00  0.00    -0.292 NA
HETATM   20  C11 UNL     1      13.962  22.853  31.658  1.00  0.00     0.095 C 
HETATM   21  C12 UNL     1      12.498  23.037  31.339  1.00  0.00     0.016 C 
HETATM   22  C13 UNL     1      12.051  23.777  32.576  1.00  0.00     0.016 C 
HETATM   23  C14 UNL     1      12.930  23.233  33.655  1.00  0.00     0.095 C 
ENDBRANCH  18  19
ENDBRANCH  17  18
ENDBRANCH   6   8
ENDBRANCH   5   6
ENDBRANCH   4   5
ENDBRANCH   3   4
TORSDOF 6
ENDMDL
