MODEL 1
REMARK VINA RESULT: -6.884213920      0.000      0.000
REMARK  7 active torsions:
REMARK  status: ('A' for Active; 'I' for Inactive)
REMARK    1  A    between atoms: C2_2  and  N1_5 
REMARK    2  A    between atoms: N1_5  and  C5_7 
REMARK    3  A    between atoms: C6_10  and  C7_11 
REMARK    4  A    between atoms: C7_11  and  O1_12 
REMARK    5  A    between atoms: O1_12  and  C8_13 
REMARK    6  A    between atoms: C8_13  and  C9_14 
REMARK    7  A    between atoms: C15_22  and  N4_23 
ROOT
HETATM    1  C5  UNL     1      13.645  20.840  34.351  1.00  0.00     0.694 A 
HETATM    2  N2  UNL     1      12.550  21.550  34.643  1.00  0.00    -0.177 N 
ATOM      3  H2  UNL     1      11.765  21.548  33.992  1.00  0.00     0.185 HD
HETATM    4  C6  UNL     1      12.460  22.279  35.799  1.00  0.00     0.137 A 
HETATM    5  N3  UNL     1      13.478  22.278  36.640  1.00  0.00    -0.178 N 
ATOM      6  H3  UNL     1      13.416  22.819  37.503  1.00  0.00     0.185 HD
HETATM    7  C15 UNL     1      14.590  21.580  36.381  1.00  0.00     0.691 A 
HETATM    8  N5  UNL     1      14.665  20.860  35.227  1.00  0.00    -0.023 N 
ATOM      9  H5  UNL     1      15.510  20.326  35.025  1.00  0.00     0.203 HD
ENDROOT
BRANCH   4  10
HETATM   10  C7  UNL     1      11.233  23.056  36.106  1.00  0.00     0.245 C 
BRANCH  10  11
HETATM   11  O1  UNL     1      10.070  22.395  35.775  1.00  0.00    -0.383 OA
BRANCH  11  12
HETATM   12  C8  UNL     1       9.255  23.034  34.874  1.00  0.00     0.172 C 
BRANCH  12  13
HETATM   13  C9  UNL     1       8.225  23.946  35.488  1.00  0.00     0.009 C 
HETATM   14  C10 UNL     1       6.831  23.532  35.053  1.00  0.00     0.007 C 
HETATM   15  C11 UNL     1       5.822  24.344  35.837  1.00  0.00     0.000 C 
HETATM   16  C12 UNL     1       6.313  25.760  36.045  1.00  0.00     0.000 C 
HETATM   17  C13 UNL     1       7.186  26.107  34.862  1.00  0.00     0.000 C 
HETATM   18  C14 UNL     1       8.496  25.371  35.035  1.00  0.00     0.007 C 
ENDBRANCH  12  13
ENDBRANCH  11  12
ENDBRANCH  10  11
ENDBRANCH   4  10
BRANCH   1  19
HETATM   19  N1  UNL     1      13.741  20.173  33.304  1.00  0.00    -0.217 N 
ATOM     20  H1  UNL     1      13.464  19.197  33.412  1.00  0.00     0.178 HD
BRANCH  19  21
HETATM   21  C2  UNL     1      14.163  20.507  31.989  1.00  0.00     0.036 C 
HETATM   22  C1  UNL     1      15.179  21.640  31.982  1.00  0.00     0.038 C 
HETATM   23  C3  UNL     1      13.056  20.880  31.059  1.00  0.00     0.038 C 
HETATM   24  C4  UNL     1      14.890  19.305  31.415  1.00  0.00     0.038 C 
ENDBRANCH  19  21
ENDBRANCH   1  19
BRANCH   7  25
HETATM   25  N4  UNL     1      15.554  21.612  37.234  1.00  0.00    -0.234 N 
ATOM     26  H42 UNL     1      15.946  20.764  37.643  1.00  0.00     0.174 HD
ATOM     27  H41 UNL     1      15.935  22.518  37.508  1.00  0.00     0.174 HD
ENDBRANCH   7  25
TORSDOF 7
ENDMDL
MODEL 2
REMARK VINA RESULT: -6.879206222      3.844      5.447
REMARK  7 active torsions:
REMARK  status: ('A' for Active; 'I' for Inactive)
REMARK    1  A    between atoms: C2_2  and  N1_5 
REMARK    2  A    between atoms: N1_5  and  C5_7 
REMARK    3  A    between atoms: C6_10  and  C7_11 
REMARK    4  A    between atoms: C7_11  and  O1_12 
REMARK    5  A    between atoms: O1_12  and  C8_13 
REMARK    6  A    between atoms: C8_13  and  C9_14 
REMARK    7  A    between atoms: C15_22  and  N4_23 
ROOT
HETATM    1  C5  UNL     1      15.324  20.264  34.630  1.00  0.00     0.694 A 
HETATM    2  N2  UNL     1      14.962  20.680  33.412  1.00  0.00    -0.177 N 
ATOM      3  H2  UNL     1      14.970  21.678  33.202  1.00  0.00     0.185 HD
HETATM    4  C6  UNL     1      14.580  19.793  32.439  1.00  0.00     0.137 A 
HETATM    5  N3  UNL     1      14.572  18.502  32.714  1.00  0.00    -0.178 N 
ATOM      6  H3  UNL     1      14.289  17.838  31.994  1.00  0.00     0.185 HD
HETATM    7  C15 UNL     1      14.928  18.049  33.923  1.00  0.00     0.691 A 
HETATM    8  N5  UNL     1      15.305  18.942  34.880  1.00  0.00    -0.023 N 
ATOM      9  H5  UNL     1      15.577  18.603  35.802  1.00  0.00     0.203 HD
ENDROOT
BRANCH   4  10
HETATM   10  C7  UNL     1      14.187  20.277  31.092  1.00  0.00     0.245 C 
BRANCH  10  11
HETATM   11  O1  UNL     1      12.824  20.275  30.887  1.00  0.00    -0.383 OA
BRANCH  11  12
HETATM   12  C8  UNL     1      12.287  21.452  30.428  1.00  0.00     0.172 C 
BRANCH  12  13
HETATM   13  C9  UNL     1      12.725  22.684  31.178  1.00  0.00     0.009 C 
HETATM   14  C10 UNL     1      12.036  22.748  32.527  1.00  0.00     0.007 C 
HETATM   15  C11 UNL     1      12.641  23.885  33.323  1.00  0.00     0.000 C 
HETATM   16  C12 UNL     1      12.967  25.058  32.425  1.00  0.00     0.000 C 
HETATM   17  C13 UNL     1      11.970  25.041  31.290  1.00  0.00     0.000 C 
HETATM   18  C14 UNL     1      12.362  23.913  30.362  1.00  0.00     0.007 C 
ENDBRANCH  12  13
ENDBRANCH  11  12
ENDBRANCH  10  11
ENDBRANCH   4  10
BRANCH   1  19
HETATM   19  N1  UNL     1      15.673  21.058  35.524  1.00  0.00    -0.217 N 
ATOM     20  H1  UNL     1      16.683  21.114  35.652  1.00  0.00     0.178 HD
BRANCH  19  21
HETATM   21  C2  UNL     1      14.936  21.899  36.400  1.00  0.00     0.036 C 
HETATM   22  C1  UNL     1      15.300  21.668  37.860  1.00  0.00     0.038 C 
HETATM   23  C3  UNL     1      13.453  21.779  36.275  1.00  0.00     0.038 C 
HETATM   24  C4  UNL     1      15.331  23.334  36.106  1.00  0.00     0.038 C 
ENDBRANCH  19  21
ENDBRANCH   1  19
BRANCH   7  25
HETATM   25  N4  UNL     1      14.903  16.780  34.140  1.00  0.00    -0.234 N 
ATOM     26  H42 UNL     1      14.409  16.133  33.524  1.00  0.00     0.174 HD
ATOM     27  H41 UNL     1      15.393  16.413  34.955  1.00  0.00     0.174 HD
ENDBRANCH   7  25
TORSDOF 7
ENDMDL
MODEL 3
REMARK VINA RESULT: -6.851576282      2.646      6.891
REMARK  7 active torsions:
REMARK  status: ('A' for Active; 'I' for Inactive)
REMARK    1  A    between atoms: C2_2  and  N1_5 
REMARK    2  A    between atoms: N1_5  and  C5_7 
REMARK    3  A    between atoms: C6_10  and  C7_11 
REMARK    4  A    between atoms: C7_11  and  O1_12 
REMARK    5  A    between atoms: O1_12  and  C8_13 
REMARK    6  A    between atoms: C8_13  and  C9_14 
REMARK    7  A    between atoms: C15_22  and  N4_23 
ROOT
HETATM    1  C5  UNL     1      11.992  22.736  36.529  1.00  0.00     0.694 A 
HETATM    2  N2  UNL     1      12.995  21.857  36.625  1.00  0.00    -0.177 N 
ATOM      3  H2  UNL     1      12.908  20.947  36.172  1.00  0.00     0.185 HD
HETATM    4  C6  UNL     1      14.138  22.152  37.321  1.00  0.00     0.137 A 
HETATM    5  N3  UNL     1      14.248  23.331  37.905  1.00  0.00    -0.178 N 
ATOM      6  H3  UNL     1      15.097  23.556  38.424  1.00  0.00     0.185 HD
HETATM    7  C15 UNL     1      13.265  24.236  37.829  1.00  0.00     0.691 A 
HETATM    8  N5  UNL     1      12.134  23.928  37.135  1.00  0.00    -0.023 N 
ATOM      9  H5  UNL     1      11.382  24.614  37.074  1.00  0.00     0.203 HD
ENDROOT
BRANCH   4  10
HETATM   10  C7  UNL     1      15.241  21.163  37.412  1.00  0.00     0.245 C 
BRANCH  10  11
HETATM   11  O1  UNL     1      15.264  20.271  36.361  1.00  0.00    -0.383 OA
BRANCH  11  12
HETATM   12  C8  UNL     1      15.577  20.801  35.134  1.00  0.00     0.172 C 
BRANCH  12  13
HETATM   13  C9  UNL     1      15.687  19.794  34.019  1.00  0.00     0.009 C 
HETATM   14  C10 UNL     1      14.459  19.859  33.130  1.00  0.00     0.007 C 
HETATM   15  C11 UNL     1      14.693  18.976  31.922  1.00  0.00     0.000 C 
HETATM   16  C12 UNL     1      15.458  17.729  32.305  1.00  0.00     0.000 C 
HETATM   17  C13 UNL     1      15.095  17.404  33.735  1.00  0.00     0.000 C 
HETATM   18  C14 UNL     1      15.807  18.403  34.620  1.00  0.00     0.007 C 
ENDBRANCH  12  13
ENDBRANCH  11  12
ENDBRANCH  10  11
ENDBRANCH   4  10
BRANCH   1  19
HETATM   19  N1  UNL     1      10.947  22.482  35.900  1.00  0.00    -0.217 N 
ATOM     20  H1  UNL     1      10.343  21.805  36.365  1.00  0.00     0.178 HD
BRANCH  19  21
HETATM   21  C2  UNL     1      10.435  22.952  34.661  1.00  0.00     0.036 C 
HETATM   22  C1  UNL     1      11.404  22.713  33.511  1.00  0.00     0.038 C 
HETATM   23  C3  UNL     1      10.064  24.399  34.652  1.00  0.00     0.038 C 
HETATM   24  C4  UNL     1       9.201  22.136  34.329  1.00  0.00     0.038 C 
ENDBRANCH  19  21
ENDBRANCH   1  19
BRANCH   7  25
HETATM   25  N4  UNL     1      13.422  25.371  38.418  1.00  0.00    -0.234 N 
ATOM     26  H42 UNL     1      14.208  25.987  38.209  1.00  0.00     0.174 HD
ATOM     27  H41 UNL     1      12.735  25.661  39.114  1.00  0.00     0.174 HD
ENDBRANCH   7  25
TORSDOF 7
ENDMDL
MODEL 4
REMARK VINA RESULT: -6.822113021      3.217      7.096
REMARK  7 active torsions:
REMARK  status: ('A' for Active; 'I' for Inactive)
REMARK    1  A    between atoms: C2_2  and  N1_5 
REMARK    2  A    between atoms: N1_5  and  C5_7 
REMARK    3  A    between atoms: C6_10  and  C7_11 
REMARK    4  A    between atoms: C7_11  and  O1_12 
REMARK    5  A    between atoms: O1_12  and  C8_13 
REMARK    6  A    between atoms: C8_13  and  C9_14 
REMARK    7  A    between atoms: C15_22  and  N4_23 
ROOT
HETATM    1  C5  UNL     1      12.486  22.468  34.713  1.00  0.00     0.694 A 
HETATM    2  N2  UNL     1      12.792  21.823  33.582  1.00  0.00    -0.177 N 
ATOM      3  H2  UNL     1      13.381  20.993  33.625  1.00  0.00     0.185 HD
HETATM    4  C6  UNL     1      12.329  22.256  32.367  1.00  0.00     0.137 A 
HETATM    5  N3  UNL     1      11.565  23.332  32.317  1.00  0.00    -0.178 N 
ATOM      6  H3  UNL     1      11.217  23.658  31.415  1.00  0.00     0.185 HD
HETATM    7  C15 UNL     1      11.238  24.002  33.429  1.00  0.00     0.691 A 
HETATM    8  N5  UNL     1      11.706  23.561  34.630  1.00  0.00    -0.023 N 
ATOM      9  H5  UNL     1      11.461  24.067  35.480  1.00  0.00     0.203 HD
ENDROOT
BRANCH   4  10
HETATM   10  C7  UNL     1      12.677  21.523  31.125  1.00  0.00     0.245 C 
BRANCH  10  11
HETATM   11  O1  UNL     1      13.073  20.222  31.350  1.00  0.00    -0.383 OA
BRANCH  11  12
HETATM   12  C8  UNL     1      14.396  19.950  31.107  1.00  0.00     0.172 C 
BRANCH  12  13
HETATM   13  C9  UNL     1      15.091  19.169  32.193  1.00  0.00     0.009 C 
HETATM   14  C10 UNL     1      14.136  18.166  32.811  1.00  0.00     0.007 C 
HETATM   15  C11 UNL     1      14.917  17.277  33.756  1.00  0.00     0.000 C 
HETATM   16  C12 UNL     1      15.983  18.067  34.483  1.00  0.00     0.000 C 
HETATM   17  C13 UNL     1      15.473  19.483  34.621  1.00  0.00     0.000 C 
HETATM   18  C14 UNL     1      15.576  20.135  33.261  1.00  0.00     0.007 C 
ENDBRANCH  12  13
ENDBRANCH  11  12
ENDBRANCH  10  11
ENDBRANCH   4  10
BRANCH   1  19
HETATM   19  N1  UNL     1      12.899  22.087  35.825  1.00  0.00    -0.217 N 
ATOM     20  H1  UNL     1      12.355  21.323  36.226  1.00  0.00     0.178 HD
BRANCH  19  21
HETATM   21  C2  UNL     1      13.982  22.509  36.642  1.00  0.00     0.036 C 
HETATM   22  C1  UNL     1      15.166  23.000  35.819  1.00  0.00     0.038 C 
HETATM   23  C3  UNL     1      14.485  21.471  37.591  1.00  0.00     0.038 C 
HETATM   24  C4  UNL     1      13.518  23.710  37.443  1.00  0.00     0.038 C 
ENDBRANCH  19  21
ENDBRANCH   1  19
BRANCH   7  25
HETATM   25  N4  UNL     1      10.490  25.045  33.325  1.00  0.00    -0.234 N 
ATOM     26  H42 UNL     1       9.570  25.013  32.886  1.00  0.00     0.174 HD
ATOM     27  H41 UNL     1      10.832  25.932  33.696  1.00  0.00     0.174 HD
ENDBRANCH   7  25
TORSDOF 7
ENDMDL
MODEL 5
REMARK VINA RESULT: -6.763100907      1.621      2.047
REMARK  7 active torsions:
REMARK  status: ('A' for Active; 'I' for Inactive)
REMARK    1  A    between atoms: C2_2  and  N1_5 
REMARK    2  A    between atoms: N1_5  and  C5_7 
REMARK    3  A    between atoms: C6_10  and  C7_11 
REMARK    4  A    between atoms: C7_11  and  O1_12 
REMARK    5  A    between atoms: O1_12  and  C8_13 
REMARK    6  A    between atoms: C8_13  and  C9_14 
REMARK    7  A    between atoms: C15_22  and  N4_23 
ROOT
HETATM    1  C5  UNL     1      15.088  20.268  34.712  1.00  0.00     0.694 A 
HETATM    2  N2  UNL     1      13.984  20.837  34.216  1.00  0.00    -0.177 N 
ATOM      3  H2  UNL     1      13.742  20.689  33.236  1.00  0.00     0.185 HD
HETATM    4  C6  UNL     1      13.170  21.615  34.997  1.00  0.00     0.137 A 
HETATM    5  N3  UNL     1      13.485  21.803  36.265  1.00  0.00    -0.178 N 
ATOM      6  H3  UNL     1      12.882  22.381  36.851  1.00  0.00     0.185 HD
HETATM    7  C15 UNL     1      14.582  21.249  36.795  1.00  0.00     0.691 A 
HETATM    8  N5  UNL     1      15.383  20.479  36.007  1.00  0.00    -0.023 N 
ATOM      9  H5  UNL     1      16.220  20.055  36.406  1.00  0.00     0.203 HD
ENDROOT
BRANCH   4  10
HETATM   10  C7  UNL     1      11.947  22.233  34.427  1.00  0.00     0.245 C 
BRANCH  10  11
HETATM   11  O1  UNL     1      10.829  22.063  35.216  1.00  0.00    -0.383 OA
BRANCH  11  12
HETATM   12  C8  UNL     1       9.622  22.270  34.596  1.00  0.00     0.172 C 
BRANCH  12  13
HETATM   13  C9  UNL     1       8.858  23.474  35.084  1.00  0.00     0.009 C 
HETATM   14  C10 UNL     1       7.370  23.181  35.097  1.00  0.00     0.007 C 
HETATM   15  C11 UNL     1       6.658  24.335  35.769  1.00  0.00     0.000 C 
HETATM   16  C12 UNL     1       7.309  25.653  35.411  1.00  0.00     0.000 C 
HETATM   17  C13 UNL     1       7.895  25.498  34.027  1.00  0.00     0.000 C 
HETATM   18  C14 UNL     1       9.137  24.645  34.156  1.00  0.00     0.007 C 
ENDBRANCH  12  13
ENDBRANCH  11  12
ENDBRANCH  10  11
ENDBRANCH   4  10
BRANCH   1  19
HETATM   19  N1  UNL     1      15.837  19.559  34.014  1.00  0.00    -0.217 N 
ATOM     20  H1  UNL     1      16.694  20.029  33.723  1.00  0.00     0.178 HD
BRANCH  19  21
HETATM   21  C2  UNL     1      15.730  18.222  33.546  1.00  0.00     0.036 C 
HETATM   22  C1  UNL     1      15.483  18.156  32.045  1.00  0.00     0.038 C 
HETATM   23  C3  UNL     1      14.670  17.412  34.218  1.00  0.00     0.038 C 
HETATM   24  C4  UNL     1      17.068  17.543  33.768  1.00  0.00     0.038 C 
ENDBRANCH  19  21
ENDBRANCH   1  19
BRANCH   7  25
HETATM   25  N4  UNL     1      14.845  21.464  38.038  1.00  0.00    -0.234 N 
ATOM     26  H42 UNL     1      15.698  21.122  38.480  1.00  0.00     0.174 HD
ATOM     27  H41 UNL     1      14.175  21.995  38.595  1.00  0.00     0.174 HD
ENDBRANCH   7  25
TORSDOF 7
ENDMDL
