MODEL 1
REMARK VINA RESULT: -7.647943958      0.000      0.000
REMARK  8 active torsions:
REMARK  status: ('A' for Active; 'I' for Inactive)
REMARK    1  A    between atoms: C3_3  and  C4_4 
REMARK    2  A    between atoms: C4_4  and  C5_5 
REMARK    3  A    between atoms: C5_5  and  C6_6 
REMARK    4  A    between atoms: C6_6  and  C7_7 
REMARK    5  A    between atoms: C13_15  and  N2_16 
REMARK    6  A    between atoms: N2_16  and  C14_18 
REMARK    7  A    between atoms: C14_18  and  C15_19 
REMARK    8  A    between atoms: C15_19  and  O1_20 
ROOT
HETATM    1  C1  UNL     1     -23.897 -21.693  -8.462  1.00  0.00     0.056 C 
HETATM    2  C2  UNL     1     -23.400 -20.644  -9.390  1.00  0.00     0.030 A 
HETATM    3  C3  UNL     1     -24.053 -20.297 -10.546  1.00  0.00     0.038 A 
HETATM    4  N1  UNL     1     -23.512 -19.335 -11.312  1.00  0.00    -0.195 N 
ATOM      5  H1  UNL     1     -23.988 -19.068 -12.173  1.00  0.00     0.184 HD
HETATM    6  C13 UNL     1     -22.355 -18.701 -10.984  1.00  0.00     0.681 A 
HETATM    7  N3  UNL     1     -21.686 -19.015  -9.858  1.00  0.00    -0.156 N 
ATOM      8  H3  UNL     1     -20.818 -18.545  -9.603  1.00  0.00     0.187 HD
HETATM    9  C16 UNL     1     -22.219 -19.977  -9.084  1.00  0.00     0.267 A 
HETATM   10  O2  UNL     1     -21.622 -20.302  -8.017  1.00  0.00    -0.267 OA
ENDROOT
BRANCH   3  11
HETATM   11  C4  UNL     1     -25.299 -20.954 -10.943  1.00  0.00     0.058 C 
BRANCH  11  12
HETATM   12  C5  UNL     1     -25.736 -20.591 -12.350  1.00  0.00     0.011 C 
BRANCH  12  13
HETATM   13  C6  UNL     1     -26.940 -19.677 -12.219  1.00  0.00     0.039 C 
BRANCH  13  14
HETATM   14  C7  UNL     1     -26.554 -18.327 -12.712  1.00  0.00    -0.058 A 
HETATM   15  C8  UNL     1     -26.992 -17.241 -11.987  1.00  0.00     0.007 A 
HETATM   16  C9  UNL     1     -26.691 -15.943 -12.356  1.00  0.00     0.001 A 
HETATM   17  C10 UNL     1     -25.929 -15.770 -13.485  1.00  0.00     0.000 A 
HETATM   18  C11 UNL     1     -25.495 -16.843 -14.204  1.00  0.00     0.001 A 
HETATM   19  C12 UNL     1     -25.791 -18.148 -13.843  1.00  0.00     0.007 A 
ENDBRANCH  13  14
ENDBRANCH  12  13
ENDBRANCH  11  12
ENDBRANCH   3  11
BRANCH   6  20
HETATM   20  N2  UNL     1     -21.857 -17.780 -11.737  1.00  0.00    -0.224 N 
ATOM     21  H2  UNL     1     -20.858 -17.830 -11.938  1.00  0.00     0.177 HD
BRANCH  20  22
HETATM   22  C14 UNL     1     -22.587 -16.698 -12.310  1.00  0.00     0.164 C 
BRANCH  22  23
HETATM   23  C15 UNL     1     -22.995 -15.689 -11.230  1.00  0.00     0.184 C 
BRANCH  23  24
HETATM   24  O1  UNL     1     -21.853 -15.261 -10.555  1.00  0.00    -0.399 OA
ATOM     25  H1  UNL     1     -21.762 -14.321 -10.666  1.00  0.00     0.209 HD
ENDBRANCH  23  24
ENDBRANCH  22  23
ENDBRANCH  20  22
ENDBRANCH   6  20
TORSDOF 8
ENDMDL
MODEL 2
REMARK VINA RESULT: -7.496799254      1.025      1.508
REMARK  8 active torsions:
REMARK  status: ('A' for Active; 'I' for Inactive)
REMARK    1  A    between atoms: C3_3  and  C4_4 
REMARK    2  A    between atoms: C4_4  and  C5_5 
REMARK    3  A    between atoms: C5_5  and  C6_6 
REMARK    4  A    between atoms: C6_6  and  C7_7 
REMARK    5  A    between atoms: C13_15  and  N2_16 
REMARK    6  A    between atoms: N2_16  and  C14_18 
REMARK    7  A    between atoms: C14_18  and  C15_19 
REMARK    8  A    between atoms: C15_19  and  O1_20 
ROOT
HETATM    1  C1  UNL     1     -25.794 -22.045  -8.949  1.00  0.00     0.056 C 
HETATM    2  C2  UNL     1     -24.825 -21.076  -9.525  1.00  0.00     0.030 A 
HETATM    3  C3  UNL     1     -24.740 -20.813 -10.870  1.00  0.00     0.038 A 
HETATM    4  N1  UNL     1     -23.826 -19.918 -11.281  1.00  0.00    -0.195 N 
ATOM      5  H1  UNL     1     -23.753 -19.716 -12.278  1.00  0.00     0.184 HD
HETATM    6  C13 UNL     1     -22.994 -19.272 -10.422  1.00  0.00     0.681 A 
HETATM    7  N3  UNL     1     -23.050 -19.503  -9.096  1.00  0.00    -0.156 N 
ATOM      8  H3  UNL     1     -22.431 -19.023  -8.443  1.00  0.00     0.187 HD
HETATM    9  C16 UNL     1     -23.960 -20.398  -8.674  1.00  0.00     0.267 A 
HETATM   10  O2  UNL     1     -24.045 -20.644  -7.436  1.00  0.00    -0.267 OA
ENDROOT
BRANCH   3  11
HETATM   11  C4  UNL     1     -25.610 -21.488 -11.834  1.00  0.00     0.058 C 
BRANCH  11  12
HETATM   12  C5  UNL     1     -26.115 -20.560 -12.924  1.00  0.00     0.011 C 
BRANCH  12  13
HETATM   13  C6  UNL     1     -27.074 -19.585 -12.269  1.00  0.00     0.039 C 
BRANCH  13  14
HETATM   14  C7  UNL     1     -26.653 -18.205 -12.633  1.00  0.00    -0.058 A 
HETATM   15  C8  UNL     1     -25.773 -18.070 -13.685  1.00  0.00     0.007 A 
HETATM   16  C9  UNL     1     -25.318 -16.834 -14.105  1.00  0.00     0.001 A 
HETATM   17  C10 UNL     1     -25.779 -15.730 -13.431  1.00  0.00     0.000 A 
HETATM   18  C11 UNL     1     -26.649 -15.862 -12.391  1.00  0.00     0.001 A 
HETATM   19  C12 UNL     1     -27.112 -17.095 -11.961  1.00  0.00     0.007 A 
ENDBRANCH  13  14
ENDBRANCH  12  13
ENDBRANCH  11  12
ENDBRANCH   3  11
BRANCH   6  20
HETATM   20  N2  UNL     1     -22.126 -18.417 -10.842  1.00  0.00    -0.224 N 
ATOM     21  H2  UNL     1     -21.204 -18.433 -10.406  1.00  0.00     0.177 HD
BRANCH  20  22
HETATM   22  C14 UNL     1     -22.348 -17.451 -11.868  1.00  0.00     0.164 C 
BRANCH  22  23
HETATM   23  C15 UNL     1     -22.909 -16.153 -11.274  1.00  0.00     0.184 C 
BRANCH  23  24
HETATM   24  O1  UNL     1     -21.878 -15.462 -10.639  1.00  0.00    -0.399 OA
ATOM     25  H1  UNL     1     -22.254 -14.838 -10.029  1.00  0.00     0.209 HD
ENDBRANCH  23  24
ENDBRANCH  22  23
ENDBRANCH  20  22
ENDBRANCH   6  20
TORSDOF 8
ENDMDL
MODEL 3
REMARK VINA RESULT: -7.479342301      1.362      1.590
REMARK  8 active torsions:
REMARK  status: ('A' for Active; 'I' for Inactive)
REMARK    1  A    between atoms: C3_3  and  C4_4 
REMARK    2  A    between atoms: C4_4  and  C5_5 
REMARK    3  A    between atoms: C5_5  and  C6_6 
REMARK    4  A    between atoms: C6_6  and  C7_7 
REMARK    5  A    between atoms: C13_15  and  N2_16 
REMARK    6  A    between atoms: N2_16  and  C14_18 
REMARK    7  A    between atoms: C14_18  and  C15_19 
REMARK    8  A    between atoms: C15_19  and  O1_20 
ROOT
HETATM    1  C1  UNL     1     -25.713 -22.106  -8.675  1.00  0.00     0.056 C 
HETATM    2  C2  UNL     1     -24.823 -21.031  -9.186  1.00  0.00     0.030 A 
HETATM    3  C3  UNL     1     -25.277 -19.782  -9.528  1.00  0.00     0.038 A 
HETATM    4  N1  UNL     1     -24.382 -18.887  -9.980  1.00  0.00    -0.195 N 
ATOM      5  H1  UNL     1     -24.708 -17.955 -10.237  1.00  0.00     0.184 HD
HETATM    6  C13 UNL     1     -23.060 -19.174 -10.110  1.00  0.00     0.681 A 
HETATM    7  N3  UNL     1     -22.578 -20.389  -9.785  1.00  0.00    -0.156 N 
ATOM      8  H3  UNL     1     -21.587 -20.613  -9.878  1.00  0.00     0.187 HD
HETATM    9  C16 UNL     1     -23.465 -21.292  -9.331  1.00  0.00     0.267 A 
HETATM   10  O2  UNL     1     -23.053 -22.445  -9.015  1.00  0.00    -0.267 OA
ENDROOT
BRANCH   3  11
HETATM   11  C4  UNL     1     -26.692 -19.427  -9.410  1.00  0.00     0.058 C 
BRANCH  11  12
HETATM   12  C5  UNL     1     -27.463 -19.635 -10.700  1.00  0.00     0.011 C 
BRANCH  12  13
HETATM   13  C6  UNL     1     -27.984 -18.277 -11.130  1.00  0.00     0.039 C 
BRANCH  13  14
HETATM   14  C7  UNL     1     -27.037 -17.711 -12.128  1.00  0.00    -0.058 A 
HETATM   15  C8  UNL     1     -26.912 -16.339 -12.172  1.00  0.00     0.007 A 
HETATM   16  C9  UNL     1     -26.061 -15.709 -13.061  1.00  0.00     0.001 A 
HETATM   17  C10 UNL     1     -25.332 -16.507 -13.909  1.00  0.00     0.000 A 
HETATM   18  C11 UNL     1     -25.455 -17.863 -13.866  1.00  0.00     0.001 A 
HETATM   19  C12 UNL     1     -26.305 -18.505 -12.980  1.00  0.00     0.007 A 
ENDBRANCH  13  14
ENDBRANCH  12  13
ENDBRANCH  11  12
ENDBRANCH   3  11
BRANCH   6  20
HETATM   20  N2  UNL     1     -22.222 -18.297 -10.547  1.00  0.00    -0.224 N 
ATOM     21  H2  UNL     1     -21.352 -18.182 -10.027  1.00  0.00     0.177 HD
BRANCH  20  22
HETATM   22  C14 UNL     1     -22.412 -17.474 -11.696  1.00  0.00     0.164 C 
BRANCH  22  23
HETATM   23  C15 UNL     1     -22.745 -16.036 -11.282  1.00  0.00     0.184 C 
BRANCH  23  24
HETATM   24  O1  UNL     1     -21.676 -15.514 -10.555  1.00  0.00    -0.399 OA
ATOM     25  H1  UNL     1     -21.988 -15.236  -9.702  1.00  0.00     0.209 HD
ENDBRANCH  23  24
ENDBRANCH  22  23
ENDBRANCH  20  22
ENDBRANCH   6  20
TORSDOF 8
ENDMDL
MODEL 4
REMARK VINA RESULT: -7.400798369      1.946      3.017
REMARK  8 active torsions:
REMARK  status: ('A' for Active; 'I' for Inactive)
REMARK    1  A    between atoms: C3_3  and  C4_4 
REMARK    2  A    between atoms: C4_4  and  C5_5 
REMARK    3  A    between atoms: C5_5  and  C6_6 
REMARK    4  A    between atoms: C6_6  and  C7_7 
REMARK    5  A    between atoms: C13_15  and  N2_16 
REMARK    6  A    between atoms: N2_16  and  C14_18 
REMARK    7  A    between atoms: C14_18  and  C15_19 
REMARK    8  A    between atoms: C15_19  and  O1_20 
ROOT
HETATM    1  C1  UNL     1     -25.547 -21.797  -8.650  1.00  0.00     0.056 C 
HETATM    2  C2  UNL     1     -24.712 -20.710  -9.226  1.00  0.00     0.030 A 
HETATM    3  C3  UNL     1     -25.192 -19.448  -9.471  1.00  0.00     0.038 A 
HETATM    4  N1  UNL     1     -24.348 -18.543  -9.995  1.00  0.00    -0.195 N 
ATOM      5  H1  UNL     1     -24.694 -17.602 -10.181  1.00  0.00     0.184 HD
HETATM    6  C13 UNL     1     -23.052 -18.832 -10.287  1.00  0.00     0.681 A 
HETATM    7  N3  UNL     1     -22.546 -20.059 -10.060  1.00  0.00    -0.156 N 
ATOM      8  H3  UNL     1     -21.575 -20.285 -10.274  1.00  0.00     0.187 HD
HETATM    9  C16 UNL     1     -23.383 -20.973  -9.536  1.00  0.00     0.267 A 
HETATM   10  O2  UNL     1     -22.947 -22.138  -9.308  1.00  0.00    -0.267 OA
ENDROOT
BRANCH   3  11
HETATM   11  C4  UNL     1     -26.581 -19.091  -9.178  1.00  0.00     0.058 C 
BRANCH  11  12
HETATM   12  C5  UNL     1     -27.307 -18.509 -10.376  1.00  0.00     0.011 C 
BRANCH  12  13
HETATM   13  C6  UNL     1     -28.252 -19.579 -10.887  1.00  0.00     0.039 C 
BRANCH  13  14
HETATM   14  C7  UNL     1     -27.473 -20.521 -11.735  1.00  0.00    -0.058 A 
HETATM   15  C8  UNL     1     -27.566 -21.863 -11.439  1.00  0.00     0.007 A 
HETATM   16  C9  UNL     1     -26.884 -22.823 -12.164  1.00  0.00     0.001 A 
HETATM   17  C10 UNL     1     -26.099 -22.387 -13.204  1.00  0.00     0.000 A 
HETATM   18  C11 UNL     1     -26.005 -21.060 -13.497  1.00  0.00     0.001 A 
HETATM   19  C12 UNL     1     -26.685 -20.090 -12.778  1.00  0.00     0.007 A 
ENDBRANCH  13  14
ENDBRANCH  12  13
ENDBRANCH  11  12
ENDBRANCH   3  11
BRANCH   6  20
HETATM   20  N2  UNL     1     -22.263 -17.945 -10.789  1.00  0.00    -0.224 N 
ATOM     21  H2  UNL     1     -21.314 -17.899 -10.417  1.00  0.00     0.177 HD
BRANCH  20  22
HETATM   22  C14 UNL     1     -22.607 -17.022 -11.821  1.00  0.00     0.164 C 
BRANCH  22  23
HETATM   23  C15 UNL     1     -22.683 -15.595 -11.266  1.00  0.00     0.184 C 
BRANCH  23  24
HETATM   24  O1  UNL     1     -21.611 -15.388 -10.400  1.00  0.00    -0.399 OA
ATOM     25  H1  UNL     1     -21.568 -16.109  -9.782  1.00  0.00     0.209 HD
ENDBRANCH  23  24
ENDBRANCH  22  23
ENDBRANCH  20  22
ENDBRANCH   6  20
TORSDOF 8
ENDMDL
MODEL 5
REMARK VINA RESULT: -7.257857737      1.623      4.645
REMARK  8 active torsions:
REMARK  status: ('A' for Active; 'I' for Inactive)
REMARK    1  A    between atoms: C3_3  and  C4_4 
REMARK    2  A    between atoms: C4_4  and  C5_5 
REMARK    3  A    between atoms: C5_5  and  C6_6 
REMARK    4  A    between atoms: C6_6  and  C7_7 
REMARK    5  A    between atoms: C13_15  and  N2_16 
REMARK    6  A    between atoms: N2_16  and  C14_18 
REMARK    7  A    between atoms: C14_18  and  C15_19 
REMARK    8  A    between atoms: C15_19  and  O1_20 
ROOT
HETATM    1  C1  UNL     1     -24.933 -15.285 -12.038  1.00  0.00     0.056 C 
HETATM    2  C2  UNL     1     -24.370 -16.541 -11.478  1.00  0.00     0.030 A 
HETATM    3  C3  UNL     1     -25.147 -17.531 -10.931  1.00  0.00     0.038 A 
HETATM    4  N1  UNL     1     -24.531 -18.626 -10.453  1.00  0.00    -0.195 N 
ATOM      5  H1  UNL     1     -25.099 -19.368 -10.044  1.00  0.00     0.184 HD
HETATM    6  C13 UNL     1     -23.182 -18.784 -10.493  1.00  0.00     0.681 A 
HETATM    7  N3  UNL     1     -22.387 -17.834 -11.023  1.00  0.00    -0.156 N 
ATOM      8  H3  UNL     1     -21.374 -17.944 -11.058  1.00  0.00     0.187 HD
HETATM    9  C16 UNL     1     -22.993 -16.734 -11.503  1.00  0.00     0.267 A 
HETATM   10  O2  UNL     1     -22.283 -15.818 -12.009  1.00  0.00    -0.267 OA
ENDROOT
BRANCH   3  11
HETATM   11  C4  UNL     1     -26.603 -17.404 -10.861  1.00  0.00     0.058 C 
BRANCH  11  12
HETATM   12  C5  UNL     1     -27.296 -17.842 -12.138  1.00  0.00     0.011 C 
BRANCH  12  13
HETATM   13  C6  UNL     1     -28.175 -19.027 -11.784  1.00  0.00     0.039 C 
BRANCH  13  14
HETATM   14  C7  UNL     1     -27.460 -20.270 -12.180  1.00  0.00    -0.058 A 
HETATM   15  C8  UNL     1     -27.687 -21.398 -11.422  1.00  0.00     0.007 A 
HETATM   16  C9  UNL     1     -27.074 -22.605 -11.701  1.00  0.00     0.001 A 
HETATM   17  C10 UNL     1     -26.220 -22.644 -12.776  1.00  0.00     0.000 A 
HETATM   18  C11 UNL     1     -25.994 -21.529 -13.527  1.00  0.00     0.001 A 
HETATM   19  C12 UNL     1     -26.603 -20.314 -13.255  1.00  0.00     0.007 A 
ENDBRANCH  13  14
ENDBRANCH  12  13
ENDBRANCH  11  12
ENDBRANCH   3  11
BRANCH   6  20
HETATM   20  N2  UNL     1     -22.616 -19.844 -10.028  1.00  0.00    -0.224 N 
ATOM     21  H2  UNL     1     -22.017 -20.372 -10.664  1.00  0.00     0.177 HD
BRANCH  20  22
HETATM   22  C14 UNL     1     -22.758 -20.341  -8.699  1.00  0.00     0.164 C 
BRANCH  22  23
HETATM   23  C15 UNL     1     -21.913 -21.606  -8.502  1.00  0.00     0.184 C 
BRANCH  23  24
HETATM   24  O1  UNL     1     -22.643 -22.710  -8.939  1.00  0.00    -0.399 OA
ATOM     25  H1  UNL     1     -22.077 -23.474  -8.940  1.00  0.00     0.209 HD
ENDBRANCH  23  24
ENDBRANCH  22  23
ENDBRANCH  20  22
ENDBRANCH   6  20
TORSDOF 8
ENDMDL
