MODEL 1
REMARK VINA RESULT: -7.053343721      0.000      0.000
REMARK  8 active torsions:
REMARK  status: ('A' for Active; 'I' for Inactive)
REMARK    1  A    between atoms: C2_2  and  C3_3 
REMARK    2  A    between atoms: C3_3  and  N1_4 
REMARK    3  A    between atoms: N1_4  and  C4_6 
REMARK    4  A    between atoms: C5_9  and  N3_10 
REMARK    5  A    between atoms: C7_15  and  N5_16 
REMARK    6  A    between atoms: N5_16  and  C8_18 
REMARK    7  A    between atoms: C8_18  and  C9_19 
REMARK    8  A    between atoms: C9_19  and  C10_20 
ROOT
HETATM    1  C4  UNL     1     -22.777 -19.228 -10.507  1.00  0.00     0.707 A 
HETATM    2  N2  UNL     1     -22.721 -19.431  -9.183  1.00  0.00    -0.022 N 
ATOM      3  H2  UNL     1     -22.024 -18.946  -8.618  1.00  0.00     0.203 HD
HETATM    4  C5  UNL     1     -23.599 -20.289  -8.597  1.00  0.00     0.706 A 
HETATM    5  N4  UNL     1     -24.525 -20.939  -9.320  1.00  0.00    -0.022 N 
ATOM      6  H4  UNL     1     -25.178 -21.580  -8.869  1.00  0.00     0.203 HD
HETATM    7  C7  UNL     1     -24.577 -20.732 -10.646  1.00  0.00     0.707 A 
HETATM    8  N6  UNL     1     -23.701 -19.875 -11.235  1.00  0.00    -0.022 N 
ATOM      9  H6  UNL     1     -23.745 -19.722 -12.242  1.00  0.00     0.203 HD
ENDROOT
BRANCH   7  10
HETATM   10  N5  UNL     1     -25.427 -21.308 -11.425  1.00  0.00    -0.225 N 
ATOM     11  H5  UNL     1     -25.689 -22.269 -11.205  1.00  0.00     0.177 HD
BRANCH  10  12
HETATM   12  C8  UNL     1     -26.032 -20.705 -12.574  1.00  0.00     0.142 C 
BRANCH  12  13
HETATM   13  C9  UNL     1     -27.051 -19.695 -12.081  1.00  0.00     0.058 C 
BRANCH  13  14
HETATM   14  C10 UNL     1     -26.617 -18.368 -12.588  1.00  0.00    -0.057 A 
HETATM   15  C11 UNL     1     -27.004 -17.197 -11.953  1.00  0.00     0.007 A 
HETATM   16  C12 UNL     1     -26.603 -15.964 -12.423  1.00  0.00     0.001 A 
HETATM   17  C13 UNL     1     -25.803 -15.840 -13.539  1.00  0.00     0.000 A 
HETATM   18  C14 UNL     1     -25.419 -17.005 -14.171  1.00  0.00     0.001 A 
HETATM   19  C15 UNL     1     -25.817 -18.240 -13.705  1.00  0.00     0.007 A 
ENDBRANCH  13  14
ENDBRANCH  12  13
ENDBRANCH  10  12
ENDBRANCH   7  10
BRANCH   4  20
HETATM   20  N3  UNL     1     -23.496 -20.444  -7.315  1.00  0.00    -0.229 N 
HETATM   21  C6  UNL     1     -22.199 -20.212  -6.704  1.00  0.00     0.165 C 
ATOM     22  H3  UNL     1     -24.301 -20.720  -6.751  1.00  0.00     0.177 HD
ENDBRANCH   4  20
BRANCH   1  23
HETATM   23  N1  UNL     1     -21.953 -18.420 -11.067  1.00  0.00    -0.222 N 
ATOM     24  H1  UNL     1     -21.100 -18.139 -10.584  1.00  0.00     0.178 HD
BRANCH  23  25
HETATM   25  C3  UNL     1     -22.245 -17.912 -12.389  1.00  0.00     0.164 C 
BRANCH  25  26
HETATM   26  C2  UNL     1     -22.326 -16.435 -12.391  1.00  0.00    -0.017 C 
HETATM   27  C1  UNL     1     -22.765 -15.768 -11.320  1.00  0.00     0.008 C 
ENDBRANCH  25  26
ENDBRANCH  23  25
ENDBRANCH   1  23
TORSDOF 8
ENDMDL
MODEL 2
REMARK VINA RESULT: -7.046708962      0.013      1.029
REMARK  8 active torsions:
REMARK  status: ('A' for Active; 'I' for Inactive)
REMARK    1  A    between atoms: C2_2  and  C3_3 
REMARK    2  A    between atoms: C3_3  and  N1_4 
REMARK    3  A    between atoms: N1_4  and  C4_6 
REMARK    4  A    between atoms: C5_9  and  N3_10 
REMARK    5  A    between atoms: C7_15  and  N5_16 
REMARK    6  A    between atoms: N5_16  and  C8_18 
REMARK    7  A    between atoms: C8_18  and  C9_19 
REMARK    8  A    between atoms: C9_19  and  C10_20 
ROOT
HETATM    1  C4  UNL     1     -22.782 -19.227 -10.508  1.00  0.00     0.707 A 
HETATM    2  N2  UNL     1     -22.729 -19.433  -9.184  1.00  0.00    -0.022 N 
ATOM      3  H2  UNL     1     -22.035 -18.947  -8.617  1.00  0.00     0.203 HD
HETATM    4  C5  UNL     1     -23.607 -20.294  -8.603  1.00  0.00     0.706 A 
HETATM    5  N4  UNL     1     -24.529 -20.944  -9.329  1.00  0.00    -0.022 N 
ATOM      6  H4  UNL     1     -25.182 -21.587  -8.882  1.00  0.00     0.203 HD
HETATM    7  C7  UNL     1     -24.579 -20.734 -10.655  1.00  0.00     0.707 A 
HETATM    8  N6  UNL     1     -23.703 -19.874 -11.240  1.00  0.00    -0.022 N 
ATOM      9  H6  UNL     1     -23.746 -19.719 -12.247  1.00  0.00     0.203 HD
ENDROOT
BRANCH   7  10
HETATM   10  N5  UNL     1     -25.425 -21.310 -11.437  1.00  0.00    -0.225 N 
ATOM     11  H5  UNL     1     -25.683 -22.273 -11.223  1.00  0.00     0.177 HD
BRANCH  10  12
HETATM   12  C8  UNL     1     -26.034 -20.704 -12.583  1.00  0.00     0.142 C 
BRANCH  12  13
HETATM   13  C9  UNL     1     -27.054 -19.698 -12.084  1.00  0.00     0.058 C 
BRANCH  13  14
HETATM   14  C10 UNL     1     -26.625 -18.368 -12.589  1.00  0.00    -0.057 A 
HETATM   15  C11 UNL     1     -25.820 -18.254 -13.712  1.00  0.00     0.007 A 
HETATM   16  C12 UNL     1     -25.420 -17.021 -14.183  1.00  0.00     0.001 A 
HETATM   17  C13 UNL     1     -25.802 -15.850 -13.560  1.00  0.00     0.000 A 
HETATM   18  C14 UNL     1     -26.603 -15.965 -12.442  1.00  0.00     0.001 A 
HETATM   19  C15 UNL     1     -27.005 -17.196 -11.969  1.00  0.00     0.007 A 
ENDBRANCH  13  14
ENDBRANCH  12  13
ENDBRANCH  10  12
ENDBRANCH   7  10
BRANCH   4  20
HETATM   20  N3  UNL     1     -23.507 -20.451  -7.320  1.00  0.00    -0.229 N 
HETATM   21  C6  UNL     1     -22.213 -20.214  -6.706  1.00  0.00     0.165 C 
ATOM     22  H3  UNL     1     -24.312 -20.734  -6.760  1.00  0.00     0.177 HD
ENDBRANCH   4  20
BRANCH   1  23
HETATM   23  N1  UNL     1     -21.959 -18.416 -11.064  1.00  0.00    -0.222 N 
ATOM     24  H1  UNL     1     -21.110 -18.130 -10.577  1.00  0.00     0.178 HD
BRANCH  23  25
HETATM   25  C3  UNL     1     -22.245 -17.911 -12.389  1.00  0.00     0.164 C 
BRANCH  25  26
HETATM   26  C2  UNL     1     -22.332 -16.434 -12.393  1.00  0.00    -0.017 C 
HETATM   27  C1  UNL     1     -22.782 -15.768 -11.326  1.00  0.00     0.008 C 
ENDBRANCH  25  26
ENDBRANCH  23  25
ENDBRANCH   1  23
TORSDOF 8
ENDMDL
MODEL 3
REMARK VINA RESULT: -6.983387753      0.874      3.306
REMARK  8 active torsions:
REMARK  status: ('A' for Active; 'I' for Inactive)
REMARK    1  A    between atoms: C2_2  and  C3_3 
REMARK    2  A    between atoms: C3_3  and  N1_4 
REMARK    3  A    between atoms: N1_4  and  C4_6 
REMARK    4  A    between atoms: C5_9  and  N3_10 
REMARK    5  A    between atoms: C7_15  and  N5_16 
REMARK    6  A    between atoms: N5_16  and  C8_18 
REMARK    7  A    between atoms: C8_18  and  C9_19 
REMARK    8  A    between atoms: C9_19  and  C10_20 
ROOT
HETATM    1  C4  UNL     1     -24.390 -20.784 -10.919  1.00  0.00     0.707 A 
HETATM    2  N2  UNL     1     -24.287 -21.314  -9.692  1.00  0.00    -0.022 N 
ATOM      3  H2  UNL     1     -24.838 -22.133  -9.438  1.00  0.00     0.203 HD
HETATM    4  C5  UNL     1     -23.442 -20.751  -8.787  1.00  0.00     0.706 A 
HETATM    5  N4  UNL     1     -22.706 -19.673  -9.097  1.00  0.00    -0.022 N 
ATOM      6  H4  UNL     1     -22.077 -19.260  -8.410  1.00  0.00     0.203 HD
HETATM    7  C7  UNL     1     -22.813 -19.146 -10.329  1.00  0.00     0.707 A 
HETATM    8  N6  UNL     1     -23.657 -19.706 -11.236  1.00  0.00    -0.022 N 
ATOM      9  H6  UNL     1     -23.733 -19.302 -12.169  1.00  0.00     0.203 HD
ENDROOT
BRANCH   7  10
HETATM   10  N5  UNL     1     -22.151 -18.114 -10.722  1.00  0.00    -0.225 N 
ATOM     11  H5  UNL     1     -21.339 -17.839 -10.170  1.00  0.00     0.177 HD
BRANCH  10  12
HETATM   12  C8  UNL     1     -22.465 -17.322 -11.873  1.00  0.00     0.142 C 
BRANCH  12  13
HETATM   13  C9  UNL     1     -23.201 -16.085 -11.393  1.00  0.00     0.058 C 
BRANCH  13  14
HETATM   14  C10 UNL     1     -24.600 -16.205 -11.880  1.00  0.00    -0.057 A 
HETATM   15  C11 UNL     1     -25.580 -16.806 -11.104  1.00  0.00     0.007 A 
HETATM   16  C12 UNL     1     -26.879 -16.918 -11.553  1.00  0.00     0.001 A 
HETATM   17  C13 UNL     1     -27.261 -16.439 -12.789  1.00  0.00     0.000 A 
HETATM   18  C14 UNL     1     -26.285 -15.841 -13.561  1.00  0.00     0.001 A 
HETATM   19  C15 UNL     1     -24.986 -15.727 -13.115  1.00  0.00     0.007 A 
ENDBRANCH  13  14
ENDBRANCH  12  13
ENDBRANCH  10  12
ENDBRANCH   7  10
BRANCH   4  20
HETATM   20  N3  UNL     1     -23.386 -21.307  -7.617  1.00  0.00    -0.229 N 
HETATM   21  C6  UNL     1     -22.836 -20.530  -6.521  1.00  0.00     0.165 C 
ATOM     22  H3  UNL     1     -23.716 -22.262  -7.471  1.00  0.00     0.177 HD
ENDBRANCH   4  20
BRANCH   1  23
HETATM   23  N1  UNL     1     -25.184 -21.310 -11.779  1.00  0.00    -0.222 N 
ATOM     24  H1  UNL     1     -25.035 -22.267 -12.099  1.00  0.00     0.178 HD
BRANCH  23  25
HETATM   25  C3  UNL     1     -26.291 -20.533 -12.291  1.00  0.00     0.164 C 
BRANCH  25  26
HETATM   26  C2  UNL     1     -26.206 -20.380 -13.760  1.00  0.00    -0.017 C 
HETATM   27  C1  UNL     1     -25.513 -19.380 -14.309  1.00  0.00     0.008 C 
ENDBRANCH  25  26
ENDBRANCH  23  25
ENDBRANCH   1  23
TORSDOF 8
ENDMDL
MODEL 4
REMARK VINA RESULT: -6.972273263      0.880      3.407
REMARK  8 active torsions:
REMARK  status: ('A' for Active; 'I' for Inactive)
REMARK    1  A    between atoms: C2_2  and  C3_3 
REMARK    2  A    between atoms: C3_3  and  N1_4 
REMARK    3  A    between atoms: N1_4  and  C4_6 
REMARK    4  A    between atoms: C5_9  and  N3_10 
REMARK    5  A    between atoms: C7_15  and  N5_16 
REMARK    6  A    between atoms: N5_16  and  C8_18 
REMARK    7  A    between atoms: C8_18  and  C9_19 
REMARK    8  A    between atoms: C9_19  and  C10_20 
ROOT
HETATM    1  C4  UNL     1     -24.232 -20.719 -10.831  1.00  0.00     0.707 A 
HETATM    2  N2  UNL     1     -24.003 -21.279  -9.635  1.00  0.00    -0.022 N 
ATOM      3  H2  UNL     1     -24.498 -22.127  -9.361  1.00  0.00     0.203 HD
HETATM    4  C5  UNL     1     -23.105 -20.707  -8.788  1.00  0.00     0.706 A 
HETATM    5  N4  UNL     1     -22.441 -19.591  -9.125  1.00  0.00    -0.022 N 
ATOM      6  H4  UNL     1     -21.770 -19.172  -8.482  1.00  0.00     0.203 HD
HETATM    7  C7  UNL     1     -22.674 -19.035 -10.326  1.00  0.00     0.707 A 
HETATM    8  N6  UNL     1     -23.571 -19.603 -11.175  1.00  0.00    -0.022 N 
ATOM      9  H6  UNL     1     -23.744 -19.176 -12.085  1.00  0.00     0.203 HD
ENDROOT
BRANCH   7  10
HETATM   10  N5  UNL     1     -22.089 -17.965 -10.742  1.00  0.00    -0.225 N 
ATOM     11  H5  UNL     1     -21.308 -17.612 -10.189  1.00  0.00     0.177 HD
BRANCH  10  12
HETATM   12  C8  UNL     1     -22.448 -17.233 -11.918  1.00  0.00     0.142 C 
BRANCH  12  13
HETATM   13  C9  UNL     1     -23.187 -15.984 -11.474  1.00  0.00     0.058 C 
BRANCH  13  14
HETATM   14  C10 UNL     1     -24.597 -16.141 -11.917  1.00  0.00    -0.057 A 
HETATM   15  C11 UNL     1     -25.010 -15.696 -13.164  1.00  0.00     0.007 A 
HETATM   16  C12 UNL     1     -26.318 -15.841 -13.577  1.00  0.00     0.001 A 
HETATM   17  C13 UNL     1     -27.270 -16.432 -12.773  1.00  0.00     0.000 A 
HETATM   18  C14 UNL     1     -26.857 -16.874 -11.532  1.00  0.00     0.001 A 
HETATM   19  C15 UNL     1     -25.551 -16.732 -11.115  1.00  0.00     0.007 A 
ENDBRANCH  13  14
ENDBRANCH  12  13
ENDBRANCH  10  12
ENDBRANCH   7  10
BRANCH   4  20
HETATM   20  N3  UNL     1     -22.925 -21.294  -7.646  1.00  0.00    -0.229 N 
HETATM   21  C6  UNL     1     -22.293 -20.532  -6.583  1.00  0.00     0.165 C 
ATOM     22  H3  UNL     1     -23.219 -22.260  -7.498  1.00  0.00     0.177 HD
ENDBRANCH   4  20
BRANCH   1  23
HETATM   23  N1  UNL     1     -25.077 -21.252 -11.637  1.00  0.00    -0.222 N 
ATOM     24  H1  UNL     1     -24.945 -22.211 -11.959  1.00  0.00     0.178 HD
BRANCH  23  25
HETATM   25  C3  UNL     1     -26.215 -20.481 -12.083  1.00  0.00     0.164 C 
BRANCH  25  26
HETATM   26  C2  UNL     1     -26.250 -20.380 -13.559  1.00  0.00    -0.017 C 
HETATM   27  C1  UNL     1     -25.592 -19.410 -14.198  1.00  0.00     0.008 C 
ENDBRANCH  25  26
ENDBRANCH  23  25
ENDBRANCH   1  23
TORSDOF 8
ENDMDL
MODEL 5
REMARK VINA RESULT: -6.807054276      1.111      3.691
REMARK  8 active torsions:
REMARK  status: ('A' for Active; 'I' for Inactive)
REMARK    1  A    between atoms: C2_2  and  C3_3 
REMARK    2  A    between atoms: C3_3  and  N1_4 
REMARK    3  A    between atoms: N1_4  and  C4_6 
REMARK    4  A    between atoms: C5_9  and  N3_10 
REMARK    5  A    between atoms: C7_15  and  N5_16 
REMARK    6  A    between atoms: N5_16  and  C8_18 
REMARK    7  A    between atoms: C8_18  and  C9_19 
REMARK    8  A    between atoms: C9_19  and  C10_20 
ROOT
HETATM    1  C4  UNL     1     -24.837 -20.924 -10.828  1.00  0.00     0.707 A 
HETATM    2  N2  UNL     1     -25.143 -21.063  -9.530  1.00  0.00    -0.022 N 
ATOM      3  H2  UNL     1     -25.913 -21.668  -9.246  1.00  0.00     0.203 HD
HETATM    4  C5  UNL     1     -24.421 -20.390  -8.594  1.00  0.00     0.706 A 
HETATM    5  N4  UNL     1     -23.404 -19.587  -8.943  1.00  0.00    -0.022 N 
ATOM      6  H4  UNL     1     -22.870 -19.088  -8.232  1.00  0.00     0.203 HD
HETATM    7  C7  UNL     1     -23.101 -19.453 -10.245  1.00  0.00     0.707 A 
HETATM    8  N6  UNL     1     -23.820 -20.123 -11.183  1.00  0.00    -0.022 N 
ATOM      9  H6  UNL     1     -23.585 -20.016 -12.170  1.00  0.00     0.203 HD
ENDROOT
BRANCH   7  10
HETATM   10  N5  UNL     1     -22.145 -18.707 -10.681  1.00  0.00    -0.225 N 
ATOM     11  H5  UNL     1     -21.298 -18.651 -10.115  1.00  0.00     0.177 HD
BRANCH  10  12
HETATM   12  C8  UNL     1     -22.178 -17.950 -11.895  1.00  0.00     0.142 C 
BRANCH  12  13
HETATM   13  C9  UNL     1     -22.712 -16.569 -11.562  1.00  0.00     0.058 C 
BRANCH  13  14
HETATM   14  C10 UNL     1     -24.043 -16.458 -12.212  1.00  0.00    -0.057 A 
HETATM   15  C11 UNL     1     -24.405 -17.301 -13.253  1.00  0.00     0.007 A 
HETATM   16  C12 UNL     1     -25.640 -17.200 -13.858  1.00  0.00     0.001 A 
HETATM   17  C13 UNL     1     -26.568 -16.261 -13.457  1.00  0.00     0.000 A 
HETATM   18  C14 UNL     1     -26.207 -15.423 -12.422  1.00  0.00     0.001 A 
HETATM   19  C15 UNL     1     -24.974 -15.521 -11.814  1.00  0.00     0.007 A 
ENDBRANCH  13  14
ENDBRANCH  12  13
ENDBRANCH  10  12
ENDBRANCH   7  10
BRANCH   4  20
HETATM   20  N3  UNL     1     -24.764 -20.564  -7.356  1.00  0.00    -0.229 N 
HETATM   21  C6  UNL     1     -26.009 -21.262  -7.088  1.00  0.00     0.165 C 
ATOM     22  H3  UNL     1     -24.179 -20.222  -6.594  1.00  0.00     0.177 HD
ENDBRANCH   4  20
BRANCH   1  23
HETATM   23  N1  UNL     1     -25.512 -21.556 -11.717  1.00  0.00    -0.222 N 
ATOM     24  H1  UNL     1     -25.536 -22.575 -11.716  1.00  0.00     0.178 HD
BRANCH  23  25
HETATM   25  C3  UNL     1     -26.239 -20.809 -12.720  1.00  0.00     0.164 C 
BRANCH  25  26
HETATM   26  C2  UNL     1     -27.630 -20.548 -12.291  1.00  0.00    -0.017 C 
HETATM   27  C1  UNL     1     -28.002 -19.341 -11.857  1.00  0.00     0.008 C 
ENDBRANCH  25  26
ENDBRANCH  23  25
ENDBRANCH   1  23
TORSDOF 8
ENDMDL
