MODEL 1
REMARK VINA RESULT: -5.622655579      0.000      0.000
REMARK  2 active torsions:
REMARK  status: ('A' for Active; 'I' for Inactive)
REMARK    1  A    between atoms: N1_5  and  C5_6 
REMARK    2  A    between atoms: C5_6  and  N2_8 
ROOT
HETATM    1  N2  UNL     1      -1.349 -25.522  51.793  1.00  0.00    -0.270 N 
ATOM      2  H2  UNL     1      -0.886 -24.626  51.641  1.00  0.00     0.180 HD
HETATM    3  C6  UNL     1      -2.711 -25.530  52.030  1.00  0.00     0.184 C 
HETATM    4  N3  UNL     1      -3.869 -25.536  52.237  1.00  0.00    -0.172 NA
ENDROOT
BRANCH   1   5
HETATM    5  C5  UNL     1      -0.567 -26.704  51.752  1.00  0.00     0.184 C 
HETATM    6  S1  UNL     1      -0.834 -27.802  52.960  1.00  0.00    -0.040 SA
BRANCH   5   7
HETATM    7  N1  UNL     1       0.399 -26.936  50.728  1.00  0.00    -0.335 N 
HETATM    8  C4  UNL     1       1.708 -26.405  50.923  1.00  0.00     0.127 C 
HETATM    9  C3  UNL     1       2.725 -26.783  49.923  1.00  0.00     0.024 C 
HETATM   10  C2  UNL     1       2.362 -27.989  49.090  1.00  0.00    -0.014 C 
HETATM   11  C1  UNL     1       3.327 -28.071  47.905  1.00  0.00     0.010 C 
HETATM   12  C9  UNL     1       0.982 -27.913  48.530  1.00  0.00     0.052 C 
HETATM   13  C7  UNL     1      -0.052 -27.693  49.577  1.00  0.00     0.108 C 
HETATM   14  C8  UNL     1      -1.244 -27.010  48.908  1.00  0.00     0.057 C 
HETATM   15 CL1  UNL     1      -0.570 -29.295  50.217  1.00  0.00    -0.096 Cl
ENDBRANCH   5   7
ENDBRANCH   1   5
TORSDOF 2
ENDMDL
MODEL 2
REMARK VINA RESULT: -5.482785556      1.560      2.318
REMARK  2 active torsions:
REMARK  status: ('A' for Active; 'I' for Inactive)
REMARK    1  A    between atoms: N1_5  and  C5_6 
REMARK    2  A    between atoms: C5_6  and  N2_8 
ROOT
HETATM    1  N2  UNL     1      -1.488 -25.760  51.759  1.00  0.00    -0.270 N 
ATOM      2  H2  UNL     1      -0.898 -24.939  51.630  1.00  0.00     0.180 HD
HETATM    3  C6  UNL     1      -2.856 -25.583  51.849  1.00  0.00     0.184 C 
HETATM    4  N3  UNL     1      -4.021 -25.432  51.931  1.00  0.00    -0.172 NA
ENDROOT
BRANCH   1   5
HETATM    5  C5  UNL     1      -0.869 -27.034  51.837  1.00  0.00     0.184 C 
HETATM    6  S1  UNL     1      -0.924 -27.785  53.309  1.00  0.00    -0.040 SA
BRANCH   5   7
HETATM    7  N1  UNL     1      -0.232 -27.634  50.711  1.00  0.00    -0.335 N 
HETATM    8  C4  UNL     1      -0.764 -28.868  50.234  1.00  0.00     0.127 C 
HETATM    9  C3  UNL     1      -0.184 -29.392  48.981  1.00  0.00     0.024 C 
HETATM   10  C2  UNL     1       0.574 -28.368  48.169  1.00  0.00    -0.014 C 
HETATM   11  C1  UNL     1       1.378 -29.099  47.092  1.00  0.00     0.010 C 
HETATM   12  C9  UNL     1       1.541 -27.582  48.986  1.00  0.00     0.052 C 
HETATM   13  C7  UNL     1       0.904 -26.924  50.159  1.00  0.00     0.108 C 
HETATM   14  C8  UNL     1       1.988 -26.724  51.217  1.00  0.00     0.057 C 
HETATM   15 CL1  UNL     1       0.275 -25.316  49.643  1.00  0.00    -0.096 Cl
ENDBRANCH   5   7
ENDBRANCH   1   5
TORSDOF 2
ENDMDL
MODEL 3
REMARK VINA RESULT: -5.084394917      2.259      3.452
REMARK  2 active torsions:
REMARK  status: ('A' for Active; 'I' for Inactive)
REMARK    1  A    between atoms: N1_5  and  C5_6 
REMARK    2  A    between atoms: C5_6  and  N2_8 
ROOT
HETATM    1  N2  UNL     1       0.419 -26.118  49.768  1.00  0.00    -0.270 N 
ATOM      2  H2  UNL     1       0.850 -25.342  49.267  1.00  0.00     0.180 HD
HETATM    3  C6  UNL     1      -0.396 -25.835  50.849  1.00  0.00     0.184 C 
HETATM    4  N3  UNL     1      -1.086 -25.595  51.771  1.00  0.00    -0.172 NA
ENDROOT
BRANCH   1   5
HETATM    5  C5  UNL     1       0.683 -27.439  49.327  1.00  0.00     0.184 C 
HETATM    6  S1  UNL     1      -0.570 -28.513  49.438  1.00  0.00    -0.040 SA
BRANCH   5   7
HETATM    7  N1  UNL     1       1.959 -27.824  48.816  1.00  0.00    -0.335 N 
HETATM    8  C4  UNL     1       1.988 -28.816  47.793  1.00  0.00     0.127 C 
HETATM    9  C3  UNL     1       3.302 -29.088  47.180  1.00  0.00     0.024 C 
HETATM   10  C2  UNL     1       4.333 -28.008  47.410  1.00  0.00    -0.014 C 
HETATM   11  C1  UNL     1       5.706 -28.553  47.011  1.00  0.00     0.010 C 
HETATM   12  C9  UNL     1       4.422 -27.589  48.838  1.00  0.00     0.052 C 
HETATM   13  C7  UNL     1       3.110 -27.161  49.396  1.00  0.00     0.108 C 
HETATM   14  C8  UNL     1       3.162 -27.379  50.907  1.00  0.00     0.057 C 
HETATM   15 CL1  UNL     1       2.888 -25.406  49.058  1.00  0.00    -0.096 Cl
ENDBRANCH   5   7
ENDBRANCH   1   5
TORSDOF 2
ENDMDL
MODEL 4
REMARK VINA RESULT: -4.773476828      1.838      1.902
REMARK  2 active torsions:
REMARK  status: ('A' for Active; 'I' for Inactive)
REMARK    1  A    between atoms: N1_5  and  C5_6 
REMARK    2  A    between atoms: C5_6  and  N2_8 
ROOT
HETATM    1  N2  UNL     1       0.241 -27.737  52.518  1.00  0.00    -0.270 N 
ATOM      2  H2  UNL     1       1.148 -28.114  52.793  1.00  0.00     0.180 HD
HETATM    3  C6  UNL     1      -0.856 -28.003  53.318  1.00  0.00     0.184 C 
HETATM    4  N3  UNL     1      -1.790 -28.233  53.995  1.00  0.00    -0.172 NA
ENDROOT
BRANCH   1   5
HETATM    5  C5  UNL     1       0.161 -26.964  51.332  1.00  0.00     0.184 C 
HETATM    6  S1  UNL     1      -0.756 -25.590  51.413  1.00  0.00    -0.040 SA
BRANCH   5   7
HETATM    7  N1  UNL     1       0.833 -27.348  50.134  1.00  0.00    -0.335 N 
HETATM    8  C4  UNL     1       2.192 -26.942  49.981  1.00  0.00     0.127 C 
HETATM    9  C3  UNL     1       2.908 -27.477  48.806  1.00  0.00     0.024 C 
HETATM   10  C2  UNL     1       2.257 -28.684  48.175  1.00  0.00    -0.014 C 
HETATM   11  C1  UNL     1       2.904 -28.929  46.811  1.00  0.00     0.010 C 
HETATM   12  C9  UNL     1       0.795 -28.500  47.944  1.00  0.00     0.052 C 
HETATM   13  C7  UNL     1       0.060 -28.119  49.180  1.00  0.00     0.108 C 
HETATM   14  C8  UNL     1      -1.192 -27.357  48.752  1.00  0.00     0.057 C 
HETATM   15 CL1  UNL     1      -0.427 -29.622  50.045  1.00  0.00    -0.096 Cl
ENDBRANCH   5   7
ENDBRANCH   1   5
TORSDOF 2
ENDMDL
MODEL 5
REMARK VINA RESULT: -4.609797130      2.645      3.605
REMARK  2 active torsions:
REMARK  status: ('A' for Active; 'I' for Inactive)
REMARK    1  A    between atoms: N1_5  and  C5_6 
REMARK    2  A    between atoms: C5_6  and  N2_8 
ROOT
HETATM    1  N2  UNL     1       0.858 -27.050  51.226  1.00  0.00    -0.270 N 
ATOM      2  H2  UNL     1       1.576 -26.463  51.650  1.00  0.00     0.180 HD
HETATM    3  C6  UNL     1      -0.058 -27.674  52.053  1.00  0.00     0.184 C 
HETATM    4  N3  UNL     1      -0.834 -28.209  52.757  1.00  0.00    -0.172 NA
ENDROOT
BRANCH   1   5
HETATM    5  C5  UNL     1       0.844 -27.190  49.815  1.00  0.00     0.184 C 
HETATM    6  S1  UNL     1      -0.555 -26.752  49.050  1.00  0.00    -0.040 SA
BRANCH   5   7
HETATM    7  N1  UNL     1       1.972 -27.682  49.094  1.00  0.00    -0.335 N 
HETATM    8  C4  UNL     1       1.740 -28.695  48.118  1.00  0.00     0.127 C 
HETATM    9  C3  UNL     1       2.896 -29.080  47.285  1.00  0.00     0.024 C 
HETATM   10  C2  UNL     1       4.027 -28.078  47.286  1.00  0.00    -0.014 C 
HETATM   11  C1  UNL     1       5.260 -28.735  46.662  1.00  0.00     0.010 C 
HETATM   12  C9  UNL     1       4.408 -27.636  48.658  1.00  0.00     0.052 C 
HETATM   13  C7  UNL     1       3.256 -27.097  49.430  1.00  0.00     0.108 C 
HETATM   14  C8  UNL     1       3.569 -27.287  50.913  1.00  0.00     0.057 C 
HETATM   15 CL1  UNL     1       3.101 -25.338  49.077  1.00  0.00    -0.096 Cl
ENDBRANCH   5   7
ENDBRANCH   1   5
TORSDOF 2
ENDMDL
