MODEL 1
REMARK VINA RESULT: -5.987583245      0.000      0.000
REMARK  1 active torsions:
REMARK  status: ('A' for Active; 'I' for Inactive)
REMARK    1  A    between atoms: O1_1  and  C1_3 
ROOT
HETATM    1  C1  UNL     1      -0.303 -28.190  49.461  1.00  0.00     0.170 C 
HETATM    2  C2  UNL     1       0.569 -28.631  48.339  1.00  0.00     0.091 C 
HETATM    3  N1  UNL     1       1.895 -28.238  48.347  1.00  0.00    -0.386 N 
HETATM    4  C3  UNL     1       2.845 -29.219  47.813  1.00  0.00     0.122 C 
HETATM    5  C4  UNL     1       3.870 -28.381  47.065  1.00  0.00     0.020 C 
HETATM    6  C5  UNL     1       4.525 -27.442  48.018  1.00  0.00     0.004 C 
HETATM    7  C6  UNL     1       3.587 -26.694  48.906  1.00  0.00     0.025 C 
HETATM    8  C7  UNL     1       2.486 -27.622  49.448  1.00  0.00     0.084 C 
HETATM    9  C8  UNL     1       1.609 -26.915  50.410  1.00  0.00     0.044 C 
HETATM   10  C9  UNL     1       0.158 -26.864  50.013  1.00  0.00     0.093 C 
HETATM   11 BR1  UNL     1      -0.888 -26.537  51.626  1.00  0.00    -0.088 Br
ENDROOT
BRANCH   1  12
HETATM   12  O1  UNL     1      -1.618 -27.976  48.999  1.00  0.00    -0.389 OA
ATOM     13  H1  UNL     1      -2.176 -27.698  49.716  1.00  0.00     0.210 HD
ENDBRANCH   1  12
TORSDOF 1
ENDMDL
MODEL 2
REMARK VINA RESULT: -5.565425505      1.121      1.288
REMARK  1 active torsions:
REMARK  status: ('A' for Active; 'I' for Inactive)
REMARK    1  A    between atoms: O1_1  and  C1_3 
ROOT
HETATM    1  C1  UNL     1      -1.315 -27.333  50.030  1.00  0.00     0.170 C 
HETATM    2  C2  UNL     1      -0.526 -27.948  48.930  1.00  0.00     0.091 C 
HETATM    3  N1  UNL     1       0.849 -27.789  48.942  1.00  0.00    -0.386 N 
HETATM    4  C3  UNL     1       1.619 -28.932  48.444  1.00  0.00     0.122 C 
HETATM    5  C4  UNL     1       2.778 -28.304  47.685  1.00  0.00     0.020 C 
HETATM    6  C5  UNL     1       3.578 -27.465  48.620  1.00  0.00     0.004 C 
HETATM    7  C6  UNL     1       2.777 -26.543  49.478  1.00  0.00     0.025 C 
HETATM    8  C7  UNL     1       1.530 -27.253  50.033  1.00  0.00     0.084 C 
HETATM    9  C8  UNL     1       0.782 -26.380  50.966  1.00  0.00     0.044 C 
HETATM   10  C9  UNL     1      -0.637 -26.091  50.552  1.00  0.00     0.093 C 
HETATM   11 BR1  UNL     1      -1.621 -25.545  52.144  1.00  0.00    -0.088 Br
ENDROOT
BRANCH   1  12
HETATM   12  O1  UNL     1      -2.571 -26.910  49.549  1.00  0.00    -0.389 OA
ATOM     13  H1  UNL     1      -2.723 -26.002  49.784  1.00  0.00     0.210 HD
ENDBRANCH   1  12
TORSDOF 1
ENDMDL
MODEL 3
REMARK VINA RESULT: -5.506893943      2.709      4.220
REMARK  1 active torsions:
REMARK  status: ('A' for Active; 'I' for Inactive)
REMARK    1  A    between atoms: O1_1  and  C1_3 
ROOT
HETATM    1  C1  UNL     1       2.086 -28.511  47.621  1.00  0.00     0.170 C 
HETATM    2  C2  UNL     1       0.711 -28.578  48.186  1.00  0.00     0.091 C 
HETATM    3  N1  UNL     1       0.391 -27.731  49.232  1.00  0.00    -0.386 N 
HETATM    4  C3  UNL     1      -0.986 -27.227  49.234  1.00  0.00     0.122 C 
HETATM    5  C4  UNL     1      -1.375 -27.202  50.703  1.00  0.00     0.020 C 
HETATM    6  C5  UNL     1      -0.454 -26.292  51.439  1.00  0.00     0.004 C 
HETATM    7  C6  UNL     1       0.995 -26.495  51.146  1.00  0.00     0.025 C 
HETATM    8  C7  UNL     1       1.229 -26.695  49.638  1.00  0.00     0.084 C 
HETATM    9  C8  UNL     1       2.672 -26.797  49.324  1.00  0.00     0.044 C 
HETATM   10  C9  UNL     1       3.082 -28.092  48.674  1.00  0.00     0.093 C 
HETATM   11 BR1  UNL     1       4.772 -27.785  47.752  1.00  0.00    -0.088 Br
ENDROOT
BRANCH   1  12
HETATM   12  O1  UNL     1       2.498 -29.790  47.192  1.00  0.00    -0.389 OA
ATOM     13  H1  UNL     1       2.227 -30.449  47.821  1.00  0.00     0.210 HD
ENDBRANCH   1  12
TORSDOF 1
ENDMDL
MODEL 4
REMARK VINA RESULT: -5.352089987      1.794      2.392
REMARK  1 active torsions:
REMARK  status: ('A' for Active; 'I' for Inactive)
REMARK    1  A    between atoms: O1_1  and  C1_3 
ROOT
HETATM    1  C1  UNL     1      -2.007 -26.713  50.831  1.00  0.00     0.170 C 
HETATM    2  C2  UNL     1      -1.582 -27.541  49.671  1.00  0.00     0.091 C 
HETATM    3  N1  UNL     1      -0.228 -27.672  49.420  1.00  0.00    -0.386 N 
HETATM    4  C3  UNL     1       0.194 -28.978  48.904  1.00  0.00     0.122 C 
HETATM    5  C4  UNL     1       1.280 -28.650  47.892  1.00  0.00     0.020 C 
HETATM    6  C5  UNL     1       2.395 -27.944  48.582  1.00  0.00     0.004 C 
HETATM    7  C6  UNL     1       1.972 -26.828  49.478  1.00  0.00     0.025 C 
HETATM    8  C7  UNL     1       0.745 -27.228  50.314  1.00  0.00     0.084 C 
HETATM    9  C8  UNL     1       0.378 -26.166  51.278  1.00  0.00     0.044 C 
HETATM   10  C9  UNL     1      -1.011 -25.612  51.101  1.00  0.00     0.093 C 
HETATM   11 BR1  UNL     1      -1.539 -24.782  52.783  1.00  0.00    -0.088 Br
ENDROOT
BRANCH   1  12
HETATM   12  O1  UNL     1      -3.226 -26.065  50.545  1.00  0.00    -0.389 OA
ATOM     13  H1  UNL     1      -3.734 -26.581  49.930  1.00  0.00     0.210 HD
ENDBRANCH   1  12
TORSDOF 1
ENDMDL
MODEL 5
REMARK VINA RESULT: -5.264056872      1.502      2.379
REMARK  1 active torsions:
REMARK  status: ('A' for Active; 'I' for Inactive)
REMARK    1  A    between atoms: O1_1  and  C1_3 
ROOT
HETATM    1  C1  UNL     1       0.939 -26.887  50.464  1.00  0.00     0.170 C 
HETATM    2  C2  UNL     1       2.422 -26.949  50.361  1.00  0.00     0.091 C 
HETATM    3  N1  UNL     1       2.977 -27.527  49.233  1.00  0.00    -0.386 N 
HETATM    4  C3  UNL     1       4.224 -26.917  48.762  1.00  0.00     0.122 C 
HETATM    5  C4  UNL     1       5.061 -28.092  48.283  1.00  0.00     0.020 C 
HETATM    6  C5  UNL     1       4.340 -28.792  47.184  1.00  0.00     0.004 C 
HETATM    7  C6  UNL     1       2.901 -29.077  47.459  1.00  0.00     0.025 C 
HETATM    8  C7  UNL     1       2.216 -27.867  48.116  1.00  0.00     0.084 C 
HETATM    9  C8  UNL     1       0.766 -28.102  48.301  1.00  0.00     0.044 C 
HETATM   10  C9  UNL     1       0.299 -28.040  49.731  1.00  0.00     0.093 C 
HETATM   11 BR1  UNL     1      -1.620 -27.694  49.716  1.00  0.00    -0.088 Br
ENDROOT
BRANCH   1  12
HETATM   12  O1  UNL     1       0.540 -27.019  51.810  1.00  0.00    -0.389 OA
ATOM     13  H1  UNL     1       0.528 -26.168  52.233  1.00  0.00     0.210 HD
ENDBRANCH   1  12
TORSDOF 1
ENDMDL
