MODEL 1
REMARK VINA RESULT: -5.936395800      0.000      0.000
REMARK  3 active torsions:
REMARK  status: ('A' for Active; 'I' for Inactive)
REMARK    1  A    between atoms: O1_1  and  C1_3 
REMARK    2  A    between atoms: N1_9  and  C7_10 
REMARK    3  A    between atoms: C7_10  and  C8_12 
ROOT
HETATM    1  C1  UNL     1       0.142 -27.347  51.639  1.00  0.00     0.143 C 
HETATM    2  C2  UNL     1      -0.073 -26.032  50.877  1.00  0.00     0.059 C 
HETATM    3  C3  UNL     1      -0.197 -26.421  49.415  1.00  0.00     0.088 C 
HETATM    4  C4  UNL     1      -1.551 -27.022  49.163  1.00  0.00     0.027 C 
HETATM    5  C5  UNL     1      -1.500 -28.243  50.086  1.00  0.00     0.030 C 
HETATM    6  C6  UNL     1      -0.064 -28.352  50.534  1.00  0.00     0.114 C 
HETATM    7  N1  UNL     1       0.610 -27.653  49.430  1.00  0.00    -0.362 N 
ENDROOT
BRANCH   7   8
HETATM    8  C7  UNL     1       1.680 -28.025  48.635  1.00  0.00     0.100 C 
HETATM    9  S1  UNL     1       1.470 -28.991  47.351  1.00  0.00    -0.063 SA
BRANCH   8  10
HETATM   10  C8  UNL     1       3.041 -27.545  48.943  1.00  0.00     0.090 A 
HETATM   11 CL1  UNL     1       4.393 -28.326  48.053  1.00  0.00    -0.111 Cl
HETATM   12  C9  UNL     1       3.348 -27.017  50.302  1.00  0.00     0.035 A 
HETATM   13  C10 UNL     1       3.177 -26.042  49.190  1.00  0.00     0.035 A 
ENDBRANCH   8  10
ENDBRANCH   7   8
BRANCH   1  14
HETATM   14  O1  UNL     1      -0.801 -27.467  52.635  1.00  0.00    -0.393 OA
ATOM     15  H1  UNL     1      -1.666 -27.308  52.277  1.00  0.00     0.210 HD
ENDBRANCH   1  14
TORSDOF 3
ENDMDL
MODEL 2
REMARK VINA RESULT: -5.615946503      0.976      1.976
REMARK  3 active torsions:
REMARK  status: ('A' for Active; 'I' for Inactive)
REMARK    1  A    between atoms: O1_1  and  C1_3 
REMARK    2  A    between atoms: N1_9  and  C7_10 
REMARK    3  A    between atoms: C7_10  and  C8_12 
ROOT
HETATM    1  C1  UNL     1      -1.578 -27.404  49.384  1.00  0.00     0.143 C 
HETATM    2  C2  UNL     1      -1.192 -28.415  50.472  1.00  0.00     0.059 C 
HETATM    3  C3  UNL     1       0.279 -28.173  50.754  1.00  0.00     0.088 C 
HETATM    4  C4  UNL     1       0.439 -26.925  51.576  1.00  0.00     0.027 C 
HETATM    5  C5  UNL     1      -0.151 -25.878  50.626  1.00  0.00     0.030 C 
HETATM    6  C6  UNL     1      -0.319 -26.581  49.301  1.00  0.00     0.114 C 
HETATM    7  N1  UNL     1       0.687 -27.646  49.440  1.00  0.00    -0.362 N 
ENDROOT
BRANCH   7   8
HETATM    8  C7  UNL     1       1.712 -28.046  48.601  1.00  0.00     0.100 C 
HETATM    9  S1  UNL     1       1.424 -29.020  47.338  1.00  0.00    -0.063 SA
BRANCH   8  10
HETATM   10  C8  UNL     1       3.094 -27.589  48.840  1.00  0.00     0.090 A 
HETATM   11 CL1  UNL     1       4.385 -28.380  47.872  1.00  0.00    -0.111 Cl
HETATM   12  C9  UNL     1       3.481 -27.080  50.186  1.00  0.00     0.035 A 
HETATM   13  C10 UNL     1       3.265 -26.090  49.094  1.00  0.00     0.035 A 
ENDBRANCH   8  10
ENDBRANCH   7   8
BRANCH   1  14
HETATM   14  O1  UNL     1      -2.660 -26.662  49.802  1.00  0.00    -0.393 OA
ATOM     15  H1  UNL     1      -3.318 -26.641  49.118  1.00  0.00     0.210 HD
ENDBRANCH   1  14
TORSDOF 3
ENDMDL
MODEL 3
REMARK VINA RESULT: -5.587163766      0.852      1.517
REMARK  3 active torsions:
REMARK  status: ('A' for Active; 'I' for Inactive)
REMARK    1  A    between atoms: O1_1  and  C1_3 
REMARK    2  A    between atoms: N1_9  and  C7_10 
REMARK    3  A    between atoms: C7_10  and  C8_12 
ROOT
HETATM    1  C1  UNL     1      -0.435 -25.894  50.411  1.00  0.00     0.143 C 
HETATM    2  C2  UNL     1      -1.461 -26.793  49.707  1.00  0.00     0.059 C 
HETATM    3  C3  UNL     1      -0.810 -28.160  49.607  1.00  0.00     0.088 C 
HETATM    4  C4  UNL     1      -0.842 -28.835  50.950  1.00  0.00     0.027 C 
HETATM    5  C5  UNL     1      -0.011 -27.855  51.784  1.00  0.00     0.030 C 
HETATM    6  C6  UNL     1       0.615 -26.907  50.792  1.00  0.00     0.114 C 
HETATM    7  N1  UNL     1       0.603 -27.746  49.584  1.00  0.00    -0.362 N 
ENDROOT
BRANCH   7   8
HETATM    8  C7  UNL     1       1.608 -28.061  48.685  1.00  0.00     0.100 C 
HETATM    9  S1  UNL     1       1.300 -28.958  47.370  1.00  0.00    -0.063 SA
BRANCH   8  10
HETATM   10  C8  UNL     1       2.986 -27.584  48.907  1.00  0.00     0.090 A 
HETATM   11 CL1  UNL     1       4.279 -28.369  47.938  1.00  0.00    -0.111 Cl
HETATM   12  C9  UNL     1       3.377 -27.054  50.245  1.00  0.00     0.035 A 
HETATM   13  C10 UNL     1       3.139 -26.080  49.143  1.00  0.00     0.035 A 
ENDBRANCH   8  10
ENDBRANCH   7   8
BRANCH   1  14
HETATM   14  O1  UNL     1      -1.013 -25.304  51.512  1.00  0.00    -0.393 OA
ATOM     15  H1  UNL     1      -1.680 -24.689  51.233  1.00  0.00     0.210 HD
ENDBRANCH   1  14
TORSDOF 3
ENDMDL
MODEL 4
REMARK VINA RESULT: -5.053992466      0.744      1.060
REMARK  3 active torsions:
REMARK  status: ('A' for Active; 'I' for Inactive)
REMARK    1  A    between atoms: O1_1  and  C1_3 
REMARK    2  A    between atoms: N1_9  and  C7_10 
REMARK    3  A    between atoms: C7_10  and  C8_12 
ROOT
HETATM    1  C1  UNL     1      -0.349 -28.590  51.006  1.00  0.00     0.143 C 
HETATM    2  C2  UNL     1       0.385 -27.327  51.477  1.00  0.00     0.059 C 
HETATM    3  C3  UNL     1       0.779 -26.585  50.213  1.00  0.00     0.088 C 
HETATM    4  C4  UNL     1      -0.428 -25.907  49.627  1.00  0.00     0.027 C 
HETATM    5  C5  UNL     1      -1.323 -27.116  49.337  1.00  0.00     0.030 C 
HETATM    6  C6  UNL     1      -0.444 -28.327  49.525  1.00  0.00     0.114 C 
HETATM    7  N1  UNL     1       0.879 -27.729  49.291  1.00  0.00    -0.362 N 
ENDROOT
BRANCH   7   8
HETATM    8  C7  UNL     1       1.918 -28.113  48.460  1.00  0.00     0.100 C 
HETATM    9  S1  UNL     1       1.646 -29.037  47.156  1.00  0.00    -0.063 SA
BRANCH   8  10
HETATM   10  C8  UNL     1       3.300 -27.685  48.746  1.00  0.00     0.090 A 
HETATM   11 CL1  UNL     1       4.605 -28.488  47.807  1.00  0.00    -0.111 Cl
HETATM   12  C9  UNL     1       3.656 -27.200  50.109  1.00  0.00     0.035 A 
HETATM   13  C10 UNL     1       3.491 -26.193  49.024  1.00  0.00     0.035 A 
ENDBRANCH   8  10
ENDBRANCH   7   8
BRANCH   1  14
HETATM   14  O1  UNL     1      -1.588 -28.657  51.603  1.00  0.00    -0.393 OA
ATOM     15  H1  UNL     1      -1.485 -28.721  52.545  1.00  0.00     0.210 HD
ENDBRANCH   1  14
TORSDOF 3
ENDMDL
MODEL 5
REMARK VINA RESULT: -4.979041906      3.781      5.094
REMARK  3 active torsions:
REMARK  status: ('A' for Active; 'I' for Inactive)
REMARK    1  A    between atoms: O1_1  and  C1_3 
REMARK    2  A    between atoms: N1_9  and  C7_10 
REMARK    3  A    between atoms: C7_10  and  C8_12 
ROOT
HETATM    1  C1  UNL     1      -0.697 -28.348  49.362  1.00  0.00     0.143 C 
HETATM    2  C2  UNL     1      -0.937 -26.926  48.836  1.00  0.00     0.059 C 
HETATM    3  C3  UNL     1      -0.507 -25.996  49.955  1.00  0.00     0.088 C 
HETATM    4  C4  UNL     1       0.993 -25.935  50.015  1.00  0.00     0.027 C 
HETATM    5  C5  UNL     1       1.328 -27.400  50.316  1.00  0.00     0.030 C 
HETATM    6  C6  UNL     1       0.013 -28.054  50.659  1.00  0.00     0.114 C 
HETATM    7  N1  UNL     1      -0.755 -26.882  51.105  1.00  0.00    -0.362 N 
ENDROOT
BRANCH   7   8
HETATM    8  C7  UNL     1      -1.494 -26.661  52.255  1.00  0.00     0.100 C 
HETATM    9  S1  UNL     1      -1.345 -27.634  53.542  1.00  0.00    -0.063 SA
BRANCH   8  10
HETATM   10  C8  UNL     1      -2.436 -25.528  52.331  1.00  0.00     0.090 A 
HETATM   11 CL1  UNL     1      -1.739 -23.923  52.740  1.00  0.00    -0.111 Cl
HETATM   12  C9  UNL     1      -3.850 -25.770  52.739  1.00  0.00     0.035 A 
HETATM   13  C10 UNL     1      -3.563 -25.530  51.297  1.00  0.00     0.035 A 
ENDBRANCH   8  10
ENDBRANCH   7   8
BRANCH   1  14
HETATM   14  O1  UNL     1       0.098 -29.042  48.478  1.00  0.00    -0.393 OA
ATOM     15  H1  UNL     1      -0.247 -28.952  47.598  1.00  0.00     0.210 HD
ENDBRANCH   1  14
TORSDOF 3
ENDMDL
