MODEL 1
REMARK VINA RESULT: -7.020463265      0.000      0.000
REMARK  10 active torsions:
REMARK  status: ('A' for Active; 'I' for Inactive)
REMARK    1  A    between atoms: C3_3  and  C4_4 
REMARK    2  A    between atoms: C4_4  and  N1_5 
REMARK    3  A    between atoms: N1_5  and  C5_6 
REMARK    4  A    between atoms: C5_6  and  O1_7 
REMARK    5  A    between atoms: O1_7  and  C6_8 
REMARK    6  A    between atoms: C6_8  and  C7_9 
REMARK    7  A    between atoms: C7_9  and  C8_10 
REMARK    8  A    between atoms: C8_10  and  C9_11 
REMARK    9  A    between atoms: C9_11  and  C10_12 
REMARK   10  A    between atoms: C15_23  and  N4_24 
ROOT
HETATM    1  C1  UNL     1     -13.599  43.970  46.014  1.00  0.00     0.112 C 
HETATM    2  C2  UNL     1     -13.353  42.527  45.794  1.00  0.00    -0.109 C 
HETATM    3  C3  UNL     1     -13.137  41.353  45.627  1.00  0.00    -0.079 C 
ENDROOT
BRANCH   3   4
HETATM    4  C4  UNL     1     -12.862  39.953  45.409  1.00  0.00     0.333 C 
BRANCH   4   5
HETATM    5  N1  UNL     1     -12.295  39.659  44.136  1.00  0.00    -0.032 N 
HETATM    6  C14 UNL     1     -11.719  38.359  44.064  1.00  0.00     0.275 C 
HETATM    7  C15 UNL     1     -10.571  38.919  43.257  1.00  0.00     0.235 C 
HETATM    8  C16 UNL     1     -10.937  40.189  43.956  1.00  0.00     0.275 C 
BRANCH   5   9
HETATM    9  C5  UNL     1     -13.130  40.096  43.038  1.00  0.00     0.406 C 
BRANCH   9  10
HETATM   10  O1  UNL     1     -13.574  39.226  42.170  1.00  0.00    -0.360 OA
BRANCH  10  11
HETATM   11  C6  UNL     1     -14.264  39.360  41.074  1.00  0.00     0.231 C 
BRANCH  11  12
HETATM   12  C7  UNL     1     -13.677  39.139  39.718  1.00  0.00     0.222 C 
HETATM   13  N2  UNL     1     -14.605  39.533  38.658  1.00  0.00    -0.038 N 
HETATM   14  C12 UNL     1     -14.811  40.964  38.875  1.00  0.00     0.337 C 
ATOM     15  H22 UNL     1     -14.292  39.294  37.717  1.00  0.00     0.280 HD
ATOM     16  H21 UNL     1     -15.466  38.987  38.631  1.00  0.00     0.280 HD
HETATM   17  C13 UNL     1     -13.468  41.418  39.370  1.00  0.00     0.245 C 
HETATM   18  O2  UNL     1     -13.153  42.626  39.559  1.00  0.00    -0.272 OA
HETATM   19  N3  UNL     1     -12.706  40.252  39.557  1.00  0.00    -0.325 N 
ATOM     20  H3  UNL     1     -11.689  40.184  39.577  1.00  0.00     0.165 HD
BRANCH  12  21
HETATM   21  C8  UNL     1     -12.927  37.903  39.478  1.00  0.00     0.064 C 
BRANCH  21  22
HETATM   22  C9  UNL     1     -11.451  38.131  39.180  1.00  0.00     0.004 C 
BRANCH  22  23
HETATM   23  C10 UNL     1     -11.220  37.536  37.783  1.00  0.00    -0.004 C 
HETATM   24  C11 UNL     1     -11.610  36.086  37.766  1.00  0.00     0.005 C 
ENDBRANCH  22  23
ENDBRANCH  21  22
ENDBRANCH  12  21
ENDBRANCH  11  12
ENDBRANCH  10  11
ENDBRANCH   9  10
ENDBRANCH   5   9
BRANCH   7  25
HETATM   25  N4  UNL     1      -9.338  38.306  43.642  1.00  0.00    -0.072 N 
ATOM     26  H43 UNL     1      -8.968  38.708  44.503  1.00  0.00     0.274 HD
ATOM     27  H42 UNL     1      -9.477  37.349  43.967  1.00  0.00     0.274 HD
ATOM     28  H41 UNL     1      -8.661  38.353  42.881  1.00  0.00     0.274 HD
ENDBRANCH   7  25
ENDBRANCH   4   5
ENDBRANCH   3   4
TORSDOF 10
ENDMDL
MODEL 2
REMARK VINA RESULT: -6.844205446      1.441      2.966
REMARK  10 active torsions:
REMARK  status: ('A' for Active; 'I' for Inactive)
REMARK    1  A    between atoms: C3_3  and  C4_4 
REMARK    2  A    between atoms: C4_4  and  N1_5 
REMARK    3  A    between atoms: N1_5  and  C5_6 
REMARK    4  A    between atoms: C5_6  and  O1_7 
REMARK    5  A    between atoms: O1_7  and  C6_8 
REMARK    6  A    between atoms: C6_8  and  C7_9 
REMARK    7  A    between atoms: C7_9  and  C8_10 
REMARK    8  A    between atoms: C8_10  and  C9_11 
REMARK    9  A    between atoms: C9_11  and  C10_12 
REMARK   10  A    between atoms: C15_23  and  N4_24 
ROOT
HETATM    1  C1  UNL     1     -13.658  44.013  46.056  1.00  0.00     0.112 C 
HETATM    2  C2  UNL     1     -13.355  42.580  45.841  1.00  0.00    -0.109 C 
HETATM    3  C3  UNL     1     -13.125  41.411  45.657  1.00  0.00    -0.079 C 
ENDROOT
BRANCH   3   4
HETATM    4  C4  UNL     1     -12.863  40.007  45.456  1.00  0.00     0.333 C 
BRANCH   4   5
HETATM    5  N1  UNL     1     -12.309  39.690  44.182  1.00  0.00    -0.032 N 
HETATM    6  C14 UNL     1     -11.738  38.388  44.126  1.00  0.00     0.275 C 
HETATM    7  C15 UNL     1     -10.596  38.932  43.298  1.00  0.00     0.235 C 
HETATM    8  C16 UNL     1     -10.952  40.214  43.980  1.00  0.00     0.275 C 
BRANCH   5   9
HETATM    9  C5  UNL     1     -13.155  40.112  43.086  1.00  0.00     0.406 C 
BRANCH   9  10
HETATM   10  O1  UNL     1     -13.634  39.226  42.255  1.00  0.00    -0.360 OA
BRANCH  10  11
HETATM   11  C6  UNL     1     -14.143  39.334  41.061  1.00  0.00     0.231 C 
BRANCH  11  12
HETATM   12  C7  UNL     1     -13.343  39.776  39.879  1.00  0.00     0.222 C 
HETATM   13  N2  UNL     1     -12.076  39.051  39.783  1.00  0.00    -0.038 N 
HETATM   14  C12 UNL     1     -12.473  37.655  39.611  1.00  0.00     0.337 C 
ATOM     15  H22 UNL     1     -11.448  39.400  39.059  1.00  0.00     0.280 HD
ATOM     16  H21 UNL     1     -11.442  39.212  40.566  1.00  0.00     0.280 HD
HETATM   17  C13 UNL     1     -13.726  37.768  38.792  1.00  0.00     0.245 C 
HETATM   18  O2  UNL     1     -14.339  36.783  38.295  1.00  0.00    -0.272 OA
HETATM   19  N3  UNL     1     -14.024  39.139  38.721  1.00  0.00    -0.325 N 
ATOM     20  H3  UNL     1     -14.594  39.606  38.016  1.00  0.00     0.165 HD
BRANCH  12  21
HETATM   21  C8  UNL     1     -13.280  41.209  39.579  1.00  0.00     0.064 C 
BRANCH  21  22
HETATM   22  C9  UNL     1     -12.803  41.519  38.166  1.00  0.00     0.004 C 
BRANCH  22  23
HETATM   23  C10 UNL     1     -12.702  43.050  38.095  1.00  0.00    -0.004 C 
HETATM   24  C11 UNL     1     -11.992  43.466  36.840  1.00  0.00     0.005 C 
ENDBRANCH  22  23
ENDBRANCH  21  22
ENDBRANCH  12  21
ENDBRANCH  11  12
ENDBRANCH  10  11
ENDBRANCH   9  10
ENDBRANCH   5   9
BRANCH   7  25
HETATM   25  N4  UNL     1      -9.361  38.321  43.680  1.00  0.00    -0.072 N 
ATOM     26  H43 UNL     1      -9.212  38.367  44.688  1.00  0.00     0.274 HD
ATOM     27  H42 UNL     1      -9.393  37.307  43.576  1.00  0.00     0.274 HD
ATOM     28  H41 UNL     1      -8.583  38.732  43.163  1.00  0.00     0.274 HD
ENDBRANCH   7  25
ENDBRANCH   4   5
ENDBRANCH   3   4
TORSDOF 10
ENDMDL
MODEL 3
REMARK VINA RESULT: -6.809917898      1.736      6.479
REMARK  10 active torsions:
REMARK  status: ('A' for Active; 'I' for Inactive)
REMARK    1  A    between atoms: C3_3  and  C4_4 
REMARK    2  A    between atoms: C4_4  and  N1_5 
REMARK    3  A    between atoms: N1_5  and  C5_6 
REMARK    4  A    between atoms: C5_6  and  O1_7 
REMARK    5  A    between atoms: O1_7  and  C6_8 
REMARK    6  A    between atoms: C6_8  and  C7_9 
REMARK    7  A    between atoms: C7_9  and  C8_10 
REMARK    8  A    between atoms: C8_10  and  C9_11 
REMARK    9  A    between atoms: C9_11  and  C10_12 
REMARK   10  A    between atoms: C15_23  and  N4_24 
ROOT
HETATM    1  C1  UNL     1     -11.703  42.001  35.865  1.00  0.00     0.112 C 
HETATM    2  C2  UNL     1     -12.324  41.890  37.203  1.00  0.00    -0.109 C 
HETATM    3  C3  UNL     1     -12.821  41.817  38.299  1.00  0.00    -0.079 C 
ENDROOT
BRANCH   3   4
HETATM    4  C4  UNL     1     -13.396  41.718  39.619  1.00  0.00     0.333 C 
BRANCH   4   5
HETATM    5  N1  UNL     1     -13.773  40.396  39.996  1.00  0.00    -0.032 N 
HETATM    6  C14 UNL     1     -12.845  39.404  39.568  1.00  0.00     0.275 C 
HETATM    7  C15 UNL     1     -13.996  38.488  39.223  1.00  0.00     0.235 C 
HETATM    8  C16 UNL     1     -14.743  39.775  39.086  1.00  0.00     0.275 C 
BRANCH   5   9
HETATM    9  C5  UNL     1     -14.271  40.324  41.352  1.00  0.00     0.406 C 
BRANCH   9  10
HETATM   10  O1  UNL     1     -13.438  40.383  42.357  1.00  0.00    -0.360 OA
BRANCH  10  11
HETATM   11  C6  UNL     1     -13.073  39.500  43.242  1.00  0.00     0.231 C 
BRANCH  11  12
HETATM   12  C7  UNL     1     -11.800  39.611  44.016  1.00  0.00     0.222 C 
HETATM   13  N2  UNL     1     -11.364  38.311  44.526  1.00  0.00    -0.038 N 
HETATM   14  C12 UNL     1     -11.140  37.510  43.324  1.00  0.00     0.337 C 
ATOM     15  H22 UNL     1     -10.562  38.356  45.155  1.00  0.00     0.280 HD
ATOM     16  H21 UNL     1     -12.007  37.888  45.196  1.00  0.00     0.280 HD
HETATM   17  C13 UNL     1     -10.621  38.524  42.346  1.00  0.00     0.245 C 
HETATM   18  O2  UNL     1     -10.168  38.239  41.203  1.00  0.00    -0.272 OA
HETATM   19  N3  UNL     1     -10.755  39.775  42.972  1.00  0.00    -0.325 N 
ATOM     20  H3  UNL     1     -10.237  40.626  42.754  1.00  0.00     0.165 HD
BRANCH  12  21
HETATM   21  C8  UNL     1     -11.641  40.741  44.936  1.00  0.00     0.064 C 
BRANCH  21  22
HETATM   22  C9  UNL     1     -12.810  40.917  45.897  1.00  0.00     0.004 C 
BRANCH  22  23
HETATM   23  C10 UNL     1     -13.020  42.434  46.010  1.00  0.00    -0.004 C 
HETATM   24  C11 UNL     1     -13.597  42.974  44.734  1.00  0.00     0.005 C 
ENDBRANCH  22  23
ENDBRANCH  21  22
ENDBRANCH  12  21
ENDBRANCH  11  12
ENDBRANCH  10  11
ENDBRANCH   9  10
ENDBRANCH   5   9
BRANCH   7  25
HETATM   25  N4  UNL     1     -13.724  37.771  38.016  1.00  0.00    -0.072 N 
ATOM     26  H43 UNL     1     -12.766  37.915  37.698  1.00  0.00     0.274 HD
ATOM     27  H42 UNL     1     -13.683  36.764  38.175  1.00  0.00     0.274 HD
ATOM     28  H41 UNL     1     -14.403  38.013  37.294  1.00  0.00     0.274 HD
ENDBRANCH   7  25
ENDBRANCH   4   5
ENDBRANCH   3   4
TORSDOF 10
ENDMDL
MODEL 4
REMARK VINA RESULT: -6.792556579      2.012      6.713
REMARK  10 active torsions:
REMARK  status: ('A' for Active; 'I' for Inactive)
REMARK    1  A    between atoms: C3_3  and  C4_4 
REMARK    2  A    between atoms: C4_4  and  N1_5 
REMARK    3  A    between atoms: N1_5  and  C5_6 
REMARK    4  A    between atoms: C5_6  and  O1_7 
REMARK    5  A    between atoms: O1_7  and  C6_8 
REMARK    6  A    between atoms: C6_8  and  C7_9 
REMARK    7  A    between atoms: C7_9  and  C8_10 
REMARK    8  A    between atoms: C8_10  and  C9_11 
REMARK    9  A    between atoms: C9_11  and  C10_12 
REMARK   10  A    between atoms: C15_23  and  N4_24 
ROOT
HETATM    1  C1  UNL     1     -11.987  43.047  36.823  1.00  0.00     0.112 C 
HETATM    2  C2  UNL     1     -12.457  41.756  37.376  1.00  0.00    -0.109 C 
HETATM    3  C3  UNL     1     -12.855  40.707  37.815  1.00  0.00    -0.079 C 
ENDROOT
BRANCH   3   4
HETATM    4  C4  UNL     1     -13.346  39.463  38.356  1.00  0.00     0.333 C 
BRANCH   4   5
HETATM    5  N1  UNL     1     -12.328  38.511  38.651  1.00  0.00    -0.032 N 
HETATM    6  C14 UNL     1     -11.425  38.300  37.570  1.00  0.00     0.275 C 
HETATM    7  C15 UNL     1     -11.411  36.821  37.879  1.00  0.00     0.235 C 
HETATM    8  C16 UNL     1     -12.752  37.116  38.471  1.00  0.00     0.275 C 
BRANCH   5   9
HETATM    9  C5  UNL     1     -11.775  38.677  39.978  1.00  0.00     0.406 C 
BRANCH   9  10
HETATM   10  O1  UNL     1     -12.392  39.427  40.851  1.00  0.00    -0.360 OA
BRANCH  10  11
HETATM   11  C6  UNL     1     -12.852  39.180  42.045  1.00  0.00     0.231 C 
BRANCH  11  12
HETATM   12  C7  UNL     1     -12.366  39.896  43.263  1.00  0.00     0.222 C 
HETATM   13  N2  UNL     1     -12.458  39.055  44.455  1.00  0.00    -0.038 N 
HETATM   14  C12 UNL     1     -11.578  37.924  44.167  1.00  0.00     0.337 C 
ATOM     15  H22 UNL     1     -12.244  39.540  45.327  1.00  0.00     0.280 HD
ATOM     16  H21 UNL     1     -13.410  38.789  44.707  1.00  0.00     0.280 HD
HETATM   17  C13 UNL     1     -10.478  38.561  43.367  1.00  0.00     0.245 C 
HETATM   18  O2  UNL     1      -9.421  37.965  43.016  1.00  0.00    -0.272 OA
HETATM   19  N3  UNL     1     -10.886  39.883  43.124  1.00  0.00    -0.325 N 
ATOM     20  H3  UNL     1     -10.286  40.676  42.898  1.00  0.00     0.165 HD
BRANCH  12  21
HETATM   21  C8  UNL     1     -12.748  41.299  43.443  1.00  0.00     0.064 C 
BRANCH  21  22
HETATM   22  C9  UNL     1     -12.894  41.711  44.902  1.00  0.00     0.004 C 
BRANCH  22  23
HETATM   23  C10 UNL     1     -13.812  42.943  44.889  1.00  0.00    -0.004 C 
HETATM   24  C11 UNL     1     -13.544  43.802  46.090  1.00  0.00     0.005 C 
ENDBRANCH  22  23
ENDBRANCH  21  22
ENDBRANCH  12  21
ENDBRANCH  11  12
ENDBRANCH  10  11
ENDBRANCH   9  10
ENDBRANCH   5   9
BRANCH   7  25
HETATM   25  N4  UNL     1     -11.396  36.054  36.673  1.00  0.00    -0.072 N 
ATOM     26  H43 UNL     1     -12.104  36.374  36.012  1.00  0.00     0.274 HD
ATOM     27  H42 UNL     1     -10.565  36.246  36.113  1.00  0.00     0.274 HD
ATOM     28  H41 UNL     1     -11.492  35.059  36.879  1.00  0.00     0.274 HD
ENDBRANCH   7  25
ENDBRANCH   4   5
ENDBRANCH   3   4
TORSDOF 10
ENDMDL
MODEL 5
REMARK VINA RESULT: -6.739177037      1.829      6.540
REMARK  10 active torsions:
REMARK  status: ('A' for Active; 'I' for Inactive)
REMARK    1  A    between atoms: C3_3  and  C4_4 
REMARK    2  A    between atoms: C4_4  and  N1_5 
REMARK    3  A    between atoms: N1_5  and  C5_6 
REMARK    4  A    between atoms: C5_6  and  O1_7 
REMARK    5  A    between atoms: O1_7  and  C6_8 
REMARK    6  A    between atoms: C6_8  and  C7_9 
REMARK    7  A    between atoms: C7_9  and  C8_10 
REMARK    8  A    between atoms: C8_10  and  C9_11 
REMARK    9  A    between atoms: C9_11  and  C10_12 
REMARK   10  A    between atoms: C15_23  and  N4_24 
ROOT
HETATM    1  C1  UNL     1     -12.047  44.210  37.392  1.00  0.00     0.112 C 
HETATM    2  C2  UNL     1     -12.384  42.781  37.576  1.00  0.00    -0.109 C 
HETATM    3  C3  UNL     1     -12.660  41.615  37.706  1.00  0.00    -0.079 C 
ENDROOT
BRANCH   3   4
HETATM    4  C4  UNL     1     -13.013  40.224  37.859  1.00  0.00     0.333 C 
BRANCH   4   5
HETATM    5  N1  UNL     1     -13.230  39.820  39.209  1.00  0.00    -0.032 N 
HETATM    6  C14 UNL     1     -12.184  39.003  39.726  1.00  0.00     0.275 C 
HETATM    7  C15 UNL     1     -13.212  38.144  40.426  1.00  0.00     0.235 C 
HETATM    8  C16 UNL     1     -14.108  38.651  39.342  1.00  0.00     0.275 C 
BRANCH   5   9
HETATM    9  C5  UNL     1     -13.729  40.894  40.039  1.00  0.00     0.406 C 
BRANCH   9  10
HETATM   10  O1  UNL     1     -13.270  41.048  41.252  1.00  0.00    -0.360 OA
BRANCH  10  11
HETATM   11  C6  UNL     1     -13.741  40.698  42.415  1.00  0.00     0.231 C 
BRANCH  11  12
HETATM   12  C7  UNL     1     -13.095  41.099  43.702  1.00  0.00     0.222 C 
HETATM   13  N2  UNL     1     -13.250  40.068  44.727  1.00  0.00    -0.038 N 
HETATM   14  C12 UNL     1     -12.560  38.904  44.174  1.00  0.00     0.337 C 
ATOM     15  H22 UNL     1     -12.924  40.346  45.653  1.00  0.00     0.280 HD
ATOM     16  H21 UNL     1     -14.217  39.890  44.998  1.00  0.00     0.280 HD
HETATM   17  C13 UNL     1     -11.420  39.526  43.420  1.00  0.00     0.245 C 
HETATM   18  O2  UNL     1     -10.481  38.871  42.888  1.00  0.00    -0.272 OA
HETATM   19  N3  UNL     1     -11.642  40.913  43.451  1.00  0.00    -0.325 N 
ATOM     20  H3  UNL     1     -10.944  41.647  43.326  1.00  0.00     0.165 HD
BRANCH  12  21
HETATM   21  C8  UNL     1     -13.258  42.481  44.161  1.00  0.00     0.064 C 
BRANCH  21  22
HETATM   22  C9  UNL     1     -13.121  42.646  45.669  1.00  0.00     0.004 C 
BRANCH  22  23
HETATM   23  C10 UNL     1     -13.857  43.952  46.005  1.00  0.00    -0.004 C 
HETATM   24  C11 UNL     1     -15.294  43.668  46.331  1.00  0.00     0.005 C 
ENDBRANCH  22  23
ENDBRANCH  21  22
ENDBRANCH  12  21
ENDBRANCH  11  12
ENDBRANCH  10  11
ENDBRANCH   9  10
ENDBRANCH   5   9
BRANCH   7  25
HETATM   25  N4  UNL     1     -12.843  36.764  40.362  1.00  0.00    -0.072 N 
ATOM     26  H43 UNL     1     -13.321  36.279  39.602  1.00  0.00     0.274 HD
ATOM     27  H42 UNL     1     -11.883  36.644  40.038  1.00  0.00     0.274 HD
ATOM     28  H41 UNL     1     -13.000  36.309  41.260  1.00  0.00     0.274 HD
ENDBRANCH   7  25
ENDBRANCH   4   5
ENDBRANCH   3   4
TORSDOF 10
ENDMDL
