MODEL 1
REMARK VINA RESULT: -6.208669573      0.000      0.000
REMARK  7 active torsions:
REMARK  status: ('A' for Active; 'I' for Inactive)
REMARK    1  A    between atoms: C2_2  and  C4_4 
REMARK    2  A    between atoms: C4_4  and  C5_5 
REMARK    3  A    between atoms: C7_8  and  C8_9 
REMARK    4  A    between atoms: C8_9  and  O2_10 
REMARK    5  A    between atoms: C8_9  and  C9_12 
REMARK    6  A    between atoms: C10_13  and  C11_14 
REMARK    7  A    between atoms: C13_16  and  O3_17 
ROOT
HETATM    1  C8  UNL     1      77.934   7.002  29.552  1.00  0.00     0.149 C 
ENDROOT
BRANCH   1   2
HETATM    2  C7  UNL     1      78.188   6.917  28.081  1.00  0.00     0.071 C 
HETATM    3  C5  UNL     1      79.337   6.101  27.620  1.00  0.00     0.130 C 
HETATM    4  O1  UNL     1      79.582   7.062  26.631  1.00  0.00    -0.385 OA
HETATM    5  C6  UNL     1      79.091   8.009  27.554  1.00  0.00     0.178 C 
BRANCH   3   6
HETATM    6  C4  UNL     1      79.044   4.769  26.993  1.00  0.00     0.036 C 
BRANCH   6   7
HETATM    7  C2  UNL     1      78.822   4.830  25.520  1.00  0.00    -0.020 C 
HETATM    8  C1  UNL     1      79.495   3.713  24.755  1.00  0.00     0.009 C 
HETATM    9  C3  UNL     1      77.317   4.651  25.289  1.00  0.00     0.009 C 
ENDBRANCH   6   7
ENDBRANCH   3   6
ENDBRANCH   1   2
BRANCH   1  10
HETATM   10  O2  UNL     1      76.677   6.439  29.860  1.00  0.00    -0.391 OA
ATOM     11  H2  UNL     1      76.777   5.756  30.512  1.00  0.00     0.210 HD
ENDBRANCH   1  10
BRANCH   1  12
HETATM   12  C9  UNL     1      78.953   6.362  30.387  1.00  0.00     0.001 C 
HETATM   13  C10 UNL     1      78.611   5.509  31.324  1.00  0.00    -0.023 C 
BRANCH  13  14
HETATM   14  C11 UNL     1      79.586   4.823  32.207  1.00  0.00     0.013 C 
HETATM   15  C12 UNL     1      81.029   5.135  31.943  1.00  0.00     0.040 C 
HETATM   16  C13 UNL     1      81.237   5.125  33.446  1.00  0.00     0.119 C 
HETATM   17  C14 UNL     1      79.763   5.476  33.576  1.00  0.00     0.040 C 
BRANCH  16  18
HETATM   18  O3  UNL     1      81.546   3.845  33.947  1.00  0.00    -0.396 OA
ATOM     19  H3  UNL     1      82.421   3.794  34.314  1.00  0.00     0.210 HD
ENDBRANCH  16  18
ENDBRANCH  13  14
ENDBRANCH   1  12
TORSDOF 7
ENDMDL
MODEL 2
REMARK VINA RESULT: -6.208044147      2.022      6.523
REMARK  7 active torsions:
REMARK  status: ('A' for Active; 'I' for Inactive)
REMARK    1  A    between atoms: C2_2  and  C4_4 
REMARK    2  A    between atoms: C4_4  and  C5_5 
REMARK    3  A    between atoms: C7_8  and  C8_9 
REMARK    4  A    between atoms: C8_9  and  O2_10 
REMARK    5  A    between atoms: C8_9  and  C9_12 
REMARK    6  A    between atoms: C10_13  and  C11_14 
REMARK    7  A    between atoms: C13_16  and  O3_17 
ROOT
HETATM    1  C8  UNL     1      81.279   5.970  29.449  1.00  0.00     0.149 C 
ENDROOT
BRANCH   1   2
HETATM    2  C7  UNL     1      80.481   6.546  30.576  1.00  0.00     0.071 C 
HETATM    3  C5  UNL     1      79.175   5.921  30.893  1.00  0.00     0.130 C 
HETATM    4  O1  UNL     1      78.661   7.198  31.151  1.00  0.00    -0.385 OA
HETATM    5  C6  UNL     1      79.547   7.659  30.154  1.00  0.00     0.178 C 
BRANCH   3   6
HETATM    6  C4  UNL     1      79.088   5.066  32.124  1.00  0.00     0.036 C 
BRANCH   6   7
HETATM    7  C2  UNL     1      80.297   5.130  32.993  1.00  0.00    -0.020 C 
HETATM    8  C1  UNL     1      80.096   5.930  34.260  1.00  0.00     0.009 C 
HETATM    9  C3  UNL     1      80.599   3.696  33.443  1.00  0.00     0.009 C 
ENDBRANCH   6   7
ENDBRANCH   3   6
ENDBRANCH   1   2
BRANCH   1  10
HETATM   10  O2  UNL     1      82.063   4.893  29.914  1.00  0.00    -0.391 OA
ATOM     11  H2  UNL     1      82.677   4.624  29.241  1.00  0.00     0.210 HD
ENDBRANCH   1  10
BRANCH   1  12
HETATM   12  C9  UNL     1      80.483   5.515  28.307  1.00  0.00     0.001 C 
HETATM   13  C10 UNL     1      80.744   5.948  27.096  1.00  0.00    -0.023 C 
BRANCH  13  14
HETATM   14  C11 UNL     1      79.983   5.532  25.892  1.00  0.00     0.013 C 
HETATM   15  C12 UNL     1      80.704   4.608  24.957  1.00  0.00     0.040 C 
HETATM   16  C13 UNL     1      79.385   3.881  24.765  1.00  0.00     0.119 C 
HETATM   17  C14 UNL     1      78.986   4.402  26.138  1.00  0.00     0.040 C 
BRANCH  16  18
HETATM   18  O3  UNL     1      78.609   4.423  23.723  1.00  0.00    -0.396 OA
ATOM     19  H3  UNL     1      78.765   3.998  22.887  1.00  0.00     0.210 HD
ENDBRANCH  16  18
ENDBRANCH  13  14
ENDBRANCH   1  12
TORSDOF 7
ENDMDL
MODEL 3
REMARK VINA RESULT: -6.110830392      3.338      8.172
REMARK  7 active torsions:
REMARK  status: ('A' for Active; 'I' for Inactive)
REMARK    1  A    between atoms: C2_2  and  C4_4 
REMARK    2  A    between atoms: C4_4  and  C5_5 
REMARK    3  A    between atoms: C7_8  and  C8_9 
REMARK    4  A    between atoms: C8_9  and  O2_10 
REMARK    5  A    between atoms: C8_9  and  C9_12 
REMARK    6  A    between atoms: C10_13  and  C11_14 
REMARK    7  A    between atoms: C13_16  and  O3_17 
ROOT
HETATM    1  C8  UNL     1      78.433   6.225  24.871  1.00  0.00     0.149 C 
ENDROOT
BRANCH   1   2
HETATM    2  C7  UNL     1      78.141   5.452  26.118  1.00  0.00     0.071 C 
HETATM    3  C5  UNL     1      79.229   5.303  27.114  1.00  0.00     0.130 C 
HETATM    4  O1  UNL     1      78.790   3.994  27.352  1.00  0.00    -0.385 OA
HETATM    5  C6  UNL     1      78.411   3.969  25.992  1.00  0.00     0.178 C 
BRANCH   3   6
HETATM    6  C4  UNL     1      79.144   6.118  28.372  1.00  0.00     0.036 C 
BRANCH   6   7
HETATM    7  C2  UNL     1      78.264   7.315  28.259  1.00  0.00    -0.020 C 
HETATM    8  C1  UNL     1      77.501   7.634  29.525  1.00  0.00     0.009 C 
HETATM    9  C3  UNL     1      79.178   8.519  28.003  1.00  0.00     0.009 C 
ENDBRANCH   6   7
ENDBRANCH   3   6
ENDBRANCH   1   2
BRANCH   1  10
HETATM   10  O2  UNL     1      79.332   5.505  24.055  1.00  0.00    -0.391 OA
ATOM     11  H2  UNL     1      79.382   5.904  23.195  1.00  0.00     0.210 HD
ENDBRANCH   1  10
BRANCH   1  12
HETATM   12  C9  UNL     1      77.252   6.574  24.077  1.00  0.00     0.001 C 
HETATM   13  C10 UNL     1      76.973   5.922  22.973  1.00  0.00    -0.023 C 
BRANCH  13  14
HETATM   14  C11 UNL     1      75.798   6.219  22.118  1.00  0.00     0.013 C 
HETATM   15  C12 UNL     1      74.661   5.246  22.220  1.00  0.00     0.040 C 
HETATM   16  C13 UNL     1      73.722   6.436  22.126  1.00  0.00     0.119 C 
HETATM   17  C14 UNL     1      74.857   7.279  22.689  1.00  0.00     0.040 C 
BRANCH  16  18
HETATM   18  O3  UNL     1      73.393   6.769  20.798  1.00  0.00    -0.396 OA
ATOM     19  H3  UNL     1      72.889   6.092  20.362  1.00  0.00     0.210 HD
ENDBRANCH  16  18
ENDBRANCH  13  14
ENDBRANCH   1  12
TORSDOF 7
ENDMDL
MODEL 4
REMARK VINA RESULT: -6.107912752      2.021      6.945
REMARK  7 active torsions:
REMARK  status: ('A' for Active; 'I' for Inactive)
REMARK    1  A    between atoms: C2_2  and  C4_4 
REMARK    2  A    between atoms: C4_4  and  C5_5 
REMARK    3  A    between atoms: C7_8  and  C8_9 
REMARK    4  A    between atoms: C8_9  and  O2_10 
REMARK    5  A    between atoms: C8_9  and  C9_12 
REMARK    6  A    between atoms: C10_13  and  C11_14 
REMARK    7  A    between atoms: C13_16  and  O3_17 
ROOT
HETATM    1  C8  UNL     1      79.601   5.003  28.917  1.00  0.00     0.149 C 
ENDROOT
BRANCH   1   2
HETATM    2  C7  UNL     1      79.758   6.127  29.890  1.00  0.00     0.071 C 
HETATM    3  C5  UNL     1      79.417   5.870  31.310  1.00  0.00     0.130 C 
HETATM    4  O1  UNL     1      78.876   7.160  31.381  1.00  0.00    -0.385 OA
HETATM    5  C6  UNL     1      78.524   6.992  30.025  1.00  0.00     0.178 C 
BRANCH   3   6
HETATM    6  C4  UNL     1      80.547   5.723  32.287  1.00  0.00     0.036 C 
BRANCH   6   7
HETATM    7  C2  UNL     1      80.164   5.042  33.557  1.00  0.00    -0.020 C 
HETATM    8  C1  UNL     1      80.918   3.755  33.810  1.00  0.00     0.009 C 
HETATM    9  C3  UNL     1      80.547   5.987  34.702  1.00  0.00     0.009 C 
ENDBRANCH   6   7
ENDBRANCH   3   6
ENDBRANCH   1   2
BRANCH   1  10
HETATM   10  O2  UNL     1      78.667   4.065  29.407  1.00  0.00    -0.391 OA
ATOM     11  H2  UNL     1      78.643   3.304  28.840  1.00  0.00     0.210 HD
ENDBRANCH   1  10
BRANCH   1  12
HETATM   12  C9  UNL     1      79.195   5.412  27.570  1.00  0.00     0.001 C 
HETATM   13  C10 UNL     1      79.040   4.521  26.619  1.00  0.00    -0.023 C 
BRANCH  13  14
HETATM   14  C11 UNL     1      78.632   4.860  25.234  1.00  0.00     0.013 C 
HETATM   15  C12 UNL     1      77.169   4.715  24.936  1.00  0.00     0.040 C 
HETATM   16  C13 UNL     1      77.282   5.979  24.103  1.00  0.00     0.119 C 
HETATM   17  C14 UNL     1      78.471   6.356  24.974  1.00  0.00     0.040 C 
BRANCH  16  18
HETATM   18  O3  UNL     1      77.638   5.721  22.765  1.00  0.00    -0.396 OA
ATOM     19  H3  UNL     1      78.577   5.735  22.624  1.00  0.00     0.210 HD
ENDBRANCH  16  18
ENDBRANCH  13  14
ENDBRANCH   1  12
TORSDOF 7
ENDMDL
MODEL 5
REMARK VINA RESULT: -6.098638213      1.887      6.459
REMARK  7 active torsions:
REMARK  status: ('A' for Active; 'I' for Inactive)
REMARK    1  A    between atoms: C2_2  and  C4_4 
REMARK    2  A    between atoms: C4_4  and  C5_5 
REMARK    3  A    between atoms: C7_8  and  C8_9 
REMARK    4  A    between atoms: C8_9  and  O2_10 
REMARK    5  A    between atoms: C8_9  and  C9_12 
REMARK    6  A    between atoms: C10_13  and  C11_14 
REMARK    7  A    between atoms: C13_16  and  O3_17 
ROOT
HETATM    1  C8  UNL     1      79.310   8.363  28.780  1.00  0.00     0.149 C 
ENDROOT
BRANCH   1   2
HETATM    2  C7  UNL     1      78.654   7.704  29.952  1.00  0.00     0.071 C 
HETATM    3  C5  UNL     1      79.036   6.306  30.266  1.00  0.00     0.130 C 
HETATM    4  O1  UNL     1      77.700   6.049  30.600  1.00  0.00    -0.385 OA
HETATM    5  C6  UNL     1      77.363   6.995  29.608  1.00  0.00     0.178 C 
BRANCH   3   6
HETATM    6  C4  UNL     1      79.924   6.072  31.454  1.00  0.00     0.036 C 
BRANCH   6   7
HETATM    7  C2  UNL     1      79.305   5.231  32.517  1.00  0.00    -0.020 C 
HETATM    8  C1  UNL     1      79.672   3.767  32.429  1.00  0.00     0.009 C 
HETATM    9  C3  UNL     1      79.862   5.726  33.857  1.00  0.00     0.009 C 
ENDBRANCH   6   7
ENDBRANCH   3   6
ENDBRANCH   1   2
BRANCH   1  10
HETATM   10  O2  UNL     1      80.706   8.162  28.831  1.00  0.00    -0.391 OA
ATOM     11  H2  UNL     1      81.080   8.256  27.964  1.00  0.00     0.210 HD
ENDBRANCH   1  10
BRANCH   1  12
HETATM   12  C9  UNL     1      78.818   7.918  27.474  1.00  0.00     0.001 C 
HETATM   13  C10 UNL     1      79.549   7.135  26.716  1.00  0.00    -0.023 C 
BRANCH  13  14
HETATM   14  C11 UNL     1      79.117   6.646  25.383  1.00  0.00     0.013 C 
HETATM   15  C12 UNL     1      79.533   5.246  25.042  1.00  0.00     0.040 C 
HETATM   16  C13 UNL     1      78.172   5.071  24.394  1.00  0.00     0.119 C 
HETATM   17  C14 UNL     1      77.670   6.160  25.330  1.00  0.00     0.040 C 
BRANCH  16  18
HETATM   18  O3  UNL     1      78.158   5.458  23.039  1.00  0.00    -0.396 OA
ATOM     19  H3  UNL     1      78.829   6.098  22.832  1.00  0.00     0.210 HD
ENDBRANCH  16  18
ENDBRANCH  13  14
ENDBRANCH   1  12
TORSDOF 7
ENDMDL
