MODEL 1
REMARK VINA RESULT: -7.055053684      0.000      0.000
REMARK  3 active torsions:
REMARK  status: ('A' for Active; 'I' for Inactive)
REMARK    1  A    between atoms: N3_4  and  N4_6 
REMARK    2  A    between atoms: C2_8  and  C3_9 
REMARK    3  A    between atoms: C2_8  and  C9_15 
ROOT
HETATM    1  N4  UNL     1      78.697   5.455  28.774  1.00  0.00    -0.297 N 
ATOM      2  H4  UNL     1      77.993   4.740  28.590  1.00  0.00     0.187 HD
HETATM    3  C2  UNL     1      78.874   6.189  27.764  1.00  0.00     0.070 C 
ENDROOT
BRANCH   3   4
HETATM    4  C3  UNL     1      79.828   7.271  27.799  1.00  0.00    -0.007 A 
HETATM    5  C4  UNL     1      81.044   7.232  27.118  1.00  0.00     0.014 A 
HETATM    6  C5  UNL     1      81.928   8.295  27.046  1.00  0.00     0.001 A 
HETATM    7  C6  UNL     1      81.607   9.468  27.680  1.00  0.00     0.000 A 
HETATM    8  C7  UNL     1      80.428   9.584  28.371  1.00  0.00     0.001 A 
HETATM    9  C8  UNL     1      79.584   8.502  28.412  1.00  0.00     0.014 A 
ENDBRANCH   3   4
BRANCH   3  10
HETATM   10  C9  UNL     1      78.056   5.889  26.607  1.00  0.00     0.008 A 
HETATM   11  C10 UNL     1      77.550   6.976  25.879  1.00  0.00     0.016 A 
HETATM   12  C11 UNL     1      76.828   6.746  24.736  1.00  0.00     0.018 A 
HETATM   13  C12 UNL     1      76.566   5.484  24.248  1.00  0.00     0.087 A 
HETATM   14  N5  UNL     1      77.051   4.464  24.945  1.00  0.00    -0.374 N 
HETATM   15  C13 UNL     1      77.772   4.662  26.084  1.00  0.00     0.101 A 
ATOM     16  H5  UNL     1      76.882   3.512  24.620  1.00  0.00     0.164 HD
ENDBRANCH   3  10
BRANCH   1  17
HETATM   17  N3  UNL     1      79.172   5.352  30.009  1.00  0.00    -0.276 N 
HETATM   18  C1  UNL     1      78.442   5.497  31.073  1.00  0.00     0.215 C 
HETATM   19  N1  UNL     1      79.065   5.365  32.332  1.00  0.00    -0.065 NA
HETATM   20  N2  UNL     1      77.078   5.779  30.909  1.00  0.00    -0.065 NA
ATOM     21  H3  UNL     1      80.164   5.148  30.129  1.00  0.00     0.189 HD
ENDBRANCH   1  17
TORSDOF 3
ENDMDL
MODEL 2
REMARK VINA RESULT: -6.958325910      1.781      2.330
REMARK  3 active torsions:
REMARK  status: ('A' for Active; 'I' for Inactive)
REMARK    1  A    between atoms: N3_4  and  N4_6 
REMARK    2  A    between atoms: C2_8  and  C3_9 
REMARK    3  A    between atoms: C2_8  and  C9_15 
ROOT
HETATM    1  N4  UNL     1      78.309   5.468  27.784  1.00  0.00    -0.297 N 
ATOM      2  H4  UNL     1      77.294   5.496  27.884  1.00  0.00     0.187 HD
HETATM    3  C2  UNL     1      78.651   5.584  26.577  1.00  0.00     0.070 C 
ENDROOT
BRANCH   3   4
HETATM    4  C3  UNL     1      80.045   5.573  26.201  1.00  0.00    -0.007 A 
HETATM    5  C4  UNL     1      80.517   4.921  25.063  1.00  0.00     0.014 A 
HETATM    6  C5  UNL     1      81.828   4.982  24.621  1.00  0.00     0.001 A 
HETATM    7  C6  UNL     1      82.734   5.724  25.336  1.00  0.00     0.000 A 
HETATM    8  C7  UNL     1      82.345   6.394  26.468  1.00  0.00     0.001 A 
HETATM    9  C8  UNL     1      81.034   6.303  26.864  1.00  0.00     0.014 A 
ENDBRANCH   3   4
BRANCH   3  10
HETATM   10  C9  UNL     1      77.574   5.750  25.623  1.00  0.00     0.008 A 
HETATM   11  C10 UNL     1      77.509   6.969  24.932  1.00  0.00     0.016 A 
HETATM   12  C11 UNL     1      76.550   7.149  23.968  1.00  0.00     0.018 A 
HETATM   13  C12 UNL     1      75.628   6.183  23.628  1.00  0.00     0.087 A 
HETATM   14  N5  UNL     1      75.700   5.033  24.288  1.00  0.00    -0.374 N 
HETATM   15  C13 UNL     1      76.642   4.826  25.251  1.00  0.00     0.101 A 
ATOM     16  H5  UNL     1      75.038   4.290  24.069  1.00  0.00     0.164 HD
ENDBRANCH   3  10
BRANCH   1  17
HETATM   17  N3  UNL     1      78.901   5.318  28.963  1.00  0.00    -0.276 N 
HETATM   18  C1  UNL     1      78.511   5.922  30.044  1.00  0.00     0.215 C 
HETATM   19  N1  UNL     1      79.225   5.680  31.237  1.00  0.00    -0.065 NA
HETATM   20  N2  UNL     1      77.405   6.779  29.963  1.00  0.00    -0.065 NA
ATOM     21  H3  UNL     1      79.706   4.694  29.022  1.00  0.00     0.189 HD
ENDBRANCH   1  17
TORSDOF 3
ENDMDL
MODEL 3
REMARK VINA RESULT: -6.936800900      0.128      1.117
REMARK  3 active torsions:
REMARK  status: ('A' for Active; 'I' for Inactive)
REMARK    1  A    between atoms: N3_4  and  N4_6 
REMARK    2  A    between atoms: C2_8  and  C3_9 
REMARK    3  A    between atoms: C2_8  and  C9_15 
ROOT
HETATM    1  N4  UNL     1      78.691   5.487  28.723  1.00  0.00    -0.297 N 
ATOM      2  H4  UNL     1      77.994   4.765  28.543  1.00  0.00     0.187 HD
HETATM    3  C2  UNL     1      78.854   6.223  27.712  1.00  0.00     0.070 C 
ENDROOT
BRANCH   3   4
HETATM    4  C3  UNL     1      79.796   7.316  27.741  1.00  0.00    -0.007 A 
HETATM    5  C4  UNL     1      79.556   8.504  28.430  1.00  0.00     0.014 A 
HETATM    6  C5  UNL     1      80.483   9.524  28.564  1.00  0.00     0.001 A 
HETATM    7  C6  UNL     1      81.719   9.376  27.988  1.00  0.00     0.000 A 
HETATM    8  C7  UNL     1      82.030   8.235  27.293  1.00  0.00     0.001 A 
HETATM    9  C8  UNL     1      81.078   7.252  27.190  1.00  0.00     0.014 A 
ENDBRANCH   3   4
BRANCH   3  10
HETATM   10  C9  UNL     1      78.033   5.913  26.559  1.00  0.00     0.008 A 
HETATM   11  C10 UNL     1      77.546   6.994  25.809  1.00  0.00     0.016 A 
HETATM   12  C11 UNL     1      76.823   6.752  24.669  1.00  0.00     0.018 A 
HETATM   13  C12 UNL     1      76.540   5.485  24.206  1.00  0.00     0.087 A 
HETATM   14  N5  UNL     1      77.007   4.472  24.924  1.00  0.00    -0.374 N 
HETATM   15  C13 UNL     1      77.729   4.681  26.061  1.00  0.00     0.101 A 
ATOM     16  H5  UNL     1      76.821   3.517  24.619  1.00  0.00     0.164 HD
ENDBRANCH   3  10
BRANCH   1  17
HETATM   17  N3  UNL     1      79.174   5.390  29.955  1.00  0.00    -0.276 N 
HETATM   18  C1  UNL     1      78.452   5.542  31.023  1.00  0.00     0.215 C 
HETATM   19  N1  UNL     1      79.083   5.414  32.278  1.00  0.00    -0.065 NA
HETATM   20  N2  UNL     1      77.087   5.823  30.867  1.00  0.00    -0.065 NA
ATOM     21  H3  UNL     1      80.167   5.185  30.069  1.00  0.00     0.189 HD
ENDBRANCH   1  17
TORSDOF 3
ENDMDL
MODEL 4
REMARK VINA RESULT: -6.838033484      1.355      1.910
REMARK  3 active torsions:
REMARK  status: ('A' for Active; 'I' for Inactive)
REMARK    1  A    between atoms: N3_4  and  N4_6 
REMARK    2  A    between atoms: C2_8  and  C3_9 
REMARK    3  A    between atoms: C2_8  and  C9_15 
ROOT
HETATM    1  N4  UNL     1      77.954   6.072  28.057  1.00  0.00    -0.297 N 
ATOM      2  H4  UNL     1      76.978   5.780  28.016  1.00  0.00     0.187 HD
HETATM    3  C2  UNL     1      78.407   6.312  26.905  1.00  0.00     0.070 C 
ENDROOT
BRANCH   3   4
HETATM    4  C3  UNL     1      79.772   6.743  26.725  1.00  0.00    -0.007 A 
HETATM    5  C4  UNL     1      80.202   8.037  27.013  1.00  0.00     0.014 A 
HETATM    6  C5  UNL     1      81.523   8.447  26.953  1.00  0.00     0.001 A 
HETATM    7  C6  UNL     1      82.483   7.539  26.586  1.00  0.00     0.000 A 
HETATM    8  C7  UNL     1      82.138   6.245  26.287  1.00  0.00     0.001 A 
HETATM    9  C8  UNL     1      80.815   5.887  26.363  1.00  0.00     0.014 A 
ENDBRANCH   3   4
BRANCH   3  10
HETATM   10  C9  UNL     1      77.474   6.151  25.809  1.00  0.00     0.008 A 
HETATM   11  C10 UNL     1      77.385   7.201  24.882  1.00  0.00     0.016 A 
HETATM   12  C11 UNL     1      76.569   7.068  23.788  1.00  0.00     0.018 A 
HETATM   13  C12 UNL     1      75.815   5.941  23.537  1.00  0.00     0.087 A 
HETATM   14  N5  UNL     1      75.910   4.955  24.421  1.00  0.00    -0.374 N 
HETATM   15  C13 UNL     1      76.712   5.058  25.517  1.00  0.00     0.101 A 
ATOM     16  H5  UNL     1      75.370   4.102  24.275  1.00  0.00     0.164 HD
ENDBRANCH   3  10
BRANCH   1  17
HETATM   17  N3  UNL     1      78.395   6.092  29.309  1.00  0.00    -0.276 N 
HETATM   18  C1  UNL     1      78.153   7.060  30.140  1.00  0.00     0.215 C 
HETATM   19  N1  UNL     1      78.678   6.964  31.446  1.00  0.00    -0.065 NA
HETATM   20  N2  UNL     1      77.385   8.144  29.691  1.00  0.00    -0.065 NA
ATOM     21  H3  UNL     1      78.953   5.303  29.636  1.00  0.00     0.189 HD
ENDBRANCH   1  17
TORSDOF 3
ENDMDL
MODEL 5
REMARK VINA RESULT: -6.807765366      1.783      4.556
REMARK  3 active torsions:
REMARK  status: ('A' for Active; 'I' for Inactive)
REMARK    1  A    between atoms: N3_4  and  N4_6 
REMARK    2  A    between atoms: C2_8  and  C3_9 
REMARK    3  A    between atoms: C2_8  and  C9_15 
ROOT
HETATM    1  N4  UNL     1      79.656   5.730  28.756  1.00  0.00    -0.297 N 
ATOM      2  H4  UNL     1      80.529   5.825  29.277  1.00  0.00     0.187 HD
HETATM    3  C2  UNL     1      79.820   6.014  27.539  1.00  0.00     0.070 C 
ENDROOT
BRANCH   3   4
HETATM    4  C3  UNL     1      78.716   5.947  26.612  1.00  0.00    -0.007 A 
HETATM    5  C4  UNL     1      78.212   7.067  25.952  1.00  0.00     0.014 A 
HETATM    6  C5  UNL     1      77.228   7.017  24.979  1.00  0.00     0.001 A 
HETATM    7  C6  UNL     1      76.702   5.799  24.632  1.00  0.00     0.000 A 
HETATM    8  C7  UNL     1      77.146   4.651  25.237  1.00  0.00     0.001 A 
HETATM    9  C8  UNL     1      78.125   4.753  26.194  1.00  0.00     0.014 A 
ENDBRANCH   3   4
BRANCH   3  10
HETATM   10  C9  UNL     1      81.166   6.380  27.146  1.00  0.00     0.008 A 
HETATM   11  C10 UNL     1      81.678   5.788  25.982  1.00  0.00     0.016 A 
HETATM   12  C11 UNL     1      82.920   6.155  25.529  1.00  0.00     0.018 A 
HETATM   13  C12 UNL     1      83.711   7.090  26.161  1.00  0.00     0.087 A 
HETATM   14  N5  UNL     1      83.214   7.644  27.260  1.00  0.00    -0.374 N 
HETATM   15  C13 UNL     1      81.983   7.300  27.734  1.00  0.00     0.101 A 
ATOM     16  H5  UNL     1      83.765   8.341  27.760  1.00  0.00     0.164 HD
ENDBRANCH   3  10
BRANCH   1  17
HETATM   17  N3  UNL     1      78.666   5.342  29.549  1.00  0.00    -0.276 N 
HETATM   18  C1  UNL     1      78.064   6.133  30.386  1.00  0.00     0.215 C 
HETATM   19  N1  UNL     1      77.024   5.601  31.176  1.00  0.00    -0.065 NA
HETATM   20  N2  UNL     1      78.484   7.469  30.455  1.00  0.00    -0.065 NA
ATOM     21  H3  UNL     1      78.360   4.370  29.499  1.00  0.00     0.189 HD
ENDBRANCH   1  17
TORSDOF 3
ENDMDL
