MODEL 1
REMARK VINA RESULT: -5.986924643      0.000      0.000
REMARK  4 active torsions:
REMARK  status: ('A' for Active; 'I' for Inactive)
REMARK    1  A    between atoms: O1_2  and  C2_3 
REMARK    2  A    between atoms: C5_6  and  C6_7 
REMARK    3  A    between atoms: C6_7  and  C7_8 
REMARK    4  A    between atoms: C7_8  and  C8_9 
ROOT
HETATM    1  C2  UNL     1      24.447   6.414  16.786  1.00  0.00     0.083 A 
HETATM    2  C3  UNL     1      25.039   7.636  17.020  1.00  0.00     0.041 A 
HETATM    3  C4  UNL     1      25.911   7.809  18.100  1.00  0.00     0.042 A 
HETATM    4  C5  UNL     1      26.183   6.765  18.935  1.00  0.00     0.087 A 
HETATM    5  N3  UNL     1      25.594   5.555  18.699  1.00  0.00    -0.356 N 
ATOM      6  H3  UNL     1      25.794   4.769  19.318  1.00  0.00     0.166 HD
HETATM    7  C11 UNL     1      24.746   5.386  17.650  1.00  0.00     0.125 A 
ENDROOT
BRANCH   4   8
HETATM    8  C6  UNL     1      27.079   6.949  20.042  1.00  0.00    -0.042 C 
BRANCH   8   9
HETATM    9  C7  UNL     1      27.846   7.093  20.963  1.00  0.00    -0.040 C 
BRANCH   9  10
HETATM   10  C8  UNL     1      28.758   7.239  22.061  1.00  0.00     0.103 A 
HETATM   11  C9  UNL     1      29.900   8.022  22.129  1.00  0.00     0.128 A 
HETATM   12  N1  UNL     1      30.476   7.880  23.331  1.00  0.00    -0.359 N 
HETATM   13  C10 UNL     1      29.705   7.016  24.014  1.00  0.00     0.181 A 
ATOM     14  H1  UNL     1      31.327   8.335  23.660  1.00  0.00     0.166 HD
HETATM   15  N2  UNL     1      28.667   6.633  23.241  1.00  0.00    -0.344 N 
ATOM     16  H2  UNL     1      27.931   5.982  23.517  1.00  0.00     0.167 HD
ENDBRANCH   9  10
ENDBRANCH   8   9
ENDBRANCH   4   8
BRANCH   1  17
HETATM   17  O1  UNL     1      23.584   6.232  15.722  1.00  0.00    -0.355 OA
HETATM   18  C1  UNL     1      23.959   6.222  14.382  1.00  0.00     0.210 C 
ENDBRANCH   1  17
TORSDOF 4
ENDMDL
MODEL 2
REMARK VINA RESULT: -5.827740914      1.187      1.363
REMARK  4 active torsions:
REMARK  status: ('A' for Active; 'I' for Inactive)
REMARK    1  A    between atoms: O1_2  and  C2_3 
REMARK    2  A    between atoms: C5_6  and  C6_7 
REMARK    3  A    between atoms: C6_7  and  C7_8 
REMARK    4  A    between atoms: C7_8  and  C8_9 
ROOT
HETATM    1  C2  UNL     1      23.983   7.391  17.105  1.00  0.00     0.083 A 
HETATM    2  C3  UNL     1      25.122   6.626  16.986  1.00  0.00     0.041 A 
HETATM    3  C4  UNL     1      26.090   6.626  17.997  1.00  0.00     0.042 A 
HETATM    4  C5  UNL     1      25.912   7.388  19.113  1.00  0.00     0.087 A 
HETATM    5  N3  UNL     1      24.781   8.146  19.228  1.00  0.00    -0.356 N 
ATOM      6  H3  UNL     1      24.640   8.718  20.061  1.00  0.00     0.166 HD
HETATM    7  C11 UNL     1      23.841   8.147  18.246  1.00  0.00     0.125 A 
ENDROOT
BRANCH   4   8
HETATM    8  C6  UNL     1      26.908   7.385  20.149  1.00  0.00    -0.042 C 
BRANCH   8   9
HETATM    9  C7  UNL     1      27.733   7.372  21.029  1.00  0.00    -0.040 C 
BRANCH   9  10
HETATM   10  C8  UNL     1      28.694   7.354  22.095  1.00  0.00     0.103 A 
HETATM   11  C9  UNL     1      29.904   8.025  22.169  1.00  0.00     0.128 A 
HETATM   12  N1  UNL     1      30.508   7.744  23.332  1.00  0.00    -0.359 N 
HETATM   13  C10 UNL     1      29.687   6.903  23.985  1.00  0.00     0.181 A 
ATOM     14  H1  UNL     1      31.409   8.096  23.656  1.00  0.00     0.166 HD
HETATM   15  N2  UNL     1      28.590   6.672  23.232  1.00  0.00    -0.344 N 
ATOM     16  H2  UNL     1      27.808   6.070  23.493  1.00  0.00     0.167 HD
ENDBRANCH   9  10
ENDBRANCH   8   9
ENDBRANCH   4   8
BRANCH   1  17
HETATM   17  O1  UNL     1      23.022   7.398  16.112  1.00  0.00    -0.355 OA
HETATM   18  C1  UNL     1      22.219   6.315  15.770  1.00  0.00     0.210 C 
ENDBRANCH   1  17
TORSDOF 4
ENDMDL
MODEL 3
REMARK VINA RESULT: -5.595752579      3.628      5.442
REMARK  4 active torsions:
REMARK  status: ('A' for Active; 'I' for Inactive)
REMARK    1  A    between atoms: O1_2  and  C2_3 
REMARK    2  A    between atoms: C5_6  and  C6_7 
REMARK    3  A    between atoms: C6_7  and  C7_8 
REMARK    4  A    between atoms: C7_8  and  C8_9 
ROOT
HETATM    1  C2  UNL     1      23.972   6.739  11.780  1.00  0.00     0.083 A 
HETATM    2  C3  UNL     1      24.403   5.503  12.210  1.00  0.00     0.041 A 
HETATM    3  C4  UNL     1      24.605   5.254  13.572  1.00  0.00     0.042 A 
HETATM    4  C5  UNL     1      24.376   6.237  14.489  1.00  0.00     0.087 A 
HETATM    5  N3  UNL     1      23.948   7.461  14.059  1.00  0.00    -0.356 N 
ATOM      6  H3  UNL     1      23.774   8.201  14.739  1.00  0.00     0.166 HD
HETATM    7  C11 UNL     1      23.752   7.705  12.735  1.00  0.00     0.125 A 
ENDROOT
BRANCH   4   8
HETATM    8  C6  UNL     1      24.585   5.975  15.886  1.00  0.00    -0.042 C 
BRANCH   8   9
HETATM    9  C7  UNL     1      24.742   5.755  17.062  1.00  0.00    -0.040 C 
BRANCH   9  10
HETATM   10  C8  UNL     1      24.952   5.503  18.459  1.00  0.00     0.103 A 
HETATM   11  C9  UNL     1      26.151   5.465  19.152  1.00  0.00     0.128 A 
HETATM   12  N1  UNL     1      25.920   5.198  20.446  1.00  0.00    -0.359 N 
HETATM   13  C10 UNL     1      24.587   5.068  20.566  1.00  0.00     0.181 A 
ATOM     14  H1  UNL     1      26.614   5.110  21.187  1.00  0.00     0.166 HD
HETATM   15  N2  UNL     1      24.007   5.254  19.361  1.00  0.00    -0.344 N 
ATOM     16  H2  UNL     1      23.005   5.211  19.173  1.00  0.00     0.167 HD
ENDBRANCH   9  10
ENDBRANCH   8   9
ENDBRANCH   4   8
BRANCH   1  17
HETATM   17  O1  UNL     1      23.769   6.996  10.438  1.00  0.00    -0.355 OA
HETATM   18  C1  UNL     1      22.954   6.248   9.595  1.00  0.00     0.210 C 
ENDBRANCH   1  17
TORSDOF 4
ENDMDL
MODEL 4
REMARK VINA RESULT: -5.434044109      3.385      8.057
REMARK  4 active torsions:
REMARK  status: ('A' for Active; 'I' for Inactive)
REMARK    1  A    between atoms: O1_2  and  C2_3 
REMARK    2  A    between atoms: C5_6  and  C6_7 
REMARK    3  A    between atoms: C6_7  and  C7_8 
REMARK    4  A    between atoms: C7_8  and  C8_9 
ROOT
HETATM    1  C2  UNL     1      25.693   6.587  19.984  1.00  0.00     0.083 A 
HETATM    2  C3  UNL     1      25.498   7.672  19.158  1.00  0.00     0.041 A 
HETATM    3  C4  UNL     1      25.159   7.491  17.813  1.00  0.00     0.042 A 
HETATM    4  C5  UNL     1      25.017   6.233  17.306  1.00  0.00     0.087 A 
HETATM    5  N3  UNL     1      25.210   5.160  18.128  1.00  0.00    -0.356 N 
ATOM      6  H3  UNL     1      25.105   4.215  17.757  1.00  0.00     0.166 HD
HETATM    7  C11 UNL     1      25.541   5.334  19.436  1.00  0.00     0.125 A 
ENDROOT
BRANCH   4   8
HETATM    8  C6  UNL     1      24.668   6.054  15.924  1.00  0.00    -0.042 C 
BRANCH   8   9
HETATM    9  C7  UNL     1      24.374   5.884  14.766  1.00  0.00    -0.040 C 
BRANCH   9  10
HETATM   10  C8  UNL     1      24.008   5.662  13.396  1.00  0.00     0.103 A 
HETATM   11  C9  UNL     1      24.161   6.518  12.319  1.00  0.00     0.128 A 
HETATM   12  N1  UNL     1      23.692   5.936  11.206  1.00  0.00    -0.359 N 
HETATM   13  C10 UNL     1      23.247   4.723  11.579  1.00  0.00     0.181 A 
ATOM     14  H1  UNL     1      23.676   6.333  10.266  1.00  0.00     0.166 HD
HETATM   15  N2  UNL     1      23.442   4.563  12.906  1.00  0.00    -0.344 N 
ATOM     16  H2  UNL     1      23.194   3.733  13.444  1.00  0.00     0.167 HD
ENDBRANCH   9  10
ENDBRANCH   8   9
ENDBRANCH   4   8
BRANCH   1  17
HETATM   17  O1  UNL     1      26.028   6.754  21.315  1.00  0.00    -0.355 OA
HETATM   18  C1  UNL     1      27.102   7.504  21.780  1.00  0.00     0.210 C 
ENDBRANCH   1  17
TORSDOF 4
ENDMDL
MODEL 5
REMARK VINA RESULT: -5.394857685      1.873      2.034
REMARK  4 active torsions:
REMARK  status: ('A' for Active; 'I' for Inactive)
REMARK    1  A    between atoms: O1_2  and  C2_3 
REMARK    2  A    between atoms: C5_6  and  C6_7 
REMARK    3  A    between atoms: C6_7  and  C7_8 
REMARK    4  A    between atoms: C7_8  and  C8_9 
ROOT
HETATM    1  C2  UNL     1      22.350   6.337  17.780  1.00  0.00     0.083 A 
HETATM    2  C3  UNL     1      23.566   5.958  17.255  1.00  0.00     0.041 A 
HETATM    3  C4  UNL     1      24.748   6.160  17.975  1.00  0.00     0.042 A 
HETATM    4  C5  UNL     1      24.706   6.736  19.210  1.00  0.00     0.087 A 
HETATM    5  N3  UNL     1      23.499   7.110  19.729  1.00  0.00    -0.356 N 
ATOM      6  H3  UNL     1      23.459   7.541  20.653  1.00  0.00     0.166 HD
HETATM    7  C11 UNL     1      22.350   6.915  19.029  1.00  0.00     0.125 A 
ENDROOT
BRANCH   4   8
HETATM    8  C6  UNL     1      25.923   6.941  19.946  1.00  0.00    -0.042 C 
BRANCH   8   9
HETATM    9  C7  UNL     1      26.937   7.127  20.573  1.00  0.00    -0.040 C 
BRANCH   9  10
HETATM   10  C8  UNL     1      28.130   7.343  21.341  1.00  0.00     0.103 A 
HETATM   11  C9  UNL     1      28.920   8.480  21.396  1.00  0.00     0.128 A 
HETATM   12  N1  UNL     1      29.947   8.279  22.234  1.00  0.00    -0.359 N 
HETATM   13  C10 UNL     1      29.805   7.027  22.703  1.00  0.00     0.181 A 
ATOM     14  H1  UNL     1      30.686   8.941  22.468  1.00  0.00     0.166 HD
HETATM   15  N2  UNL     1      28.704   6.466  22.159  1.00  0.00    -0.344 N 
ATOM     16  H2  UNL     1      28.366   5.521  22.347  1.00  0.00     0.167 HD
ENDBRANCH   9  10
ENDBRANCH   8   9
ENDBRANCH   4   8
BRANCH   1  17
HETATM   17  O1  UNL     1      21.177   6.142  17.077  1.00  0.00    -0.355 OA
HETATM   18  C1  UNL     1      21.098   5.740  15.748  1.00  0.00     0.210 C 
ENDBRANCH   1  17
TORSDOF 4
ENDMDL
