MODEL 1
REMARK VINA RESULT: -6.810262557      0.000      0.000
REMARK  1 active torsions:
REMARK  status: ('A' for Active; 'I' for Inactive)
REMARK    1  A    between atoms: C4_8  and  C5_9 
ROOT
HETATM    1  C1  UNL     1      -3.737  39.311 -10.505  1.00  0.00     0.069 C 
HETATM    2  C2  UNL     1      -5.140  38.998  -9.954  1.00  0.00     0.020 A 
HETATM    3  N1  UNL     1      -5.451  39.204  -8.717  1.00  0.00    -0.344 N 
ATOM      4  H1  UNL     1      -4.799  39.676  -8.090  1.00  0.00     0.167 HD
HETATM    5  C3  UNL     1      -6.644  38.787  -8.272  1.00  0.00     0.143 A 
HETATM    6  S1  UNL     1      -7.312  38.943  -6.780  1.00  0.00    -0.052 SA
HETATM    7  S2  UNL     1      -7.322  38.071  -9.697  1.00  0.00    -0.063 SA
HETATM    8  C4  UNL     1      -6.036  38.368 -10.768  1.00  0.00     0.013 A 
ENDROOT
BRANCH   8   9
HETATM    9  C5  UNL     1      -5.972  38.239 -12.248  1.00  0.00     0.058 C 
HETATM   10  C6  UNL     1      -5.509  36.877 -12.701  1.00  0.00     0.047 C 
HETATM   11  C7  UNL     1      -6.501  36.364 -13.698  1.00  0.00     0.223 C 
HETATM   12  C8  UNL     1      -5.812  36.104 -15.036  1.00  0.00     0.037 C 
HETATM   13  N2  UNL     1      -7.459  37.407 -13.906  1.00  0.00     0.093 N 
HETATM   14  C9  UNL     1      -6.454  37.103 -15.960  1.00  0.00     0.032 C 
HETATM   15  C10 UNL     1      -6.887  38.178 -14.993  1.00  0.00     0.273 C 
HETATM   16  C11 UNL     1      -7.472  38.215 -12.739  1.00  0.00     0.282 C 
ENDBRANCH   8   9
TORSDOF 1
ENDMDL
MODEL 2
REMARK VINA RESULT: -6.802635588      1.998      3.380
REMARK  1 active torsions:
REMARK  status: ('A' for Active; 'I' for Inactive)
REMARK    1  A    between atoms: C4_8  and  C5_9 
ROOT
HETATM    1  C1  UNL     1      -8.898  37.069  -7.704  1.00  0.00     0.069 C 
HETATM    2  C2  UNL     1      -7.558  37.719  -7.317  1.00  0.00     0.020 A 
HETATM    3  N1  UNL     1      -7.322  38.139  -6.118  1.00  0.00    -0.344 N 
ATOM      4  H1  UNL     1      -7.985  37.959  -5.365  1.00  0.00     0.167 HD
HETATM    5  C3  UNL     1      -6.189  38.814  -5.881  1.00  0.00     0.143 A 
HETATM    6  S1  UNL     1      -5.618  39.427  -4.469  1.00  0.00    -0.052 SA
HETATM    7  S2  UNL     1      -5.458  38.842  -7.452  1.00  0.00    -0.063 SA
HETATM    8  C4  UNL     1      -6.648  37.973  -8.301  1.00  0.00     0.013 A 
ENDROOT
BRANCH   8   9
HETATM    9  C5  UNL     1      -6.616  37.394  -9.671  1.00  0.00     0.058 C 
HETATM   10  C6  UNL     1      -7.323  38.253 -10.689  1.00  0.00     0.047 C 
HETATM   11  C7  UNL     1      -6.387  38.466 -11.838  1.00  0.00     0.223 C 
HETATM   12  C8  UNL     1      -7.003  37.922 -13.125  1.00  0.00     0.037 C 
HETATM   13  N2  UNL     1      -5.213  37.693 -11.566  1.00  0.00     0.093 N 
HETATM   14  C9  UNL     1      -6.089  36.788 -13.498  1.00  0.00     0.032 C 
HETATM   15  C10 UNL     1      -5.515  36.403 -12.156  1.00  0.00     0.273 C 
HETATM   16  C11 UNL     1      -5.122  37.533 -10.159  1.00  0.00     0.282 C 
ENDBRANCH   8   9
TORSDOF 1
ENDMDL
MODEL 3
REMARK VINA RESULT: -6.614741900      2.472      5.808
REMARK  1 active torsions:
REMARK  status: ('A' for Active; 'I' for Inactive)
REMARK    1  A    between atoms: C4_8  and  C5_9 
ROOT
HETATM    1  C1  UNL     1      -7.796  38.436 -13.809  1.00  0.00     0.069 C 
HETATM    2  C2  UNL     1      -6.654  37.412 -13.679  1.00  0.00     0.020 A 
HETATM    3  N1  UNL     1      -6.192  36.769 -14.700  1.00  0.00    -0.344 N 
ATOM      4  H1  UNL     1      -6.506  36.998 -15.643  1.00  0.00     0.167 HD
HETATM    5  C3  UNL     1      -5.291  35.797 -14.499  1.00  0.00     0.143 A 
HETATM    6  S1  UNL     1      -4.517  34.852 -15.596  1.00  0.00    -0.052 SA
HETATM    7  S2  UNL     1      -5.125  35.821 -12.774  1.00  0.00    -0.063 SA
HETATM    8  C4  UNL     1      -6.210  37.084 -12.431  1.00  0.00     0.013 A 
ENDROOT
BRANCH   8   9
HETATM    9  C5  UNL     1      -6.436  37.836 -11.168  1.00  0.00     0.058 C 
HETATM   10  C6  UNL     1      -6.312  36.972  -9.938  1.00  0.00     0.047 C 
HETATM   11  C7  UNL     1      -5.362  37.645  -8.998  1.00  0.00     0.223 C 
HETATM   12  C8  UNL     1      -6.061  37.949  -7.674  1.00  0.00     0.037 C 
HETATM   13  N2  UNL     1      -5.008  38.899  -9.592  1.00  0.00     0.093 N 
HETATM   14  C9  UNL     1      -6.077  39.452  -7.625  1.00  0.00     0.032 C 
HETATM   15  C10 UNL     1      -6.021  39.807  -9.090  1.00  0.00     0.273 C 
HETATM   16  C11 UNL     1      -5.174  38.769 -10.996  1.00  0.00     0.282 C 
ENDBRANCH   8   9
TORSDOF 1
ENDMDL
MODEL 4
REMARK VINA RESULT: -6.523255226      3.076      4.913
REMARK  1 active torsions:
REMARK  status: ('A' for Active; 'I' for Inactive)
REMARK    1  A    between atoms: C4_8  and  C5_9 
ROOT
HETATM    1  C1  UNL     1      -5.093  38.434  -4.541  1.00  0.00     0.069 C 
HETATM    2  C2  UNL     1      -6.564  38.116  -4.864  1.00  0.00     0.020 A 
HETATM    3  N1  UNL     1      -7.466  38.041  -3.942  1.00  0.00    -0.344 N 
ATOM      4  H1  UNL     1      -7.245  38.289  -2.978  1.00  0.00     0.167 HD
HETATM    5  C3  UNL     1      -8.698  37.630  -4.275  1.00  0.00     0.143 A 
HETATM    6  S1  UNL     1     -10.033  37.474  -3.332  1.00  0.00    -0.052 SA
HETATM    7  S2  UNL     1      -8.527  37.341  -5.974  1.00  0.00    -0.063 SA
HETATM    8  C4  UNL     1      -6.894  37.780  -6.144  1.00  0.00     0.013 A 
ENDROOT
BRANCH   8   9
HETATM    9  C5  UNL     1      -6.086  38.009  -7.372  1.00  0.00     0.058 C 
HETATM   10  C6  UNL     1      -6.257  36.920  -8.401  1.00  0.00     0.047 C 
HETATM   11  C7  UNL     1      -6.595  37.570  -9.706  1.00  0.00     0.223 C 
HETATM   12  C8  UNL     1      -5.540  37.221 -10.754  1.00  0.00     0.037 C 
HETATM   13  N2  UNL     1      -6.534  38.985  -9.494  1.00  0.00     0.093 N 
HETATM   14  C9  UNL     1      -4.898  38.547 -11.060  1.00  0.00     0.032 C 
HETATM   15  C10 UNL     1      -5.151  39.310  -9.782  1.00  0.00     0.273 C 
HETATM   16  C11 UNL     1      -6.774  39.221  -8.115  1.00  0.00     0.282 C 
ENDBRANCH   8   9
TORSDOF 1
ENDMDL
MODEL 5
REMARK VINA RESULT: -6.269989177      3.401      5.790
REMARK  1 active torsions:
REMARK  status: ('A' for Active; 'I' for Inactive)
REMARK    1  A    between atoms: C4_8  and  C5_9 
ROOT
HETATM    1  C1  UNL     1      -8.991  37.012  -4.917  1.00  0.00     0.069 C 
HETATM    2  C2  UNL     1      -7.713  37.761  -4.500  1.00  0.00     0.020 A 
HETATM    3  N1  UNL     1      -7.466  38.061  -3.267  1.00  0.00    -0.344 N 
ATOM      4  H1  UNL     1      -8.069  37.718  -2.519  1.00  0.00     0.167 HD
HETATM    5  C3  UNL     1      -6.404  38.829  -2.989  1.00  0.00     0.143 A 
HETATM    6  S1  UNL     1      -5.836  39.331  -1.532  1.00  0.00    -0.052 SA
HETATM    7  S2  UNL     1      -5.757  39.125  -4.569  1.00  0.00    -0.063 SA
HETATM    8  C4  UNL     1      -6.884  38.233  -5.476  1.00  0.00     0.013 A 
ENDROOT
BRANCH   8   9
HETATM    9  C5  UNL     1      -6.856  37.826  -6.907  1.00  0.00     0.058 C 
HETATM   10  C6  UNL     1      -7.442  38.868  -7.826  1.00  0.00     0.047 C 
HETATM   11  C7  UNL     1      -6.449  39.131  -8.914  1.00  0.00     0.223 C 
HETATM   12  C8  UNL     1      -7.065  38.811 -10.275  1.00  0.00     0.037 C 
HETATM   13  N2  UNL     1      -5.362  38.221  -8.714  1.00  0.00     0.093 N 
HETATM   14  C9  UNL     1      -6.245  37.649 -10.766  1.00  0.00     0.032 C 
HETATM   15  C10 UNL     1      -5.759  37.049  -9.469  1.00  0.00     0.273 C 
HETATM   16  C11 UNL     1      -5.337  37.881  -7.336  1.00  0.00     0.282 C 
ENDBRANCH   8   9
TORSDOF 1
ENDMDL
