MODEL 1
REMARK VINA RESULT: -6.386747026      0.000      0.000
REMARK  3 active torsions:
REMARK  status: ('A' for Active; 'I' for Inactive)
REMARK    1  A    between atoms: C2_2  and  O1_4 
REMARK    2  A    between atoms: C2_2  and  C4_6 
REMARK    3  A    between atoms: C12_15  and  N1_16 
ROOT
HETATM    1  C4  UNL     1      -8.817  37.230  -4.748  1.00  0.00     0.017 C 
HETATM    2  C5  UNL     1      -7.642  37.704  -5.077  1.00  0.00    -0.051 C 
HETATM    3  C6  UNL     1      -6.690  37.975  -3.982  1.00  0.00     0.049 C 
HETATM    4  C7  UNL     1      -5.577  38.909  -4.269  1.00  0.00     0.083 C 
HETATM    5  S1  UNL     1      -5.847  39.962  -5.717  1.00  0.00    -0.133 SA
HETATM    6  C8  UNL     1      -6.571  38.888  -6.936  1.00  0.00    -0.013 C 
HETATM    7  C9  UNL     1      -7.354  37.922  -6.483  1.00  0.00    -0.039 C 
HETATM    8  C10 UNL     1      -7.934  37.042  -7.559  1.00  0.00     0.042 C 
HETATM    9  C11 UNL     1      -8.639  37.978  -8.517  1.00  0.00     0.037 C 
HETATM   10  C12 UNL     1      -7.713  39.012  -9.084  1.00  0.00     0.188 C 
HETATM   11  C13 UNL     1      -6.351  39.006  -8.380  1.00  0.00     0.079 C 
ENDROOT
BRANCH   1  12
HETATM   12  C2  UNL     1      -9.334  36.920  -3.408  1.00  0.00     0.069 C 
HETATM   13  C1  UNL     1     -10.798  36.989  -3.244  1.00  0.00     0.050 C 
HETATM   14  C3  UNL     1      -8.870  35.517  -2.973  1.00  0.00     0.050 C 
BRANCH  12  15
HETATM   15  O1  UNL     1      -8.722  37.787  -2.496  1.00  0.00    -0.387 OA
ATOM     16  H1  UNL     1      -7.779  37.757  -2.614  1.00  0.00     0.211 HD
ENDBRANCH  12  15
ENDBRANCH   1  12
BRANCH  10  17
HETATM   17  N1  UNL     1      -7.512  38.830 -10.521  1.00  0.00    -0.075 N 
ATOM     18  H13 UNL     1      -6.546  39.015 -10.788  1.00  0.00     0.274 HD
ATOM     19  H12 UNL     1      -7.564  37.845 -10.782  1.00  0.00     0.274 HD
ATOM     20  H11 UNL     1      -8.163  39.393 -11.068  1.00  0.00     0.274 HD
ENDBRANCH  10  17
TORSDOF 3
ENDMDL
MODEL 2
REMARK VINA RESULT: -6.360547184      3.157      5.190
REMARK  3 active torsions:
REMARK  status: ('A' for Active; 'I' for Inactive)
REMARK    1  A    between atoms: C2_2  and  O1_4 
REMARK    2  A    between atoms: C2_2  and  C4_6 
REMARK    3  A    between atoms: C12_15  and  N1_16 
ROOT
HETATM    1  C4  UNL     1      -7.766  38.033  -7.181  1.00  0.00     0.017 C 
HETATM    2  C5  UNL     1      -7.298  38.623  -6.110  1.00  0.00    -0.051 C 
HETATM    3  C6  UNL     1      -6.371  39.754  -6.310  1.00  0.00     0.049 C 
HETATM    4  C7  UNL     1      -5.499  40.124  -5.170  1.00  0.00     0.083 C 
HETATM    5  S1  UNL     1      -5.331  38.830  -3.915  1.00  0.00    -0.133 SA
HETATM    6  C8  UNL     1      -6.967  38.158  -3.727  1.00  0.00    -0.013 C 
HETATM    7  C9  UNL     1      -7.726  38.138  -4.810  1.00  0.00    -0.039 C 
HETATM    8  C10 UNL     1      -9.102  37.564  -4.591  1.00  0.00     0.042 C 
HETATM    9  C11 UNL     1      -8.881  36.191  -3.993  1.00  0.00     0.037 C 
HETATM   10  C12 UNL     1      -8.091  36.246  -2.720  1.00  0.00     0.188 C 
HETATM   11  C13 UNL     1      -7.512  37.643  -2.468  1.00  0.00     0.079 C 
ENDROOT
BRANCH   1  12
HETATM   12  C2  UNL     1      -7.490  38.346  -8.590  1.00  0.00     0.069 C 
HETATM   13  C1  UNL     1      -7.138  39.747  -8.888  1.00  0.00     0.050 C 
HETATM   14  C3  UNL     1      -6.355  37.446  -9.118  1.00  0.00     0.050 C 
BRANCH  12  15
HETATM   15  O1  UNL     1      -8.608  37.975  -9.343  1.00  0.00    -0.387 OA
ATOM     16  H1  UNL     1      -8.335  37.421 -10.065  1.00  0.00     0.211 HD
ENDBRANCH  12  15
ENDBRANCH   1  12
BRANCH  10  17
HETATM   17  N1  UNL     1      -8.894  35.842  -1.566  1.00  0.00    -0.075 N 
ATOM     18  H13 UNL     1      -8.791  36.500  -0.794  1.00  0.00     0.274 HD
ATOM     19  H12 UNL     1      -9.891  35.963  -1.746  1.00  0.00     0.274 HD
ATOM     20  H11 UNL     1      -8.682  34.888  -1.274  1.00  0.00     0.274 HD
ENDBRANCH  10  17
TORSDOF 3
ENDMDL
MODEL 3
REMARK VINA RESULT: -6.220605113      3.174      5.272
REMARK  3 active torsions:
REMARK  status: ('A' for Active; 'I' for Inactive)
REMARK    1  A    between atoms: C2_2  and  O1_4 
REMARK    2  A    between atoms: C2_2  and  C4_6 
REMARK    3  A    between atoms: C12_15  and  N1_16 
ROOT
HETATM    1  C4  UNL     1      -6.825  37.998  -6.889  1.00  0.00     0.017 C 
HETATM    2  C5  UNL     1      -6.729  38.611  -5.736  1.00  0.00    -0.051 C 
HETATM    3  C6  UNL     1      -5.802  39.757  -5.654  1.00  0.00     0.049 C 
HETATM    4  C7  UNL     1      -5.342  40.159  -4.304  1.00  0.00     0.083 C 
HETATM    5  S1  UNL     1      -5.561  38.886  -3.036  1.00  0.00    -0.133 SA
HETATM    6  C8  UNL     1      -7.163  38.185  -3.363  1.00  0.00    -0.013 C 
HETATM    7  C9  UNL     1      -7.539  38.135  -4.630  1.00  0.00    -0.039 C 
HETATM    8  C10 UNL     1      -8.905  37.537  -4.846  1.00  0.00     0.042 C 
HETATM    9  C11 UNL     1      -8.865  36.177  -4.184  1.00  0.00     0.037 C 
HETATM   10  C12 UNL     1      -8.520  36.264  -2.727  1.00  0.00     0.188 C 
HETATM   11  C13 UNL     1      -8.071  37.675  -2.331  1.00  0.00     0.079 C 
ENDROOT
BRANCH   1  12
HETATM   12  C2  UNL     1      -6.121  38.297  -8.144  1.00  0.00     0.069 C 
HETATM   13  C1  UNL     1      -5.855  37.148  -9.030  1.00  0.00     0.050 C 
HETATM   14  C3  UNL     1      -6.904  39.351  -8.950  1.00  0.00     0.050 C 
BRANCH  12  15
HETATM   15  O1  UNL     1      -4.914  38.928  -7.824  1.00  0.00    -0.387 OA
ATOM     16  H1  UNL     1      -5.054  39.866  -7.760  1.00  0.00     0.211 HD
ENDBRANCH  12  15
ENDBRANCH   1  12
BRANCH  10  17
HETATM   17  N1  UNL     1      -9.641  35.860  -1.880  1.00  0.00    -0.075 N 
ATOM     18  H13 UNL     1     -10.463  35.628  -2.437  1.00  0.00     0.274 HD
ATOM     19  H12 UNL     1      -9.476  34.949  -1.452  1.00  0.00     0.274 HD
ATOM     20  H11 UNL     1      -9.856  36.567  -1.176  1.00  0.00     0.274 HD
ENDBRANCH  10  17
TORSDOF 3
ENDMDL
MODEL 4
REMARK VINA RESULT: -6.178975980      2.347      3.592
REMARK  3 active torsions:
REMARK  status: ('A' for Active; 'I' for Inactive)
REMARK    1  A    between atoms: C2_2  and  O1_4 
REMARK    2  A    between atoms: C2_2  and  C4_6 
REMARK    3  A    between atoms: C12_15  and  N1_16 
ROOT
HETATM    1  C4  UNL     1      -4.678  37.595  -4.968  1.00  0.00     0.017 C 
HETATM    2  C5  UNL     1      -5.934  37.946  -5.090  1.00  0.00    -0.051 C 
HETATM    3  C6  UNL     1      -6.733  38.043  -3.853  1.00  0.00     0.049 C 
HETATM    4  C7  UNL     1      -8.207  37.983  -3.993  1.00  0.00     0.083 C 
HETATM    5  S1  UNL     1      -8.774  37.284  -5.564  1.00  0.00    -0.133 SA
HETATM    6  C8  UNL     1      -7.695  37.983  -6.793  1.00  0.00    -0.013 C 
HETATM    7  C9  UNL     1      -6.449  38.221  -6.419  1.00  0.00    -0.039 C 
HETATM    8  C10 UNL     1      -5.582  38.817  -7.498  1.00  0.00     0.042 C 
HETATM    9  C11 UNL     1      -5.680  37.866  -8.672  1.00  0.00     0.037 C 
HETATM   10  C12 UNL     1      -7.094  37.677  -9.134  1.00  0.00     0.188 C 
HETATM   11  C13 UNL     1      -8.100  38.307  -8.163  1.00  0.00     0.079 C 
ENDROOT
BRANCH   1  12
HETATM   12  C2  UNL     1      -3.934  37.277  -3.741  1.00  0.00     0.069 C 
HETATM   13  C1  UNL     1      -4.737  36.804  -2.598  1.00  0.00     0.050 C 
HETATM   14  C3  UNL     1      -2.854  36.219  -4.037  1.00  0.00     0.050 C 
BRANCH  12  15
HETATM   15  O1  UNL     1      -3.213  38.415  -3.364  1.00  0.00    -0.387 OA
ATOM     16  H1  UNL     1      -2.698  38.222  -2.590  1.00  0.00     0.211 HD
ENDBRANCH  12  15
ENDBRANCH   1  12
BRANCH  10  17
HETATM   17  N1  UNL     1      -7.305  38.229 -10.471  1.00  0.00    -0.075 N 
ATOM     18  H13 UNL     1      -6.869  39.146 -10.568  1.00  0.00     0.274 HD
ATOM     19  H12 UNL     1      -6.766  37.721 -11.173  1.00  0.00     0.274 HD
ATOM     20  H11 UNL     1      -8.295  38.261 -10.715  1.00  0.00     0.274 HD
ENDBRANCH  10  17
TORSDOF 3
ENDMDL
MODEL 5
REMARK VINA RESULT: -5.968881482      6.985      9.469
REMARK  3 active torsions:
REMARK  status: ('A' for Active; 'I' for Inactive)
REMARK    1  A    between atoms: C2_2  and  O1_4 
REMARK    2  A    between atoms: C2_2  and  C4_6 
REMARK    3  A    between atoms: C12_15  and  N1_16 
ROOT
HETATM    1  C4  UNL     1      -4.865  35.562 -14.245  1.00  0.00     0.017 C 
HETATM    2  C5  UNL     1      -5.974  36.195 -13.954  1.00  0.00    -0.051 C 
HETATM    3  C6  UNL     1      -7.073  36.123 -14.937  1.00  0.00     0.049 C 
HETATM    4  C7  UNL     1      -8.121  37.166 -14.857  1.00  0.00     0.083 C 
HETATM    5  S1  UNL     1      -7.630  38.641 -13.929  1.00  0.00    -0.133 SA
HETATM    6  C8  UNL     1      -6.748  38.021 -12.515  1.00  0.00    -0.013 C 
HETATM    7  C9  UNL     1      -6.051  36.911 -12.693  1.00  0.00    -0.039 C 
HETATM    8  C10 UNL     1      -5.329  36.429 -11.462  1.00  0.00     0.042 C 
HETATM    9  C11 UNL     1      -4.481  37.595 -11.003  1.00  0.00     0.037 C 
HETATM   10  C12 UNL     1      -5.302  38.819 -10.725  1.00  0.00     0.188 C 
HETATM   11  C13 UNL     1      -6.752  38.652 -11.193  1.00  0.00     0.079 C 
ENDROOT
BRANCH   1  12
HETATM   12  C2  UNL     1      -4.554  34.769 -15.443  1.00  0.00     0.069 C 
HETATM   13  C1  UNL     1      -5.109  33.404 -15.481  1.00  0.00     0.050 C 
HETATM   14  C3  UNL     1      -5.028  35.513 -16.706  1.00  0.00     0.050 C 
BRANCH  12  15
HETATM   15  O1  UNL     1      -3.162  34.711 -15.574  1.00  0.00    -0.387 OA
ATOM     16  H1  UNL     1      -2.887  35.280 -16.284  1.00  0.00     0.211 HD
ENDBRANCH  12  15
ENDBRANCH   1  12
BRANCH  10  17
HETATM   17  N1  UNL     1      -5.292  39.167  -9.304  1.00  0.00    -0.075 N 
ATOM     18  H13 UNL     1      -4.348  39.136  -8.920  1.00  0.00     0.274 HD
ATOM     19  H12 UNL     1      -5.491  40.157  -9.161  1.00  0.00     0.274 HD
ATOM     20  H11 UNL     1      -5.930  38.579  -8.767  1.00  0.00     0.274 HD
ENDBRANCH  10  17
TORSDOF 3
ENDMDL
