MODEL 1
REMARK VINA RESULT: -6.757952010      0.000      0.000
REMARK  1 active torsions:
REMARK  status: ('A' for Active; 'I' for Inactive)
REMARK    1  A    between atoms: C6_9  and  C7_10 
ROOT
HETATM    1  C1  UNL     1      -3.830  36.100  -3.122  1.00  0.00     0.021 C 
HETATM    2  C2  UNL     1      -4.150  37.565  -2.980  1.00  0.00     0.096 C 
HETATM    3  C3  UNL     1      -3.694  38.090  -1.718  1.00  0.00     0.263 C 
HETATM    4  O1  UNL     1      -2.846  37.426  -1.049  1.00  0.00    -0.265 OA
HETATM    5  O2  UNL     1      -4.201  39.311  -1.280  1.00  0.00    -0.319 OA
HETATM    6  C4  UNL     1      -4.770  40.069  -2.337  1.00  0.00     0.211 C 
HETATM    7  C5  UNL     1      -5.887  39.228  -2.950  1.00  0.00     0.159 C 
HETATM    8  O3  UNL     1      -6.659  38.625  -1.927  1.00  0.00    -0.368 OA
HETATM    9  C6  UNL     1      -6.709  37.456  -2.671  1.00  0.00     0.098 C 
HETATM   10  C8  UNL     1      -7.970  37.115  -3.348  1.00  0.00     0.041 C 
HETATM   11  C9  UNL     1      -8.653  37.931  -4.329  1.00  0.00     0.004 C 
HETATM   12  C10 UNL     1      -8.838  37.225  -5.637  1.00  0.00     0.005 C 
HETATM   13  C11 UNL     1      -8.116  37.667  -6.825  1.00  0.00    -0.006 A 
HETATM   14  C12 UNL     1      -7.992  39.100  -7.236  1.00  0.00     0.015 A 
HETATM   15  C13 UNL     1      -6.801  38.127  -6.946  1.00  0.00    -0.040 A 
HETATM   16  C14 UNL     1      -6.015  37.741  -8.226  1.00  0.00     0.015 C 
HETATM   17  C15 UNL     1      -5.945  38.627  -5.867  1.00  0.00     0.010 C 
HETATM   18  C16 UNL     1      -5.606  37.573  -4.905  1.00  0.00     0.017 C 
HETATM   19  C17 UNL     1      -5.546  37.916  -3.443  1.00  0.00     0.034 C 
ENDROOT
BRANCH   9  20
HETATM   20  C7  UNL     1      -6.475  36.292  -1.683  1.00  0.00     0.261 C 
HETATM   21  F1  UNL     1      -7.150  35.157  -2.174  1.00  0.00    -0.252 F 
ENDBRANCH   9  20
TORSDOF 1
ENDMDL
MODEL 2
REMARK VINA RESULT: -6.088275100      2.758      4.958
REMARK  1 active torsions:
REMARK  status: ('A' for Active; 'I' for Inactive)
REMARK    1  A    between atoms: C6_9  and  C7_10 
ROOT
HETATM    1  C1  UNL     1     -11.113  38.476  -2.322  1.00  0.00     0.021 C 
HETATM    2  C2  UNL     1     -10.668  37.094  -2.719  1.00  0.00     0.096 C 
HETATM    3  C3  UNL     1     -11.252  36.083  -1.875  1.00  0.00     0.263 C 
HETATM    4  O1  UNL     1     -12.256  36.386  -1.163  1.00  0.00    -0.265 OA
HETATM    5  O2  UNL     1     -10.693  34.807  -1.874  1.00  0.00    -0.319 OA
HETATM    6  C4  UNL     1      -9.894  34.568  -3.023  1.00  0.00     0.211 C 
HETATM    7  C5  UNL     1      -8.791  35.624  -3.039  1.00  0.00     0.159 C 
HETATM    8  O3  UNL     1      -8.250  35.780  -1.739  1.00  0.00    -0.368 OA
HETATM    9  C6  UNL     1      -8.211  37.153  -1.935  1.00  0.00     0.098 C 
HETATM   10  C8  UNL     1      -6.904  37.784  -2.180  1.00  0.00     0.041 C 
HETATM   11  C9  UNL     1      -5.998  37.464  -3.263  1.00  0.00     0.004 C 
HETATM   12  C10 UNL     1      -5.692  38.650  -4.126  1.00  0.00     0.005 C 
HETATM   13  C11 UNL     1      -6.176  38.709  -5.501  1.00  0.00    -0.006 A 
HETATM   14  C12 UNL     1      -6.086  37.567  -6.463  1.00  0.00     0.015 A 
HETATM   15  C13 UNL     1      -7.402  38.295  -6.031  1.00  0.00    -0.040 A 
HETATM   16  C14 UNL     1      -8.021  39.144  -7.171  1.00  0.00     0.015 C 
HETATM   17  C15 UNL     1      -8.355  37.368  -5.414  1.00  0.00     0.010 C 
HETATM   18  C16 UNL     1      -8.944  37.923  -4.190  1.00  0.00     0.017 C 
HETATM   19  C17 UNL     1      -9.189  37.010  -3.022  1.00  0.00     0.034 C 
ENDROOT
BRANCH   9  20
HETATM   20  C7  UNL     1      -8.711  37.801  -0.626  1.00  0.00     0.261 C 
HETATM   21  F1  UNL     1      -8.254  39.133  -0.593  1.00  0.00    -0.252 F 
ENDBRANCH   9  20
TORSDOF 1
ENDMDL
MODEL 3
REMARK VINA RESULT: -5.418346500      5.730      8.364
REMARK  1 active torsions:
REMARK  status: ('A' for Active; 'I' for Inactive)
REMARK    1  A    between atoms: C6_9  and  C7_10 
ROOT
HETATM    1  C1  UNL     1      -6.702  36.156  -9.253  1.00  0.00     0.021 C 
HETATM    2  C2  UNL     1      -5.760  37.179  -9.830  1.00  0.00     0.096 C 
HETATM    3  C3  UNL     1      -5.481  38.236  -8.891  1.00  0.00     0.263 C 
HETATM    4  O1  UNL     1      -5.753  38.054  -7.666  1.00  0.00    -0.265 OA
HETATM    5  O2  UNL     1      -4.921  39.421  -9.364  1.00  0.00    -0.319 OA
HETATM    6  C4  UNL     1      -4.310  39.257 -10.635  1.00  0.00     0.211 C 
HETATM    7  C5  UNL     1      -5.387  38.765 -11.599  1.00  0.00     0.159 C 
HETATM    8  O3  UNL     1      -6.584  39.497 -11.404  1.00  0.00    -0.368 OA
HETATM    9  C6  UNL     1      -7.309  38.323 -11.546  1.00  0.00     0.098 C 
HETATM   10  C8  UNL     1      -8.050  38.111 -12.800  1.00  0.00     0.041 C 
HETATM   11  C9  UNL     1      -7.476  38.079 -14.128  1.00  0.00     0.004 C 
HETATM   12  C10 UNL     1      -7.738  36.787 -14.838  1.00  0.00     0.005 C 
HETATM   13  C11 UNL     1      -6.645  35.863 -15.122  1.00  0.00    -0.006 A 
HETATM   14  C12 UNL     1      -5.324  36.287 -15.682  1.00  0.00     0.015 A 
HETATM   15  C13 UNL     1      -5.542  35.523 -14.333  1.00  0.00    -0.040 A 
HETATM   16  C14 UNL     1      -5.040  34.057 -14.386  1.00  0.00     0.015 C 
HETATM   17  C15 UNL     1      -5.013  36.277 -13.194  1.00  0.00     0.010 C 
HETATM   18  C16 UNL     1      -5.953  36.296 -12.068  1.00  0.00     0.017 C 
HETATM   19  C17 UNL     1      -6.091  37.554 -11.257  1.00  0.00     0.034 C 
ENDROOT
BRANCH   9  20
HETATM   20  C7  UNL     1      -8.400  38.342 -10.453  1.00  0.00     0.261 C 
HETATM   21  F1  UNL     1      -8.194  39.480  -9.648  1.00  0.00    -0.252 F 
ENDBRANCH   9  20
TORSDOF 1
ENDMDL
MODEL 4
REMARK VINA RESULT: -4.898022217      2.173      3.846
REMARK  1 active torsions:
REMARK  status: ('A' for Active; 'I' for Inactive)
REMARK    1  A    between atoms: C6_9  and  C7_10 
ROOT
HETATM    1  C1  UNL     1      -5.685  40.425  -0.758  1.00  0.00     0.021 C 
HETATM    2  C2  UNL     1      -5.237  38.993  -0.875  1.00  0.00     0.096 C 
HETATM    3  C3  UNL     1      -3.838  38.844  -0.562  1.00  0.00     0.263 C 
HETATM    4  O1  UNL     1      -3.246  39.781   0.053  1.00  0.00    -0.265 OA
HETATM    5  O2  UNL     1      -3.187  37.675  -0.948  1.00  0.00    -0.319 OA
HETATM    6  C4  UNL     1      -4.095  36.615  -1.214  1.00  0.00     0.211 C 
HETATM    7  C5  UNL     1      -5.030  37.085  -2.325  1.00  0.00     0.159 C 
HETATM    8  O3  UNL     1      -4.289  37.742  -3.338  1.00  0.00    -0.368 OA
HETATM    9  C6  UNL     1      -5.293  38.694  -3.437  1.00  0.00     0.098 C 
HETATM   10  C8  UNL     1      -6.188  38.644  -4.604  1.00  0.00     0.041 C 
HETATM   11  C9  UNL     1      -7.022  37.525  -4.985  1.00  0.00     0.004 C 
HETATM   12  C10 UNL     1      -8.474  37.886  -5.052  1.00  0.00     0.005 C 
HETATM   13  C11 UNL     1      -9.419  37.338  -4.083  1.00  0.00    -0.006 A 
HETATM   14  C12 UNL     1      -9.454  35.898  -3.681  1.00  0.00     0.015 A 
HETATM   15  C13 UNL     1      -9.257  37.113  -2.713  1.00  0.00    -0.040 A 
HETATM   16  C14 UNL     1     -10.480  37.351  -1.791  1.00  0.00     0.015 C 
HETATM   17  C15 UNL     1      -7.989  37.022  -1.985  1.00  0.00     0.010 C 
HETATM   18  C16 UNL     1      -7.273  38.302  -1.972  1.00  0.00     0.017 C 
HETATM   19  C17 UNL     1      -5.776  38.300  -2.106  1.00  0.00     0.034 C 
ENDROOT
BRANCH   9  20
HETATM   20  C7  UNL     1      -4.593  40.066  -3.547  1.00  0.00     0.261 C 
HETATM   21  F1  UNL     1      -5.070  40.710  -4.706  1.00  0.00    -0.252 F 
ENDBRANCH   9  20
TORSDOF 1
ENDMDL
MODEL 5
REMARK VINA RESULT: -4.727160480      2.803      5.317
REMARK  1 active torsions:
REMARK  status: ('A' for Active; 'I' for Inactive)
REMARK    1  A    between atoms: C6_9  and  C7_10 
ROOT
HETATM    1  C1  UNL     1      -9.239  34.055  -2.914  1.00  0.00     0.021 C 
HETATM    2  C2  UNL     1      -9.176  35.115  -1.847  1.00  0.00     0.096 C 
HETATM    3  C3  UNL     1     -10.491  35.486  -1.386  1.00  0.00     0.263 C 
HETATM    4  O1  UNL     1     -11.468  34.722  -1.647  1.00  0.00    -0.265 OA
HETATM    5  O2  UNL     1     -10.639  36.672  -0.670  1.00  0.00    -0.319 OA
HETATM    6  C4  UNL     1      -9.409  37.130  -0.127  1.00  0.00     0.211 C 
HETATM    7  C5  UNL     1      -8.446  37.339  -1.293  1.00  0.00     0.159 C 
HETATM    8  O3  UNL     1      -9.111  37.990  -2.361  1.00  0.00    -0.368 OA
HETATM    9  C6  UNL     1      -8.461  37.154  -3.257  1.00  0.00     0.098 C 
HETATM   10  C8  UNL     1      -7.360  37.713  -4.058  1.00  0.00     0.041 C 
HETATM   11  C9  UNL     1      -6.154  38.317  -3.534  1.00  0.00     0.004 C 
HETATM   12  C10 UNL     1      -4.912  37.626  -4.007  1.00  0.00     0.005 C 
HETATM   13  C11 UNL     1      -4.083  36.871  -3.072  1.00  0.00    -0.006 A 
HETATM   14  C12 UNL     1      -3.689  37.374  -1.720  1.00  0.00     0.015 A 
HETATM   15  C13 UNL     1      -4.467  36.047  -2.010  1.00  0.00    -0.040 A 
HETATM   16  C14 UNL     1      -3.618  34.780  -1.733  1.00  0.00     0.015 C 
HETATM   17  C15 UNL     1      -5.771  36.030  -1.341  1.00  0.00     0.010 C 
HETATM   18  C16 UNL     1      -6.837  35.562  -2.235  1.00  0.00     0.017 C 
HETATM   19  C17 UNL     1      -8.188  36.216  -2.159  1.00  0.00     0.034 C 
ENDROOT
BRANCH   9  20
HETATM   20  C7  UNL     1      -9.514  36.720  -4.301  1.00  0.00     0.261 C 
HETATM   21  F1  UNL     1      -8.956  36.888  -5.583  1.00  0.00    -0.252 F 
ENDBRANCH   9  20
TORSDOF 1
ENDMDL
