MODEL 1
REMARK VINA RESULT: -7.358225184      0.000      0.000
REMARK  3 active torsions:
REMARK  status: ('A' for Active; 'I' for Inactive)
REMARK    1  A    between atoms: C3_3  and  C4_4 
REMARK    2  A    between atoms: C6_7  and  O2_8 
REMARK    3  A    between atoms: C8_12  and  C9_13 
ROOT
HETATM    1  C4  UNL     1     -24.048 -16.369  14.781  1.00  0.00     0.088 C 
HETATM    2  C5  UNL     1     -24.697 -16.405  16.088  1.00  0.00     0.051 C 
HETATM    3  O1  UNL     1     -22.648 -16.174  14.928  1.00  0.00    -0.333 OA
HETATM    4  C6  UNL     1     -22.883 -14.815  14.658  1.00  0.00     0.233 C 
HETATM    5  C7  UNL     1     -21.921 -14.186  13.743  1.00  0.00     0.193 C 
HETATM    6  O3  UNL     1     -20.870 -14.743  13.666  1.00  0.00    -0.292 OA
HETATM    7  C8  UNL     1     -22.108 -12.984  12.940  1.00  0.00     0.064 C 
HETATM    8  C12 UNL     1     -23.453 -13.058  12.258  1.00  0.00     0.013 C 
HETATM    9  C13 UNL     1     -24.609 -12.933  13.188  1.00  0.00     0.005 C 
HETATM   10  C14 UNL     1     -25.137 -14.307  13.644  1.00  0.00    -0.006 C 
HETATM   11  C15 UNL     1     -26.131 -14.056  14.713  1.00  0.00     0.010 C 
HETATM   12  C16 UNL     1     -24.066 -15.258  13.865  1.00  0.00     0.098 C 
ENDROOT
BRANCH   1  13
HETATM   13  C3  UNL     1     -24.212 -17.696  14.118  1.00  0.00     0.007 C 
HETATM   14  C2  UNL     1     -23.832 -18.810  14.700  1.00  0.00    -0.032 C 
HETATM   15  C1  UNL     1     -23.999 -20.122  14.031  1.00  0.00     0.036 C 
ENDBRANCH   1  13
BRANCH   4  16
HETATM   16  O2  UNL     1     -23.075 -14.156  15.839  1.00  0.00    -0.359 OA
ATOM     17  H2  UNL     1     -23.950 -13.786  15.846  1.00  0.00     0.213 HD
ENDBRANCH   4  16
BRANCH   7  18
HETATM   18  C9  UNL     1     -20.996 -12.718  11.962  1.00  0.00    -0.011 C 
HETATM   19  C10 UNL     1     -20.013 -11.702  12.423  1.00  0.00     0.010 C 
HETATM   20  C11 UNL     1     -21.524 -12.315  10.604  1.00  0.00     0.010 C 
ENDBRANCH   7  18
TORSDOF 3
ENDMDL
MODEL 2
REMARK VINA RESULT: -7.183447843      8.645     13.291
REMARK  3 active torsions:
REMARK  status: ('A' for Active; 'I' for Inactive)
REMARK    1  A    between atoms: C3_3  and  C4_4 
REMARK    2  A    between atoms: C6_7  and  O2_8 
REMARK    3  A    between atoms: C8_12  and  C9_13 
ROOT
HETATM    1  C4  UNL     1     -11.243  -7.727  11.312  1.00  0.00     0.088 C 
HETATM    2  C5  UNL     1      -9.892  -8.274  11.387  1.00  0.00     0.051 C 
HETATM    3  O1  UNL     1     -12.022  -8.176  12.412  1.00  0.00    -0.333 OA
HETATM    4  C6  UNL     1     -12.552  -9.147  11.547  1.00  0.00     0.233 C 
HETATM    5  C7  UNL     1     -14.004  -9.348  11.652  1.00  0.00     0.193 C 
HETATM    6  O3  UNL     1     -14.482  -8.996  12.685  1.00  0.00    -0.292 OA
HETATM    7  C8  UNL     1     -14.900  -9.920  10.654  1.00  0.00     0.064 C 
HETATM    8  C12 UNL     1     -14.588  -9.304   9.310  1.00  0.00     0.013 C 
HETATM    9  C13 UNL     1     -13.272  -9.718   8.748  1.00  0.00     0.005 C 
HETATM   10  C14 UNL     1     -12.153  -8.716   9.093  1.00  0.00    -0.006 C 
HETATM   11  C15 UNL     1     -10.875  -9.331   8.669  1.00  0.00     0.010 C 
HETATM   12  C16 UNL     1     -12.289  -8.188  10.436  1.00  0.00     0.098 C 
ENDROOT
BRANCH   1  13
HETATM   13  C3  UNL     1     -11.175  -6.241  11.435  1.00  0.00     0.007 C 
HETATM   14  C2  UNL     1     -12.249  -5.515  11.638  1.00  0.00    -0.032 C 
HETATM   15  C1  UNL     1     -12.167  -4.039  11.757  1.00  0.00     0.036 C 
ENDBRANCH   1  13
BRANCH   4  16
HETATM   16  O2  UNL     1     -11.802 -10.284  11.644  1.00  0.00    -0.359 OA
ATOM     17  H2  UNL     1     -10.885 -10.043  11.712  1.00  0.00     0.213 HD
ENDBRANCH   4  16
BRANCH   7  18
HETATM   18  C9  UNL     1     -16.359  -9.805  10.999  1.00  0.00    -0.011 C 
HETATM   19  C10 UNL     1     -16.954 -11.054  11.543  1.00  0.00     0.010 C 
HETATM   20  C11 UNL     1     -17.183  -9.338   9.820  1.00  0.00     0.010 C 
ENDBRANCH   7  18
TORSDOF 3
ENDMDL
MODEL 3
REMARK VINA RESULT: -6.823028977      8.941     12.581
REMARK  3 active torsions:
REMARK  status: ('A' for Active; 'I' for Inactive)
REMARK    1  A    between atoms: C3_3  and  C4_4 
REMARK    2  A    between atoms: C6_7  and  O2_8 
REMARK    3  A    between atoms: C8_12  and  C9_13 
ROOT
HETATM    1  C4  UNL     1     -10.965 -10.965  10.119  1.00  0.00     0.088 C 
HETATM    2  C5  UNL     1      -9.897 -10.795   9.140  1.00  0.00     0.051 C 
HETATM    3  O1  UNL     1     -11.822 -12.033   9.739  1.00  0.00    -0.333 OA
HETATM    4  C6  UNL     1     -12.688 -11.056   9.219  1.00  0.00     0.233 C 
HETATM    5  C7  UNL     1     -14.112 -11.268   9.509  1.00  0.00     0.193 C 
HETATM    6  O3  UNL     1     -14.404 -12.393   9.773  1.00  0.00    -0.292 OA
HETATM    7  C8  UNL     1     -15.180 -10.276   9.509  1.00  0.00     0.064 C 
HETATM    8  C12 UNL     1     -14.706  -9.050  10.254  1.00  0.00     0.013 C 
HETATM    9  C13 UNL     1     -13.641  -8.288   9.546  1.00  0.00     0.005 C 
HETATM   10  C14 UNL     1     -12.229  -8.703  10.004  1.00  0.00    -0.006 C 
HETATM   11  C15 UNL     1     -11.267  -8.040   9.094  1.00  0.00     0.010 C 
HETATM   12  C16 UNL     1     -12.131 -10.128  10.244  1.00  0.00     0.098 C 
ENDROOT
BRANCH   1  13
HETATM   13  C3  UNL     1     -10.368 -11.362  11.428  1.00  0.00     0.007 C 
HETATM   14  C2  UNL     1     -10.551 -10.650  12.515  1.00  0.00    -0.032 C 
HETATM   15  C1  UNL     1      -9.951 -11.054  13.809  1.00  0.00     0.036 C 
ENDBRANCH   1  13
BRANCH   4  16
HETATM   16  O2  UNL     1     -12.389 -10.857   7.900  1.00  0.00    -0.359 OA
ATOM     17  H2  UNL     1     -13.119 -11.156   7.371  1.00  0.00     0.213 HD
ENDBRANCH   4  16
BRANCH   7  18
HETATM   18  C9  UNL     1     -16.493 -10.784  10.039  1.00  0.00    -0.011 C 
HETATM   19  C10 UNL     1     -17.684 -10.212   9.359  1.00  0.00     0.010 C 
HETATM   20  C11 UNL     1     -16.621 -10.564  11.530  1.00  0.00     0.010 C 
ENDBRANCH   7  18
TORSDOF 3
ENDMDL
MODEL 4
REMARK VINA RESULT: -6.807625357      7.532     12.250
REMARK  3 active torsions:
REMARK  status: ('A' for Active; 'I' for Inactive)
REMARK    1  A    between atoms: C3_3  and  C4_4 
REMARK    2  A    between atoms: C6_7  and  O2_8 
REMARK    3  A    between atoms: C8_12  and  C9_13 
ROOT
HETATM    1  C4  UNL     1     -12.711  -8.039  11.399  1.00  0.00     0.088 C 
HETATM    2  C5  UNL     1     -11.360  -8.515  11.119  1.00  0.00     0.051 C 
HETATM    3  O1  UNL     1     -13.350  -8.889  12.341  1.00  0.00    -0.333 OA
HETATM    4  C6  UNL     1     -13.980  -9.506  11.248  1.00  0.00     0.233 C 
HETATM    5  C7  UNL     1     -15.407  -9.797  11.434  1.00  0.00     0.193 C 
HETATM    6  O3  UNL     1     -15.758  -9.862  12.571  1.00  0.00    -0.292 OA
HETATM    7  C8  UNL     1     -16.416 -10.011  10.403  1.00  0.00     0.064 C 
HETATM    8  C12 UNL     1     -16.270  -8.940   9.349  1.00  0.00     0.013 C 
HETATM    9  C13 UNL     1     -15.031  -9.063   8.532  1.00  0.00     0.005 C 
HETATM   10  C14 UNL     1     -13.880  -8.203   9.089  1.00  0.00    -0.006 C 
HETATM   11  C15 UNL     1     -12.662  -8.567   8.331  1.00  0.00     0.010 C 
HETATM   12  C16 UNL     1     -13.854  -8.201  10.538  1.00  0.00     0.098 C 
ENDROOT
BRANCH   1  13
HETATM   13  C3  UNL     1     -12.630  -6.696  12.044  1.00  0.00     0.007 C 
HETATM   14  C2  UNL     1     -12.395  -5.609  11.347  1.00  0.00    -0.032 C 
HETATM   15  C1  UNL     1     -12.316  -4.279  11.999  1.00  0.00     0.036 C 
ENDBRANCH   1  13
BRANCH   4  16
HETATM   16  O2  UNL     1     -13.221 -10.567  10.841  1.00  0.00    -0.359 OA
ATOM     17  H2  UNL     1     -13.261 -11.246  11.504  1.00  0.00     0.213 HD
ENDBRANCH   4  16
BRANCH   7  18
HETATM   18  C9  UNL     1     -17.824 -10.094  10.928  1.00  0.00    -0.011 C 
HETATM   19  C10 UNL     1     -18.124 -11.351  11.662  1.00  0.00     0.010 C 
HETATM   20  C11 UNL     1     -18.847  -9.906   9.830  1.00  0.00     0.010 C 
ENDBRANCH   7  18
TORSDOF 3
ENDMDL
MODEL 5
REMARK VINA RESULT: -6.698133331      8.513     12.446
REMARK  3 active torsions:
REMARK  status: ('A' for Active; 'I' for Inactive)
REMARK    1  A    between atoms: C3_3  and  C4_4 
REMARK    2  A    between atoms: C6_7  and  O2_8 
REMARK    3  A    between atoms: C8_12  and  C9_13 
ROOT
HETATM    1  C4  UNL     1     -15.105  -9.482  10.347  1.00  0.00     0.088 C 
HETATM    2  C5  UNL     1     -15.670  -9.695   9.018  1.00  0.00     0.051 C 
HETATM    3  O1  UNL     1     -15.159  -8.105  10.693  1.00  0.00    -0.333 OA
HETATM    4  C6  UNL     1     -13.814  -8.027  10.296  1.00  0.00     0.233 C 
HETATM    5  C7  UNL     1     -12.946  -7.246  11.188  1.00  0.00     0.193 C 
HETATM    6  O3  UNL     1     -13.518  -6.462  11.879  1.00  0.00    -0.292 OA
HETATM    7  C8  UNL     1     -11.496  -7.326  11.315  1.00  0.00     0.064 C 
HETATM    8  C12 UNL     1     -11.092  -8.779  11.389  1.00  0.00     0.013 C 
HETATM    9  C13 UNL     1     -11.284  -9.524  10.114  1.00  0.00     0.005 C 
HETATM   10  C14 UNL     1     -12.643 -10.249  10.065  1.00  0.00    -0.006 C 
HETATM   11  C15 UNL     1     -12.806 -10.770   8.689  1.00  0.00     0.010 C 
HETATM   12  C16 UNL     1     -13.701  -9.466  10.670  1.00  0.00     0.098 C 
ENDROOT
BRANCH   1  13
HETATM   13  C3  UNL     1     -15.944 -10.194  11.354  1.00  0.00     0.007 C 
HETATM   14  C2  UNL     1     -17.157 -10.611  11.072  1.00  0.00    -0.032 C 
HETATM   15  C1  UNL     1     -17.981 -11.317  12.082  1.00  0.00     0.036 C 
ENDBRANCH   1  13
BRANCH   4  16
HETATM   16  O2  UNL     1     -13.762  -7.669   8.979  1.00  0.00    -0.359 OA
ATOM     17  H2  UNL     1     -12.852  -7.600   8.714  1.00  0.00     0.213 HD
ENDBRANCH   4  16
BRANCH   7  18
HETATM   18  C9  UNL     1     -10.934  -6.527  12.460  1.00  0.00    -0.011 C 
HETATM   19  C10 UNL     1     -10.361  -5.215  12.060  1.00  0.00     0.010 C 
HETATM   20  C11 UNL     1      -9.894  -7.306  13.233  1.00  0.00     0.010 C 
ENDBRANCH   7  18
TORSDOF 3
ENDMDL
