MODEL 1
REMARK VINA RESULT: -4.306618779      0.000      0.000
REMARK  10 active torsions:
REMARK  status: ('A' for Active; 'I' for Inactive)
REMARK    1  A    between atoms: C4_7  and  O1_8 
REMARK    2  A    between atoms: O1_8  and  C5_9 
REMARK    3  A    between atoms: C6_13  and  O2_14 
REMARK    4  A    between atoms: O2_14  and  C7_15 
REMARK    5  A    between atoms: C8_17  and  C9_18 
REMARK    6  A    between atoms: C9_18  and  N3_19 
REMARK    7  A    between atoms: C10_23  and  O4_24 
REMARK    8  A    between atoms: C11_26  and  O5_27 
REMARK    9  A    between atoms: C12_29  and  N4_30 
REMARK   10  A    between atoms: C13_34  and  O6_35 
ROOT
HETATM    1  C7  UNL     1     -88.709  66.354  94.523  1.00  0.00     0.294 C 
HETATM    2  O3  UNL     1     -90.021  66.208  94.958  1.00  0.00    -0.349 OA
HETATM    3  C8  UNL     1     -90.864  67.241  94.590  1.00  0.00     0.181 C 
HETATM    4  C10 UNL     1     -90.348  68.585  95.021  1.00  0.00     0.179 C 
HETATM    5  C11 UNL     1     -88.924  68.790  94.518  1.00  0.00     0.184 C 
HETATM    6  C12 UNL     1     -88.141  67.628  95.096  1.00  0.00     0.269 C 
ENDROOT
BRANCH   1   7
HETATM    7  O2  UNL     1     -87.945  65.316  95.039  1.00  0.00    -0.348 OA
BRANCH   7   8
HETATM    8  C6  UNL     1     -88.472  64.063  94.881  1.00  0.00     0.186 C 
HETATM    9  C4  UNL     1     -87.558  63.057  94.225  1.00  0.00     0.186 C 
HETATM   10  C3  UNL     1     -86.282  62.967  95.037  1.00  0.00     0.267 C 
HETATM   11  N1  UNL     1     -86.300  63.842  96.193  1.00  0.00    -0.066 N 
HETATM   12  C2  UNL     1     -87.393  63.399  97.047  1.00  0.00     0.213 C 
ATOM     13  H12 UNL     1     -86.359  64.830  95.946  1.00  0.00     0.277 HD
ATOM     14  H11 UNL     1     -85.403  63.882  96.678  1.00  0.00     0.277 HD
HETATM   15  C1  UNL     1     -87.079  62.006  97.501  1.00  0.00     0.043 C 
HETATM   16  C13 UNL     1     -88.693  63.524  96.310  1.00  0.00     0.180 C 
BRANCH   9  17
HETATM   17  O1  UNL     1     -88.249  61.811  94.220  1.00  0.00    -0.337 OA
BRANCH  17  18
HETATM   18  C5  UNL     1     -87.613  60.598  94.074  1.00  0.00     0.219 C 
HETATM   19  N2  UNL     1     -87.551  60.060  92.915  1.00  0.00    -0.390 N 
ATOM     20  H22 UNL     1     -87.973  60.538  92.119  1.00  0.00     0.157 HD
ATOM     21  H21 UNL     1     -87.080  59.163  92.807  1.00  0.00     0.157 HD
ENDBRANCH  17  18
ENDBRANCH   9  17
BRANCH  16  22
HETATM   22  O6  UNL     1     -89.313  62.279  96.286  1.00  0.00    -0.391 OA
ATOM     23  H6  UNL     1     -90.074  62.308  96.852  1.00  0.00     0.210 HD
ENDBRANCH  16  22
ENDBRANCH   7   8
ENDBRANCH   1   7
BRANCH   6  24
HETATM   24  N4  UNL     1     -86.738  67.737  94.860  1.00  0.00    -0.068 N 
ATOM     25  H43 UNL     1     -86.201  67.305  95.612  1.00  0.00     0.275 HD
ATOM     26  H42 UNL     1     -86.444  67.138  94.089  1.00  0.00     0.275 HD
ATOM     27  H41 UNL     1     -86.453  68.705  94.709  1.00  0.00     0.275 HD
ENDBRANCH   6  24
BRANCH   3  28
HETATM   28  C9  UNL     1     -91.147  67.265  93.116  1.00  0.00     0.264 C 
BRANCH  28  29
HETATM   29  N3  UNL     1     -92.551  67.293  92.791  1.00  0.00    -0.077 N 
ATOM     30  H33 UNL     1     -93.110  67.459  93.628  1.00  0.00     0.274 HD
ATOM     31  H32 UNL     1     -92.779  68.134  92.261  1.00  0.00     0.274 HD
ATOM     32  H31 UNL     1     -92.880  66.461  92.300  1.00  0.00     0.274 HD
ENDBRANCH  28  29
ENDBRANCH   3  28
BRANCH   5  33
HETATM   33  O5  UNL     1     -88.473  70.000  94.997  1.00  0.00    -0.391 OA
ATOM     34  H5  UNL     1     -87.841  69.827  95.686  1.00  0.00     0.210 HD
ENDBRANCH   5  33
BRANCH   4  35
HETATM   35  O4  UNL     1     -91.144  69.612  94.554  1.00  0.00    -0.390 OA
ATOM     36  H4  UNL     1     -90.630  70.375  94.314  1.00  0.00     0.210 HD
ENDBRANCH   4  35
TORSDOF 10
ENDMDL
MODEL 2
REMARK VINA RESULT: -4.304655180      1.945      2.372
REMARK  10 active torsions:
REMARK  status: ('A' for Active; 'I' for Inactive)
REMARK    1  A    between atoms: C4_7  and  O1_8 
REMARK    2  A    between atoms: O1_8  and  C5_9 
REMARK    3  A    between atoms: C6_13  and  O2_14 
REMARK    4  A    between atoms: O2_14  and  C7_15 
REMARK    5  A    between atoms: C8_17  and  C9_18 
REMARK    6  A    between atoms: C9_18  and  N3_19 
REMARK    7  A    between atoms: C10_23  and  O4_24 
REMARK    8  A    between atoms: C11_26  and  O5_27 
REMARK    9  A    between atoms: C12_29  and  N4_30 
REMARK   10  A    between atoms: C13_34  and  O6_35 
ROOT
HETATM    1  C7  UNL     1     -90.776  65.289  94.699  1.00  0.00     0.294 C 
HETATM    2  O3  UNL     1     -92.060  64.963  95.118  1.00  0.00    -0.349 OA
HETATM    3  C8  UNL     1     -93.066  65.410  94.279  1.00  0.00     0.181 C 
HETATM    4  C10 UNL     1     -92.990  66.890  94.028  1.00  0.00     0.179 C 
HETATM    5  C11 UNL     1     -91.602  67.270  93.525  1.00  0.00     0.184 C 
HETATM    6  C12 UNL     1     -90.656  66.790  94.607  1.00  0.00     0.269 C 
ENDROOT
BRANCH   1   7
HETATM    7  O2  UNL     1     -89.869  64.881  95.668  1.00  0.00    -0.348 OA
BRANCH   7   8
HETATM    8  C6  UNL     1     -89.584  63.542  95.679  1.00  0.00     0.186 C 
HETATM    9  C4  UNL     1     -88.703  63.061  94.552  1.00  0.00     0.186 C 
HETATM   10  C3  UNL     1     -87.411  63.850  94.582  1.00  0.00     0.267 C 
HETATM   11  N1  UNL     1     -87.378  64.816  95.663  1.00  0.00    -0.066 N 
HETATM   12  C2  UNL     1     -87.460  64.065  96.908  1.00  0.00     0.213 C 
ATOM     13  H12 UNL     1     -88.097  65.535  95.580  1.00  0.00     0.277 HD
ATOM     14  H11 UNL     1     -86.569  65.436  95.621  1.00  0.00     0.277 HD
HETATM   15  C1  UNL     1     -86.241  63.199  96.998  1.00  0.00     0.043 C 
HETATM   16  C13 UNL     1     -88.753  63.308  96.958  1.00  0.00     0.180 C 
BRANCH   9  17
HETATM   17  O1  UNL     1     -88.461  61.675  94.780  1.00  0.00    -0.337 OA
BRANCH  17  18
HETATM   18  C5  UNL     1     -87.375  61.006  94.260  1.00  0.00     0.219 C 
HETATM   19  N2  UNL     1     -87.533  60.260  93.233  1.00  0.00    -0.390 N 
ATOM     20  H22 UNL     1     -88.461  60.172  92.816  1.00  0.00     0.157 HD
ATOM     21  H21 UNL     1     -86.730  59.765  92.848  1.00  0.00     0.157 HD
ENDBRANCH  17  18
ENDBRANCH   9  17
BRANCH  16  22
HETATM   22  O6  UNL     1     -88.472  61.958  97.133  1.00  0.00    -0.391 OA
ATOM     23  H6  UNL     1     -88.730  61.489  96.349  1.00  0.00     0.210 HD
ENDBRANCH  16  22
ENDBRANCH   7   8
ENDBRANCH   1   7
BRANCH   6  24
HETATM   24  N4  UNL     1     -89.308  67.202  94.384  1.00  0.00    -0.068 N 
ATOM     25  H43 UNL     1     -88.840  67.430  95.260  1.00  0.00     0.275 HD
ATOM     26  H42 UNL     1     -88.725  66.419  94.090  1.00  0.00     0.275 HD
ATOM     27  H41 UNL     1     -89.253  67.976  93.721  1.00  0.00     0.275 HD
ENDBRANCH   6  24
BRANCH   3  28
HETATM   28  C9  UNL     1     -93.097  64.683  92.967  1.00  0.00     0.264 C 
BRANCH  28  29
HETATM   29  N3  UNL     1     -93.873  63.468  92.989  1.00  0.00    -0.077 N 
ATOM     30  H33 UNL     1     -94.704  63.584  93.569  1.00  0.00     0.274 HD
ATOM     31  H32 UNL     1     -94.315  63.309  92.084  1.00  0.00     0.274 HD
ATOM     32  H31 UNL     1     -93.346  62.645  93.280  1.00  0.00     0.274 HD
ENDBRANCH  28  29
ENDBRANCH   3  28
BRANCH   5  33
HETATM   33  O5  UNL     1     -91.561  68.638  93.378  1.00  0.00    -0.391 OA
ATOM     34  H5  UNL     1     -90.929  68.982  93.999  1.00  0.00     0.210 HD
ENDBRANCH   5  33
BRANCH   4  35
HETATM   35  O4  UNL     1     -93.932  67.302  93.107  1.00  0.00    -0.390 OA
ATOM     36  H4  UNL     1     -93.866  68.233  92.927  1.00  0.00     0.210 HD
ENDBRANCH   4  35
TORSDOF 10
ENDMDL
MODEL 3
REMARK VINA RESULT: -4.087810101      2.819      5.095
REMARK  10 active torsions:
REMARK  status: ('A' for Active; 'I' for Inactive)
REMARK    1  A    between atoms: C4_7  and  O1_8 
REMARK    2  A    between atoms: O1_8  and  C5_9 
REMARK    3  A    between atoms: C6_13  and  O2_14 
REMARK    4  A    between atoms: O2_14  and  C7_15 
REMARK    5  A    between atoms: C8_17  and  C9_18 
REMARK    6  A    between atoms: C9_18  and  N3_19 
REMARK    7  A    between atoms: C10_23  and  O4_24 
REMARK    8  A    between atoms: C11_26  and  O5_27 
REMARK    9  A    between atoms: C12_29  and  N4_30 
REMARK   10  A    between atoms: C13_34  and  O6_35 
ROOT
HETATM    1  C7  UNL     1     -87.166  62.359  94.645  1.00  0.00     0.294 C 
HETATM    2  O3  UNL     1     -88.453  62.676  94.229  1.00  0.00    -0.349 OA
HETATM    3  C8  UNL     1     -88.989  63.798  94.834  1.00  0.00     0.181 C 
HETATM    4  C10 UNL     1     -88.964  63.710  96.335  1.00  0.00     0.179 C 
HETATM    5  C11 UNL     1     -87.552  63.406  96.822  1.00  0.00     0.184 C 
HETATM    6  C12 UNL     1     -87.179  62.109  96.132  1.00  0.00     0.269 C 
ENDROOT
BRANCH   1   7
HETATM    7  O2  UNL     1     -86.781  61.165  94.050  1.00  0.00    -0.348 OA
BRANCH   7   8
HETATM    8  C6  UNL     1     -87.379  60.040  94.550  1.00  0.00     0.186 C 
HETATM    9  C4  UNL     1     -88.184  59.240  93.554  1.00  0.00     0.186 C 
HETATM   10  C3  UNL     1     -87.278  58.858  92.402  1.00  0.00     0.267 C 
HETATM   11  N1  UNL     1     -85.924  59.346  92.578  1.00  0.00    -0.066 N 
HETATM   12  C2  UNL     1     -85.395  58.713  93.778  1.00  0.00     0.213 C 
ATOM     13  H12 UNL     1     -85.865  60.364  92.603  1.00  0.00     0.277 HD
ATOM     14  H11 UNL     1     -85.336  59.202  91.757  1.00  0.00     0.277 HD
HETATM   15  C1  UNL     1     -85.347  57.236  93.529  1.00  0.00     0.043 C 
HETATM   16  C13 UNL     1     -86.223  59.107  94.964  1.00  0.00     0.180 C 
BRANCH   9  17
HETATM   17  O1  UNL     1     -88.656  58.083  94.238  1.00  0.00    -0.337 OA
BRANCH  17  18
HETATM   18  C5  UNL     1     -88.917  56.888  93.604  1.00  0.00     0.219 C 
HETATM   19  N2  UNL     1     -88.558  55.794  94.160  1.00  0.00    -0.390 N 
ATOM     20  H22 UNL     1     -88.085  55.823  95.064  1.00  0.00     0.157 HD
ATOM     21  H21 UNL     1     -88.751  54.910  93.691  1.00  0.00     0.157 HD
ENDBRANCH  17  18
ENDBRANCH   9  17
BRANCH  16  22
HETATM   22  O6  UNL     1     -86.703  57.953  95.575  1.00  0.00    -0.391 OA
ATOM     23  H6  UNL     1     -86.615  58.048  96.515  1.00  0.00     0.210 HD
ENDBRANCH  16  22
ENDBRANCH   7   8
ENDBRANCH   1   7
BRANCH   6  24
HETATM   24  N4  UNL     1     -85.937  61.578  96.592  1.00  0.00    -0.068 N 
ATOM     25  H43 UNL     1     -85.427  61.118  95.838  1.00  0.00     0.275 HD
ATOM     26  H42 UNL     1     -85.271  62.321  96.804  1.00  0.00     0.275 HD
ATOM     27  H41 UNL     1     -86.062  60.953  97.389  1.00  0.00     0.275 HD
ENDBRANCH   6  24
BRANCH   3  28
HETATM   28  C9  UNL     1     -88.323  65.071  94.398  1.00  0.00     0.264 C 
BRANCH  28  29
HETATM   29  N3  UNL     1     -89.169  66.235  94.485  1.00  0.00    -0.077 N 
ATOM     30  H33 UNL     1     -89.033  66.838  93.674  1.00  0.00     0.274 HD
ATOM     31  H32 UNL     1     -90.146  65.978  94.348  1.00  0.00     0.274 HD
ATOM     32  H31 UNL     1     -89.056  66.765  95.350  1.00  0.00     0.274 HD
ENDBRANCH  28  29
ENDBRANCH   3  28
BRANCH   5  33
HETATM   33  O5  UNL     1     -87.594  63.265  98.191  1.00  0.00    -0.391 OA
ATOM     34  H5  UNL     1     -87.059  62.516  98.426  1.00  0.00     0.210 HD
ENDBRANCH   5  33
BRANCH   4  35
HETATM   35  O4  UNL     1     -89.402  64.879  96.923  1.00  0.00    -0.390 OA
ATOM     36  H4  UNL     1     -90.351  64.936  96.930  1.00  0.00     0.210 HD
ENDBRANCH   4  35
TORSDOF 10
ENDMDL
MODEL 4
REMARK VINA RESULT: -3.922235203      1.498      2.181
REMARK  10 active torsions:
REMARK  status: ('A' for Active; 'I' for Inactive)
REMARK    1  A    between atoms: C4_7  and  O1_8 
REMARK    2  A    between atoms: O1_8  and  C5_9 
REMARK    3  A    between atoms: C6_13  and  O2_14 
REMARK    4  A    between atoms: O2_14  and  C7_15 
REMARK    5  A    between atoms: C8_17  and  C9_18 
REMARK    6  A    between atoms: C9_18  and  N3_19 
REMARK    7  A    between atoms: C10_23  and  O4_24 
REMARK    8  A    between atoms: C11_26  and  O5_27 
REMARK    9  A    between atoms: C12_29  and  N4_30 
REMARK   10  A    between atoms: C13_34  and  O6_35 
ROOT
HETATM    1  C7  UNL     1     -88.952  66.953  94.726  1.00  0.00     0.294 C 
HETATM    2  O3  UNL     1     -90.298  66.958  95.067  1.00  0.00    -0.349 OA
HETATM    3  C8  UNL     1     -91.021  68.009  94.532  1.00  0.00     0.181 C 
HETATM    4  C10 UNL     1     -90.423  69.347  94.866  1.00  0.00     0.179 C 
HETATM    5  C11 UNL     1     -88.954  69.385  94.461  1.00  0.00     0.184 C 
HETATM    6  C12 UNL     1     -88.318  68.233  95.212  1.00  0.00     0.269 C 
ENDROOT
BRANCH   1   7
HETATM    7  O2  UNL     1     -88.318  65.920  95.403  1.00  0.00    -0.348 OA
BRANCH   7   8
HETATM    8  C6  UNL     1     -89.150  64.989  95.964  1.00  0.00     0.186 C 
HETATM    9  C4  UNL     1     -89.713  63.966  95.007  1.00  0.00     0.186 C 
HETATM   10  C3  UNL     1     -88.559  63.263  94.324  1.00  0.00     0.267 C 
HETATM   11  N1  UNL     1     -87.270  63.748  94.776  1.00  0.00    -0.066 N 
HETATM   12  C2  UNL     1     -87.178  63.455  96.199  1.00  0.00     0.213 C 
ATOM     13  H12 UNL     1     -87.114  64.733  94.559  1.00  0.00     0.277 HD
ATOM     14  H11 UNL     1     -86.489  63.371  94.239  1.00  0.00     0.277 HD
HETATM   15  C1  UNL     1     -87.216  61.966  96.360  1.00  0.00     0.043 C 
HETATM   16  C13 UNL     1     -88.267  64.178  96.935  1.00  0.00     0.180 C 
BRANCH   9  17
HETATM   17  O1  UNL     1     -90.482  63.052  95.784  1.00  0.00    -0.337 OA
BRANCH  17  18
HETATM   18  C5  UNL     1     -91.848  63.150  95.926  1.00  0.00     0.219 C 
HETATM   19  N2  UNL     1     -92.515  63.855  95.093  1.00  0.00    -0.390 N 
ATOM     20  H22 UNL     1     -92.024  64.333  94.337  1.00  0.00     0.157 HD
ATOM     21  H21 UNL     1     -93.526  63.928  95.198  1.00  0.00     0.157 HD
ENDBRANCH  17  18
ENDBRANCH   9  17
BRANCH  16  22
HETATM   22  O6  UNL     1     -89.022  63.247  97.641  1.00  0.00    -0.391 OA
ATOM     23  H6  UNL     1     -89.237  62.527  97.060  1.00  0.00     0.210 HD
ENDBRANCH  16  22
ENDBRANCH   7   8
ENDBRANCH   1   7
BRANCH   6  24
HETATM   24  N4  UNL     1     -86.897  68.206  95.080  1.00  0.00    -0.068 N 
ATOM     25  H43 UNL     1     -86.475  69.061  95.440  1.00  0.00     0.275 HD
ATOM     26  H42 UNL     1     -86.477  67.536  95.724  1.00  0.00     0.275 HD
ATOM     27  H41 UNL     1     -86.609  68.026  94.118  1.00  0.00     0.275 HD
ENDBRANCH   6  24
BRANCH   3  28
HETATM   28  C9  UNL     1     -91.195  67.898  93.045  1.00  0.00     0.264 C 
BRANCH  28  29
HETATM   29  N3  UNL     1     -92.444  67.299  92.645  1.00  0.00    -0.077 N 
ATOM     30  H33 UNL     1     -92.781  66.659  93.365  1.00  0.00     0.274 HD
ATOM     31  H32 UNL     1     -93.194  67.989  92.662  1.00  0.00     0.274 HD
ATOM     32  H31 UNL     1     -92.407  66.831  91.739  1.00  0.00     0.274 HD
ENDBRANCH  28  29
ENDBRANCH   3  28
BRANCH   5  33
HETATM   33  O5  UNL     1     -88.436  70.600  94.850  1.00  0.00    -0.391 OA
ATOM     34  H5  UNL     1     -88.159  70.524  95.756  1.00  0.00     0.210 HD
ENDBRANCH   5  33
BRANCH   4  35
HETATM   35  O4  UNL     1     -91.092  70.378  94.236  1.00  0.00    -0.390 OA
ATOM     36  H4  UNL     1     -91.310  70.158  93.338  1.00  0.00     0.210 HD
ENDBRANCH   4  35
TORSDOF 10
ENDMDL
MODEL 5
REMARK VINA RESULT: -3.634429003      1.786      6.344
REMARK  10 active torsions:
REMARK  status: ('A' for Active; 'I' for Inactive)
REMARK    1  A    between atoms: C4_7  and  O1_8 
REMARK    2  A    between atoms: O1_8  and  C5_9 
REMARK    3  A    between atoms: C6_13  and  O2_14 
REMARK    4  A    between atoms: O2_14  and  C7_15 
REMARK    5  A    between atoms: C8_17  and  C9_18 
REMARK    6  A    between atoms: C9_18  and  N3_19 
REMARK    7  A    between atoms: C10_23  and  O4_24 
REMARK    8  A    between atoms: C11_26  and  O5_27 
REMARK    9  A    between atoms: C12_29  and  N4_30 
REMARK   10  A    between atoms: C13_34  and  O6_35 
ROOT
HETATM    1  C7  UNL     1     -88.013  63.509  94.970  1.00  0.00     0.294 C 
HETATM    2  O3  UNL     1     -87.091  63.129  94.002  1.00  0.00    -0.349 OA
HETATM    3  C8  UNL     1     -86.748  61.789  94.036  1.00  0.00     0.181 C 
HETATM    4  C10 UNL     1     -86.251  61.357  95.387  1.00  0.00     0.179 C 
HETATM    5  C11 UNL     1     -87.265  61.723  96.464  1.00  0.00     0.184 C 
HETATM    6  C12 UNL     1     -87.438  63.223  96.334  1.00  0.00     0.269 C 
ENDROOT
BRANCH   1   7
HETATM    7  O2  UNL     1     -88.197  64.884  94.901  1.00  0.00    -0.348 OA
BRANCH   7   8
HETATM    8  C6  UNL     1     -89.412  65.291  94.422  1.00  0.00     0.186 C 
HETATM    9  C4  UNL     1     -90.497  65.445  95.460  1.00  0.00     0.186 C 
HETATM   10  C3  UNL     1     -90.018  66.423  96.512  1.00  0.00     0.267 C 
HETATM   11  N1  UNL     1     -88.691  66.933  96.230  1.00  0.00    -0.066 N 
HETATM   12  C2  UNL     1     -88.770  67.655  94.968  1.00  0.00     0.213 C 
ATOM     13  H12 UNL     1     -87.974  66.207  96.233  1.00  0.00     0.277 HD
ATOM     14  H11 UNL     1     -88.308  67.497  96.990  1.00  0.00     0.277 HD
HETATM   15  C1  UNL     1     -89.699  68.813  95.163  1.00  0.00     0.043 C 
HETATM   16  C13 UNL     1     -89.184  66.715  93.874  1.00  0.00     0.180 C 
BRANCH   9  17
HETATM   17  O1  UNL     1     -91.648  65.944  94.785  1.00  0.00    -0.337 OA
BRANCH  17  18
HETATM   18  C5  UNL     1     -92.683  65.136  94.367  1.00  0.00     0.219 C 
HETATM   19  N2  UNL     1     -93.630  65.643  93.673  1.00  0.00    -0.390 N 
ATOM     20  H22 UNL     1     -93.604  66.636  93.439  1.00  0.00     0.157 HD
ATOM     21  H21 UNL     1     -94.396  65.046  93.363  1.00  0.00     0.157 HD
ENDBRANCH  17  18
ENDBRANCH   9  17
BRANCH  16  22
HETATM   22  O6  UNL     1     -90.335  67.212  93.273  1.00  0.00    -0.391 OA
ATOM     23  H6  UNL     1     -90.600  66.615  92.584  1.00  0.00     0.210 HD
ENDBRANCH  16  22
ENDBRANCH   7   8
ENDBRANCH   1   7
BRANCH   6  24
HETATM   24  N4  UNL     1     -88.242  63.777  97.376  1.00  0.00    -0.068 N 
ATOM     25  H43 UNL     1     -88.134  64.790  97.428  1.00  0.00     0.275 HD
ATOM     26  H42 UNL     1     -89.233  63.734  97.142  1.00  0.00     0.275 HD
ATOM     27  H41 UNL     1     -88.052  63.337  98.276  1.00  0.00     0.275 HD
ENDBRANCH   6  24
BRANCH   3  28
HETATM   28  C9  UNL     1     -87.868  60.889  93.604  1.00  0.00     0.264 C 
BRANCH  28  29
HETATM   29  N3  UNL     1     -87.433  59.710  92.898  1.00  0.00    -0.077 N 
ATOM     30  H33 UNL     1     -86.454  59.796  92.626  1.00  0.00     0.274 HD
ATOM     31  H32 UNL     1     -87.367  58.915  93.534  1.00  0.00     0.274 HD
ATOM     32  H31 UNL     1     -88.010  59.474  92.090  1.00  0.00     0.274 HD
ENDBRANCH  28  29
ENDBRANCH   3  28
BRANCH   5  33
HETATM   33  O5  UNL     1     -86.735  61.372  97.686  1.00  0.00    -0.391 OA
ATOM     34  H5  UNL     1     -87.047  60.501  97.902  1.00  0.00     0.210 HD
ENDBRANCH   5  33
BRANCH   4  35
HETATM   35  O4  UNL     1     -86.015  59.997  95.434  1.00  0.00    -0.390 OA
ATOM     36  H4  UNL     1     -85.185  59.798  95.852  1.00  0.00     0.210 HD
ENDBRANCH   4  35
TORSDOF 10
ENDMDL
