MODEL 1
REMARK VINA RESULT: -7.706474166      0.000      0.000
REMARK  11 active torsions:
REMARK  status: ('A' for Active; 'I' for Inactive)
REMARK    1  A    between atoms: C1_2  and  O2_4 
REMARK    2  A    between atoms: O2_4  and  C2_5 
REMARK    3  A    between atoms: C2_5  and  C3_6 
REMARK    4  A    between atoms: C5_8  and  O3_9 
REMARK    5  A    between atoms: O3_9  and  C6_10 
REMARK    6  A    between atoms: C6_10  and  C7_11 
REMARK    7  A    between atoms: C8_13  and  O5_14 
REMARK    8  A    between atoms: C9_16  and  N2_17 
REMARK    9  A    between atoms: C10_21  and  O6_22 
REMARK   10  A    between atoms: C11_24  and  N3_25 
REMARK   11  A    between atoms: C12_29  and  O7_30 
ROOT
HETATM    1  C3  UNL     1     -90.262  64.659  95.772  1.00  0.00     0.151 C 
HETATM    2  C4  UNL     1     -89.956  63.324  95.209  1.00  0.00     0.068 C 
HETATM    3  C5  UNL     1     -88.538  63.010  94.911  1.00  0.00     0.159 C 
HETATM    4  C11 UNL     1     -87.543  64.080  95.263  1.00  0.00     0.266 C 
HETATM    5  C12 UNL     1     -88.203  65.439  95.021  1.00  0.00     0.290 C 
HETATM    6  O8  UNL     1     -89.222  65.530  95.927  1.00  0.00    -0.352 OA
ENDROOT
BRANCH   3   7
HETATM    7  O3  UNL     1     -88.228  61.782  95.456  1.00  0.00    -0.381 OA
BRANCH   7   8
HETATM    8  C6  UNL     1     -86.889  61.466  95.434  1.00  0.00     0.203 C 
BRANCH   8   9
HETATM    9  C7  UNL     1     -86.582  60.877  94.066  1.00  0.00     0.179 C 
HETATM   10  O4  UNL     1     -85.282  60.453  93.953  1.00  0.00    -0.349 OA
HETATM   11  C8  UNL     1     -85.250  59.081  94.008  1.00  0.00     0.290 C 
HETATM   12  C9  UNL     1     -86.497  58.691  93.220  1.00  0.00     0.269 C 
HETATM   13  C10 UNL     1     -87.486  59.724  93.729  1.00  0.00     0.184 C 
BRANCH  11  14
HETATM   14  O5  UNL     1     -85.372  58.619  95.298  1.00  0.00    -0.369 OA
ATOM     15  H5  UNL     1     -84.587  58.169  95.588  1.00  0.00     0.212 HD
ENDBRANCH  11  14
BRANCH  12  16
HETATM   16  N2  UNL     1     -86.232  58.978  91.835  1.00  0.00    -0.068 N 
ATOM     17  H23 UNL     1     -85.509  58.379  91.434  1.00  0.00     0.275 HD
ATOM     18  H22 UNL     1     -86.993  58.698  91.216  1.00  0.00     0.275 HD
ATOM     19  H21 UNL     1     -86.010  59.971  91.771  1.00  0.00     0.275 HD
ENDBRANCH  12  16
BRANCH  13  20
HETATM   20  O6  UNL     1     -88.472  60.025  92.825  1.00  0.00    -0.391 OA
ATOM     21  H6  UNL     1     -89.317  59.638  93.024  1.00  0.00     0.210 HD
ENDBRANCH  13  20
ENDBRANCH   8   9
ENDBRANCH   7   8
ENDBRANCH   3   7
BRANCH   4  22
HETATM   22  N3  UNL     1     -87.132  64.056  96.638  1.00  0.00    -0.068 N 
ATOM     23  H33 UNL     1     -87.648  64.749  97.180  1.00  0.00     0.275 HD
ATOM     24  H32 UNL     1     -87.457  63.204  97.096  1.00  0.00     0.275 HD
ATOM     25  H31 UNL     1     -86.127  64.174  96.768  1.00  0.00     0.275 HD
ENDBRANCH   4  22
BRANCH   1  26
HETATM   26  C2  UNL     1     -91.369  65.392  94.997  1.00  0.00     0.212 C 
BRANCH  26  27
HETATM   27  O2  UNL     1     -92.344  64.429  94.644  1.00  0.00    -0.304 OA
BRANCH  27  28
HETATM   28  C1  UNL     1     -93.330  64.637  93.715  1.00  0.00     0.372 C 
HETATM   29  N1  UNL     1     -93.832  65.924  93.409  1.00  0.00    -0.032 NA
HETATM   30  O1  UNL     1     -93.799  63.618  93.115  1.00  0.00    -0.242 OA
ENDBRANCH  27  28
ENDBRANCH  26  27
ENDBRANCH   1  26
BRANCH   5  31
HETATM   31  O7  UNL     1     -87.266  66.428  95.318  1.00  0.00    -0.369 OA
ATOM     32  H7  UNL     1     -87.617  67.260  95.021  1.00  0.00     0.212 HD
ENDBRANCH   5  31
TORSDOF 11
ENDMDL
MODEL 2
REMARK VINA RESULT: -7.558095913      0.949      1.756
REMARK  11 active torsions:
REMARK  status: ('A' for Active; 'I' for Inactive)
REMARK    1  A    between atoms: C1_2  and  O2_4 
REMARK    2  A    between atoms: O2_4  and  C2_5 
REMARK    3  A    between atoms: C2_5  and  C3_6 
REMARK    4  A    between atoms: C5_8  and  O3_9 
REMARK    5  A    between atoms: O3_9  and  C6_10 
REMARK    6  A    between atoms: C6_10  and  C7_11 
REMARK    7  A    between atoms: C8_13  and  O5_14 
REMARK    8  A    between atoms: C9_16  and  N2_17 
REMARK    9  A    between atoms: C10_21  and  O6_22 
REMARK   10  A    between atoms: C11_24  and  N3_25 
REMARK   11  A    between atoms: C12_29  and  O7_30 
ROOT
HETATM    1  C3  UNL     1     -90.190  64.585  95.795  1.00  0.00     0.151 C 
HETATM    2  C4  UNL     1     -89.870  63.308  95.118  1.00  0.00     0.068 C 
HETATM    3  C5  UNL     1     -88.459  63.068  94.730  1.00  0.00     0.159 C 
HETATM    4  C11 UNL     1     -87.483  64.145  95.113  1.00  0.00     0.266 C 
HETATM    5  C12 UNL     1     -88.199  65.493  95.007  1.00  0.00     0.290 C 
HETATM    6  O8  UNL     1     -89.173  65.479  95.966  1.00  0.00    -0.352 OA
ENDROOT
BRANCH   3   7
HETATM    7  O3  UNL     1     -88.082  61.815  95.164  1.00  0.00    -0.381 OA
BRANCH   7   8
HETATM    8  C6  UNL     1     -87.052  61.246  94.449  1.00  0.00     0.203 C 
BRANCH   8   9
HETATM    9  C7  UNL     1     -87.211  59.737  94.546  1.00  0.00     0.179 C 
HETATM   10  O4  UNL     1     -88.228  59.262  93.758  1.00  0.00    -0.349 OA
HETATM   11  C8  UNL     1     -87.692  58.642  92.656  1.00  0.00     0.290 C 
HETATM   12  C9  UNL     1     -86.469  57.938  93.237  1.00  0.00     0.269 C 
HETATM   13  C10 UNL     1     -85.948  59.008  94.178  1.00  0.00     0.184 C 
BRANCH  11  14
HETATM   14  O5  UNL     1     -87.277  59.552  91.711  1.00  0.00    -0.369 OA
ATOM     15  H5  UNL     1     -87.789  59.488  90.912  1.00  0.00     0.212 HD
ENDBRANCH  11  14
BRANCH  12  16
HETATM   16  N2  UNL     1     -86.950  56.842  94.036  1.00  0.00    -0.068 N 
ATOM     17  H23 UNL     1     -87.398  57.146  94.901  1.00  0.00     0.275 HD
ATOM     18  H22 UNL     1     -87.758  56.374  93.627  1.00  0.00     0.275 HD
ATOM     19  H21 UNL     1     -86.161  56.215  94.192  1.00  0.00     0.275 HD
ENDBRANCH  12  16
BRANCH  13  20
HETATM   20  O6  UNL     1     -85.256  58.503  95.248  1.00  0.00    -0.391 OA
ATOM     21  H6  UNL     1     -84.381  58.861  95.353  1.00  0.00     0.210 HD
ENDBRANCH  13  20
ENDBRANCH   8   9
ENDBRANCH   7   8
ENDBRANCH   3   7
BRANCH   4  22
HETATM   22  N3  UNL     1     -87.002  64.034  96.461  1.00  0.00    -0.068 N 
ATOM     23  H33 UNL     1     -87.460  63.260  96.944  1.00  0.00     0.275 HD
ATOM     24  H32 UNL     1     -86.039  63.697  96.473  1.00  0.00     0.275 HD
ATOM     25  H31 UNL     1     -87.089  64.896  96.999  1.00  0.00     0.275 HD
ENDBRANCH   4  22
BRANCH   1  26
HETATM   26  C2  UNL     1     -91.359  65.333  95.133  1.00  0.00     0.212 C 
BRANCH  26  27
HETATM   27  O2  UNL     1     -92.326  64.365  94.772  1.00  0.00    -0.304 OA
BRANCH  27  28
HETATM   28  C1  UNL     1     -93.307  64.570  93.836  1.00  0.00     0.372 C 
HETATM   29  N1  UNL     1     -93.830  65.852  93.545  1.00  0.00    -0.032 NA
HETATM   30  O1  UNL     1     -93.750  63.552  93.214  1.00  0.00    -0.242 OA
ENDBRANCH  27  28
ENDBRANCH  26  27
ENDBRANCH   1  26
BRANCH   5  31
HETATM   31  O7  UNL     1     -87.281  66.491  95.333  1.00  0.00    -0.369 OA
ATOM     32  H7  UNL     1     -87.581  67.302  94.940  1.00  0.00     0.212 HD
ENDBRANCH   5  31
TORSDOF 11
ENDMDL
MODEL 3
REMARK VINA RESULT: -7.547546881      1.579      1.704
REMARK  11 active torsions:
REMARK  status: ('A' for Active; 'I' for Inactive)
REMARK    1  A    between atoms: C1_2  and  O2_4 
REMARK    2  A    between atoms: O2_4  and  C2_5 
REMARK    3  A    between atoms: C2_5  and  C3_6 
REMARK    4  A    between atoms: C5_8  and  O3_9 
REMARK    5  A    between atoms: O3_9  and  C6_10 
REMARK    6  A    between atoms: C6_10  and  C7_11 
REMARK    7  A    between atoms: C8_13  and  O5_14 
REMARK    8  A    between atoms: C9_16  and  N2_17 
REMARK    9  A    between atoms: C10_21  and  O6_22 
REMARK   10  A    between atoms: C11_24  and  N3_25 
REMARK   11  A    between atoms: C12_29  and  O7_30 
ROOT
HETATM    1  C3  UNL     1     -90.275  64.908  95.589  1.00  0.00     0.151 C 
HETATM    2  C4  UNL     1     -90.013  63.568  95.015  1.00  0.00     0.068 C 
HETATM    3  C5  UNL     1     -88.601  63.181  94.782  1.00  0.00     0.159 C 
HETATM    4  C11 UNL     1     -87.568  64.189  95.204  1.00  0.00     0.266 C 
HETATM    5  C12 UNL     1     -88.141  65.586  94.957  1.00  0.00     0.290 C 
HETATM    6  O8  UNL     1     -89.198  65.717  95.813  1.00  0.00    -0.352 OA
ENDROOT
BRANCH   3   7
HETATM    7  O3  UNL     1     -88.387  61.928  95.316  1.00  0.00    -0.381 OA
BRANCH   7   8
HETATM    8  C6  UNL     1     -87.064  61.555  95.389  1.00  0.00     0.203 C 
BRANCH   8   9
HETATM    9  C7  UNL     1     -86.691  60.936  94.050  1.00  0.00     0.179 C 
HETATM   10  O4  UNL     1     -85.375  60.554  93.994  1.00  0.00    -0.349 OA
HETATM   11  C8  UNL     1     -85.300  59.186  94.091  1.00  0.00     0.290 C 
HETATM   12  C9  UNL     1     -86.506  58.730  93.275  1.00  0.00     0.269 C 
HETATM   13  C10 UNL     1     -87.545  59.744  93.718  1.00  0.00     0.184 C 
BRANCH  11  14
HETATM   14  O5  UNL     1     -85.452  58.758  95.390  1.00  0.00    -0.369 OA
ATOM     15  H5  UNL     1     -85.926  57.935  95.438  1.00  0.00     0.212 HD
ENDBRANCH  11  14
BRANCH  12  16
HETATM   16  N2  UNL     1     -86.203  58.985  91.892  1.00  0.00    -0.068 N 
ATOM     17  H23 UNL     1     -85.517  59.730  91.763  1.00  0.00     0.275 HD
ATOM     18  H22 UNL     1     -85.666  58.235  91.456  1.00  0.00     0.275 HD
ATOM     19  H21 UNL     1     -87.088  59.170  91.419  1.00  0.00     0.275 HD
ENDBRANCH  12  16
BRANCH  13  20
HETATM   20  O6  UNL     1     -88.509  59.986  92.773  1.00  0.00    -0.391 OA
ATOM     21  H6  UNL     1     -88.403  59.488  91.970  1.00  0.00     0.210 HD
ENDBRANCH  13  20
ENDBRANCH   8   9
ENDBRANCH   7   8
ENDBRANCH   3   7
BRANCH   4  22
HETATM   22  N3  UNL     1     -87.230  64.118  96.596  1.00  0.00    -0.068 N 
ATOM     23  H33 UNL     1     -87.623  63.277  97.020  1.00  0.00     0.275 HD
ATOM     24  H32 UNL     1     -86.235  63.921  96.716  1.00  0.00     0.275 HD
ATOM     25  H31 UNL     1     -87.498  64.947  97.126  1.00  0.00     0.275 HD
ENDBRANCH   4  22
BRANCH   1  26
HETATM   26  C2  UNL     1     -91.300  65.714  94.776  1.00  0.00     0.212 C 
BRANCH  26  27
HETATM   27  O2  UNL     1     -90.965  67.082  94.913  1.00  0.00    -0.304 OA
BRANCH  27  28
HETATM   28  C1  UNL     1     -91.298  68.051  94.002  1.00  0.00     0.372 C 
HETATM   29  N1  UNL     1     -90.884  69.398  94.135  1.00  0.00    -0.032 NA
HETATM   30  O1  UNL     1     -92.008  67.704  93.005  1.00  0.00    -0.242 OA
ENDBRANCH  27  28
ENDBRANCH  26  27
ENDBRANCH   1  26
BRANCH   5  31
HETATM   31  O7  UNL     1     -87.168  66.517  95.320  1.00  0.00    -0.369 OA
ATOM     32  H7  UNL     1     -87.491  66.996  96.074  1.00  0.00     0.212 HD
ENDBRANCH   5  31
TORSDOF 11
ENDMDL
MODEL 4
REMARK VINA RESULT: -7.214595314      2.869      4.281
REMARK  11 active torsions:
REMARK  status: ('A' for Active; 'I' for Inactive)
REMARK    1  A    between atoms: C1_2  and  O2_4 
REMARK    2  A    between atoms: O2_4  and  C2_5 
REMARK    3  A    between atoms: C2_5  and  C3_6 
REMARK    4  A    between atoms: C5_8  and  O3_9 
REMARK    5  A    between atoms: O3_9  and  C6_10 
REMARK    6  A    between atoms: C6_10  and  C7_11 
REMARK    7  A    between atoms: C8_13  and  O5_14 
REMARK    8  A    between atoms: C9_16  and  N2_17 
REMARK    9  A    between atoms: C10_21  and  O6_22 
REMARK   10  A    between atoms: C11_24  and  N3_25 
REMARK   11  A    between atoms: C12_29  and  O7_30 
ROOT
HETATM    1  C3  UNL     1     -91.038  67.703  94.271  1.00  0.00     0.151 C 
HETATM    2  C4  UNL     1     -89.829  66.902  93.968  1.00  0.00     0.068 C 
HETATM    3  C5  UNL     1     -88.517  67.450  94.385  1.00  0.00     0.159 C 
HETATM    4  C11 UNL     1     -88.559  68.758  95.125  1.00  0.00     0.266 C 
HETATM    5  C12 UNL     1     -89.707  69.590  94.551  1.00  0.00     0.290 C 
HETATM    6  O8  UNL     1     -90.855  68.918  94.866  1.00  0.00    -0.352 OA
ENDROOT
BRANCH   3   7
HETATM    7  O3  UNL     1     -87.816  66.471  95.057  1.00  0.00    -0.381 OA
BRANCH   7   8
HETATM    8  C6  UNL     1     -88.208  65.184  94.766  1.00  0.00     0.203 C 
BRANCH   8   9
HETATM    9  C7  UNL     1     -87.263  64.244  95.500  1.00  0.00     0.179 C 
HETATM   10  O4  UNL     1     -87.562  64.131  96.834  1.00  0.00    -0.349 OA
HETATM   11  C8  UNL     1     -88.160  62.916  97.060  1.00  0.00     0.290 C 
HETATM   12  C9  UNL     1     -87.382  61.988  96.131  1.00  0.00     0.269 C 
HETATM   13  C10 UNL     1     -87.254  62.865  94.900  1.00  0.00     0.184 C 
BRANCH  11  14
HETATM   14  O5  UNL     1     -89.483  62.920  96.683  1.00  0.00    -0.369 OA
ATOM     15  H5  UNL     1     -89.897  62.079  96.840  1.00  0.00     0.212 HD
ENDBRANCH  11  14
BRANCH  12  16
HETATM   16  N2  UNL     1     -86.069  61.826  96.696  1.00  0.00    -0.068 N 
ATOM     17  H23 UNL     1     -85.778  60.850  96.758  1.00  0.00     0.275 HD
ATOM     18  H22 UNL     1     -85.324  62.146  96.075  1.00  0.00     0.275 HD
ATOM     19  H21 UNL     1     -86.068  62.302  97.598  1.00  0.00     0.275 HD
ENDBRANCH  12  16
BRANCH  13  20
HETATM   20  O6  UNL     1     -86.145  62.586  94.144  1.00  0.00    -0.391 OA
ATOM     21  H6  UNL     1     -85.459  62.124  94.612  1.00  0.00     0.210 HD
ENDBRANCH  13  20
ENDBRANCH   8   9
ENDBRANCH   7   8
ENDBRANCH   3   7
BRANCH   4  22
HETATM   22  N3  UNL     1     -88.810  68.618  96.531  1.00  0.00    -0.068 N 
ATOM     23  H33 UNL     1     -89.021  69.523  96.952  1.00  0.00     0.275 HD
ATOM     24  H32 UNL     1     -89.698  68.142  96.693  1.00  0.00     0.275 HD
ATOM     25  H31 UNL     1     -88.055  68.153  97.037  1.00  0.00     0.275 HD
ENDBRANCH   4  22
BRANCH   1  26
HETATM   26  C2  UNL     1     -91.932  67.919  93.040  1.00  0.00     0.212 C 
BRANCH  26  27
HETATM   27  O2  UNL     1     -93.273  67.747  93.457  1.00  0.00    -0.304 OA
BRANCH  27  28
HETATM   28  C1  UNL     1     -94.053  66.673  93.116  1.00  0.00     0.372 C 
HETATM   29  N1  UNL     1     -93.594  65.337  93.200  1.00  0.00    -0.032 NA
HETATM   30  O1  UNL     1     -95.236  66.908  92.710  1.00  0.00    -0.242 OA
ENDBRANCH  27  28
ENDBRANCH  26  27
ENDBRANCH   1  26
BRANCH   5  31
HETATM   31  O7  UNL     1     -89.723  70.815  95.218  1.00  0.00    -0.369 OA
ATOM     32  H7  UNL     1     -89.527  70.650  96.133  1.00  0.00     0.212 HD
ENDBRANCH   5  31
TORSDOF 11
ENDMDL
MODEL 5
REMARK VINA RESULT: -7.059256032      2.311      3.092
REMARK  11 active torsions:
REMARK  status: ('A' for Active; 'I' for Inactive)
REMARK    1  A    between atoms: C1_2  and  O2_4 
REMARK    2  A    between atoms: O2_4  and  C2_5 
REMARK    3  A    between atoms: C2_5  and  C3_6 
REMARK    4  A    between atoms: C5_8  and  O3_9 
REMARK    5  A    between atoms: O3_9  and  C6_10 
REMARK    6  A    between atoms: C6_10  and  C7_11 
REMARK    7  A    between atoms: C8_13  and  O5_14 
REMARK    8  A    between atoms: C9_16  and  N2_17 
REMARK    9  A    between atoms: C10_21  and  O6_22 
REMARK   10  A    between atoms: C11_24  and  N3_25 
REMARK   11  A    between atoms: C12_29  and  O7_30 
ROOT
HETATM    1  C3  UNL     1     -91.671  65.663  94.923  1.00  0.00     0.151 C 
HETATM    2  C4  UNL     1     -90.396  64.911  94.851  1.00  0.00     0.068 C 
HETATM    3  C5  UNL     1     -89.148  65.687  94.659  1.00  0.00     0.159 C 
HETATM    4  C11 UNL     1     -89.307  67.181  94.606  1.00  0.00     0.266 C 
HETATM    5  C12 UNL     1     -90.639  67.491  93.920  1.00  0.00     0.290 C 
HETATM    6  O8  UNL     1     -91.613  67.016  94.754  1.00  0.00    -0.352 OA
ENDROOT
BRANCH   3   7
HETATM    7  O3  UNL     1     -88.218  65.274  95.590  1.00  0.00    -0.381 OA
BRANCH   7   8
HETATM    8  C6  UNL     1     -88.342  63.961  95.982  1.00  0.00     0.203 C 
BRANCH   8   9
HETATM    9  C7  UNL     1     -87.258  63.168  95.269  1.00  0.00     0.179 C 
HETATM   10  O4  UNL     1     -86.188  62.889  96.080  1.00  0.00    -0.349 OA
HETATM   11  C8  UNL     1     -86.232  61.565  96.443  1.00  0.00     0.290 C 
HETATM   12  C9  UNL     1     -86.715  60.888  95.164  1.00  0.00     0.269 C 
HETATM   13  C10 UNL     1     -87.777  61.873  94.709  1.00  0.00     0.184 C 
BRANCH  11  14
HETATM   14  O5  UNL     1     -87.151  61.340  97.443  1.00  0.00    -0.369 OA
ATOM     15  H5  UNL     1     -87.904  60.855  97.127  1.00  0.00     0.212 HD
ENDBRANCH  11  14
BRANCH  12  16
HETATM   16  N2  UNL     1     -85.631  60.942  94.220  1.00  0.00    -0.068 N 
ATOM     17  H23 UNL     1     -84.815  61.441  94.576  1.00  0.00     0.275 HD
ATOM     18  H22 UNL     1     -85.180  60.038  94.078  1.00  0.00     0.275 HD
ATOM     19  H21 UNL     1     -86.001  61.343  93.358  1.00  0.00     0.275 HD
ENDBRANCH  12  16
BRANCH  13  20
HETATM   20  O6  UNL     1     -87.968  61.881  93.351  1.00  0.00    -0.391 OA
ATOM     21  H6  UNL     1     -87.192  61.665  92.846  1.00  0.00     0.210 HD
ENDBRANCH  13  20
ENDBRANCH   8   9
ENDBRANCH   7   8
ENDBRANCH   3   7
BRANCH   4  22
HETATM   22  N3  UNL     1     -89.351  67.803  95.899  1.00  0.00    -0.068 N 
ATOM     23  H33 UNL     1     -90.316  67.962  96.190  1.00  0.00     0.275 HD
ATOM     24  H32 UNL     1     -89.059  67.147  96.624  1.00  0.00     0.275 HD
ATOM     25  H31 UNL     1     -88.811  68.666  95.957  1.00  0.00     0.275 HD
ENDBRANCH   4  22
BRANCH   1  26
HETATM   26  C2  UNL     1     -92.737  65.120  93.959  1.00  0.00     0.212 C 
BRANCH  26  27
HETATM   27  O2  UNL     1     -92.862  63.732  94.209  1.00  0.00    -0.304 OA
BRANCH  27  28
HETATM   28  C1  UNL     1     -93.585  63.199  95.244  1.00  0.00     0.372 C 
HETATM   29  N1  UNL     1     -93.047  62.242  96.137  1.00  0.00    -0.032 NA
HETATM   30  O1  UNL     1     -94.785  63.594  95.391  1.00  0.00    -0.242 OA
ENDBRANCH  27  28
ENDBRANCH  26  27
ENDBRANCH   1  26
BRANCH   5  31
HETATM   31  O7  UNL     1     -90.768  68.877  93.844  1.00  0.00    -0.369 OA
ATOM     32  H7  UNL     1     -89.925  69.260  94.056  1.00  0.00     0.212 HD
ENDBRANCH   5  31
TORSDOF 11
ENDMDL
