MODEL 1
REMARK VINA RESULT: -6.312089078      0.000      0.000
REMARK  7 active torsions:
REMARK  status: ('A' for Active; 'I' for Inactive)
REMARK    1  A    between atoms: O1_1  and  C1_3 
REMARK    2  A    between atoms: C1_3  and  C2_4 
REMARK    3  A    between atoms: C2_4  and  S1_5 
REMARK    4  A    between atoms: S1_5  and  C3_6 
REMARK    5  A    between atoms: C3_6  and  C4_7 
REMARK    6  A    between atoms: C4_7  and  N1_8 
REMARK    7  A    between atoms: N1_8  and  C5_10 
ROOT
HETATM    1  C5  UNL     1     -35.307  22.048  -5.004  1.00  0.00     0.090 C 
HETATM    2  N2  UNL     1     -36.187  21.360  -5.638  1.00  0.00    -0.347 N 
ATOM      3  H2  UNL     1     -35.982  20.540  -6.210  1.00  0.00     0.163 HD
HETATM    4  C6  UNL     1     -37.518  21.914  -5.427  1.00  0.00     0.290 C 
HETATM    5  N3  UNL     1     -38.160  21.445  -4.242  1.00  0.00    -0.086 NA
HETATM    6  N4  UNL     1     -38.791  22.547  -3.651  1.00  0.00    -0.019 NA
HETATM    7  N5  UNL     1     -38.277  23.697  -4.233  1.00  0.00    -0.035 NA
HETATM    8  N6  UNL     1     -37.229  23.306  -5.074  1.00  0.00    -0.171 NA
HETATM    9  C7  UNL     1     -36.021  23.133  -4.302  1.00  0.00     0.190 C 
ENDROOT
BRANCH   1  10
HETATM   10  N1  UNL     1     -33.895  21.852  -4.941  1.00  0.00    -0.378 N 
ATOM     11  H1  UNL     1     -33.359  21.897  -5.808  1.00  0.00     0.160 HD
BRANCH  10  12
HETATM   12  C4  UNL     1     -33.194  21.593  -3.714  1.00  0.00     0.131 C 
BRANCH  12  13
HETATM   13  C3  UNL     1     -33.610  20.296  -3.071  1.00  0.00     0.093 C 
BRANCH  13  14
HETATM   14  S1  UNL     1     -32.315  19.074  -3.497  1.00  0.00    -0.165 SA
BRANCH  14  15
HETATM   15  C2  UNL     1     -33.048  17.733  -4.511  1.00  0.00     0.100 C 
BRANCH  15  16
HETATM   16  C1  UNL     1     -34.233  18.365  -5.251  1.00  0.00     0.174 C 
BRANCH  16  17
HETATM   17  O1  UNL     1     -33.787  19.083  -6.341  1.00  0.00    -0.400 OA
ATOM     18  H1  UNL     1     -32.970  19.520  -6.134  1.00  0.00     0.209 HD
ENDBRANCH  16  17
ENDBRANCH  15  16
ENDBRANCH  14  15
ENDBRANCH  13  14
ENDBRANCH  12  13
ENDBRANCH  10  12
ENDBRANCH   1  10
TORSDOF 7
ENDMDL
MODEL 2
REMARK VINA RESULT: -6.262381209      1.313      1.576
REMARK  7 active torsions:
REMARK  status: ('A' for Active; 'I' for Inactive)
REMARK    1  A    between atoms: O1_1  and  C1_3 
REMARK    2  A    between atoms: C1_3  and  C2_4 
REMARK    3  A    between atoms: C2_4  and  S1_5 
REMARK    4  A    between atoms: S1_5  and  C3_6 
REMARK    5  A    between atoms: C3_6  and  C4_7 
REMARK    6  A    between atoms: C4_7  and  N1_8 
REMARK    7  A    between atoms: N1_8  and  C5_10 
ROOT
HETATM    1  C5  UNL     1     -35.018  22.516  -4.198  1.00  0.00     0.090 C 
HETATM    2  N2  UNL     1     -35.988  22.068  -4.911  1.00  0.00    -0.347 N 
ATOM      3  H2  UNL     1     -36.018  21.141  -5.336  1.00  0.00     0.163 HD
HETATM    4  C6  UNL     1     -37.041  23.069  -5.028  1.00  0.00     0.290 C 
HETATM    5  N3  UNL     1     -37.972  23.061  -3.946  1.00  0.00    -0.086 NA
HETATM    6  N4  UNL     1     -38.234  24.397  -3.617  1.00  0.00    -0.019 NA
HETATM    7  N5  UNL     1     -37.257  25.183  -4.213  1.00  0.00    -0.035 NA
HETATM    8  N6  UNL     1     -36.316  24.319  -4.784  1.00  0.00    -0.171 NA
HETATM    9  C7  UNL     1     -35.378  23.883  -3.776  1.00  0.00     0.190 C 
ENDROOT
BRANCH   1  10
HETATM   10  N1  UNL     1     -33.800  21.865  -3.839  1.00  0.00    -0.378 N 
ATOM     11  H1  UNL     1     -32.920  22.355  -4.003  1.00  0.00     0.160 HD
BRANCH  10  12
HETATM   12  C4  UNL     1     -33.755  20.552  -3.257  1.00  0.00     0.131 C 
BRANCH  12  13
HETATM   13  C3  UNL     1     -32.595  19.734  -3.761  1.00  0.00     0.093 C 
BRANCH  13  14
HETATM   14  S1  UNL     1     -33.318  18.352  -4.719  1.00  0.00    -0.165 SA
BRANCH  14  15
HETATM   15  C2  UNL     1     -34.837  18.926  -5.572  1.00  0.00     0.100 C 
BRANCH  15  16
HETATM   16  C1  UNL     1     -34.379  19.452  -6.937  1.00  0.00     0.174 C 
BRANCH  16  17
HETATM   17  O1  UNL     1     -33.986  20.770  -6.834  1.00  0.00    -0.400 OA
ATOM     18  H1  UNL     1     -33.040  20.826  -6.773  1.00  0.00     0.209 HD
ENDBRANCH  16  17
ENDBRANCH  15  16
ENDBRANCH  14  15
ENDBRANCH  13  14
ENDBRANCH  12  13
ENDBRANCH  10  12
ENDBRANCH   1  10
TORSDOF 7
ENDMDL
MODEL 3
REMARK VINA RESULT: -6.254007192      1.065      1.684
REMARK  7 active torsions:
REMARK  status: ('A' for Active; 'I' for Inactive)
REMARK    1  A    between atoms: O1_1  and  C1_3 
REMARK    2  A    between atoms: C1_3  and  C2_4 
REMARK    3  A    between atoms: C2_4  and  S1_5 
REMARK    4  A    between atoms: S1_5  and  C3_6 
REMARK    5  A    between atoms: C3_6  and  C4_7 
REMARK    6  A    between atoms: C4_7  and  N1_8 
REMARK    7  A    between atoms: N1_8  and  C5_10 
ROOT
HETATM    1  C5  UNL     1     -36.058  21.958  -4.768  1.00  0.00     0.090 C 
HETATM    2  N2  UNL     1     -36.757  22.883  -4.216  1.00  0.00    -0.347 N 
ATOM      3  H2  UNL     1     -36.371  23.718  -3.774  1.00  0.00     0.163 HD
HETATM    4  C6  UNL     1     -38.179  22.574  -4.308  1.00  0.00     0.290 C 
HETATM    5  N3  UNL     1     -38.784  22.992  -5.531  1.00  0.00    -0.086 NA
HETATM    6  N4  UNL     1     -39.642  21.963  -5.940  1.00  0.00    -0.019 NA
HETATM    7  N5  UNL     1     -39.322  20.826  -5.212  1.00  0.00    -0.035 NA
HETATM    8  N6  UNL     1     -38.175  21.117  -4.465  1.00  0.00    -0.171 NA
HETATM    9  C7  UNL     1     -37.000  20.947  -5.287  1.00  0.00     0.190 C 
ENDROOT
BRANCH   1  10
HETATM   10  N1  UNL     1     -34.640  21.868  -4.896  1.00  0.00    -0.378 N 
ATOM     11  H1  UNL     1     -34.236  21.856  -5.833  1.00  0.00     0.160 HD
BRANCH  10  12
HETATM   12  C4  UNL     1     -33.755  21.793  -3.767  1.00  0.00     0.131 C 
BRANCH  12  13
HETATM   13  C3  UNL     1     -33.839  20.469  -3.052  1.00  0.00     0.093 C 
BRANCH  13  14
HETATM   14  S1  UNL     1     -32.438  19.465  -3.665  1.00  0.00    -0.165 SA
BRANCH  14  15
HETATM   15  C2  UNL     1     -33.077  17.938  -4.455  1.00  0.00     0.100 C 
BRANCH  15  16
HETATM   16  C1  UNL     1     -34.195  18.391  -5.402  1.00  0.00     0.174 C 
BRANCH  16  17
HETATM   17  O1  UNL     1     -33.686  19.220  -6.379  1.00  0.00    -0.400 OA
ATOM     18  H1  UNL     1     -34.392  19.605  -6.884  1.00  0.00     0.209 HD
ENDBRANCH  16  17
ENDBRANCH  15  16
ENDBRANCH  14  15
ENDBRANCH  13  14
ENDBRANCH  12  13
ENDBRANCH  10  12
ENDBRANCH   1  10
TORSDOF 7
ENDMDL
MODEL 4
REMARK VINA RESULT: -6.067579099      1.488      1.715
REMARK  7 active torsions:
REMARK  status: ('A' for Active; 'I' for Inactive)
REMARK    1  A    between atoms: O1_1  and  C1_3 
REMARK    2  A    between atoms: C1_3  and  C2_4 
REMARK    3  A    between atoms: C2_4  and  S1_5 
REMARK    4  A    between atoms: S1_5  and  C3_6 
REMARK    5  A    between atoms: C3_6  and  C4_7 
REMARK    6  A    between atoms: C4_7  and  N1_8 
REMARK    7  A    between atoms: N1_8  and  C5_10 
ROOT
HETATM    1  C5  UNL     1     -36.213  21.604  -4.288  1.00  0.00     0.090 C 
HETATM    2  N2  UNL     1     -37.123  20.711  -4.138  1.00  0.00    -0.347 N 
ATOM      3  H2  UNL     1     -37.048  19.901  -3.522  1.00  0.00     0.163 HD
HETATM    4  C6  UNL     1     -38.281  21.017  -4.969  1.00  0.00     0.290 C 
HETATM    5  N3  UNL     1     -39.209  21.915  -4.363  1.00  0.00    -0.086 NA
HETATM    6  N4  UNL     1     -39.620  22.815  -5.354  1.00  0.00    -0.019 NA
HETATM    7  N5  UNL     1     -38.735  22.712  -6.418  1.00  0.00    -0.035 NA
HETATM    8  N6  UNL     1     -37.701  21.857  -6.020  1.00  0.00    -0.171 NA
HETATM    9  C7  UNL     1     -36.725  22.595  -5.253  1.00  0.00     0.190 C 
ENDROOT
BRANCH   1  10
HETATM   10  N1  UNL     1     -34.931  21.684  -3.665  1.00  0.00    -0.378 N 
ATOM     11  H1  UNL     1     -34.466  22.591  -3.625  1.00  0.00     0.160 HD
BRANCH  10  12
HETATM   12  C4  UNL     1     -34.266  20.547  -3.091  1.00  0.00     0.131 C 
BRANCH  12  13
HETATM   13  C3  UNL     1     -32.957  20.237  -3.770  1.00  0.00     0.093 C 
BRANCH  13  14
HETATM   14  S1  UNL     1     -33.205  18.663  -4.669  1.00  0.00    -0.165 SA
BRANCH  14  15
HETATM   15  C2  UNL     1     -34.709  18.782  -5.711  1.00  0.00     0.100 C 
BRANCH  15  16
HETATM   16  C1  UNL     1     -34.275  19.494  -6.998  1.00  0.00     0.174 C 
BRANCH  16  17
HETATM   17  O1  UNL     1     -34.071  20.835  -6.755  1.00  0.00    -0.400 OA
ATOM     18  H1  UNL     1     -33.740  20.963  -5.874  1.00  0.00     0.209 HD
ENDBRANCH  16  17
ENDBRANCH  15  16
ENDBRANCH  14  15
ENDBRANCH  13  14
ENDBRANCH  12  13
ENDBRANCH  10  12
ENDBRANCH   1  10
TORSDOF 7
ENDMDL
MODEL 5
REMARK VINA RESULT: -6.030555741      1.858      2.704
REMARK  7 active torsions:
REMARK  status: ('A' for Active; 'I' for Inactive)
REMARK    1  A    between atoms: O1_1  and  C1_3 
REMARK    2  A    between atoms: C1_3  and  C2_4 
REMARK    3  A    between atoms: C2_4  and  S1_5 
REMARK    4  A    between atoms: S1_5  and  C3_6 
REMARK    5  A    between atoms: C3_6  and  C4_7 
REMARK    6  A    between atoms: C4_7  and  N1_8 
REMARK    7  A    between atoms: N1_8  and  C5_10 
ROOT
HETATM    1  C5  UNL     1     -36.439  20.626  -5.565  1.00  0.00     0.090 C 
HETATM    2  N2  UNL     1     -36.411  21.832  -6.004  1.00  0.00    -0.347 N 
ATOM      3  H2  UNL     1     -35.859  22.147  -6.803  1.00  0.00     0.163 HD
HETATM    4  C6  UNL     1     -37.278  22.688  -5.204  1.00  0.00     0.290 C 
HETATM    5  N3  UNL     1     -38.644  22.680  -5.619  1.00  0.00    -0.086 NA
HETATM    6  N4  UNL     1     -39.427  22.642  -4.460  1.00  0.00    -0.019 NA
HETATM    7  N5  UNL     1     -38.605  22.284  -3.400  1.00  0.00    -0.035 NA
HETATM    8  N6  UNL     1     -37.352  21.962  -3.934  1.00  0.00    -0.171 NA
HETATM    9  C7  UNL     1     -37.361  20.600  -4.413  1.00  0.00     0.190 C 
ENDROOT
BRANCH   1  10
HETATM   10  N1  UNL     1     -35.742  19.481  -6.055  1.00  0.00    -0.378 N 
ATOM     11  H1  UNL     1     -36.286  18.705  -6.434  1.00  0.00     0.160 HD
BRANCH  10  12
HETATM   12  C4  UNL     1     -34.310  19.371  -6.039  1.00  0.00     0.131 C 
BRANCH  12  13
HETATM   13  C3  UNL     1     -33.810  18.464  -4.944  1.00  0.00     0.093 C 
BRANCH  13  14
HETATM   14  S1  UNL     1     -32.803  19.511  -3.831  1.00  0.00    -0.165 SA
BRANCH  14  15
HETATM   15  C2  UNL     1     -33.854  20.832  -3.113  1.00  0.00     0.100 C 
BRANCH  15  16
HETATM   16  C1  UNL     1     -33.459  22.124  -3.838  1.00  0.00     0.174 C 
BRANCH  16  17
HETATM   17  O1  UNL     1     -33.790  23.221  -3.072  1.00  0.00    -0.400 OA
ATOM     18  H1  UNL     1     -33.654  24.020  -3.566  1.00  0.00     0.209 HD
ENDBRANCH  16  17
ENDBRANCH  15  16
ENDBRANCH  14  15
ENDBRANCH  13  14
ENDBRANCH  12  13
ENDBRANCH  10  12
ENDBRANCH   1  10
TORSDOF 7
ENDMDL
