MODEL 1
REMARK VINA RESULT: -6.926606873      0.000      0.000
REMARK  8 active torsions:
REMARK  status: ('A' for Active; 'I' for Inactive)
REMARK    1  A    between atoms: C2_2  and  C3_4 
REMARK    2  A    between atoms: C4_5  and  C5_6 
REMARK    3  A    between atoms: C5_6  and  S1_9 
REMARK    4  A    between atoms: S1_9  and  C8_12 
REMARK    5  A    between atoms: C8_12  and  C9_13 
REMARK    6  A    between atoms: C9_13  and  C10_14 
REMARK    7  A    between atoms: C10_14  and  N1_15 
REMARK    8  A    between atoms: N1_15  and  C11_17 
ROOT
HETATM    1  C8  UNL     1     -21.988 -44.081  22.109  1.00  0.00     0.108 C 
ENDROOT
BRANCH   1   2
HETATM    2  S1  UNL     1     -20.861 -42.970  21.480  1.00  0.00     0.184 S 
HETATM    3  O1  UNL     1     -21.119 -42.909  19.941  1.00  0.00    -0.222 OA
HETATM    4  O2  UNL     1     -19.449 -43.631  21.492  1.00  0.00    -0.222 OA
BRANCH   2   5
HETATM    5  C5  UNL     1     -20.729 -41.331  22.011  1.00  0.00     0.123 C 
HETATM    6  C6  UNL     1     -19.301 -40.766  21.881  1.00  0.00     0.046 C 
HETATM    7  C7  UNL     1     -21.668 -40.356  21.403  1.00  0.00     0.046 C 
BRANCH   5   8
HETATM    8  C4  UNL     1     -20.956 -41.390  23.521  1.00  0.00    -0.079 C 
HETATM    9  C3  UNL     1     -21.123 -41.455  24.707  1.00  0.00    -0.085 C 
BRANCH   9  10
HETATM   10  C2  UNL     1     -21.321 -41.560  26.151  1.00  0.00     0.157 C 
HETATM   11  C1  UNL     1     -20.454 -42.667  26.743  1.00  0.00     0.040 C 
HETATM   12 CL1  UNL     1     -23.034 -41.959  26.404  1.00  0.00    -0.112 Cl
ENDBRANCH   9  10
ENDBRANCH   5   8
ENDBRANCH   2   5
ENDBRANCH   1   2
BRANCH   1  13
HETATM   13  C9  UNL     1     -21.720 -45.251  22.918  1.00  0.00     0.004 C 
BRANCH  13  14
HETATM   14  C10 UNL     1     -21.608 -45.180  24.396  1.00  0.00     0.149 C 
BRANCH  14  15
HETATM   15  N1  UNL     1     -22.486 -46.174  25.038  1.00  0.00    -0.373 N 
ATOM     16  H1  UNL     1     -23.159 -46.682  24.464  1.00  0.00     0.161 HD
BRANCH  15  17
HETATM   17  C11 UNL     1     -22.432 -46.419  26.283  1.00  0.00     0.100 A 
HETATM   18  C12 UNL     1     -22.844 -45.548  27.279  1.00  0.00     0.048 A 
HETATM   19  C13 UNL     1     -22.751 -45.895  28.611  1.00  0.00     0.005 A 
HETATM   20  C14 UNL     1     -22.249 -47.109  28.967  1.00  0.00     0.017 A 
HETATM   21  C15 UNL     1     -21.836 -47.982  27.963  1.00  0.00     0.089 A 
HETATM   22  N2  UNL     1     -21.941 -47.611  26.668  1.00  0.00    -0.353 N 
ATOM     23  H2  UNL     1     -21.633 -48.265  25.949  1.00  0.00     0.166 HD
ENDBRANCH  15  17
ENDBRANCH  14  15
ENDBRANCH  13  14
ENDBRANCH   1  13
TORSDOF 8
ENDMDL
MODEL 2
REMARK VINA RESULT: -6.908686477      1.021      1.070
REMARK  8 active torsions:
REMARK  status: ('A' for Active; 'I' for Inactive)
REMARK    1  A    between atoms: C2_2  and  C3_4 
REMARK    2  A    between atoms: C4_5  and  C5_6 
REMARK    3  A    between atoms: C5_6  and  S1_9 
REMARK    4  A    between atoms: S1_9  and  C8_12 
REMARK    5  A    between atoms: C8_12  and  C9_13 
REMARK    6  A    between atoms: C9_13  and  C10_14 
REMARK    7  A    between atoms: C10_14  and  N1_15 
REMARK    8  A    between atoms: N1_15  and  C11_17 
ROOT
HETATM    1  C8  UNL     1     -21.908 -44.125  22.333  1.00  0.00     0.108 C 
ENDROOT
BRANCH   1   2
HETATM    2  S1  UNL     1     -20.810 -43.078  21.560  1.00  0.00     0.184 S 
HETATM    3  O1  UNL     1     -21.127 -43.163  20.033  1.00  0.00    -0.222 OA
HETATM    4  O2  UNL     1     -19.396 -43.735  21.580  1.00  0.00    -0.222 OA
BRANCH   2   5
HETATM    5  C5  UNL     1     -20.664 -41.396  21.928  1.00  0.00     0.123 C 
HETATM    6  C6  UNL     1     -19.237 -40.853  21.721  1.00  0.00     0.046 C 
HETATM    7  C7  UNL     1     -21.611 -40.480  21.246  1.00  0.00     0.046 C 
BRANCH   5   8
HETATM    8  C4  UNL     1     -20.865 -41.309  23.441  1.00  0.00    -0.079 C 
HETATM    9  C3  UNL     1     -21.044 -41.246  24.625  1.00  0.00    -0.085 C 
BRANCH   9  10
HETATM   10  C2  UNL     1     -21.287 -41.162  26.064  1.00  0.00     0.157 C 
HETATM   11  C1  UNL     1     -22.529 -41.957  26.455  1.00  0.00     0.040 C 
HETATM   12 CL1  UNL     1     -21.550 -39.444  26.439  1.00  0.00    -0.112 Cl
ENDBRANCH   9  10
ENDBRANCH   5   8
ENDBRANCH   2   5
ENDBRANCH   1   2
BRANCH   1  13
HETATM   13  C9  UNL     1     -22.039 -45.556  22.159  1.00  0.00     0.004 C 
BRANCH  13  14
HETATM   14  C10 UNL     1     -21.614 -46.520  23.203  1.00  0.00     0.149 C 
BRANCH  14  15
HETATM   15  N1  UNL     1     -22.654 -46.670  24.236  1.00  0.00    -0.373 N 
ATOM     16  H1  UNL     1     -23.617 -46.843  23.945  1.00  0.00     0.161 HD
BRANCH  15  17
HETATM   17  C11 UNL     1     -22.393 -46.593  25.476  1.00  0.00     0.100 A 
HETATM   18  C12 UNL     1     -22.788 -45.554  26.303  1.00  0.00     0.048 A 
HETATM   19  C13 UNL     1     -22.460 -45.547  27.644  1.00  0.00     0.005 A 
HETATM   20  C14 UNL     1     -21.739 -46.572  28.175  1.00  0.00     0.017 A 
HETATM   21  C15 UNL     1     -21.343 -47.614  27.340  1.00  0.00     0.089 A 
HETATM   22  N2  UNL     1     -21.681 -47.589  26.032  1.00  0.00    -0.353 N 
ATOM     23  H2  UNL     1     -21.382 -48.362  25.438  1.00  0.00     0.166 HD
ENDBRANCH  15  17
ENDBRANCH  14  15
ENDBRANCH  13  14
ENDBRANCH   1  13
TORSDOF 8
ENDMDL
MODEL 3
REMARK VINA RESULT: -6.842467950      2.728      3.792
REMARK  8 active torsions:
REMARK  status: ('A' for Active; 'I' for Inactive)
REMARK    1  A    between atoms: C2_2  and  C3_4 
REMARK    2  A    between atoms: C4_5  and  C5_6 
REMARK    3  A    between atoms: C5_6  and  S1_9 
REMARK    4  A    between atoms: S1_9  and  C8_12 
REMARK    5  A    between atoms: C8_12  and  C9_13 
REMARK    6  A    between atoms: C9_13  and  C10_14 
REMARK    7  A    between atoms: C10_14  and  N1_15 
REMARK    8  A    between atoms: N1_15  and  C11_17 
ROOT
HETATM    1  C8  UNL     1     -21.674 -44.247  26.677  1.00  0.00     0.108 C 
ENDROOT
BRANCH   1   2
HETATM    2  S1  UNL     1     -21.360 -45.183  25.290  1.00  0.00     0.184 S 
HETATM    3  O1  UNL     1     -22.599 -46.114  25.099  1.00  0.00    -0.222 OA
HETATM    4  O2  UNL     1     -20.274 -46.247  25.640  1.00  0.00    -0.222 OA
BRANCH   2   5
HETATM    5  C5  UNL     1     -21.019 -44.511  23.735  1.00  0.00     0.123 C 
HETATM    6  C6  UNL     1     -19.597 -44.830  23.236  1.00  0.00     0.046 C 
HETATM    7  C7  UNL     1     -21.974 -44.834  22.645  1.00  0.00     0.046 C 
BRANCH   5   8
HETATM    8  C4  UNL     1     -20.990 -43.000  23.961  1.00  0.00    -0.079 C 
HETATM    9  C3  UNL     1     -20.954 -41.812  24.120  1.00  0.00    -0.085 C 
BRANCH   9  10
HETATM   10  C2  UNL     1     -20.889 -40.363  24.302  1.00  0.00     0.157 C 
HETATM   11  C1  UNL     1     -21.704 -39.927  25.517  1.00  0.00     0.040 C 
HETATM   12 CL1  UNL     1     -21.583 -39.632  22.838  1.00  0.00    -0.112 Cl
ENDBRANCH   9  10
ENDBRANCH   5   8
ENDBRANCH   2   5
ENDBRANCH   1   2
BRANCH   1  13
HETATM   13  C9  UNL     1     -22.748 -44.416  27.634  1.00  0.00     0.004 C 
BRANCH  13  14
HETATM   14  C10 UNL     1     -22.757 -45.522  28.623  1.00  0.00     0.149 C 
BRANCH  14  15
HETATM   15  N1  UNL     1     -23.213 -46.779  28.003  1.00  0.00    -0.373 N 
ATOM     16  H1  UNL     1     -24.023 -46.758  27.383  1.00  0.00     0.161 HD
BRANCH  15  17
HETATM   17  C11 UNL     1     -22.631 -47.888  28.214  1.00  0.00     0.100 A 
HETATM   18  C12 UNL     1     -22.744 -48.630  29.379  1.00  0.00     0.048 A 
HETATM   19  C13 UNL     1     -22.076 -49.829  29.527  1.00  0.00     0.005 A 
HETATM   20  C14 UNL     1     -21.291 -50.301  28.520  1.00  0.00     0.017 A 
HETATM   21  C15 UNL     1     -21.180 -49.551  27.352  1.00  0.00     0.089 A 
HETATM   22  N2  UNL     1     -21.847 -48.382  27.240  1.00  0.00    -0.353 N 
ATOM     23  H2  UNL     1     -21.752 -47.849  26.375  1.00  0.00     0.166 HD
ENDBRANCH  15  17
ENDBRANCH  14  15
ENDBRANCH  13  14
ENDBRANCH   1  13
TORSDOF 8
ENDMDL
MODEL 4
REMARK VINA RESULT: -6.839287931      2.459      3.235
REMARK  8 active torsions:
REMARK  status: ('A' for Active; 'I' for Inactive)
REMARK    1  A    between atoms: C2_2  and  C3_4 
REMARK    2  A    between atoms: C4_5  and  C5_6 
REMARK    3  A    between atoms: C5_6  and  S1_9 
REMARK    4  A    between atoms: S1_9  and  C8_12 
REMARK    5  A    between atoms: C8_12  and  C9_13 
REMARK    6  A    between atoms: C9_13  and  C10_14 
REMARK    7  A    between atoms: C10_14  and  N1_15 
REMARK    8  A    between atoms: N1_15  and  C11_17 
ROOT
HETATM    1  C8  UNL     1     -20.918 -43.782  26.258  1.00  0.00     0.108 C 
ENDROOT
BRANCH   1   2
HETATM    2  S1  UNL     1     -20.514 -44.544  24.790  1.00  0.00     0.184 S 
HETATM    3  O1  UNL     1     -21.326 -45.877  24.750  1.00  0.00    -0.222 OA
HETATM    4  O2  UNL     1     -19.066 -45.112  24.904  1.00  0.00    -0.222 OA
BRANCH   2   5
HETATM    5  C5  UNL     1     -20.718 -43.810  23.239  1.00  0.00     0.123 C 
HETATM    6  C6  UNL     1     -19.474 -43.939  22.339  1.00  0.00     0.046 C 
HETATM    7  C7  UNL     1     -21.903 -44.233  22.452  1.00  0.00     0.046 C 
BRANCH   5   8
HETATM    8  C4  UNL     1     -20.801 -42.311  23.524  1.00  0.00    -0.079 C 
HETATM    9  C3  UNL     1     -20.879 -41.138  23.766  1.00  0.00    -0.085 C 
BRANCH   9  10
HETATM   10  C2  UNL     1     -20.996 -39.714  24.071  1.00  0.00     0.157 C 
HETATM   11  C1  UNL     1     -21.659 -39.499  25.429  1.00  0.00     0.040 C 
HETATM   12 CL1  UNL     1     -22.017 -39.002  22.803  1.00  0.00    -0.112 Cl
ENDBRANCH   9  10
ENDBRANCH   5   8
ENDBRANCH   2   5
ENDBRANCH   1   2
BRANCH   1  13
HETATM   13  C9  UNL     1     -22.241 -43.520  26.784  1.00  0.00     0.004 C 
BRANCH  13  14
HETATM   14  C10 UNL     1     -22.878 -44.403  27.793  1.00  0.00     0.149 C 
BRANCH  14  15
HETATM   15  N1  UNL     1     -23.053 -45.766  27.262  1.00  0.00    -0.373 N 
ATOM     16  H1  UNL     1     -23.553 -45.893  26.382  1.00  0.00     0.161 HD
BRANCH  15  17
HETATM   17  C11 UNL     1     -22.603 -46.790  27.864  1.00  0.00     0.100 A 
HETATM   18  C12 UNL     1     -23.335 -47.580  28.736  1.00  0.00     0.048 A 
HETATM   19  C13 UNL     1     -22.767 -48.677  29.350  1.00  0.00     0.005 A 
HETATM   20  C14 UNL     1     -21.468 -49.001  29.103  1.00  0.00     0.017 A 
HETATM   21  C15 UNL     1     -20.736 -48.204  28.226  1.00  0.00     0.089 A 
HETATM   22  N2  UNL     1     -21.323 -47.137  27.642  1.00  0.00    -0.353 N 
ATOM     23  H2  UNL     1     -20.769 -46.567  27.003  1.00  0.00     0.166 HD
ENDBRANCH  15  17
ENDBRANCH  14  15
ENDBRANCH  13  14
ENDBRANCH   1  13
TORSDOF 8
ENDMDL
MODEL 5
REMARK VINA RESULT: -6.803834179      2.498      3.292
REMARK  8 active torsions:
REMARK  status: ('A' for Active; 'I' for Inactive)
REMARK    1  A    between atoms: C2_2  and  C3_4 
REMARK    2  A    between atoms: C4_5  and  C5_6 
REMARK    3  A    between atoms: C5_6  and  S1_9 
REMARK    4  A    between atoms: S1_9  and  C8_12 
REMARK    5  A    between atoms: C8_12  and  C9_13 
REMARK    6  A    between atoms: C9_13  and  C10_14 
REMARK    7  A    between atoms: C10_14  and  N1_15 
REMARK    8  A    between atoms: N1_15  and  C11_17 
ROOT
HETATM    1  C8  UNL     1     -20.938 -43.803  26.264  1.00  0.00     0.108 C 
ENDROOT
BRANCH   1   2
HETATM    2  S1  UNL     1     -20.608 -44.581  24.786  1.00  0.00     0.184 S 
HETATM    3  O1  UNL     1     -21.545 -45.829  24.729  1.00  0.00    -0.222 OA
HETATM    4  O2  UNL     1     -19.221 -45.288  24.893  1.00  0.00    -0.222 OA
BRANCH   2   5
HETATM    5  C5  UNL     1     -20.737 -43.810  23.245  1.00  0.00     0.123 C 
HETATM    6  C6  UNL     1     -19.460 -43.942  22.393  1.00  0.00     0.046 C 
HETATM    7  C7  UNL     1     -21.896 -44.196  22.402  1.00  0.00     0.046 C 
BRANCH   5   8
HETATM    8  C4  UNL     1     -20.807 -42.317  23.560  1.00  0.00    -0.079 C 
HETATM    9  C3  UNL     1     -20.880 -41.148  23.821  1.00  0.00    -0.085 C 
BRANCH   9  10
HETATM   10  C2  UNL     1     -20.993 -39.727  24.143  1.00  0.00     0.157 C 
HETATM   11  C1  UNL     1     -21.629 -39.527  25.515  1.00  0.00     0.040 C 
HETATM   12 CL1  UNL     1     -22.039 -39.003  22.901  1.00  0.00    -0.112 Cl
ENDBRANCH   9  10
ENDBRANCH   5   8
ENDBRANCH   2   5
ENDBRANCH   1   2
BRANCH   1  13
HETATM   13  C9  UNL     1     -22.234 -43.524  26.846  1.00  0.00     0.004 C 
BRANCH  13  14
HETATM   14  C10 UNL     1     -22.825 -44.380  27.905  1.00  0.00     0.149 C 
BRANCH  14  15
HETATM   15  N1  UNL     1     -23.053 -45.749  27.407  1.00  0.00    -0.373 N 
ATOM     16  H1  UNL     1     -23.567 -45.877  26.535  1.00  0.00     0.161 HD
BRANCH  15  17
HETATM   17  C11 UNL     1     -22.632 -46.774  28.028  1.00  0.00     0.100 A 
HETATM   18  C12 UNL     1     -21.298 -47.122  28.165  1.00  0.00     0.048 A 
HETATM   19  C13 UNL     1     -20.925 -48.256  28.857  1.00  0.00     0.005 A 
HETATM   20  C14 UNL     1     -21.874 -49.054  29.419  1.00  0.00     0.017 A 
HETATM   21  C15 UNL     1     -23.214 -48.701  29.279  1.00  0.00     0.089 A 
HETATM   22  N2  UNL     1     -23.544 -47.583  28.595  1.00  0.00    -0.353 N 
ATOM     23  H2  UNL     1     -24.531 -47.343  28.505  1.00  0.00     0.166 HD
ENDBRANCH  15  17
ENDBRANCH  14  15
ENDBRANCH  13  14
ENDBRANCH   1  13
TORSDOF 8
ENDMDL
