MODEL 1
REMARK VINA RESULT: -7.392667579      0.000      0.000
REMARK  6 active torsions:
REMARK  status: ('A' for Active; 'I' for Inactive)
REMARK    1  A    between atoms: N1_2  and  C3_4 
REMARK    2  A    between atoms: C3_4  and  C4_5 
REMARK    3  A    between atoms: C4_5  and  C5_6 
REMARK       I    between atoms: C5_6  and  N2_8 
REMARK    4  A    between atoms: N2_8  and  C6_10 
REMARK       I    between atoms: N3_13  and  C9_14 
REMARK    5  A    between atoms: C9_14  and  C10_16 
REMARK    6  A    between atoms: C15_21  and  C16_22 
ROOT
HETATM    1  C6  UNL     1     -21.467 -43.523  26.557  1.00  0.00     0.092 C 
HETATM    2  C7  UNL     1     -21.189 -42.130  27.101  1.00  0.00     0.045 C 
HETATM    3  C8  UNL     1     -21.440 -41.164  25.994  1.00  0.00     0.128 C 
HETATM    4  N3  UNL     1     -21.074 -41.606  24.664  1.00  0.00    -0.351 N 
HETATM    5  C9  UNL     1     -21.096 -40.602  23.607  1.00  0.00     0.227 C 
HETATM    6  O2  UNL     1     -21.438 -39.407  23.906  1.00  0.00    -0.273 OA
HETATM    7  C14 UNL     1     -20.715 -42.954  24.329  1.00  0.00     0.133 C 
HETATM    8  C15 UNL     1     -20.362 -43.743  25.563  1.00  0.00     0.040 C 
ENDROOT
BRANCH   1   9
HETATM    9  N2  UNL     1     -21.568 -44.517  27.568  1.00  0.00    -0.356 N 
HETATM   10  C5  UNL     1     -22.643 -45.392  27.796  1.00  0.00     0.219 C 
HETATM   11  O1  UNL     1     -23.659 -45.328  27.045  1.00  0.00    -0.274 OA
ATOM     12  H2  UNL     1     -20.771 -44.604  28.198  1.00  0.00     0.162 HD
BRANCH  10  13
HETATM   13  C4  UNL     1     -22.615 -46.387  28.896  1.00  0.00     0.133 C 
BRANCH  13  14
HETATM   14  C3  UNL     1     -21.427 -47.301  28.695  1.00  0.00     0.280 C 
BRANCH  14  15
HETATM   15  N1  UNL     1     -21.791 -48.687  28.682  1.00  0.00     0.080 N 
HETATM   16  C1  UNL     1     -23.175 -48.949  28.964  1.00  0.00     0.309 C 
HETATM   17  C2  UNL     1     -20.885 -49.477  29.459  1.00  0.00     0.309 C 
ENDBRANCH  14  15
ENDBRANCH  13  14
ENDBRANCH  10  13
ENDBRANCH   1   9
BRANCH   8  18
HETATM   18  C16 UNL     1     -20.123 -45.200  25.269  1.00  0.00     0.123 C 
HETATM   19 CL1  UNL     1     -21.460 -45.858  24.300  1.00  0.00    -0.130 Cl
ENDBRANCH   8  18
BRANCH   5  20
HETATM   20  C10 UNL     1     -20.745 -40.885  22.212  1.00  0.00     0.030 C 
HETATM   21  C11 UNL     1     -21.557 -39.929  21.317  1.00  0.00     0.025 C 
HETATM   22  C12 UNL     1     -19.294 -40.576  21.876  1.00  0.00     0.025 C 
HETATM   23  C13 UNL     1     -21.163 -42.271  21.814  1.00  0.00     0.025 C 
ENDBRANCH   5  20
TORSDOF 6
ENDMDL
MODEL 2
REMARK VINA RESULT: -7.095785176      1.080      1.264
REMARK  6 active torsions:
REMARK  status: ('A' for Active; 'I' for Inactive)
REMARK    1  A    between atoms: N1_2  and  C3_4 
REMARK    2  A    between atoms: C3_4  and  C4_5 
REMARK    3  A    between atoms: C4_5  and  C5_6 
REMARK       I    between atoms: C5_6  and  N2_8 
REMARK    4  A    between atoms: N2_8  and  C6_10 
REMARK       I    between atoms: N3_13  and  C9_14 
REMARK    5  A    between atoms: C9_14  and  C10_16 
REMARK    6  A    between atoms: C15_21  and  C16_22 
ROOT
HETATM    1  C6  UNL     1     -21.487 -43.820  26.502  1.00  0.00     0.092 C 
HETATM    2  C7  UNL     1     -21.430 -42.600  27.409  1.00  0.00     0.045 C 
HETATM    3  C8  UNL     1     -21.758 -41.411  26.573  1.00  0.00     0.128 C 
HETATM    4  N3  UNL     1     -21.271 -41.433  25.209  1.00  0.00    -0.351 N 
HETATM    5  C9  UNL     1     -21.379 -40.193  24.451  1.00  0.00     0.227 C 
HETATM    6  O2  UNL     1     -21.896 -39.171  25.020  1.00  0.00    -0.273 OA
HETATM    7  C14 UNL     1     -20.715 -42.589  24.567  1.00  0.00     0.133 C 
HETATM    8  C15 UNL     1     -20.316 -43.632  25.579  1.00  0.00     0.040 C 
ENDROOT
BRANCH   1   9
HETATM    9  N2  UNL     1     -21.500 -45.052  27.208  1.00  0.00    -0.356 N 
HETATM   10  C5  UNL     1     -22.596 -45.906  27.411  1.00  0.00     0.219 C 
HETATM   11  O1  UNL     1     -23.723 -45.586  26.930  1.00  0.00    -0.274 OA
ATOM     12  H2  UNL     1     -20.613 -45.351  27.614  1.00  0.00     0.162 HD
BRANCH  10  13
HETATM   13  C4  UNL     1     -22.466 -47.172  28.174  1.00  0.00     0.133 C 
BRANCH  13  14
HETATM   14  C3  UNL     1     -21.202 -47.112  29.002  1.00  0.00     0.280 C 
BRANCH  14  15
HETATM   15  N1  UNL     1     -20.389 -48.284  28.855  1.00  0.00     0.080 N 
HETATM   16  C1  UNL     1     -19.892 -48.509  27.527  1.00  0.00     0.309 C 
HETATM   17  C2  UNL     1     -21.010 -49.432  29.441  1.00  0.00     0.309 C 
ENDBRANCH  14  15
ENDBRANCH  13  14
ENDBRANCH  10  13
ENDBRANCH   1   9
BRANCH   8  18
HETATM   18  C16 UNL     1     -19.865 -44.917  24.939  1.00  0.00     0.123 C 
HETATM   19 CL1  UNL     1     -19.525 -44.657  23.213  1.00  0.00    -0.130 Cl
ENDBRANCH   8  18
BRANCH   5  20
HETATM   20  C10 UNL     1     -20.927 -40.048  23.064  1.00  0.00     0.030 C 
HETATM   21  C11 UNL     1     -21.813 -38.986  22.385  1.00  0.00     0.025 C 
HETATM   22  C12 UNL     1     -19.515 -39.495  22.941  1.00  0.00     0.025 C 
HETATM   23  C13 UNL     1     -21.137 -41.314  22.285  1.00  0.00     0.025 C 
ENDBRANCH   5  20
TORSDOF 6
ENDMDL
MODEL 3
REMARK VINA RESULT: -7.016819912      1.952      2.647
REMARK  6 active torsions:
REMARK  status: ('A' for Active; 'I' for Inactive)
REMARK    1  A    between atoms: N1_2  and  C3_4 
REMARK    2  A    between atoms: C3_4  and  C4_5 
REMARK    3  A    between atoms: C4_5  and  C5_6 
REMARK       I    between atoms: C5_6  and  N2_8 
REMARK    4  A    between atoms: N2_8  and  C6_10 
REMARK       I    between atoms: N3_13  and  C9_14 
REMARK    5  A    between atoms: C9_14  and  C10_16 
REMARK    6  A    between atoms: C15_21  and  C16_22 
ROOT
HETATM    1  C6  UNL     1     -21.175 -44.289  25.454  1.00  0.00     0.092 C 
HETATM    2  C7  UNL     1     -22.033 -44.992  24.413  1.00  0.00     0.045 C 
HETATM    3  C8  UNL     1     -21.635 -44.459  23.080  1.00  0.00     0.128 C 
HETATM    4  N3  UNL     1     -21.283 -43.055  23.029  1.00  0.00    -0.351 N 
HETATM    5  C9  UNL     1     -21.115 -42.465  21.707  1.00  0.00     0.227 C 
HETATM    6  O2  UNL     1     -21.279 -43.208  20.680  1.00  0.00    -0.273 OA
HETATM    7  C14 UNL     1     -21.075 -42.231  24.185  1.00  0.00     0.133 C 
HETATM    8  C15 UNL     1     -21.664 -42.868  25.417  1.00  0.00     0.040 C 
ENDROOT
BRANCH   1   9
HETATM    9  N2  UNL     1     -21.220 -44.903  26.735  1.00  0.00    -0.356 N 
HETATM   10  C5  UNL     1     -22.353 -45.393  27.405  1.00  0.00     0.219 C 
HETATM   11  O1  UNL     1     -23.486 -45.300  26.847  1.00  0.00    -0.274 OA
ATOM     12  H2  UNL     1     -20.330 -44.999  27.222  1.00  0.00     0.162 HD
BRANCH  10  13
HETATM   13  C4  UNL     1     -22.254 -46.015  28.748  1.00  0.00     0.133 C 
BRANCH  13  14
HETATM   14  C3  UNL     1     -21.476 -47.306  28.630  1.00  0.00     0.280 C 
BRANCH  14  15
HETATM   15  N1  UNL     1     -22.069 -48.379  29.372  1.00  0.00     0.080 N 
HETATM   16  C1  UNL     1     -21.289 -49.584  29.417  1.00  0.00     0.309 C 
HETATM   17  C2  UNL     1     -23.433 -48.589  28.996  1.00  0.00     0.309 C 
ENDBRANCH  14  15
ENDBRANCH  13  14
ENDBRANCH  10  13
ENDBRANCH   1   9
BRANCH   8  18
HETATM   18  C16 UNL     1     -21.338 -42.106  26.675  1.00  0.00     0.123 C 
HETATM   19 CL1  UNL     1     -21.307 -40.360  26.343  1.00  0.00    -0.130 Cl
ENDBRANCH   8  18
BRANCH   5  20
HETATM   20  C10 UNL     1     -20.767 -41.058  21.485  1.00  0.00     0.030 C 
HETATM   21  C11 UNL     1     -20.846 -40.784  19.971  1.00  0.00     0.025 C 
HETATM   22  C12 UNL     1     -21.763 -40.083  22.096  1.00  0.00     0.025 C 
HETATM   23  C13 UNL     1     -19.346 -40.778  21.878  1.00  0.00     0.025 C 
ENDBRANCH   5  20
TORSDOF 6
ENDMDL
MODEL 4
REMARK VINA RESULT: -6.992408832      1.216      1.596
REMARK  6 active torsions:
REMARK  status: ('A' for Active; 'I' for Inactive)
REMARK    1  A    between atoms: N1_2  and  C3_4 
REMARK    2  A    between atoms: C3_4  and  C4_5 
REMARK    3  A    between atoms: C4_5  and  C5_6 
REMARK       I    between atoms: C5_6  and  N2_8 
REMARK    4  A    between atoms: N2_8  and  C6_10 
REMARK       I    between atoms: N3_13  and  C9_14 
REMARK    5  A    between atoms: C9_14  and  C10_16 
REMARK    6  A    between atoms: C15_21  and  C16_22 
ROOT
HETATM    1  C6  UNL     1     -21.434 -43.884  26.241  1.00  0.00     0.092 C 
HETATM    2  C7  UNL     1     -21.267 -42.782  27.276  1.00  0.00     0.045 C 
HETATM    3  C8  UNL     1     -21.656 -41.500  26.624  1.00  0.00     0.128 C 
HETATM    4  N3  UNL     1     -21.307 -41.360  25.225  1.00  0.00    -0.351 N 
HETATM    5  C9  UNL     1     -21.469 -40.038  24.634  1.00  0.00     0.227 C 
HETATM    6  O2  UNL     1     -21.911 -39.090  25.369  1.00  0.00    -0.273 OA
HETATM    7  C14 UNL     1     -20.836 -42.434  24.398  1.00  0.00     0.133 C 
HETATM    8  C15 UNL     1     -20.356 -43.592  25.234  1.00  0.00     0.040 C 
ENDROOT
BRANCH   1   9
HETATM    9  N2  UNL     1     -21.396 -45.192  26.794  1.00  0.00    -0.356 N 
HETATM   10  C5  UNL     1     -22.474 -45.928  27.312  1.00  0.00     0.219 C 
HETATM   11  O1  UNL     1     -23.630 -45.411  27.310  1.00  0.00    -0.274 OA
ATOM     12  H2  UNL     1     -20.485 -45.648  26.816  1.00  0.00     0.162 HD
BRANCH  10  13
HETATM   13  C4  UNL     1     -22.291 -47.293  27.862  1.00  0.00     0.133 C 
BRANCH  13  14
HETATM   14  C3  UNL     1     -20.986 -47.339  28.625  1.00  0.00     0.280 C 
BRANCH  14  15
HETATM   15  N1  UNL     1     -20.553 -48.678  28.899  1.00  0.00     0.080 N 
HETATM   16  C1  UNL     1     -21.538 -49.514  29.526  1.00  0.00     0.309 C 
HETATM   17  C2  UNL     1     -19.281 -48.695  29.555  1.00  0.00     0.309 C 
ENDBRANCH  14  15
ENDBRANCH  13  14
ENDBRANCH  10  13
ENDBRANCH   1   9
BRANCH   8  18
HETATM   18  C16 UNL     1     -19.992 -44.794  24.404  1.00  0.00     0.123 C 
HETATM   19 CL1  UNL     1     -19.615 -44.298  22.739  1.00  0.00    -0.130 Cl
ENDBRANCH   8  18
BRANCH   5  20
HETATM   20  C10 UNL     1     -21.154 -39.730  23.236  1.00  0.00     0.030 C 
HETATM   21  C11 UNL     1     -19.700 -39.223  23.179  1.00  0.00     0.025 C 
HETATM   22  C12 UNL     1     -21.163 -40.951  22.329  1.00  0.00     0.025 C 
HETATM   23  C13 UNL     1     -22.000 -38.603  22.720  1.00  0.00     0.025 C 
ENDBRANCH   5  20
TORSDOF 6
ENDMDL
MODEL 5
REMARK VINA RESULT: -6.950239847      2.065      7.853
REMARK  6 active torsions:
REMARK  status: ('A' for Active; 'I' for Inactive)
REMARK    1  A    between atoms: N1_2  and  C3_4 
REMARK    2  A    between atoms: C3_4  and  C4_5 
REMARK    3  A    between atoms: C4_5  and  C5_6 
REMARK       I    between atoms: C5_6  and  N2_8 
REMARK    4  A    between atoms: N2_8  and  C6_10 
REMARK       I    between atoms: N3_13  and  C9_14 
REMARK    5  A    between atoms: C9_14  and  C10_16 
REMARK    6  A    between atoms: C15_21  and  C16_22 
ROOT
HETATM    1  C6  UNL     1     -21.865 -44.916  26.333  1.00  0.00     0.092 C 
HETATM    2  C7  UNL     1     -23.137 -45.143  27.136  1.00  0.00     0.045 C 
HETATM    3  C8  UNL     1     -22.865 -46.253  28.092  1.00  0.00     0.128 C 
HETATM    4  N3  UNL     1     -22.006 -47.316  27.611  1.00  0.00    -0.351 N 
HETATM    5  C9  UNL     1     -21.913 -48.513  28.437  1.00  0.00     0.227 C 
HETATM    6  O2  UNL     1     -22.580 -48.557  29.527  1.00  0.00    -0.273 OA
HETATM    7  C14 UNL     1     -21.240 -47.252  26.399  1.00  0.00     0.133 C 
HETATM    8  C15 UNL     1     -21.746 -46.158  25.496  1.00  0.00     0.040 C 
ENDROOT
BRANCH   1   9
HETATM    9  N2  UNL     1     -21.866 -43.698  25.600  1.00  0.00    -0.356 N 
HETATM   10  C5  UNL     1     -21.017 -42.595  25.781  1.00  0.00     0.219 C 
HETATM   11  O1  UNL     1     -20.134 -42.640  26.687  1.00  0.00    -0.274 OA
ATOM     12  H2  UNL     1     -22.562 -43.617  24.860  1.00  0.00     0.162 HD
BRANCH  10  13
HETATM   13  C4  UNL     1     -21.130 -41.379  24.939  1.00  0.00     0.133 C 
BRANCH  13  14
HETATM   14  C3  UNL     1     -20.685 -41.719  23.534  1.00  0.00     0.280 C 
BRANCH  14  15
HETATM   15  N1  UNL     1     -20.477 -40.555  22.723  1.00  0.00     0.080 N 
HETATM   16  C1  UNL     1     -19.217 -40.516  22.036  1.00  0.00     0.309 C 
HETATM   17  C2  UNL     1     -20.781 -39.353  23.439  1.00  0.00     0.309 C 
ENDBRANCH  14  15
ENDBRANCH  13  14
ENDBRANCH  10  13
ENDBRANCH   1   9
BRANCH   8  18
HETATM   18  C16 UNL     1     -20.877 -45.962  24.282  1.00  0.00     0.123 C 
HETATM   19 CL1  UNL     1     -19.178 -45.776  24.767  1.00  0.00    -0.130 Cl
ENDBRANCH   8  18
BRANCH   5  20
HETATM   20  C10 UNL     1     -21.095 -49.679  28.088  1.00  0.00     0.030 C 
HETATM   21  C11 UNL     1     -21.212 -50.700  29.236  1.00  0.00     0.025 C 
HETATM   22  C12 UNL     1     -21.598 -50.428  26.864  1.00  0.00     0.025 C 
HETATM   23  C13 UNL     1     -19.640 -49.320  28.007  1.00  0.00     0.025 C 
ENDBRANCH   5  20
TORSDOF 6
ENDMDL
