MODEL 1
REMARK VINA RESULT: -6.048050077      0.000      0.000
REMARK  4 active torsions:
REMARK  status: ('A' for Active; 'I' for Inactive)
REMARK    1  A    between atoms: N1_1  and  N2_4 
REMARK    2  A    between atoms: N2_4  and  C1_5 
REMARK    3  A    between atoms: C1_5  and  C2_6 
REMARK       I    between atoms: C2_6  and  N3_8 
REMARK    4  A    between atoms: N3_8  and  C3_10 
ROOT
HETATM    1  C2  UNL     1      -2.725  -4.918  16.432  1.00  0.00     0.272 C 
HETATM    2  O1  UNL     1      -1.831  -5.305  17.204  1.00  0.00    -0.266 OA
HETATM    3  N3  UNL     1      -4.078  -5.144  16.754  1.00  0.00    -0.351 N 
ATOM      4  H3  UNL     1      -4.805  -4.825  16.114  1.00  0.00     0.163 HD
ENDROOT
BRANCH   1   5
HETATM    5  C1  UNL     1      -2.383  -4.237  15.201  1.00  0.00     0.282 C 
BRANCH   5   6
HETATM    6  N2  UNL     1      -1.235  -3.793  14.960  1.00  0.00    -0.340 NA
BRANCH   6   7
HETATM    7  N1  UNL     1      -0.090  -3.386  15.149  1.00  0.00    -0.281 N 
ATOM      8  H12 UNL     1      -0.343  -2.567  15.702  1.00  0.00     0.191 HD
ATOM      9  H11 UNL     1       0.927  -3.337  15.113  1.00  0.00     0.191 HD
ENDBRANCH   6   7
ENDBRANCH   5   6
ENDBRANCH   1   5
BRANCH   3  10
HETATM   10  C3  UNL     1      -4.452  -5.823  17.978  1.00  0.00     0.084 C 
HETATM   11  C4  UNL     1      -5.973  -5.910  18.159  1.00  0.00     0.025 C 
HETATM   12  C5  UNL     1      -5.908  -7.155  17.275  1.00  0.00     0.004 C 
HETATM   13  C6  UNL     1      -4.466  -7.323  17.766  1.00  0.00     0.025 C 
ENDBRANCH   3  10
TORSDOF 4
ENDMDL
MODEL 2
REMARK VINA RESULT: -6.037213777      1.559      1.607
REMARK  4 active torsions:
REMARK  status: ('A' for Active; 'I' for Inactive)
REMARK    1  A    between atoms: N1_1  and  N2_4 
REMARK    2  A    between atoms: N2_4  and  C1_5 
REMARK    3  A    between atoms: C1_5  and  C2_6 
REMARK       I    between atoms: C2_6  and  N3_8 
REMARK    4  A    between atoms: N3_8  and  C3_10 
ROOT
HETATM    1  C2  UNL     1      -3.738  -4.122  16.464  1.00  0.00     0.272 C 
HETATM    2  O1  UNL     1      -3.026  -3.853  17.447  1.00  0.00    -0.266 OA
HETATM    3  N3  UNL     1      -4.794  -5.046  16.593  1.00  0.00    -0.351 N 
ATOM      4  H3  UNL     1      -5.373  -5.262  15.781  1.00  0.00     0.163 HD
ENDROOT
BRANCH   1   5
HETATM    5  C1  UNL     1      -3.487  -3.490  15.186  1.00  0.00     0.282 C 
BRANCH   5   6
HETATM    6  N2  UNL     1      -3.077  -2.311  15.074  1.00  0.00    -0.340 NA
BRANCH   6   7
HETATM    7  N1  UNL     1      -2.684  -1.189  15.389  1.00  0.00    -0.281 N 
ATOM      8  H12 UNL     1      -2.227  -1.462  16.260  1.00  0.00     0.191 HD
ATOM      9  H11 UNL     1      -2.522  -0.183  15.347  1.00  0.00     0.191 HD
ENDBRANCH   6   7
ENDBRANCH   5   6
ENDBRANCH   1   5
BRANCH   3  10
HETATM   10  C3  UNL     1      -5.071  -5.695  17.858  1.00  0.00     0.084 C 
HETATM   11  C4  UNL     1      -6.547  -6.085  18.006  1.00  0.00     0.025 C 
HETATM   12  C5  UNL     1      -6.188  -7.352  17.229  1.00  0.00     0.004 C 
HETATM   13  C6  UNL     1      -4.765  -7.176  17.769  1.00  0.00     0.025 C 
ENDBRANCH   3  10
TORSDOF 4
ENDMDL
MODEL 3
REMARK VINA RESULT: -6.035971925      2.267      2.667
REMARK  4 active torsions:
REMARK  status: ('A' for Active; 'I' for Inactive)
REMARK    1  A    between atoms: N1_1  and  N2_4 
REMARK    2  A    between atoms: N2_4  and  C1_5 
REMARK    3  A    between atoms: C1_5  and  C2_6 
REMARK       I    between atoms: C2_6  and  N3_8 
REMARK    4  A    between atoms: N3_8  and  C3_10 
ROOT
HETATM    1  C2  UNL     1      -2.087  -4.971  16.944  1.00  0.00     0.272 C 
HETATM    2  O1  UNL     1      -2.210  -4.645  15.750  1.00  0.00    -0.266 OA
HETATM    3  N3  UNL     1      -3.074  -5.765  17.560  1.00  0.00    -0.351 N 
ATOM      4  H3  UNL     1      -2.966  -6.027  18.540  1.00  0.00     0.163 HD
ENDROOT
BRANCH   1   5
HETATM    5  C1  UNL     1      -0.934  -4.537  17.704  1.00  0.00     0.282 C 
BRANCH   5   6
HETATM    6  N2  UNL     1      -0.848  -4.662  18.948  1.00  0.00    -0.340 NA
BRANCH   6   7
HETATM    7  N1  UNL     1      -0.855  -5.188  20.059  1.00  0.00    -0.281 N 
ATOM      8  H12 UNL     1      -1.823  -5.507  20.035  1.00  0.00     0.191 HD
ATOM      9  H11 UNL     1      -0.528  -5.505  20.972  1.00  0.00     0.191 HD
ENDBRANCH   6   7
ENDBRANCH   5   6
ENDBRANCH   1   5
BRANCH   3  10
HETATM   10  C3  UNL     1      -4.239  -6.216  16.827  1.00  0.00     0.084 C 
HETATM   11  C4  UNL     1      -5.099  -7.195  17.635  1.00  0.00     0.025 C 
HETATM   12  C5  UNL     1      -5.746  -5.959  18.259  1.00  0.00     0.004 C 
HETATM   13  C6  UNL     1      -5.371  -5.219  16.971  1.00  0.00     0.025 C 
ENDBRANCH   3  10
TORSDOF 4
ENDMDL
MODEL 4
REMARK VINA RESULT: -5.921114348      2.850      4.154
REMARK  4 active torsions:
REMARK  status: ('A' for Active; 'I' for Inactive)
REMARK    1  A    between atoms: N1_1  and  N2_4 
REMARK    2  A    between atoms: N2_4  and  C1_5 
REMARK    3  A    between atoms: C1_5  and  C2_6 
REMARK       I    between atoms: C2_6  and  N3_8 
REMARK    4  A    between atoms: N3_8  and  C3_10 
ROOT
HETATM    1  C2  UNL     1      -1.906  -4.692  16.812  1.00  0.00     0.272 C 
HETATM    2  O1  UNL     1      -2.630  -5.640  16.463  1.00  0.00    -0.266 OA
HETATM    3  N3  UNL     1      -2.194  -3.387  16.365  1.00  0.00    -0.351 N 
ATOM      4  H3  UNL     1      -1.593  -2.615  16.655  1.00  0.00     0.163 HD
ENDROOT
BRANCH   1   5
HETATM    5  C1  UNL     1      -0.766  -4.922  17.673  1.00  0.00     0.282 C 
BRANCH   5   6
HETATM    6  N2  UNL     1      -0.821  -4.827  18.922  1.00  0.00    -0.340 NA
BRANCH   6   7
HETATM    7  N1  UNL     1      -0.806  -5.153  20.108  1.00  0.00    -0.281 N 
ATOM      8  H12 UNL     1      -0.096  -5.881  20.023  1.00  0.00     0.191 HD
ATOM      9  H11 UNL     1      -1.039  -5.168  21.100  1.00  0.00     0.191 HD
ENDBRANCH   6   7
ENDBRANCH   5   6
ENDBRANCH   1   5
BRANCH   3  10
HETATM   10  C3  UNL     1      -3.327  -3.124  15.503  1.00  0.00     0.084 C 
HETATM   11  C4  UNL     1      -4.589  -2.747  16.289  1.00  0.00     0.025 C 
HETATM   12  C5  UNL     1      -4.037  -1.321  16.302  1.00  0.00     0.004 C 
HETATM   13  C6  UNL     1      -3.295  -1.690  15.013  1.00  0.00     0.025 C 
ENDBRANCH   3  10
TORSDOF 4
ENDMDL
MODEL 5
REMARK VINA RESULT: -5.881803567      1.697      1.996
REMARK  4 active torsions:
REMARK  status: ('A' for Active; 'I' for Inactive)
REMARK    1  A    between atoms: N1_1  and  N2_4 
REMARK    2  A    between atoms: N2_4  and  C1_5 
REMARK    3  A    between atoms: C1_5  and  C2_6 
REMARK       I    between atoms: C2_6  and  N3_8 
REMARK    4  A    between atoms: N3_8  and  C3_10 
ROOT
HETATM    1  C2  UNL     1      -3.650  -5.984  17.406  1.00  0.00     0.272 C 
HETATM    2  O1  UNL     1      -3.246  -6.889  18.156  1.00  0.00    -0.266 OA
HETATM    3  N3  UNL     1      -5.030  -5.718  17.306  1.00  0.00    -0.351 N 
ATOM      4  H3  UNL     1      -5.353  -4.974  16.687  1.00  0.00     0.163 HD
ENDROOT
BRANCH   1   5
HETATM    5  C1  UNL     1      -2.709  -5.203  16.632  1.00  0.00     0.282 C 
BRANCH   5   6
HETATM    6  N2  UNL     1      -1.563  -4.906  17.045  1.00  0.00    -0.340 NA
BRANCH   6   7
HETATM    7  N1  UNL     1      -0.655  -4.604  17.818  1.00  0.00    -0.281 N 
ATOM      8  H12 UNL     1      -0.213  -3.908  17.217  1.00  0.00     0.191 HD
ATOM      9  H11 UNL     1      -0.069  -4.598  18.652  1.00  0.00     0.191 HD
ENDBRANCH   6   7
ENDBRANCH   5   6
ENDBRANCH   1   5
BRANCH   3  10
HETATM   10  C3  UNL     1      -5.997  -6.481  18.068  1.00  0.00     0.084 C 
HETATM   11  C4  UNL     1      -7.429  -5.963  17.886  1.00  0.00     0.025 C 
HETATM   12  C5  UNL     1      -7.475  -6.823  16.622  1.00  0.00     0.004 C 
HETATM   13  C6  UNL     1      -6.423  -7.712  17.294  1.00  0.00     0.025 C 
ENDBRANCH   3  10
TORSDOF 4
ENDMDL
