MODEL 1
REMARK VINA RESULT: -8.472540439      0.000      0.000
REMARK  7 active torsions:
REMARK  status: ('A' for Active; 'I' for Inactive)
REMARK    1  A    between atoms: N1_1  and  C1_4 
REMARK    2  A    between atoms: C3_8  and  C4_9 
REMARK    3  A    between atoms: N3_10  and  N4_12 
REMARK       I    between atoms: N4_12  and  C5_14 
REMARK    4  A    between atoms: C5_14  and  C6_16 
REMARK       I    between atoms: C6_16  and  N5_18 
REMARK       I    between atoms: N5_18  and  C7_20 
REMARK    5  A    between atoms: C7_20  and  C8_22 
REMARK    6  A    between atoms: C11_25  and  N6_26 
REMARK    7  A    between atoms: C15_32  and  C16_33 
ROOT
HETATM    1  N4  UNL     1       4.676  16.162  87.449  1.00  0.00    -0.262 N 
ATOM      2  H4  UNL     1       5.317  16.838  87.035  1.00  0.00     0.190 HD
HETATM    3  C5  UNL     1       3.282  16.146  87.055  1.00  0.00     0.328 C 
HETATM    4  O1  UNL     1       2.494  15.328  87.552  1.00  0.00    -0.261 OA
ENDROOT
BRANCH   1   5
HETATM    5  N3  UNL     1       5.118  15.287  88.356  1.00  0.00    -0.308 N 
HETATM    6  C4  UNL     1       6.153  15.119  88.988  1.00  0.00     0.120 C 
ATOM      7  H3  UNL     1       4.417  14.581  88.578  1.00  0.00     0.186 HD
BRANCH   6   8
HETATM    8  C3  UNL     1       7.363  15.906  88.946  1.00  0.00    -0.003 A 
HETATM    9  C2  UNL     1       7.997  16.282  87.802  1.00  0.00     0.102 A 
HETATM   10  N2  UNL     1       9.139  17.027  87.848  1.00  0.00    -0.351 N 
HETATM   11  C1  UNL     1       9.675  17.416  89.014  1.00  0.00     0.116 A 
ATOM     12  H2  UNL     1       9.595  17.295  86.976  1.00  0.00     0.166 HD
HETATM   13  C15 UNL     1       9.050  17.047  90.193  1.00  0.00     0.085 A 
HETATM   14  C14 UNL     1       7.911  16.304  90.164  1.00  0.00     0.036 A 
BRANCH  11  15
HETATM   15  N1  UNL     1      10.752  18.120  89.112  1.00  0.00    -0.385 N 
ATOM     16  H12 UNL     1      11.373  18.139  88.303  1.00  0.00     0.157 HD
ATOM     17  H11 UNL     1      11.010  18.651  89.943  1.00  0.00     0.157 HD
ENDBRANCH  11  15
BRANCH  13  18
HETATM   18  C16 UNL     1       9.613  17.456  91.456  1.00  0.00     0.213 C 
HETATM   19  O6  UNL     1       8.937  18.139  92.249  1.00  0.00    -0.644 OA
HETATM   20  O7  UNL     1      10.896  17.093  91.791  1.00  0.00    -0.644 OA
ENDBRANCH  13  18
ENDBRANCH   6   8
ENDBRANCH   1   5
BRANCH   3  21
HETATM   21  C6  UNL     1       2.835  17.103  86.072  1.00  0.00     0.317 C 
HETATM   22  O2  UNL     1       2.664  16.743  84.890  1.00  0.00    -0.262 OA
HETATM   23  N5  UNL     1       2.595  18.444  86.461  1.00  0.00    -0.285 N 
HETATM   24  C7  UNL     1       2.153  19.445  85.554  1.00  0.00     0.258 C 
ATOM     25  H5  UNL     1       2.745  18.702  87.437  1.00  0.00     0.172 HD
HETATM   26  O3  UNL     1       1.955  20.637  85.972  1.00  0.00    -0.267 OA
BRANCH  24  27
HETATM   27  C8  UNL     1       1.910  19.175  84.137  1.00  0.00     0.032 A 
HETATM   28  C9  UNL     1       0.648  18.703  83.760  1.00  0.00     0.019 A 
HETATM   29  C10 UNL     1       0.422  18.452  82.425  1.00  0.00     0.037 A 
HETATM   30  C11 UNL     1       1.388  18.649  81.463  1.00  0.00     0.102 A 
HETATM   31  C12 UNL     1       2.648  19.118  81.832  1.00  0.00     0.037 A 
HETATM   32  C13 UNL     1       2.884  19.372  83.166  1.00  0.00     0.019 A 
BRANCH  30  33
HETATM   33  N6  UNL     1       1.131  18.381  80.091  1.00  0.00    -0.116 N 
HETATM   34  O4  UNL     1       1.182  17.204  79.692  1.00  0.00    -0.532 OA
HETATM   35  O5  UNL     1       0.828  19.375  79.197  1.00  0.00    -0.532 OA
ENDBRANCH  30  33
ENDBRANCH  24  27
ENDBRANCH   3  21
TORSDOF 7
ENDMDL
MODEL 2
REMARK VINA RESULT: -8.409583462      2.885      3.812
REMARK  7 active torsions:
REMARK  status: ('A' for Active; 'I' for Inactive)
REMARK    1  A    between atoms: N1_1  and  C1_4 
REMARK    2  A    between atoms: C3_8  and  C4_9 
REMARK    3  A    between atoms: N3_10  and  N4_12 
REMARK       I    between atoms: N4_12  and  C5_14 
REMARK    4  A    between atoms: C5_14  and  C6_16 
REMARK       I    between atoms: C6_16  and  N5_18 
REMARK       I    between atoms: N5_18  and  C7_20 
REMARK    5  A    between atoms: C7_20  and  C8_22 
REMARK    6  A    between atoms: C11_25  and  N6_26 
REMARK    7  A    between atoms: C15_32  and  C16_33 
ROOT
HETATM    1  N4  UNL     1       5.151  17.419  87.910  1.00  0.00    -0.262 N 
ATOM      2  H4  UNL     1       5.443  18.281  88.370  1.00  0.00     0.190 HD
HETATM    3  C5  UNL     1       4.372  17.474  86.691  1.00  0.00     0.328 C 
HETATM    4  O1  UNL     1       4.011  16.432  86.122  1.00  0.00    -0.261 OA
ENDROOT
BRANCH   1   5
HETATM    5  N3  UNL     1       5.485  16.235  88.430  1.00  0.00    -0.308 N 
HETATM    6  C4  UNL     1       6.480  15.749  88.951  1.00  0.00     0.120 C 
ATOM      7  H3  UNL     1       4.716  15.566  88.380  1.00  0.00     0.186 HD
BRANCH   6   8
HETATM    8  C3  UNL     1       7.757  16.378  89.195  1.00  0.00    -0.003 A 
HETATM    9  C2  UNL     1       8.657  16.696  88.223  1.00  0.00     0.102 A 
HETATM   10  N2  UNL     1       9.844  17.289  88.538  1.00  0.00    -0.351 N 
HETATM   11  C1  UNL     1      10.168  17.581  89.806  1.00  0.00     0.116 A 
ATOM     12  H2  UNL     1      10.500  17.517  87.791  1.00  0.00     0.166 HD
HETATM   13  C15 UNL     1       9.271  17.269  90.813  1.00  0.00     0.085 A 
HETATM   14  C14 UNL     1       8.082  16.677  90.517  1.00  0.00     0.036 A 
BRANCH  11  15
HETATM   15  N1  UNL     1      11.276  18.142  90.155  1.00  0.00    -0.385 N 
ATOM     16  H12 UNL     1      11.231  18.847  90.891  1.00  0.00     0.157 HD
ATOM     17  H11 UNL     1      12.181  17.920  89.741  1.00  0.00     0.157 HD
ENDBRANCH  11  15
BRANCH  13  18
HETATM   18  C16 UNL     1       9.602  17.576  92.183  1.00  0.00     0.213 C 
HETATM   19  O6  UNL     1      10.690  17.204  92.661  1.00  0.00    -0.644 OA
HETATM   20  O7  UNL     1       8.719  18.283  92.964  1.00  0.00    -0.644 OA
ENDBRANCH  13  18
ENDBRANCH   6   8
ENDBRANCH   1   5
BRANCH   3  21
HETATM   21  C6  UNL     1       4.027  18.769  86.153  1.00  0.00     0.317 C 
HETATM   22  O2  UNL     1       2.936  19.293  86.452  1.00  0.00    -0.262 OA
HETATM   23  N5  UNL     1       4.934  19.429  85.289  1.00  0.00    -0.285 N 
HETATM   24  C7  UNL     1       4.670  20.704  84.718  1.00  0.00     0.258 C 
ATOM     25  H5  UNL     1       5.817  18.970  85.066  1.00  0.00     0.172 HD
HETATM   26  O3  UNL     1       5.533  21.245  83.946  1.00  0.00    -0.267 OA
BRANCH  24  27
HETATM   27  C8  UNL     1       3.433  21.442  84.975  1.00  0.00     0.032 A 
HETATM   28  C9  UNL     1       3.392  22.301  86.079  1.00  0.00     0.019 A 
HETATM   29  C10 UNL     1       2.227  22.997  86.316  1.00  0.00     0.037 A 
HETATM   30  C11 UNL     1       1.117  22.874  85.510  1.00  0.00     0.102 A 
HETATM   31  C12 UNL     1       1.151  22.019  84.409  1.00  0.00     0.037 A 
HETATM   32  C13 UNL     1       2.312  21.319  84.163  1.00  0.00     0.019 A 
BRANCH  30  33
HETATM   33  N6  UNL     1      -0.074  23.602  85.777  1.00  0.00    -0.116 N 
HETATM   34  O4  UNL     1      -0.697  23.365  86.828  1.00  0.00    -0.532 OA
HETATM   35  O5  UNL     1      -0.557  24.554  84.917  1.00  0.00    -0.532 OA
ENDBRANCH  30  33
ENDBRANCH  24  27
ENDBRANCH   3  21
TORSDOF 7
ENDMDL
MODEL 3
REMARK VINA RESULT: -8.401481206      2.194      3.361
REMARK  7 active torsions:
REMARK  status: ('A' for Active; 'I' for Inactive)
REMARK    1  A    between atoms: N1_1  and  C1_4 
REMARK    2  A    between atoms: C3_8  and  C4_9 
REMARK    3  A    between atoms: N3_10  and  N4_12 
REMARK       I    between atoms: N4_12  and  C5_14 
REMARK    4  A    between atoms: C5_14  and  C6_16 
REMARK       I    between atoms: C6_16  and  N5_18 
REMARK       I    between atoms: N5_18  and  C7_20 
REMARK    5  A    between atoms: C7_20  and  C8_22 
REMARK    6  A    between atoms: C11_25  and  N6_26 
REMARK    7  A    between atoms: C15_32  and  C16_33 
ROOT
HETATM    1  N4  UNL     1       5.027  16.625  87.736  1.00  0.00    -0.262 N 
ATOM      2  H4  UNL     1       5.683  17.351  87.448  1.00  0.00     0.190 HD
HETATM    3  C5  UNL     1       3.636  16.706  87.344  1.00  0.00     0.328 C 
HETATM    4  O1  UNL     1       2.829  15.828  87.688  1.00  0.00    -0.261 OA
ENDROOT
BRANCH   1   5
HETATM    5  N3  UNL     1       5.448  15.596  88.477  1.00  0.00    -0.308 N 
HETATM    6  C4  UNL     1       6.467  15.313  89.095  1.00  0.00     0.120 C 
ATOM      7  H3  UNL     1       4.744  14.862  88.544  1.00  0.00     0.186 HD
BRANCH   6   8
HETATM    8  C3  UNL     1       7.674  16.092  89.232  1.00  0.00    -0.003 A 
HETATM    9  C2  UNL     1       8.473  16.463  88.193  1.00  0.00     0.102 A 
HETATM   10  N2  UNL     1       9.600  17.201  88.408  1.00  0.00    -0.351 N 
HETATM   11  C1  UNL     1       9.961  17.587  89.640  1.00  0.00     0.116 A 
ATOM     12  H2  UNL     1      10.181  17.466  87.613  1.00  0.00     0.166 HD
HETATM   13  C15 UNL     1       9.166  17.223  90.714  1.00  0.00     0.085 A 
HETATM   14  C14 UNL     1       8.039  16.487  90.517  1.00  0.00     0.036 A 
BRANCH  11  15
HETATM   15  N1  UNL     1      11.016  18.285  89.896  1.00  0.00    -0.385 N 
ATOM     16  H12 UNL     1      11.378  18.875  89.147  1.00  0.00     0.157 HD
ATOM     17  H11 UNL     1      11.498  18.277  90.794  1.00  0.00     0.157 HD
ENDBRANCH  11  15
BRANCH  13  18
HETATM   18  C16 UNL     1       9.539  17.630  92.047  1.00  0.00     0.213 C 
HETATM   19  O6  UNL     1       8.722  18.233  92.767  1.00  0.00    -0.644 OA
HETATM   20  O7  UNL     1      10.796  17.351  92.527  1.00  0.00    -0.644 OA
ENDBRANCH  13  18
ENDBRANCH   6   8
ENDBRANCH   1   5
BRANCH   3  21
HETATM   21  C6  UNL     1       3.211  17.829  86.543  1.00  0.00     0.317 C 
HETATM   22  O2  UNL     1       3.898  18.870  86.522  1.00  0.00    -0.262 OA
HETATM   23  N5  UNL     1       2.016  17.736  85.789  1.00  0.00    -0.285 N 
HETATM   24  C7  UNL     1       1.530  18.796  84.976  1.00  0.00     0.258 C 
ATOM     25  H5  UNL     1       1.480  16.870  85.831  1.00  0.00     0.172 HD
HETATM   26  O3  UNL     1       0.443  18.647  84.320  1.00  0.00    -0.267 OA
BRANCH  24  27
HETATM   27  C8  UNL     1       2.226  20.078  84.852  1.00  0.00     0.032 A 
HETATM   28  C9  UNL     1       3.142  20.234  83.806  1.00  0.00     0.019 A 
HETATM   29  C10 UNL     1       3.792  21.443  83.689  1.00  0.00     0.037 A 
HETATM   30  C11 UNL     1       3.572  22.487  84.560  1.00  0.00     0.102 A 
HETATM   31  C12 UNL     1       2.660  22.337  85.605  1.00  0.00     0.037 A 
HETATM   32  C13 UNL     1       2.003  21.132  85.729  1.00  0.00     0.019 A 
BRANCH  30  33
HETATM   33  N6  UNL     1       4.256  23.724  84.420  1.00  0.00    -0.116 N 
HETATM   34  O4  UNL     1       5.267  23.930  85.115  1.00  0.00    -0.532 OA
HETATM   35  O5  UNL     1       3.841  24.694  83.546  1.00  0.00    -0.532 OA
ENDBRANCH  30  33
ENDBRANCH  24  27
ENDBRANCH   3  21
TORSDOF 7
ENDMDL
MODEL 4
REMARK VINA RESULT: -8.395592310      6.094      8.141
REMARK  7 active torsions:
REMARK  status: ('A' for Active; 'I' for Inactive)
REMARK    1  A    between atoms: N1_1  and  C1_4 
REMARK    2  A    between atoms: C3_8  and  C4_9 
REMARK    3  A    between atoms: N3_10  and  N4_12 
REMARK       I    between atoms: N4_12  and  C5_14 
REMARK    4  A    between atoms: C5_14  and  C6_16 
REMARK       I    between atoms: C6_16  and  N5_18 
REMARK       I    between atoms: N5_18  and  C7_20 
REMARK    5  A    between atoms: C7_20  and  C8_22 
REMARK    6  A    between atoms: C11_25  and  N6_26 
REMARK    7  A    between atoms: C15_32  and  C16_33 
ROOT
HETATM    1  N4  UNL     1      10.105  20.075  84.247  1.00  0.00    -0.262 N 
ATOM      2  H4  UNL     1      10.528  19.784  85.128  1.00  0.00     0.190 HD
HETATM    3  C5  UNL     1       8.757  19.663  83.916  1.00  0.00     0.328 C 
HETATM    4  O1  UNL     1       8.233  20.012  82.847  1.00  0.00    -0.261 OA
ENDROOT
BRANCH   1   5
HETATM    5  N3  UNL     1      10.794  20.838  83.393  1.00  0.00    -0.308 N 
HETATM    6  C4  UNL     1      11.733  20.675  82.625  1.00  0.00     0.120 C 
ATOM      7  H3  UNL     1      10.451  21.798  83.378  1.00  0.00     0.186 HD
BRANCH   6   8
HETATM    8  C3  UNL     1      12.479  19.466  82.371  1.00  0.00    -0.003 A 
HETATM    9  C2  UNL     1      11.917  18.243  82.166  1.00  0.00     0.102 A 
HETATM   10  N2  UNL     1      12.695  17.147  81.931  1.00  0.00    -0.351 N 
HETATM   11  C1  UNL     1      14.033  17.232  81.894  1.00  0.00     0.116 A 
ATOM     12  H2  UNL     1      12.249  16.242  81.781  1.00  0.00     0.166 HD
HETATM   13  C15 UNL     1      14.630  18.464  82.099  1.00  0.00     0.085 A 
HETATM   14  C14 UNL     1      13.869  19.567  82.334  1.00  0.00     0.036 A 
BRANCH  11  15
HETATM   15  N1  UNL     1      14.812  16.227  81.676  1.00  0.00    -0.385 N 
ATOM     16  H12 UNL     1      15.306  16.204  80.784  1.00  0.00     0.157 HD
ATOM     17  H11 UNL     1      14.959  15.467  82.340  1.00  0.00     0.157 HD
ENDBRANCH  11  15
BRANCH  13  18
HETATM   18  C16 UNL     1      16.068  18.574  82.062  1.00  0.00     0.213 C 
HETATM   19  O6  UNL     1      16.641  18.907  81.007  1.00  0.00    -0.644 OA
HETATM   20  O7  UNL     1      16.810  18.315  83.190  1.00  0.00    -0.644 OA
ENDBRANCH  13  18
ENDBRANCH   6   8
ENDBRANCH   1   5
BRANCH   3  21
HETATM   21  C6  UNL     1       8.039  18.840  84.859  1.00  0.00     0.317 C 
HETATM   22  O2  UNL     1       6.820  18.631  84.696  1.00  0.00    -0.262 OA
HETATM   23  N5  UNL     1       8.727  18.280  85.963  1.00  0.00    -0.285 N 
HETATM   24  C7  UNL     1       8.092  17.460  86.935  1.00  0.00     0.258 C 
ATOM     25  H5  UNL     1       9.723  18.473  86.065  1.00  0.00     0.172 HD
HETATM   26  O3  UNL     1       8.772  16.984  87.907  1.00  0.00    -0.267 OA
BRANCH  24  27
HETATM   27  C8  UNL     1       6.668  17.126  86.877  1.00  0.00     0.032 A 
HETATM   28  C9  UNL     1       5.798  17.788  87.751  1.00  0.00     0.019 A 
HETATM   29  C10 UNL     1       4.458  17.473  87.692  1.00  0.00     0.037 A 
HETATM   30  C11 UNL     1       3.956  16.540  86.812  1.00  0.00     0.102 A 
HETATM   31  C12 UNL     1       4.819  15.878  85.939  1.00  0.00     0.037 A 
HETATM   32  C13 UNL     1       6.161  16.185  85.989  1.00  0.00     0.019 A 
BRANCH  30  33
HETATM   33  N6  UNL     1       2.569  16.233  86.771  1.00  0.00    -0.116 N 
HETATM   34  O4  UNL     1       2.223  15.038  86.749  1.00  0.00    -0.532 OA
HETATM   35  O5  UNL     1       1.605  17.206  86.755  1.00  0.00    -0.532 OA
ENDBRANCH  30  33
ENDBRANCH  24  27
ENDBRANCH   3  21
TORSDOF 7
ENDMDL
MODEL 5
REMARK VINA RESULT: -8.288938991      2.396      2.985
REMARK  7 active torsions:
REMARK  status: ('A' for Active; 'I' for Inactive)
REMARK    1  A    between atoms: N1_1  and  C1_4 
REMARK    2  A    between atoms: C3_8  and  C4_9 
REMARK    3  A    between atoms: N3_10  and  N4_12 
REMARK       I    between atoms: N4_12  and  C5_14 
REMARK    4  A    between atoms: C5_14  and  C6_16 
REMARK       I    between atoms: C6_16  and  N5_18 
REMARK       I    between atoms: N5_18  and  C7_20 
REMARK    5  A    between atoms: C7_20  and  C8_22 
REMARK    6  A    between atoms: C11_25  and  N6_26 
REMARK    7  A    between atoms: C15_32  and  C16_33 
ROOT
HETATM    1  N4  UNL     1       5.045  15.977  87.537  1.00  0.00    -0.262 N 
ATOM      2  H4  UNL     1       5.327  15.785  86.576  1.00  0.00     0.190 HD
HETATM    3  C5  UNL     1       4.223  17.131  87.836  1.00  0.00     0.328 C 
HETATM    4  O1  UNL     1       3.873  17.373  89.002  1.00  0.00    -0.261 OA
ENDROOT
BRANCH   1   5
HETATM    5  N3  UNL     1       5.432  15.165  88.524  1.00  0.00    -0.308 N 
HETATM    6  C4  UNL     1       6.406  15.072  89.260  1.00  0.00     0.120 C 
ATOM      7  H3  UNL     1       4.742  14.438  88.712  1.00  0.00     0.186 HD
BRANCH   6   8
HETATM    8  C3  UNL     1       7.582  15.910  89.294  1.00  0.00    -0.003 A 
HETATM    9  C2  UNL     1       8.293  16.284  88.195  1.00  0.00     0.102 A 
HETATM   10  N2  UNL     1       9.395  17.079  88.314  1.00  0.00    -0.351 N 
HETATM   11  C1  UNL     1       9.817  17.519  89.508  1.00  0.00     0.116 A 
ATOM     12  H2  UNL     1       9.910  17.345  87.475  1.00  0.00     0.166 HD
HETATM   13  C15 UNL     1       9.112  17.153  90.642  1.00  0.00     0.085 A 
HETATM   14  C14 UNL     1       8.010  16.361  90.541  1.00  0.00     0.036 A 
BRANCH  11  15
HETATM   15  N1  UNL     1      10.851  18.272  89.674  1.00  0.00    -0.385 N 
ATOM     16  H12 UNL     1      11.564  18.252  88.945  1.00  0.00     0.157 HD
ATOM     17  H11 UNL     1      10.991  18.876  90.483  1.00  0.00     0.157 HD
ENDBRANCH  11  15
BRANCH  13  18
HETATM   18  C16 UNL     1       9.551  17.618  91.935  1.00  0.00     0.213 C 
HETATM   19  O6  UNL     1       8.756  18.213  92.687  1.00  0.00    -0.644 OA
HETATM   20  O7  UNL     1      10.846  17.403  92.343  1.00  0.00    -0.644 OA
ENDBRANCH  13  18
ENDBRANCH   6   8
ENDBRANCH   1   5
BRANCH   3  21
HETATM   21  C6  UNL     1       3.820  17.989  86.749  1.00  0.00     0.317 C 
HETATM   22  O2  UNL     1       4.631  18.809  86.274  1.00  0.00    -0.262 OA
HETATM   23  N5  UNL     1       2.505  17.891  86.232  1.00  0.00    -0.285 N 
HETATM   24  C7  UNL     1       2.031  18.700  85.164  1.00  0.00     0.258 C 
ATOM     25  H5  UNL     1       1.869  17.209  86.646  1.00  0.00     0.172 HD
HETATM   26  O3  UNL     1       0.831  18.560  84.745  1.00  0.00    -0.267 OA
BRANCH  24  27
HETATM   27  C8  UNL     1       2.865  19.706  84.506  1.00  0.00     0.032 A 
HETATM   28  C9  UNL     1       3.619  19.317  83.393  1.00  0.00     0.019 A 
HETATM   29  C10 UNL     1       4.401  20.267  82.775  1.00  0.00     0.037 A 
HETATM   30  C11 UNL     1       4.462  21.572  83.213  1.00  0.00     0.102 A 
HETATM   31  C12 UNL     1       3.714  21.966  84.322  1.00  0.00     0.037 A 
HETATM   32  C13 UNL     1       2.928  21.022  84.947  1.00  0.00     0.019 A 
BRANCH  30  33
HETATM   33  N6  UNL     1       5.277  22.534  82.558  1.00  0.00    -0.116 N 
HETATM   34  O4  UNL     1       4.992  23.739  82.678  1.00  0.00    -0.532 OA
HETATM   35  O5  UNL     1       6.363  22.179  81.802  1.00  0.00    -0.532 OA
ENDBRANCH  30  33
ENDBRANCH  24  27
ENDBRANCH   3  21
TORSDOF 7
ENDMDL
