MODEL 1
REMARK VINA RESULT: -8.203912611      0.000      0.000
REMARK  10 active torsions:
REMARK  status: ('A' for Active; 'I' for Inactive)
REMARK    1  A    between atoms: C15_16  and  C17_18 
REMARK    2  A    between atoms: C17_18  and  C18_19 
REMARK    3  A    between atoms: C18_19  and  O2_20 
REMARK    4  A    between atoms: C18_19  and  C19_22 
REMARK    5  A    between atoms: C19_22  and  O3_23 
REMARK    6  A    between atoms: C19_22  and  C20_25 
REMARK    7  A    between atoms: C20_25  and  C21_26 
REMARK    8  A    between atoms: C21_26  and  O4_27 
REMARK    9  A    between atoms: C26_33  and  O5_34 
REMARK   10  A    between atoms: C27_36  and  O6_37 
ROOT
HETATM    1  C1  UNL     1      31.369  -9.329 -14.683  1.00  0.00     0.018 C 
HETATM    2  C2  UNL     1      30.228  -8.596 -15.317  1.00  0.00    -0.011 C 
HETATM    3  C3  UNL     1      29.358  -9.395 -16.198  1.00  0.00     0.012 C 
HETATM    4  C4  UNL     1      27.965  -9.666 -15.593  1.00  0.00     0.007 C 
HETATM    5  C5  UNL     1      28.133 -10.016 -14.113  1.00  0.00    -0.001 C 
HETATM    6  C6  UNL     1      28.532  -8.721 -13.457  1.00  0.00     0.002 C 
HETATM    7  C7  UNL     1      27.223  -7.954 -13.211  1.00  0.00     0.084 C 
HETATM    8  C8  UNL     1      26.608  -8.770 -12.107  1.00  0.00     0.133 C 
HETATM    9  O1  UNL     1      26.532  -8.224 -11.062  1.00  0.00    -0.298 OA
HETATM   10  C9  UNL     1      26.183 -10.150 -12.495  1.00  0.00     0.072 C 
HETATM   11  C10 UNL     1      27.057 -10.802 -13.499  1.00  0.00    -0.029 C 
HETATM   12  C11 UNL     1      26.200 -11.306 -14.691  1.00  0.00     0.016 C 
HETATM   13  C12 UNL     1      27.688 -12.113 -13.010  1.00  0.00     0.010 C 
HETATM   14  C13 UNL     1      26.722 -13.015 -12.366  1.00  0.00     0.002 C 
HETATM   15  C14 UNL     1      25.729 -12.414 -11.462  1.00  0.00     0.011 C 
HETATM   16  C15 UNL     1      25.862 -10.900 -11.242  1.00  0.00    -0.023 C 
HETATM   17  C16 UNL     1      26.958 -10.748 -10.224  1.00  0.00     0.017 C 
HETATM   18  C24 UNL     1      29.354  -7.862 -14.328  1.00  0.00     0.003 C 
HETATM   19  C25 UNL     1      30.354  -6.995 -13.643  1.00  0.00     0.040 C 
HETATM   20  C26 UNL     1      31.193  -6.489 -14.823  1.00  0.00     0.148 C 
HETATM   21  C27 UNL     1      30.846  -7.369 -16.007  1.00  0.00     0.155 C 
ENDROOT
BRANCH  16  22
HETATM   22  C17 UNL     1      24.456 -10.577 -10.691  1.00  0.00    -0.004 A 
HETATM   23  C22 UNL     1      23.649 -11.847 -10.626  1.00  0.00     0.014 A 
HETATM   24  C23 UNL     1      23.249 -10.650 -11.460  1.00  0.00     0.014 A 
BRANCH  22  25
HETATM   25  C18 UNL     1      24.513  -9.763  -9.425  1.00  0.00     0.156 C 
BRANCH  25  26
HETATM   26  O2  UNL     1      23.919  -8.507  -9.614  1.00  0.00    -0.392 OA
ATOM     27  H2  UNL     1      24.185  -7.902  -8.931  1.00  0.00     0.210 HD
ENDBRANCH  25  26
BRANCH  25  28
HETATM   28  C19 UNL     1      23.855 -10.308  -8.212  1.00  0.00     0.149 C 
BRANCH  28  29
HETATM   29  O3  UNL     1      22.583  -9.924  -7.916  1.00  0.00    -0.393 OA
ATOM     30  H3  UNL     1      21.903 -10.583  -7.847  1.00  0.00     0.210 HD
ENDBRANCH  28  29
BRANCH  28  31
HETATM   31  C20 UNL     1      24.763 -10.526  -7.019  1.00  0.00     0.060 C 
BRANCH  31  32
HETATM   32  C21 UNL     1      24.000  -9.966  -5.802  1.00  0.00     0.166 C 
BRANCH  32  33
HETATM   33  O4  UNL     1      24.101  -8.599  -5.728  1.00  0.00    -0.401 OA
ATOM     34  H4  UNL     1      23.514  -8.172  -6.340  1.00  0.00     0.209 HD
ENDBRANCH  32  33
ENDBRANCH  31  32
ENDBRANCH  28  31
ENDBRANCH  25  28
ENDBRANCH  22  25
ENDBRANCH  16  22
BRANCH  21  35
HETATM   35  O6  UNL     1      32.012  -7.765 -16.629  1.00  0.00    -0.392 OA
ATOM     36  H6  UNL     1      31.868  -8.621 -17.015  1.00  0.00     0.210 HD
ENDBRANCH  21  35
BRANCH  20  37
HETATM   37  O5  UNL     1      32.543  -6.503 -14.536  1.00  0.00    -0.393 OA
ATOM     38  H5  UNL     1      33.031  -5.916 -15.102  1.00  0.00     0.210 HD
ENDBRANCH  20  37
TORSDOF 10
ENDMDL
MODEL 2
REMARK VINA RESULT: -8.005651168      1.230      1.398
REMARK  10 active torsions:
REMARK  status: ('A' for Active; 'I' for Inactive)
REMARK    1  A    between atoms: C15_16  and  C17_18 
REMARK    2  A    between atoms: C17_18  and  C18_19 
REMARK    3  A    between atoms: C18_19  and  O2_20 
REMARK    4  A    between atoms: C18_19  and  C19_22 
REMARK    5  A    between atoms: C19_22  and  O3_23 
REMARK    6  A    between atoms: C19_22  and  C20_25 
REMARK    7  A    between atoms: C20_25  and  C21_26 
REMARK    8  A    between atoms: C21_26  and  O4_27 
REMARK    9  A    between atoms: C26_33  and  O5_34 
REMARK   10  A    between atoms: C27_36  and  O6_37 
ROOT
HETATM    1  C1  UNL     1      32.107  -9.351 -14.733  1.00  0.00     0.018 C 
HETATM    2  C2  UNL     1      30.995  -9.476 -15.728  1.00  0.00    -0.011 C 
HETATM    3  C3  UNL     1      30.585 -10.850 -16.069  1.00  0.00     0.012 C 
HETATM    4  C4  UNL     1      29.207 -11.235 -15.493  1.00  0.00     0.007 C 
HETATM    5  C5  UNL     1      29.113 -10.711 -14.057  1.00  0.00    -0.001 C 
HETATM    6  C6  UNL     1      29.005  -9.217 -14.202  1.00  0.00     0.002 C 
HETATM    7  C7  UNL     1      27.523  -8.929 -14.491  1.00  0.00     0.084 C 
HETATM    8  C8  UNL     1      26.900  -9.232 -13.156  1.00  0.00     0.133 C 
HETATM    9  O1  UNL     1      26.448  -8.299 -12.589  1.00  0.00    -0.298 OA
HETATM   10  C9  UNL     1      26.944 -10.668 -12.743  1.00  0.00     0.072 C 
HETATM   11  C10 UNL     1      28.163 -11.394 -13.172  1.00  0.00    -0.029 C 
HETATM   12  C11 UNL     1      27.762 -12.685 -13.935  1.00  0.00     0.016 C 
HETATM   13  C12 UNL     1      28.978 -11.975 -12.009  1.00  0.00     0.010 C 
HETATM   14  C13 UNL     1      28.153 -12.697 -11.029  1.00  0.00     0.002 C 
HETATM   15  C14 UNL     1      26.859 -12.103 -10.661  1.00  0.00     0.011 C 
HETATM   16  C15 UNL     1      26.545 -10.744 -11.303  1.00  0.00    -0.023 C 
HETATM   17  C16 UNL     1      27.300  -9.738 -10.479  1.00  0.00     0.017 C 
HETATM   18  C24 UNL     1      29.758  -8.693 -15.355  1.00  0.00     0.003 C 
HETATM   19  C25 UNL     1      30.317  -7.320 -15.207  1.00  0.00     0.040 C 
HETATM   20  C26 UNL     1      31.247  -7.225 -16.423  1.00  0.00     0.148 C 
HETATM   21  C27 UNL     1      31.420  -8.638 -16.944  1.00  0.00     0.155 C 
ENDROOT
BRANCH  16  22
HETATM   22  C17 UNL     1      25.016 -10.688 -11.099  1.00  0.00    -0.004 A 
HETATM   23  C22 UNL     1      24.470 -12.092 -11.078  1.00  0.00     0.014 A 
HETATM   24  C23 UNL     1      24.052 -11.054 -12.095  1.00  0.00     0.014 A 
BRANCH  22  25
HETATM   25  C18 UNL     1      24.627  -9.808  -9.939  1.00  0.00     0.156 C 
BRANCH  25  26
HETATM   26  O2  UNL     1      23.857  -8.721 -10.377  1.00  0.00    -0.392 OA
ATOM     27  H2  UNL     1      24.208  -8.364 -11.185  1.00  0.00     0.210 HD
ENDBRANCH  25  26
BRANCH  25  28
HETATM   28  C19 UNL     1      23.832 -10.410  -8.841  1.00  0.00     0.149 C 
BRANCH  28  29
HETATM   29  O3  UNL     1      22.480 -10.509  -8.974  1.00  0.00    -0.393 OA
ATOM     30  H3  UNL     1      22.119 -11.121  -9.605  1.00  0.00     0.210 HD
ENDBRANCH  28  29
BRANCH  28  31
HETATM   31  C20 UNL     1      24.327 -10.115  -7.440  1.00  0.00     0.060 C 
BRANCH  31  32
HETATM   32  C21 UNL     1      23.207  -9.304  -6.759  1.00  0.00     0.166 C 
BRANCH  32  33
HETATM   33  O4  UNL     1      22.803  -8.247  -7.538  1.00  0.00    -0.401 OA
ATOM     34  H4  UNL     1      22.310  -8.540  -8.295  1.00  0.00     0.209 HD
ENDBRANCH  32  33
ENDBRANCH  31  32
ENDBRANCH  28  31
ENDBRANCH  25  28
ENDBRANCH  22  25
ENDBRANCH  16  22
BRANCH  21  35
HETATM   35  O6  UNL     1      32.759  -8.869 -17.180  1.00  0.00    -0.392 OA
ATOM     36  H6  UNL     1      33.153  -8.057 -17.477  1.00  0.00     0.210 HD
ENDBRANCH  21  35
BRANCH  20  37
HETATM   37  O5  UNL     1      32.452  -6.632 -16.102  1.00  0.00    -0.393 OA
ATOM     38  H5  UNL     1      32.466  -5.711 -16.334  1.00  0.00     0.210 HD
ENDBRANCH  20  37
TORSDOF 10
ENDMDL
MODEL 3
REMARK VINA RESULT: -7.607765061      1.663      2.333
REMARK  10 active torsions:
REMARK  status: ('A' for Active; 'I' for Inactive)
REMARK    1  A    between atoms: C15_16  and  C17_18 
REMARK    2  A    between atoms: C17_18  and  C18_19 
REMARK    3  A    between atoms: C18_19  and  O2_20 
REMARK    4  A    between atoms: C18_19  and  C19_22 
REMARK    5  A    between atoms: C19_22  and  O3_23 
REMARK    6  A    between atoms: C19_22  and  C20_25 
REMARK    7  A    between atoms: C20_25  and  C21_26 
REMARK    8  A    between atoms: C21_26  and  O4_27 
REMARK    9  A    between atoms: C26_33  and  O5_34 
REMARK   10  A    between atoms: C27_36  and  O6_37 
ROOT
HETATM    1  C1  UNL     1      31.782  -6.296 -12.792  1.00  0.00     0.018 C 
HETATM    2  C2  UNL     1      30.614  -5.797 -13.585  1.00  0.00    -0.011 C 
HETATM    3  C3  UNL     1      30.302  -6.547 -14.814  1.00  0.00     0.012 C 
HETATM    4  C4  UNL     1      29.009  -7.381 -14.706  1.00  0.00     0.007 C 
HETATM    5  C5  UNL     1      28.976  -8.057 -13.333  1.00  0.00    -0.001 C 
HETATM    6  C6  UNL     1      28.729  -6.936 -12.360  1.00  0.00     0.002 C 
HETATM    7  C7  UNL     1      27.210  -6.699 -12.370  1.00  0.00     0.084 C 
HETATM    8  C8  UNL     1      26.716  -7.933 -11.668  1.00  0.00     0.133 C 
HETATM    9  O1  UNL     1      26.228  -7.746 -10.608  1.00  0.00    -0.298 OA
HETATM   10  C9  UNL     1      26.915  -9.214 -12.412  1.00  0.00     0.072 C 
HETATM   11  C10 UNL     1      28.157  -9.269 -13.219  1.00  0.00    -0.029 C 
HETATM   12  C11 UNL     1      27.815  -9.659 -14.682  1.00  0.00     0.016 C 
HETATM   13  C12 UNL     1      29.103 -10.409 -12.820  1.00  0.00     0.010 C 
HETATM   14  C13 UNL     1      28.419 -11.702 -12.666  1.00  0.00     0.002 C 
HETATM   15  C14 UNL     1      27.109 -11.702 -11.998  1.00  0.00     0.011 C 
HETATM   16  C15 UNL     1      26.632 -10.341 -11.471  1.00  0.00    -0.023 C 
HETATM   17  C16 UNL     1      27.355 -10.151 -10.167  1.00  0.00     0.017 C 
HETATM   18  C24 UNL     1      29.346  -5.664 -12.777  1.00  0.00     0.003 C 
HETATM   19  C25 UNL     1      29.793  -4.759 -11.681  1.00  0.00     0.040 C 
HETATM   20  C26 UNL     1      30.619  -3.718 -12.448  1.00  0.00     0.148 C 
HETATM   21  C27 UNL     1      30.874  -4.301 -13.823  1.00  0.00     0.155 C 
ENDROOT
BRANCH  16  22
HETATM   22  C17 UNL     1      25.123 -10.622 -11.306  1.00  0.00    -0.004 A 
HETATM   23  C22 UNL     1      24.908 -12.109 -11.201  1.00  0.00     0.014 A 
HETATM   24  C23 UNL     1      24.304 -11.258 -12.296  1.00  0.00     0.014 A 
BRANCH  22  25
HETATM   25  C18 UNL     1      24.502  -9.785 -10.217  1.00  0.00     0.156 C 
BRANCH  25  26
HETATM   26  O2  UNL     1      23.544  -8.909 -10.749  1.00  0.00    -0.392 OA
ATOM     27  H2  UNL     1      22.932  -9.378 -11.304  1.00  0.00     0.210 HD
ENDBRANCH  25  26
BRANCH  25  28
HETATM   28  C19 UNL     1      23.799 -10.482  -9.113  1.00  0.00     0.149 C 
BRANCH  28  29
HETATM   29  O3  UNL     1      22.451 -10.662  -9.191  1.00  0.00    -0.393 OA
ATOM     30  H3  UNL     1      22.093 -11.187  -9.897  1.00  0.00     0.210 HD
ENDBRANCH  28  29
BRANCH  28  31
HETATM   31  C20 UNL     1      24.340 -10.215  -7.724  1.00  0.00     0.060 C 
BRANCH  31  32
HETATM   32  C21 UNL     1      23.236  -9.432  -6.985  1.00  0.00     0.166 C 
BRANCH  32  33
HETATM   33  O4  UNL     1      22.841  -8.325  -7.695  1.00  0.00    -0.401 OA
ATOM     34  H4  UNL     1      22.660  -7.589  -7.123  1.00  0.00     0.209 HD
ENDBRANCH  32  33
ENDBRANCH  31  32
ENDBRANCH  28  31
ENDBRANCH  25  28
ENDBRANCH  22  25
ENDBRANCH  16  22
BRANCH  21  35
HETATM   35  O6  UNL     1      32.207  -4.139 -14.138  1.00  0.00    -0.392 OA
ATOM     36  H6  UNL     1      32.689  -3.997 -13.332  1.00  0.00     0.210 HD
ENDBRANCH  21  35
BRANCH  20  37
HETATM   37  O5  UNL     1      31.788  -3.402 -11.785  1.00  0.00    -0.393 OA
ATOM     38  H5  UNL     1      32.541  -3.428 -12.364  1.00  0.00     0.210 HD
ENDBRANCH  20  37
TORSDOF 10
ENDMDL
MODEL 4
REMARK VINA RESULT: -7.427383105      3.600      8.596
REMARK  10 active torsions:
REMARK  status: ('A' for Active; 'I' for Inactive)
REMARK    1  A    between atoms: C15_16  and  C17_18 
REMARK    2  A    between atoms: C17_18  and  C18_19 
REMARK    3  A    between atoms: C18_19  and  O2_20 
REMARK    4  A    between atoms: C18_19  and  C19_22 
REMARK    5  A    between atoms: C19_22  and  O3_23 
REMARK    6  A    between atoms: C19_22  and  C20_25 
REMARK    7  A    between atoms: C20_25  and  C21_26 
REMARK    8  A    between atoms: C21_26  and  O4_27 
REMARK    9  A    between atoms: C26_33  and  O5_34 
REMARK   10  A    between atoms: C27_36  and  O6_37 
ROOT
HETATM    1  C1  UNL     1      26.596 -15.654  -6.438  1.00  0.00     0.018 C 
HETATM    2  C2  UNL     1      27.339 -14.494  -5.851  1.00  0.00    -0.011 C 
HETATM    3  C3  UNL     1      28.790 -14.462  -6.106  1.00  0.00     0.012 C 
HETATM    4  C4  UNL     1      29.210 -13.360  -7.100  1.00  0.00     0.007 C 
HETATM    5  C5  UNL     1      28.201 -13.328  -8.250  1.00  0.00    -0.001 C 
HETATM    6  C6  UNL     1      26.945 -12.764  -7.642  1.00  0.00     0.002 C 
HETATM    7  C7  UNL     1      27.123 -11.237  -7.648  1.00  0.00     0.084 C 
HETATM    8  C8  UNL     1      27.008 -10.935  -9.116  1.00  0.00     0.133 C 
HETATM    9  O1  UNL     1      26.050 -10.317  -9.428  1.00  0.00    -0.298 OA
HETATM   10  C9  UNL     1      28.121 -11.460  -9.965  1.00  0.00     0.072 C 
HETATM   11  C10 UNL     1      28.672 -12.762  -9.519  1.00  0.00    -0.029 C 
HETATM   12  C11 UNL     1      30.212 -12.652  -9.360  1.00  0.00     0.016 C 
HETATM   13  C12 UNL     1      28.559 -13.874 -10.570  1.00  0.00     0.010 C 
HETATM   14  C13 UNL     1      29.000 -13.452 -11.908  1.00  0.00     0.002 C 
HETATM   15  C14 UNL     1      28.608 -12.110 -12.362  1.00  0.00     0.011 C 
HETATM   16  C15 UNL     1      27.712 -11.318 -11.397  1.00  0.00    -0.023 C 
HETATM   17  C16 UNL     1      26.326 -11.856 -11.620  1.00  0.00     0.017 C 
HETATM   18  C24 UNL     1      26.763 -13.151  -6.231  1.00  0.00     0.003 C 
HETATM   19  C25 UNL     1      25.356 -13.295  -5.764  1.00  0.00     0.040 C 
HETATM   20  C26 UNL     1      25.544 -13.967  -4.398  1.00  0.00     0.148 C 
HETATM   21  C27 UNL     1      26.973 -14.470  -4.359  1.00  0.00     0.155 C 
ENDROOT
BRANCH  16  22
HETATM   22  C17 UNL     1      27.916  -9.888 -11.941  1.00  0.00    -0.004 A 
HETATM   23  C22 UNL     1      29.334  -9.744 -12.430  1.00  0.00     0.014 A 
HETATM   24  C23 UNL     1      28.747  -8.897 -11.323  1.00  0.00     0.014 A 
BRANCH  22  25
HETATM   25  C18 UNL     1      26.837  -9.488 -12.913  1.00  0.00     0.156 C 
BRANCH  25  26
HETATM   26  O2  UNL     1      26.114  -8.389 -12.428  1.00  0.00    -0.392 OA
ATOM     27  H2  UNL     1      25.251  -8.656 -12.135  1.00  0.00     0.210 HD
ENDBRANCH  25  26
BRANCH  25  28
HETATM   28  C19 UNL     1      27.241  -9.093 -14.285  1.00  0.00     0.149 C 
BRANCH  28  29
HETATM   29  O3  UNL     1      27.025  -7.815 -14.701  1.00  0.00    -0.393 OA
ATOM     30  H3  UNL     1      27.034  -7.621 -15.631  1.00  0.00     0.210 HD
ENDBRANCH  28  29
BRANCH  28  31
HETATM   31  C20 UNL     1      27.072 -10.159 -15.347  1.00  0.00     0.060 C 
BRANCH  31  32
HETATM   32  C21 UNL     1      27.003  -9.407 -16.692  1.00  0.00     0.166 C 
BRANCH  32  33
HETATM   33  O4  UNL     1      25.748  -8.901 -16.924  1.00  0.00    -0.401 OA
ATOM     34  H4  UNL     1      25.781  -8.118 -17.460  1.00  0.00     0.209 HD
ENDBRANCH  32  33
ENDBRANCH  31  32
ENDBRANCH  28  31
ENDBRANCH  25  28
ENDBRANCH  22  25
ENDBRANCH  16  22
BRANCH  21  35
HETATM   35  O6  UNL     1      26.980 -15.767  -3.891  1.00  0.00    -0.392 OA
ATOM     36  H6  UNL     1      26.129 -15.951  -3.511  1.00  0.00     0.210 HD
ENDBRANCH  21  35
BRANCH  20  37
HETATM   37  O5  UNL     1      24.625 -14.977  -4.192  1.00  0.00    -0.393 OA
ATOM     38  H5  UNL     1      24.148 -14.860  -3.379  1.00  0.00     0.210 HD
ENDBRANCH  20  37
TORSDOF 10
ENDMDL
MODEL 5
REMARK VINA RESULT: -7.346447040      1.710      7.578
REMARK  10 active torsions:
REMARK  status: ('A' for Active; 'I' for Inactive)
REMARK    1  A    between atoms: C15_16  and  C17_18 
REMARK    2  A    between atoms: C17_18  and  C18_19 
REMARK    3  A    between atoms: C18_19  and  O2_20 
REMARK    4  A    between atoms: C18_19  and  C19_22 
REMARK    5  A    between atoms: C19_22  and  O3_23 
REMARK    6  A    between atoms: C19_22  and  C20_25 
REMARK    7  A    between atoms: C20_25  and  C21_26 
REMARK    8  A    between atoms: C21_26  and  O4_27 
REMARK    9  A    between atoms: C26_33  and  O5_34 
REMARK   10  A    between atoms: C27_36  and  O6_37 
ROOT
HETATM    1  C1  UNL     1      23.509 -10.952 -11.768  1.00  0.00     0.018 C 
HETATM    2  C2  UNL     1      24.708 -11.454 -11.025  1.00  0.00    -0.011 C 
HETATM    3  C3  UNL     1      25.499 -12.495 -11.705  1.00  0.00     0.012 C 
HETATM    4  C4  UNL     1      26.865 -11.987 -12.210  1.00  0.00     0.007 C 
HETATM    5  C5  UNL     1      26.674 -10.602 -12.832  1.00  0.00    -0.001 C 
HETATM    6  C6  UNL     1      26.395  -9.694 -11.664  1.00  0.00     0.002 C 
HETATM    7  C7  UNL     1      27.768  -9.330 -11.077  1.00  0.00     0.084 C 
HETATM    8  C8  UNL     1      28.313  -8.424 -12.146  1.00  0.00     0.133 C 
HETATM    9  O1  UNL     1      28.442  -7.294 -11.829  1.00  0.00    -0.298 OA
HETATM   10  C9  UNL     1      28.611  -9.087 -13.453  1.00  0.00     0.072 C 
HETATM   11  C10 UNL     1      27.678 -10.180 -13.814  1.00  0.00    -0.029 C 
HETATM   12  C11 UNL     1      28.481 -11.467 -14.143  1.00  0.00     0.016 C 
HETATM   13  C12 UNL     1      26.935  -9.946 -15.137  1.00  0.00     0.010 C 
HETATM   14  C13 UNL     1      27.821  -9.514 -16.229  1.00  0.00     0.002 C 
HETATM   15  C14 UNL     1      28.867  -8.533 -15.908  1.00  0.00     0.011 C 
HETATM   16  C15 UNL     1      28.871  -8.015 -14.463  1.00  0.00    -0.023 C 
HETATM   17  C16 UNL     1      27.798  -6.962 -14.422  1.00  0.00     0.017 C 
HETATM   18  C24 UNL     1      25.648 -10.359 -10.581  1.00  0.00     0.003 C 
HETATM   19  C25 UNL     1      24.733  -9.495  -9.785  1.00  0.00     0.040 C 
HETATM   20  C26 UNL     1      23.937 -10.532  -8.983  1.00  0.00     0.148 C 
HETATM   21  C27 UNL     1      24.198 -11.874  -9.637  1.00  0.00     0.155 C 
ENDROOT
BRANCH  16  22
HETATM   22  C17 UNL     1      30.302  -7.442 -14.378  1.00  0.00    -0.004 A 
HETATM   23  C22 UNL     1      30.809  -7.176 -15.771  1.00  0.00     0.014 A 
HETATM   24  C23 UNL     1      31.478  -8.135 -14.813  1.00  0.00     0.014 A 
BRANCH  22  25
HETATM   25  C18 UNL     1      30.401  -6.294 -13.407  1.00  0.00     0.156 C 
BRANCH  25  26
HETATM   26  O2  UNL     1      31.436  -6.511 -12.486  1.00  0.00    -0.392 OA
ATOM     27  H2  UNL     1      31.178  -6.227 -11.617  1.00  0.00     0.210 HD
ENDBRANCH  25  26
BRANCH  25  28
HETATM   28  C19 UNL     1      30.662  -4.939 -13.949  1.00  0.00     0.149 C 
BRANCH  28  29
HETATM   29  O3  UNL     1      31.930  -4.443 -13.922  1.00  0.00    -0.393 OA
ATOM     30  H3  UNL     1      32.077  -3.562 -13.598  1.00  0.00     0.210 HD
ENDBRANCH  28  29
BRANCH  28  31
HETATM   31  C20 UNL     1      29.562  -3.922 -13.723  1.00  0.00     0.060 C 
BRANCH  31  32
HETATM   32  C21 UNL     1      29.366  -3.846 -12.195  1.00  0.00     0.166 C 
BRANCH  32  33
HETATM   33  O4  UNL     1      28.069  -4.119 -11.837  1.00  0.00    -0.401 OA
ATOM     34  H4  UNL     1      27.480  -4.049 -12.578  1.00  0.00     0.209 HD
ENDBRANCH  32  33
ENDBRANCH  31  32
ENDBRANCH  28  31
ENDBRANCH  25  28
ENDBRANCH  22  25
ENDBRANCH  16  22
BRANCH  21  35
HETATM   35  O6  UNL     1      22.999 -12.536  -9.799  1.00  0.00    -0.392 OA
ATOM     36  H6  UNL     1      23.182 -13.407 -10.129  1.00  0.00     0.210 HD
ENDBRANCH  21  35
BRANCH  20  37
HETATM   37  O5  UNL     1      22.592 -10.223  -8.937  1.00  0.00    -0.393 OA
ATOM     38  H5  UNL     1      22.331  -9.907  -8.080  1.00  0.00     0.210 HD
ENDBRANCH  20  37
TORSDOF 10
ENDMDL
