MODEL 1
REMARK VINA RESULT: -7.858190742      0.000      0.000
REMARK  9 active torsions:
REMARK  status: ('A' for Active; 'I' for Inactive)
REMARK    1  A    between atoms: C2_2  and  N1_3 
REMARK    2  A    between atoms: N1_3  and  C3_4 
REMARK    3  A    between atoms: N1_3  and  C10_35 
REMARK    4  A    between atoms: C3_4  and  C4_5 
REMARK    5  A    between atoms: C5_11  and  N4_12 
REMARK    6  A    between atoms: N4_12  and  C6_14 
REMARK    7  A    between atoms: C7_17  and  N6_18 
REMARK    8  A    between atoms: N6_18  and  N7_20 
REMARK    9  A    between atoms: C11_38  and  N14_39 
ROOT
HETATM    1  N4  UNL     1      56.548  15.489  48.356  1.00  0.00    -0.171 N 
ATOM      2  H4  UNL     1      57.305  14.806  48.399  1.00  0.00     0.186 HD
ENDROOT
BRANCH   1   3
HETATM    3  C5  UNL     1      56.059  15.967  49.451  1.00  0.00     0.169 A 
HETATM    4  C4  UNL     1      56.598  17.018  50.227  1.00  0.00     0.099 A 
HETATM    5  N2  UNL     1      55.770  17.175  51.261  1.00  0.00    -0.240 N 
HETATM    6  O1  UNL     1      54.822  16.331  51.158  1.00  0.00    -0.155 OA
ATOM      7  H2  UNL     1      55.879  17.858  52.010  1.00  0.00     0.196 HD
HETATM    8  N3  UNL     1      54.950  15.593  50.100  1.00  0.00    -0.223 N 
ATOM      9  H3  UNL     1      54.313  14.851  49.810  1.00  0.00     0.198 HD
BRANCH   4  10
HETATM   10  C3  UNL     1      57.824  17.703  49.846  1.00  0.00     0.204 C 
BRANCH  10  11
HETATM   11  N1  UNL     1      57.693  18.764  48.923  1.00  0.00    -0.212 N 
BRANCH  11  12
HETATM   12  C2  UNL     1      58.546  18.843  47.719  1.00  0.00     0.137 C 
HETATM   13  C1  UNL     1      59.342  17.598  47.506  1.00  0.00     0.027 C 
ENDBRANCH  11  12
BRANCH  11  14
HETATM   14  C10 UNL     1      56.754  19.838  49.053  1.00  0.00     0.689 A 
HETATM   15  N13 UNL     1      55.862  20.086  48.142  1.00  0.00    -0.169 N 
HETATM   16  C11 UNL     1      54.988  21.065  48.325  1.00  0.00     0.174 A 
ATOM     17  H13 UNL     1      55.833  19.529  47.287  1.00  0.00     0.186 HD
HETATM   18  S1  UNL     1      55.459  21.653  49.858  1.00  0.00     0.038 SA
HETATM   19  N15 UNL     1      56.745  20.602  50.156  1.00  0.00    -0.157 N 
ATOM     20  H15 UNL     1      57.360  20.558  50.968  1.00  0.00     0.193 HD
BRANCH  16  21
HETATM   21  N14 UNL     1      54.042  21.437  47.518  1.00  0.00    -0.378 N 
ATOM     22 2H14 UNL     1      53.170  20.981  47.246  1.00  0.00     0.158 HD
ATOM     23 1H14 UNL     1      53.994  22.301  46.978  1.00  0.00     0.158 HD
ENDBRANCH  16  21
ENDBRANCH  11  14
ENDBRANCH  10  11
ENDBRANCH   4  10
ENDBRANCH   1   3
BRANCH   1  24
HETATM   24  C6  UNL     1      56.051  15.895  47.102  1.00  0.00     0.719 A 
HETATM   25  N5  UNL     1      55.464  17.016  46.968  1.00  0.00    -0.183 N 
HETATM   26  C7  UNL     1      54.913  17.559  45.772  1.00  0.00     0.342 A 
ATOM     27  H5  UNL     1      55.379  17.587  47.808  1.00  0.00     0.181 HD
HETATM   28  N8  UNL     1      55.087  16.678  44.652  1.00  0.00    -0.183 N 
HETATM   29  C8  UNL     1      55.737  15.427  44.781  1.00  0.00     0.732 A 
ATOM     30  H8  UNL     1      54.732  16.960  43.739  1.00  0.00     0.181 HD
HETATM   31  N9  UNL     1      56.020  14.431  43.886  1.00  0.00    -0.019 N 
HETATM   32  N12 UNL     1      56.210  15.040  45.979  1.00  0.00     0.105 N 
HETATM   33  C9  UNL     1      56.659  13.442  44.523  1.00  0.00     0.706 A 
ATOM     34  H9  UNL     1      55.781  14.440  42.894  1.00  0.00     0.203 HD
HETATM   35  N10 UNL     1      57.100  12.317  44.026  1.00  0.00    -0.233 N 
HETATM   36  N11 UNL     1      56.760  13.842  45.796  1.00  0.00    -0.096 N 
ATOM     37 2H10 UNL     1      57.024  12.012  43.056  1.00  0.00     0.174 HD
ATOM     38 1H10 UNL     1      57.587  11.563  44.511  1.00  0.00     0.174 HD
ATOM     39  H11 UNL     1      57.203  13.296  46.536  1.00  0.00     0.207 HD
BRANCH  26  40
HETATM   40  N6  UNL     1      53.479  17.741  45.963  1.00  0.00    -0.235 N 
ATOM     41  H6  UNL     1      52.940  17.106  46.552  1.00  0.00     0.190 HD
BRANCH  40  42
HETATM   42  N7  UNL     1      52.868  18.816  45.314  1.00  0.00    -0.040 N 
HETATM   43  O2  UNL     1      52.173  19.605  45.983  1.00  0.00    -0.517 OA
HETATM   44  O3  UNL     1      53.014  19.020  43.964  1.00  0.00    -0.517 OA
ENDBRANCH  40  42
ENDBRANCH  26  40
ENDBRANCH   1  24
TORSDOF 9
ENDMDL
MODEL 2
REMARK VINA RESULT: -7.669833242      1.789      2.350
REMARK  9 active torsions:
REMARK  status: ('A' for Active; 'I' for Inactive)
REMARK    1  A    between atoms: C2_2  and  N1_3 
REMARK    2  A    between atoms: N1_3  and  C3_4 
REMARK    3  A    between atoms: N1_3  and  C10_35 
REMARK    4  A    between atoms: C3_4  and  C4_5 
REMARK    5  A    between atoms: C5_11  and  N4_12 
REMARK    6  A    between atoms: N4_12  and  C6_14 
REMARK    7  A    between atoms: C7_17  and  N6_18 
REMARK    8  A    between atoms: N6_18  and  N7_20 
REMARK    9  A    between atoms: C11_38  and  N14_39 
ROOT
HETATM    1  N4  UNL     1      56.592  16.823  49.030  1.00  0.00    -0.171 N 
ATOM      2  H4  UNL     1      57.582  16.992  49.208  1.00  0.00     0.186 HD
ENDROOT
BRANCH   1   3
HETATM    3  C5  UNL     1      55.823  16.463  50.004  1.00  0.00     0.169 A 
HETATM    4  C4  UNL     1      55.631  17.148  51.224  1.00  0.00     0.099 A 
HETATM    5  N2  UNL     1      54.759  16.418  51.923  1.00  0.00    -0.240 N 
HETATM    6  O1  UNL     1      54.436  15.397  51.234  1.00  0.00    -0.155 OA
ATOM      7  H2  UNL     1      54.410  16.642  52.855  1.00  0.00     0.196 HD
HETATM    8  N3  UNL     1      55.042  15.380  50.088  1.00  0.00    -0.223 N 
ATOM      9  H3  UNL     1      54.940  14.663  49.371  1.00  0.00     0.198 HD
BRANCH   4  10
HETATM   10  C3  UNL     1      56.317  18.397  51.521  1.00  0.00     0.204 C 
BRANCH  10  11
HETATM   11  N1  UNL     1      55.517  19.561  51.562  1.00  0.00    -0.212 N 
BRANCH  11  12
HETATM   12  C2  UNL     1      55.181  20.215  52.843  1.00  0.00     0.137 C 
HETATM   13  C1  UNL     1      56.023  19.719  53.972  1.00  0.00     0.027 C 
ENDBRANCH  11  12
BRANCH  11  14
HETATM   14  C10 UNL     1      54.967  20.204  50.407  1.00  0.00     0.689 A 
HETATM   15  N13 UNL     1      53.697  20.162  50.135  1.00  0.00    -0.169 N 
HETATM   16  C11 UNL     1      53.229  20.807  49.076  1.00  0.00     0.174 A 
ATOM     17  H13 UNL     1      53.062  19.634  50.734  1.00  0.00     0.186 HD
HETATM   18  S1  UNL     1      54.657  21.499  48.446  1.00  0.00     0.038 SA
HETATM   19  N15 UNL     1      55.755  20.913  49.585  1.00  0.00    -0.157 N 
ATOM     20  H15 UNL     1      56.763  21.060  49.635  1.00  0.00     0.193 HD
BRANCH  16  21
HETATM   21  N14 UNL     1      51.997  20.863  48.671  1.00  0.00    -0.378 N 
ATOM     22 2H14 UNL     1      51.219  20.213  48.786  1.00  0.00     0.158 HD
ATOM     23 1H14 UNL     1      51.556  21.610  48.133  1.00  0.00     0.158 HD
ENDBRANCH  16  21
ENDBRANCH  11  14
ENDBRANCH  10  11
ENDBRANCH   4  10
ENDBRANCH   1   3
BRANCH   1  24
HETATM   24  C6  UNL     1      56.083  16.987  47.727  1.00  0.00     0.719 A 
HETATM   25  N5  UNL     1      55.511  18.070  47.384  1.00  0.00    -0.183 N 
HETATM   26  C7  UNL     1      54.951  18.381  46.112  1.00  0.00     0.342 A 
ATOM     27  H5  UNL     1      55.446  18.795  48.098  1.00  0.00     0.181 HD
HETATM   28  N8  UNL     1      55.096  17.296  45.183  1.00  0.00    -0.183 N 
HETATM   29  C8  UNL     1      55.731  16.083  45.545  1.00  0.00     0.732 A 
ATOM     30  H8  UNL     1      54.733  17.402  44.235  1.00  0.00     0.181 HD
HETATM   31  N9  UNL     1      55.986  14.928  44.857  1.00  0.00    -0.019 N 
HETATM   32  N12 UNL     1      56.214  15.928  46.790  1.00  0.00     0.105 N 
HETATM   33  C9  UNL     1      56.620  14.071  45.667  1.00  0.00     0.706 A 
ATOM     34  H9  UNL     1      55.733  14.749  43.885  1.00  0.00     0.203 HD
HETATM   35  N10 UNL     1      57.037  12.863  45.393  1.00  0.00    -0.233 N 
HETATM   36  N11 UNL     1      56.744  14.708  46.837  1.00  0.00    -0.096 N 
ATOM     37 2H10 UNL     1      56.943  12.377  44.501  1.00  0.00     0.174 HD
ATOM     38 1H10 UNL     1      57.520  12.209  46.010  1.00  0.00     0.174 HD
ATOM     39  H11 UNL     1      57.190  14.309  47.663  1.00  0.00     0.207 HD
BRANCH  26  40
HETATM   40  N6  UNL     1      53.523  18.621  46.280  1.00  0.00    -0.235 N 
ATOM     41  H6  UNL     1      53.019  18.260  47.090  1.00  0.00     0.190 HD
BRANCH  40  42
HETATM   42  N7  UNL     1      52.868  19.363  45.295  1.00  0.00    -0.040 N 
HETATM   43  O2  UNL     1      52.228  20.378  45.634  1.00  0.00    -0.517 OA
HETATM   44  O3  UNL     1      52.913  19.002  43.971  1.00  0.00    -0.517 OA
ENDBRANCH  40  42
ENDBRANCH  26  40
ENDBRANCH   1  24
TORSDOF 9
ENDMDL
MODEL 3
REMARK VINA RESULT: -7.603007283      4.465      8.450
REMARK  9 active torsions:
REMARK  status: ('A' for Active; 'I' for Inactive)
REMARK    1  A    between atoms: C2_2  and  N1_3 
REMARK    2  A    between atoms: N1_3  and  C3_4 
REMARK    3  A    between atoms: N1_3  and  C10_35 
REMARK    4  A    between atoms: C3_4  and  C4_5 
REMARK    5  A    between atoms: C5_11  and  N4_12 
REMARK    6  A    between atoms: N4_12  and  C6_14 
REMARK    7  A    between atoms: C7_17  and  N6_18 
REMARK    8  A    between atoms: N6_18  and  N7_20 
REMARK    9  A    between atoms: C11_38  and  N14_39 
ROOT
HETATM    1  N4  UNL     1      53.357  23.426  47.198  1.00  0.00    -0.171 N 
ATOM      2  H4  UNL     1      54.022  24.184  47.352  1.00  0.00     0.186 HD
ENDROOT
BRANCH   1   3
HETATM    3  C5  UNL     1      52.326  23.627  46.446  1.00  0.00     0.169 A 
HETATM    4  C4  UNL     1      51.556  24.809  46.371  1.00  0.00     0.099 A 
HETATM    5  N2  UNL     1      50.600  24.568  45.472  1.00  0.00    -0.240 N 
HETATM    6  O1  UNL     1      50.741  23.382  45.031  1.00  0.00    -0.155 OA
ATOM      7  H2  UNL     1      49.874  25.226  45.187  1.00  0.00     0.196 HD
HETATM    8  N3  UNL     1      51.753  22.785  45.579  1.00  0.00    -0.223 N 
ATOM      9  H3  UNL     1      52.061  21.833  45.383  1.00  0.00     0.198 HD
BRANCH   4  10
HETATM   10  C3  UNL     1      51.866  25.982  47.174  1.00  0.00     0.204 C 
BRANCH  10  11
HETATM   11  N1  UNL     1      51.618  25.879  48.561  1.00  0.00    -0.212 N 
BRANCH  11  12
HETATM   12  C2  UNL     1      50.332  25.365  49.075  1.00  0.00     0.137 C 
HETATM   13  C1  UNL     1      49.159  26.020  48.422  1.00  0.00     0.027 C 
ENDBRANCH  11  12
BRANCH  11  14
HETATM   14  C10 UNL     1      52.554  26.253  49.579  1.00  0.00     0.689 A 
HETATM   15  N13 UNL     1      52.195  26.418  50.817  1.00  0.00    -0.169 N 
HETATM   16  C11 UNL     1      53.104  26.725  51.731  1.00  0.00     0.174 A 
ATOM     17  H13 UNL     1      51.217  26.313  51.085  1.00  0.00     0.186 HD
HETATM   18  S1  UNL     1      54.526  26.779  50.786  1.00  0.00     0.038 SA
HETATM   19  N15 UNL     1      53.854  26.405  49.284  1.00  0.00    -0.157 N 
ATOM     20  H15 UNL     1      54.318  26.316  48.380  1.00  0.00     0.193 HD
BRANCH  16  21
HETATM   21  N14 UNL     1      52.910  26.921  52.999  1.00  0.00    -0.378 N 
ATOM     22 2H14 UNL     1      52.361  26.402  53.685  1.00  0.00     0.158 HD
ATOM     23 1H14 UNL     1      53.292  27.673  53.574  1.00  0.00     0.158 HD
ENDBRANCH  16  21
ENDBRANCH  11  14
ENDBRANCH  10  11
ENDBRANCH   4  10
ENDBRANCH   1   3
BRANCH   1  24
HETATM   24  C6  UNL     1      53.578  22.175  47.807  1.00  0.00     0.719 A 
HETATM   25  N5  UNL     1      54.209  21.256  47.194  1.00  0.00    -0.183 N 
HETATM   26  C7  UNL     1      54.508  19.950  47.677  1.00  0.00     0.342 A 
ATOM     27  H5  UNL     1      54.537  21.479  46.254  1.00  0.00     0.181 HD
HETATM   28  N8  UNL     1      54.004  19.741  49.005  1.00  0.00    -0.183 N 
HETATM   29  C8  UNL     1      53.300  20.751  49.703  1.00  0.00     0.732 A 
ATOM     30  H8  UNL     1      54.158  18.839  49.457  1.00  0.00     0.181 HD
HETATM   31  N9  UNL     1      52.732  20.795  50.948  1.00  0.00    -0.019 N 
HETATM   32  N12 UNL     1      53.089  21.944  49.120  1.00  0.00     0.105 N 
HETATM   33  C9  UNL     1      52.179  22.000  51.131  1.00  0.00     0.706 A 
ATOM     34  H9  UNL     1      52.731  20.033  51.626  1.00  0.00     0.203 HD
HETATM   35  N10 UNL     1      51.541  22.442  52.183  1.00  0.00    -0.233 N 
HETATM   36  N11 UNL     1      52.412  22.677  50.000  1.00  0.00    -0.096 N 
ATOM     37 2H10 UNL     1      51.363  21.927  53.044  1.00  0.00     0.174 HD
ATOM     38 1H10 UNL     1      51.119  23.360  52.322  1.00  0.00     0.174 HD
ATOM     39  H11 UNL     1      52.108  23.637  49.833  1.00  0.00     0.207 HD
BRANCH  26  40
HETATM   40  N6  UNL     1      53.861  18.975  46.807  1.00  0.00    -0.235 N 
ATOM     41  H6  UNL     1      54.220  18.024  46.722  1.00  0.00     0.190 HD
BRANCH  40  42
HETATM   42  N7  UNL     1      52.732  19.386  46.096  1.00  0.00    -0.040 N 
HETATM   43  O2  UNL     1      52.814  19.509  44.859  1.00  0.00    -0.517 OA
HETATM   44  O3  UNL     1      51.542  19.658  46.726  1.00  0.00    -0.517 OA
ENDBRANCH  40  42
ENDBRANCH  26  40
ENDBRANCH   1  24
TORSDOF 9
ENDMDL
MODEL 4
REMARK VINA RESULT: -7.494416853      3.546      6.026
REMARK  9 active torsions:
REMARK  status: ('A' for Active; 'I' for Inactive)
REMARK    1  A    between atoms: C2_2  and  N1_3 
REMARK    2  A    between atoms: N1_3  and  C3_4 
REMARK    3  A    between atoms: N1_3  and  C10_35 
REMARK    4  A    between atoms: C3_4  and  C4_5 
REMARK    5  A    between atoms: C5_11  and  N4_12 
REMARK    6  A    between atoms: N4_12  and  C6_14 
REMARK    7  A    between atoms: C7_17  and  N6_18 
REMARK    8  A    between atoms: N6_18  and  N7_20 
REMARK    9  A    between atoms: C11_38  and  N14_39 
ROOT
HETATM    1  N4  UNL     1      54.771  20.751  48.231  1.00  0.00    -0.171 N 
ATOM      2  H4  UNL     1      55.420  21.539  48.248  1.00  0.00     0.186 HD
ENDROOT
BRANCH   1   3
HETATM    3  C5  UNL     1      53.576  20.900  48.696  1.00  0.00     0.169 A 
HETATM    4  C4  UNL     1      52.445  21.361  47.985  1.00  0.00     0.099 A 
HETATM    5  N2  UNL     1      51.435  21.354  48.856  1.00  0.00    -0.240 N 
HETATM    6  O1  UNL     1      51.866  20.941  49.981  1.00  0.00    -0.155 OA
ATOM      7  H2  UNL     1      50.475  21.634  48.654  1.00  0.00     0.196 HD
HETATM    8  N3  UNL     1      53.131  20.659  49.934  1.00  0.00    -0.223 N 
ATOM      9  H3  UNL     1      53.692  20.312  50.712  1.00  0.00     0.198 HD
BRANCH   4  10
HETATM   10  C3  UNL     1      52.520  21.732  46.580  1.00  0.00     0.204 C 
BRANCH  10  11
HETATM   11  N1  UNL     1      52.294  23.092  46.274  1.00  0.00    -0.212 N 
BRANCH  11  12
HETATM   12  C2  UNL     1      53.286  24.131  46.618  1.00  0.00     0.137 C 
HETATM   13  C1  UNL     1      52.803  25.039  47.701  1.00  0.00     0.027 C 
ENDBRANCH  11  12
BRANCH  11  14
HETATM   14  C10 UNL     1      51.119  23.589  45.622  1.00  0.00     0.689 A 
HETATM   15  N13 UNL     1      49.924  23.305  46.047  1.00  0.00    -0.169 N 
HETATM   16  C11 UNL     1      48.868  23.821  45.436  1.00  0.00     0.174 A 
ATOM     17  H13 UNL     1      49.799  22.686  46.849  1.00  0.00     0.186 HD
HETATM   18  S1  UNL     1      49.610  24.747  44.207  1.00  0.00     0.038 SA
HETATM   19  N15 UNL     1      51.224  24.407  44.564  1.00  0.00    -0.157 N 
ATOM     20  H15 UNL     1      52.066  24.739  44.095  1.00  0.00     0.193 HD
BRANCH  16  21
HETATM   21  N14 UNL     1      47.619  23.637  45.734  1.00  0.00    -0.378 N 
ATOM     22 2H14 UNL     1      47.100  23.803  46.597  1.00  0.00     0.158 HD
ATOM     23 1H14 UNL     1      46.885  23.272  45.126  1.00  0.00     0.158 HD
ENDBRANCH  16  21
ENDBRANCH  11  14
ENDBRANCH  10  11
ENDBRANCH   4  10
ENDBRANCH   1   3
BRANCH   1  24
HETATM   24  C6  UNL     1      55.194  19.517  47.698  1.00  0.00     0.719 A 
HETATM   25  N5  UNL     1      55.354  19.372  46.444  1.00  0.00    -0.183 N 
HETATM   26  C7  UNL     1      55.773  18.193  45.763  1.00  0.00     0.342 A 
ATOM     27  H5  UNL     1      55.161  20.188  45.864  1.00  0.00     0.181 HD
HETATM   28  N8  UNL     1      56.018  17.108  46.669  1.00  0.00    -0.183 N 
HETATM   29  C8  UNL     1      55.846  17.250  48.068  1.00  0.00     0.732 A 
ATOM     30  H8  UNL     1      56.325  16.209  46.296  1.00  0.00     0.181 HD
HETATM   31  N9  UNL     1      56.011  16.386  49.116  1.00  0.00    -0.019 N 
HETATM   32  N12 UNL     1      55.442  18.428  48.575  1.00  0.00     0.105 N 
HETATM   33  C9  UNL     1      55.712  17.022  50.255  1.00  0.00     0.706 A 
ATOM     34  H9  UNL     1      56.311  15.414  49.041  1.00  0.00     0.203 HD
HETATM   35  N10 UNL     1      55.743  16.549  51.473  1.00  0.00    -0.233 N 
HETATM   36  N11 UNL     1      55.369  18.264  49.893  1.00  0.00    -0.096 N 
ATOM     37 2H10 UNL     1      56.005  15.603  51.750  1.00  0.00     0.174 HD
ATOM     38 1H10 UNL     1      55.516  17.034  52.342  1.00  0.00     0.174 HD
ATOM     39  H11 UNL     1      55.087  18.995  50.547  1.00  0.00     0.207 HD
BRANCH  26  40
HETATM   40  N6  UNL     1      54.706  17.774  44.861  1.00  0.00    -0.235 N 
ATOM     41  H6  UNL     1      54.877  17.092  44.123  1.00  0.00     0.190 HD
BRANCH  40  42
HETATM   42  N7  UNL     1      53.442  18.338  45.044  1.00  0.00    -0.040 N 
HETATM   43  O2  UNL     1      52.814  18.078  46.088  1.00  0.00    -0.517 OA
HETATM   44  O3  UNL     1      52.880  19.168  44.104  1.00  0.00    -0.517 OA
ENDBRANCH  40  42
ENDBRANCH  26  40
ENDBRANCH   1  24
TORSDOF 9
ENDMDL
MODEL 5
REMARK VINA RESULT: -7.471359385      2.862      4.654
REMARK  9 active torsions:
REMARK  status: ('A' for Active; 'I' for Inactive)
REMARK    1  A    between atoms: C2_2  and  N1_3 
REMARK    2  A    between atoms: N1_3  and  C3_4 
REMARK    3  A    between atoms: N1_3  and  C10_35 
REMARK    4  A    between atoms: C3_4  and  C4_5 
REMARK    5  A    between atoms: C5_11  and  N4_12 
REMARK    6  A    between atoms: N4_12  and  C6_14 
REMARK    7  A    between atoms: C7_17  and  N6_18 
REMARK    8  A    between atoms: N6_18  and  N7_20 
REMARK    9  A    between atoms: C11_38  and  N14_39 
ROOT
HETATM    1  N4  UNL     1      56.430  17.697  46.604  1.00  0.00    -0.171 N 
ATOM      2  H4  UNL     1      56.935  18.095  47.396  1.00  0.00     0.186 HD
ENDROOT
BRANCH   1   3
HETATM    3  C5  UNL     1      55.166  17.927  46.474  1.00  0.00     0.169 A 
HETATM    4  C4  UNL     1      54.512  19.166  46.654  1.00  0.00     0.099 A 
HETATM    5  N2  UNL     1      53.219  18.938  46.419  1.00  0.00    -0.240 N 
HETATM    6  O1  UNL     1      53.067  17.707  46.126  1.00  0.00    -0.155 OA
ATOM      7  H2  UNL     1      52.474  19.633  46.466  1.00  0.00     0.196 HD
HETATM    8  N3  UNL     1      54.194  17.068  46.146  1.00  0.00    -0.223 N 
ATOM      9  H3  UNL     1      54.320  16.076  45.944  1.00  0.00     0.198 HD
BRANCH   4  10
HETATM   10  C3  UNL     1      55.238  20.372  47.021  1.00  0.00     0.204 C 
BRANCH  10  11
HETATM   11  N1  UNL     1      54.586  21.254  47.912  1.00  0.00    -0.212 N 
BRANCH  11  12
HETATM   12  C2  UNL     1      54.592  21.015  49.370  1.00  0.00     0.137 C 
HETATM   13  C1  UNL     1      53.232  20.694  49.896  1.00  0.00     0.027 C 
ENDBRANCH  11  12
BRANCH  11  14
HETATM   14  C10 UNL     1      53.875  22.430  47.509  1.00  0.00     0.689 A 
HETATM   15  N13 UNL     1      52.918  22.389  46.631  1.00  0.00    -0.169 N 
HETATM   16  C11 UNL     1      52.261  23.497  46.320  1.00  0.00     0.174 A 
ATOM     17  H13 UNL     1      52.672  21.506  46.183  1.00  0.00     0.186 HD
HETATM   18  S1  UNL     1      53.042  24.642  47.318  1.00  0.00     0.038 SA
HETATM   19  N15 UNL     1      54.156  23.618  48.065  1.00  0.00    -0.157 N 
ATOM     20  H15 UNL     1      54.864  23.845  48.763  1.00  0.00     0.193 HD
BRANCH  16  21
HETATM   21  N14 UNL     1      51.288  23.622  45.470  1.00  0.00    -0.378 N 
ATOM     22 2H14 UNL     1      51.278  23.612  44.450  1.00  0.00     0.158 HD
ATOM     23 1H14 UNL     1      50.299  23.761  45.679  1.00  0.00     0.158 HD
ENDBRANCH  16  21
ENDBRANCH  11  14
ENDBRANCH  10  11
ENDBRANCH   4  10
ENDBRANCH   1   3
BRANCH   1  24
HETATM   24  C6  UNL     1      57.123  16.904  45.668  1.00  0.00     0.719 A 
HETATM   25  N5  UNL     1      56.713  16.810  44.467  1.00  0.00    -0.183 N 
HETATM   26  C7  UNL     1      57.303  16.053  43.414  1.00  0.00     0.342 A 
ATOM     27  H5  UNL     1      55.870  17.334  44.232  1.00  0.00     0.181 HD
HETATM   28  N8  UNL     1      58.481  15.357  43.849  1.00  0.00    -0.183 N 
HETATM   29  C8  UNL     1      58.953  15.450  45.182  1.00  0.00     0.732 A 
ATOM     30  H8  UNL     1      58.992  14.781  43.181  1.00  0.00     0.181 HD
HETATM   31  N9  UNL     1      60.025  14.895  45.826  1.00  0.00    -0.019 N 
HETATM   32  N12 UNL     1      58.290  16.206  46.074  1.00  0.00     0.105 N 
HETATM   33  C9  UNL     1      60.024  15.304  47.101  1.00  0.00     0.706 A 
ATOM     34  H9  UNL     1      60.713  14.271  45.404  1.00  0.00     0.203 HD
HETATM   35  N10 UNL     1      60.877  15.001  48.044  1.00  0.00    -0.233 N 
HETATM   36  N11 UNL     1      58.955  16.101  47.222  1.00  0.00    -0.096 N 
ATOM     37 2H10 UNL     1      61.691  14.395  47.953  1.00  0.00     0.174 HD
ATOM     38 1H10 UNL     1      60.876  15.312  49.016  1.00  0.00     0.174 HD
ATOM     39  H11 UNL     1      58.684  16.569  48.086  1.00  0.00     0.207 HD
BRANCH  26  40
HETATM   40  N6  UNL     1      56.344  15.049  42.971  1.00  0.00    -0.235 N 
ATOM     41  H6  UNL     1      55.949  15.076  42.031  1.00  0.00     0.190 HD
BRANCH  40  42
HETATM   42  N7  UNL     1      55.984  14.049  43.876  1.00  0.00    -0.040 N 
HETATM   43  O2  UNL     1      56.493  12.918  43.754  1.00  0.00    -0.517 OA
HETATM   44  O3  UNL     1      55.087  14.282  44.889  1.00  0.00    -0.517 OA
ENDBRANCH  40  42
ENDBRANCH  26  40
ENDBRANCH   1  24
TORSDOF 9
ENDMDL
