MODEL 1
REMARK VINA RESULT: -6.426641428      0.000      0.000
REMARK  5 active torsions:
REMARK  status: ('A' for Active; 'I' for Inactive)
REMARK    1  A    between atoms: C2_2  and  N1_4 
REMARK    2  A    between atoms: C4_7  and  C5_8 
REMARK    3  A    between atoms: C6_17  and  C7_18 
REMARK    4  A    between atoms: C10_25  and  O1_26 
REMARK    5  A    between atoms: C15_33  and  N9_34 
ROOT
HETATM    1  N1  UNL     1      16.124  24.577  33.922  1.00  0.00    -0.272 N 
HETATM    2  N2  UNL     1      14.861  24.847  34.035  1.00  0.00    -0.292 N 
ATOM      3  H2  UNL     1      14.358  25.020  34.905  1.00  0.00     0.187 HD
HETATM    4  C4  UNL     1      14.321  24.859  32.761  1.00  0.00     0.113 A 
HETATM    5  C6  UNL     1      15.313  24.582  31.848  1.00  0.00     0.085 A 
HETATM    6  C15 UNL     1      16.463  24.404  32.614  1.00  0.00     0.132 A 
ENDROOT
BRANCH   5   7
HETATM    7  C7  UNL     1      15.220  24.487  30.392  1.00  0.00     0.122 A 
HETATM    8  N7  UNL     1      15.759  25.219  29.416  1.00  0.00    -0.342 N 
HETATM    9  C8  UNL     1      15.430  24.807  28.187  1.00  0.00     0.060 A 
ATOM     10  H7  UNL     1      16.368  26.019  29.591  1.00  0.00     0.167 HD
HETATM   11  C9  UNL     1      14.617  23.729  28.376  1.00  0.00     0.068 A 
HETATM   12  C14 UNL     1      15.803  25.324  26.819  1.00  0.00     0.228 C 
HETATM   13  N8  UNL     1      14.503  23.552  29.721  1.00  0.00    -0.341 N 
HETATM   14  C10 UNL     1      14.049  23.000  27.203  1.00  0.00     0.203 C 
ATOM     15  H8  UNL     1      13.952  22.817  30.164  1.00  0.00     0.167 HD
HETATM   16  C11 UNL     1      14.893  23.368  26.003  1.00  0.00     0.085 C 
HETATM   17  C12 UNL     1      14.144  22.875  24.769  1.00  0.00     0.049 C 
HETATM   18  C13 UNL     1      16.221  22.682  26.044  1.00  0.00     0.049 C 
HETATM   19  O2  UNL     1      15.004  24.750  25.867  1.00  0.00    -0.372 OA
BRANCH  14  20
HETATM   20  O1  UNL     1      12.702  23.276  27.018  1.00  0.00    -0.386 OA
ATOM     21  H1  UNL     1      12.145  22.680  27.504  1.00  0.00     0.210 HD
ENDBRANCH  14  20
ENDBRANCH   5   7
BRANCH   4  22
HETATM   22  C5  UNL     1      12.913  25.132  32.515  1.00  0.00     0.166 A 
HETATM   23  N3  UNL     1      12.152  26.210  32.619  1.00  0.00    -0.267 N 
HETATM   24  N4  UNL     1      10.904  25.972  32.278  1.00  0.00    -0.227 N 
ATOM     25  H3  UNL     1      12.494  27.120  32.927  1.00  0.00     0.190 HD
HETATM   26  N5  UNL     1      10.824  24.699  31.937  1.00  0.00    -0.227 N 
ATOM     27  H4  UNL     1      10.138  26.647  32.278  1.00  0.00     0.210 HD
HETATM   28  N6  UNL     1      12.025  24.180  32.074  1.00  0.00    -0.267 N 
ATOM     29  H5  UNL     1       9.987  24.208  31.624  1.00  0.00     0.210 HD
ATOM     30  H6  UNL     1      12.264  23.208  31.881  1.00  0.00     0.190 HD
ENDBRANCH   4  22
BRANCH   6  31
HETATM   31  N9  UNL     1      17.619  24.127  32.156  1.00  0.00    -0.383 N 
ATOM     32  H92 UNL     1      18.090  24.628  31.402  1.00  0.00     0.157 HD
ATOM     33  H91 UNL     1      18.236  23.378  32.467  1.00  0.00     0.157 HD
ENDBRANCH   6  31
BRANCH   1  34
HETATM   34  C2  UNL     1      17.085  24.464  35.019  1.00  0.00     0.102 C 
HETATM   35  C1  UNL     1      16.714  25.444  36.093  1.00  0.00     0.034 C 
HETATM   36  C3  UNL     1      17.039  23.067  35.625  1.00  0.00     0.034 C 
ENDBRANCH   1  34
TORSDOF 5
ENDMDL
MODEL 2
REMARK VINA RESULT: -6.067220456      3.116      6.370
REMARK  5 active torsions:
REMARK  status: ('A' for Active; 'I' for Inactive)
REMARK    1  A    between atoms: C2_2  and  N1_4 
REMARK    2  A    between atoms: C4_7  and  C5_8 
REMARK    3  A    between atoms: C6_17  and  C7_18 
REMARK    4  A    between atoms: C10_25  and  O1_26 
REMARK    5  A    between atoms: C15_33  and  N9_34 
ROOT
HETATM    1  N1  UNL     1      17.946  24.759  29.387  1.00  0.00    -0.272 N 
HETATM    2  N2  UNL     1      17.185  24.277  28.455  1.00  0.00    -0.292 N 
ATOM      3  H2  UNL     1      17.460  24.084  27.492  1.00  0.00     0.187 HD
HETATM    4  C4  UNL     1      15.930  24.074  29.003  1.00  0.00     0.113 A 
HETATM    5  C6  UNL     1      15.949  24.453  30.326  1.00  0.00     0.085 A 
HETATM    6  C15 UNL     1      17.253  24.890  30.553  1.00  0.00     0.132 A 
ENDROOT
BRANCH   5   7
HETATM    7  C7  UNL     1      14.865  24.420  31.306  1.00  0.00     0.122 A 
HETATM    8  N7  UNL     1      14.424  23.455  32.114  1.00  0.00    -0.342 N 
HETATM    9  C8  UNL     1      13.390  23.820  32.878  1.00  0.00     0.060 A 
ATOM     10  H7  UNL     1      14.839  22.523  32.146  1.00  0.00     0.167 HD
HETATM   11  C9  UNL     1      13.138  25.118  32.545  1.00  0.00     0.068 A 
HETATM   12  C14 UNL     1      12.590  23.069  33.915  1.00  0.00     0.228 C 
HETATM   13  N8  UNL     1      14.045  25.462  31.589  1.00  0.00    -0.341 N 
HETATM   14  C10 UNL     1      12.030  25.865  33.212  1.00  0.00     0.203 C 
ATOM     15  H8  UNL     1      14.100  26.379  31.146  1.00  0.00     0.167 HD
HETATM   16  C11 UNL     1      11.696  25.118  34.483  1.00  0.00     0.085 C 
HETATM   17  C12 UNL     1      10.384  25.697  35.003  1.00  0.00     0.049 C 
HETATM   18  C13 UNL     1      12.744  25.334  35.529  1.00  0.00     0.049 C 
HETATM   19  O2  UNL     1      11.457  23.770  34.231  1.00  0.00    -0.372 OA
BRANCH  14  20
HETATM   20  O1  UNL     1      10.933  26.026  32.378  1.00  0.00    -0.386 OA
ATOM     21  H1  UNL     1      10.553  26.893  32.451  1.00  0.00     0.210 HD
ENDBRANCH  14  20
ENDBRANCH   5   7
BRANCH   4  22
HETATM   22  C5  UNL     1      14.821  23.537  28.230  1.00  0.00     0.166 A 
HETATM   23  N3  UNL     1      13.507  23.524  28.392  1.00  0.00    -0.267 N 
HETATM   24  N4  UNL     1      12.891  22.906  27.407  1.00  0.00    -0.227 N 
ATOM     25  H3  UNL     1      13.027  23.945  29.188  1.00  0.00     0.190 HD
HETATM   26  N5  UNL     1      13.817  22.492  26.561  1.00  0.00    -0.227 N 
ATOM     27  H4  UNL     1      11.884  22.771  27.314  1.00  0.00     0.210 HD
HETATM   28  N6  UNL     1      14.982  22.864  27.043  1.00  0.00    -0.267 N 
ATOM     29  H5  UNL     1      13.658  21.979  25.695  1.00  0.00     0.210 HD
ATOM     30  H6  UNL     1      15.881  22.679  26.598  1.00  0.00     0.190 HD
ENDBRANCH   4  22
BRANCH   6  31
HETATM   31  N9  UNL     1      17.700  25.332  31.660  1.00  0.00    -0.383 N 
ATOM     32  H92 UNL     1      17.897  26.312  31.869  1.00  0.00     0.157 HD
ATOM     33  H91 UNL     1      17.925  24.784  32.490  1.00  0.00     0.157 HD
ENDBRANCH   6  31
BRANCH   1  34
HETATM   34  C2  UNL     1      19.356  25.123  29.250  1.00  0.00     0.102 C 
HETATM   35  C1  UNL     1      20.189  23.877  29.327  1.00  0.00     0.034 C 
HETATM   36  C3  UNL     1      19.608  25.771  27.895  1.00  0.00     0.034 C 
ENDBRANCH   1  34
TORSDOF 5
ENDMDL
MODEL 3
REMARK VINA RESULT: -5.917560701     13.844     16.390
REMARK  5 active torsions:
REMARK  status: ('A' for Active; 'I' for Inactive)
REMARK    1  A    between atoms: C2_2  and  N1_4 
REMARK    2  A    between atoms: C4_7  and  C5_8 
REMARK    3  A    between atoms: C6_17  and  C7_18 
REMARK    4  A    between atoms: C10_25  and  O1_26 
REMARK    5  A    between atoms: C15_33  and  N9_34 
ROOT
HETATM    1  N1  UNL     1      22.332  13.106  33.404  1.00  0.00    -0.272 N 
HETATM    2  N2  UNL     1      21.277  13.072  32.651  1.00  0.00    -0.292 N 
ATOM      3  H2  UNL     1      21.118  13.630  31.812  1.00  0.00     0.187 HD
HETATM    4  C4  UNL     1      20.406  12.143  33.193  1.00  0.00     0.113 A 
HETATM    5  C6  UNL     1      20.973  11.598  34.322  1.00  0.00     0.085 A 
HETATM    6  C15 UNL     1      22.209  12.230  34.441  1.00  0.00     0.132 A 
ENDROOT
BRANCH   5   7
HETATM    7  C7  UNL     1      20.430  10.582  35.223  1.00  0.00     0.122 A 
HETATM    8  N7  UNL     1      20.544   9.254  35.238  1.00  0.00    -0.342 N 
HETATM    9  C8  UNL     1      19.888   8.666  36.244  1.00  0.00     0.060 A 
ATOM     10  H7  UNL     1      21.083   8.733  34.546  1.00  0.00     0.167 HD
HETATM   11  C9  UNL     1      19.303   9.687  36.935  1.00  0.00     0.068 A 
HETATM   12  C14 UNL     1      19.743   7.217  36.641  1.00  0.00     0.228 C 
HETATM   13  N8  UNL     1      19.645  10.840  36.299  1.00  0.00    -0.341 N 
HETATM   14  C10 UNL     1      18.475   9.399  38.144  1.00  0.00     0.203 C 
ATOM     15  H8  UNL     1      19.352  11.772  36.591  1.00  0.00     0.167 HD
HETATM   16  C11 UNL     1      18.844   8.009  38.612  1.00  0.00     0.085 C 
HETATM   17  C12 UNL     1      17.801   7.600  39.647  1.00  0.00     0.049 C 
HETATM   18  C13 UNL     1      20.184   8.000  39.277  1.00  0.00     0.049 C 
HETATM   19  O2  UNL     1      18.752   7.084  37.575  1.00  0.00    -0.372 OA
BRANCH  14  20
HETATM   20  O1  UNL     1      17.118   9.539  37.893  1.00  0.00    -0.386 OA
ATOM     21  H1  UNL     1      16.588   9.257  38.628  1.00  0.00     0.210 HD
ENDBRANCH  14  20
ENDBRANCH   5   7
BRANCH   4  22
HETATM   22  C5  UNL     1      19.113  11.848  32.596  1.00  0.00     0.166 A 
HETATM   23  N3  UNL     1      18.360  10.762  32.519  1.00  0.00    -0.267 N 
HETATM   24  N4  UNL     1      17.240  10.979  31.863  1.00  0.00    -0.227 N 
ATOM     25  H3  UNL     1      18.617   9.861  32.923  1.00  0.00     0.190 HD
HETATM   26  N5  UNL     1      17.242  12.245  31.488  1.00  0.00    -0.227 N 
ATOM     27  H4  UNL     1      16.506  10.294  31.677  1.00  0.00     0.210 HD
HETATM   28  N6  UNL     1      18.361  12.780  31.921  1.00  0.00    -0.267 N 
ATOM     29  H5  UNL     1      16.510  12.719  30.960  1.00  0.00     0.210 HD
ATOM     30  H6  UNL     1      18.635  13.752  31.777  1.00  0.00     0.190 HD
ENDBRANCH   4  22
BRANCH   6  31
HETATM   31  N9  UNL     1      23.061  12.016  35.363  1.00  0.00    -0.383 N 
ATOM     32  H92 UNL     1      24.034  11.745  35.216  1.00  0.00     0.157 HD
ATOM     33  H91 UNL     1      22.902  12.081  36.368  1.00  0.00     0.157 HD
ENDBRANCH   6  31
BRANCH   1  34
HETATM   34  C2  UNL     1      23.510  13.949  33.205  1.00  0.00     0.102 C 
HETATM   35  C1  UNL     1      24.105  13.643  31.862  1.00  0.00     0.034 C 
HETATM   36  C3  UNL     1      23.118  15.422  33.218  1.00  0.00     0.034 C 
ENDBRANCH   1  34
TORSDOF 5
ENDMDL
MODEL 4
REMARK VINA RESULT: -5.834486150      4.777      6.758
REMARK  5 active torsions:
REMARK  status: ('A' for Active; 'I' for Inactive)
REMARK    1  A    between atoms: C2_2  and  N1_4 
REMARK    2  A    between atoms: C4_7  and  C5_8 
REMARK    3  A    between atoms: C6_17  and  C7_18 
REMARK    4  A    between atoms: C10_25  and  O1_26 
REMARK    5  A    between atoms: C15_33  and  N9_34 
ROOT
HETATM    1  N1  UNL     1      15.781  24.040  33.418  1.00  0.00    -0.272 N 
HETATM    2  N2  UNL     1      14.807  24.727  32.910  1.00  0.00    -0.292 N 
ATOM      3  H2  UNL     1      14.885  25.637  32.455  1.00  0.00     0.187 HD
HETATM    4  C4  UNL     1      13.642  24.003  33.097  1.00  0.00     0.113 A 
HETATM    5  C6  UNL     1      13.941  22.828  33.748  1.00  0.00     0.085 A 
HETATM    6  C15 UNL     1      15.320  22.871  33.946  1.00  0.00     0.132 A 
ENDROOT
BRANCH   5   7
HETATM    7  C7  UNL     1      13.041  21.752  34.159  1.00  0.00     0.122 A 
HETATM    8  N7  UNL     1      12.668  21.314  35.362  1.00  0.00    -0.342 N 
HETATM    9  C8  UNL     1      11.813  20.288  35.323  1.00  0.00     0.060 A 
ATOM     10  H7  UNL     1      13.005  21.725  36.233  1.00  0.00     0.167 HD
HETATM   11  C9  UNL     1      11.613  20.038  33.996  1.00  0.00     0.068 A 
HETATM   12  C14 UNL     1      11.142  19.493  36.416  1.00  0.00     0.228 C 
HETATM   13  N8  UNL     1      12.368  20.938  33.308  1.00  0.00    -0.341 N 
HETATM   14  C10 UNL     1      10.698  18.939  33.567  1.00  0.00     0.203 C 
ATOM     15  H8  UNL     1      12.420  20.993  32.292  1.00  0.00     0.167 HD
HETATM   16  C11 UNL     1       9.814  18.612  34.749  1.00  0.00     0.085 C 
HETATM   17  C12 UNL     1       9.098  17.306  34.417  1.00  0.00     0.049 C 
HETATM   18  C13 UNL     1       8.777  19.669  34.958  1.00  0.00     0.049 C 
HETATM   19  O2  UNL     1      10.569  18.365  35.893  1.00  0.00    -0.372 OA
BRANCH  14  20
HETATM   20  O1  UNL     1      11.394  17.835  33.094  1.00  0.00    -0.386 OA
ATOM     21  H1  UNL     1      11.157  17.620  32.200  1.00  0.00     0.210 HD
ENDBRANCH  14  20
ENDBRANCH   5   7
BRANCH   4  22
HETATM   22  C5  UNL     1      12.346  24.484  32.643  1.00  0.00     0.166 A 
HETATM   23  N3  UNL     1      11.232  23.891  32.246  1.00  0.00    -0.267 N 
HETATM   24  N4  UNL     1      10.296  24.757  31.922  1.00  0.00    -0.227 N 
ATOM     25  H3  UNL     1      11.112  22.879  32.196  1.00  0.00     0.190 HD
HETATM   26  N5  UNL     1      10.795  25.965  32.107  1.00  0.00    -0.227 N 
ATOM     27  H4  UNL     1       9.356  24.536  31.590  1.00  0.00     0.210 HD
HETATM   28  N6  UNL     1      12.028  25.817  32.541  1.00  0.00    -0.267 N 
ATOM     29  H5  UNL     1      10.314  26.849  31.945  1.00  0.00     0.210 HD
ATOM     30  H6  UNL     1      12.660  26.584  32.769  1.00  0.00     0.190 HD
ENDBRANCH   4  22
BRANCH   6  31
HETATM   31  N9  UNL     1      16.011  21.969  34.521  1.00  0.00    -0.383 N 
ATOM     32  H92 UNL     1      16.543  21.240  34.045  1.00  0.00     0.157 HD
ATOM     33  H91 UNL     1      16.133  21.841  35.525  1.00  0.00     0.157 HD
ENDBRANCH   6  31
BRANCH   1  34
HETATM   34  C2  UNL     1      17.191  24.426  33.444  1.00  0.00     0.102 C 
HETATM   35  C1  UNL     1      17.694  24.523  32.033  1.00  0.00     0.034 C 
HETATM   36  C3  UNL     1      17.357  25.794  34.094  1.00  0.00     0.034 C 
ENDBRANCH   1  34
TORSDOF 5
ENDMDL
MODEL 5
REMARK VINA RESULT: -5.789691130     12.106     13.788
REMARK  5 active torsions:
REMARK  status: ('A' for Active; 'I' for Inactive)
REMARK    1  A    between atoms: C2_2  and  N1_4 
REMARK    2  A    between atoms: C4_7  and  C5_8 
REMARK    3  A    between atoms: C6_17  and  C7_18 
REMARK    4  A    between atoms: C10_25  and  O1_26 
REMARK    5  A    between atoms: C15_33  and  N9_34 
ROOT
HETATM    1  N1  UNL     1      12.589  14.497  38.349  1.00  0.00    -0.272 N 
HETATM    2  N2  UNL     1      12.499  13.266  38.745  1.00  0.00    -0.292 N 
ATOM      3  H2  UNL     1      11.801  12.890  39.386  1.00  0.00     0.187 HD
HETATM    4  C4  UNL     1      13.523  12.557  38.141  1.00  0.00     0.113 A 
HETATM    5  C6  UNL     1      14.255  13.410  37.347  1.00  0.00     0.085 A 
HETATM    6  C15 UNL     1      13.640  14.651  37.495  1.00  0.00     0.132 A 
ENDROOT
BRANCH   5   7
HETATM    7  C7  UNL     1      15.424  13.117  36.519  1.00  0.00     0.122 A 
HETATM    8  N7  UNL     1      16.690  12.839  36.833  1.00  0.00    -0.342 N 
HETATM    9  C8  UNL     1      17.476  12.625  35.773  1.00  0.00     0.060 A 
ATOM     10  H7  UNL     1      17.028  12.793  37.795  1.00  0.00     0.167 HD
HETATM   11  C9  UNL     1      16.662  12.775  34.688  1.00  0.00     0.068 A 
HETATM   12  C14 UNL     1      18.942  12.287  35.658  1.00  0.00     0.228 C 
HETATM   13  N8  UNL     1      15.422  13.072  35.163  1.00  0.00    -0.341 N 
HETATM   14  C10 UNL     1      17.209  12.604  33.309  1.00  0.00     0.203 C 
ATOM     15  H8  UNL     1      14.603  13.240  34.580  1.00  0.00     0.167 HD
HETATM   16  C11 UNL     1      18.506  11.837  33.438  1.00  0.00     0.085 C 
HETATM   17  C12 UNL     1      19.208  11.926  32.087  1.00  0.00     0.049 C 
HETATM   18  C13 UNL     1      18.253  10.394  33.736  1.00  0.00     0.049 C 
HETATM   19  O2  UNL     1      19.358  12.436  34.362  1.00  0.00    -0.372 OA
BRANCH  14  20
HETATM   20  O1  UNL     1      17.365  13.818  32.655  1.00  0.00    -0.386 OA
ATOM     21  H1  UNL     1      16.546  14.141  32.299  1.00  0.00     0.210 HD
ENDBRANCH  14  20
ENDBRANCH   5   7
BRANCH   4  22
HETATM   22  C5  UNL     1      13.721  11.133  38.364  1.00  0.00     0.166 A 
HETATM   23  N3  UNL     1      14.633  10.257  37.974  1.00  0.00    -0.267 N 
HETATM   24  N4  UNL     1      14.393   9.049  38.437  1.00  0.00    -0.227 N 
ATOM     25  H3  UNL     1      15.431  10.492  37.383  1.00  0.00     0.190 HD
HETATM   26  N5  UNL     1      13.288   9.116  39.157  1.00  0.00    -0.227 N 
ATOM     27  H4  UNL     1      14.956   8.215  38.270  1.00  0.00     0.210 HD
HETATM   28  N6  UNL     1      12.872  10.362  39.123  1.00  0.00    -0.267 N 
ATOM     29  H5  UNL     1      12.841   8.343  39.650  1.00  0.00     0.210 HD
ATOM     30  H6  UNL     1      12.037  10.709  39.594  1.00  0.00     0.190 HD
ENDBRANCH   4  22
BRANCH   6  31
HETATM   31  N9  UNL     1      14.008  15.729  36.925  1.00  0.00    -0.383 N 
ATOM     32  H92 UNL     1      14.139  16.628  37.390  1.00  0.00     0.157 HD
ATOM     33  H91 UNL     1      14.222  15.854  35.936  1.00  0.00     0.157 HD
ENDBRANCH   6  31
BRANCH   1  34
HETATM   34  C2  UNL     1      11.709  15.598  38.739  1.00  0.00     0.102 C 
HETATM   35  C1  UNL     1      10.452  15.528  37.921  1.00  0.00     0.034 C 
HETATM   36  C3  UNL     1      11.318  15.472  40.207  1.00  0.00     0.034 C 
ENDBRANCH   1  34
TORSDOF 5
ENDMDL
