MODEL 1
REMARK VINA RESULT: -5.297914327      0.000      0.000
REMARK  16 active torsions:
REMARK  status: ('A' for Active; 'I' for Inactive)
REMARK    1  A    between atoms: N1_1  and  C1_5 
REMARK    2  A    between atoms: C1_5  and  C2_6 
REMARK    3  A    between atoms: C2_6  and  C3_7 
REMARK    4  A    between atoms: C3_7  and  C4_8 
REMARK    5  A    between atoms: C4_8  and  O2_10 
REMARK    6  A    between atoms: O2_10  and  C5_11 
REMARK    7  A    between atoms: C6_12  and  N2_13 
REMARK    8  A    between atoms: C9_19  and  O3_20 
REMARK    9  A    between atoms: C10_24  and  N5_25 
REMARK   10  A    between atoms: C12_30  and  N6_31 
REMARK   11  A    between atoms: C13_35  and  O4_36 
REMARK   12  A    between atoms: O4_36  and  C14_37 
REMARK   13  A    between atoms: C15_39  and  C16_40 
REMARK   14  A    between atoms: C16_40  and  N7_41 
REMARK   15  A    between atoms: C17_45  and  N8_46 
REMARK   16  A    between atoms: C19_51  and  N9_52 
ROOT
HETATM    1  C5  UNL     1     -23.324   2.459  11.135  1.00  0.00     0.187 C 
HETATM    2  C6  UNL     1     -22.912   1.389  10.153  1.00  0.00     0.147 C 
HETATM    3  C10 UNL     1     -22.510   0.163  10.927  1.00  0.00     0.210 C 
HETATM    4  C11 UNL     1     -23.561  -0.280  11.928  1.00  0.00     0.070 C 
HETATM    5  C12 UNL     1     -23.776   0.855  12.866  1.00  0.00     0.217 C 
HETATM    6  C13 UNL     1     -24.423   1.979  12.034  1.00  0.00     0.186 C 
ENDROOT
BRANCH   6   7
HETATM    7  O4  UNL     1     -25.468   1.363  11.348  1.00  0.00    -0.349 OA
BRANCH   7   8
HETATM    8  C14 UNL     1     -26.694   1.957  11.574  1.00  0.00     0.291 C 
HETATM    9  O5  UNL     1     -27.664   1.095  12.082  1.00  0.00    -0.350 OA
HETATM   10  C15 UNL     1     -28.617   1.881  12.682  1.00  0.00     0.180 C 
HETATM   11  C17 UNL     1     -29.059   3.060  11.887  1.00  0.00     0.216 C 
HETATM   12  C18 UNL     1     -28.646   3.022  10.455  1.00  0.00     0.073 C 
HETATM   13  C19 UNL     1     -27.259   2.406  10.241  1.00  0.00     0.240 C 
BRANCH  10  14
HETATM   14  C16 UNL     1     -29.809   1.034  13.152  1.00  0.00     0.263 C 
BRANCH  14  15
HETATM   15  N7  UNL     1     -29.279  -0.286  13.492  1.00  0.00    -0.077 N 
ATOM     16  H73 UNL     1     -28.697  -0.687  12.757  1.00  0.00     0.274 HD
ATOM     17  H72 UNL     1     -28.566  -0.258  14.221  1.00  0.00     0.274 HD
ATOM     18  H71 UNL     1     -30.079  -0.871  13.735  1.00  0.00     0.274 HD
ENDBRANCH  14  15
ENDBRANCH  10  14
BRANCH  11  19
HETATM   19  N8  UNL     1     -28.642   4.323  12.465  1.00  0.00    -0.072 N 
ATOM     20  H83 UNL     1     -27.635   4.452  12.370  1.00  0.00     0.274 HD
ATOM     21  H82 UNL     1     -28.964   5.108  11.898  1.00  0.00     0.274 HD
ATOM     22  H81 UNL     1     -28.932   4.433  13.437  1.00  0.00     0.274 HD
ENDBRANCH  11  19
BRANCH  13  23
HETATM   23  N9  UNL     1     -27.504   1.192   9.444  1.00  0.00    -0.070 N 
ATOM     24  H93 UNL     1     -27.065   1.221   8.524  1.00  0.00     0.274 HD
ATOM     25  H92 UNL     1     -27.009   0.373   9.799  1.00  0.00     0.274 HD
ATOM     26  H91 UNL     1     -28.514   1.061   9.402  1.00  0.00     0.274 HD
ENDBRANCH  13  23
ENDBRANCH   7   8
ENDBRANCH   6   7
BRANCH   1  27
HETATM   27  O2  UNL     1     -23.445   3.728  10.626  1.00  0.00    -0.311 OA
BRANCH  27  28
HETATM   28  C4  UNL     1     -23.965   4.842  11.233  1.00  0.00     0.259 C 
HETATM   29  O1  UNL     1     -23.202   5.324  12.088  1.00  0.00    -0.265 OA
BRANCH  28  30
HETATM   30  C3  UNL     1     -25.288   5.345  10.852  1.00  0.00     0.113 C 
BRANCH  30  31
HETATM   31  C2  UNL     1     -25.193   6.532   9.908  1.00  0.00     0.037 C 
BRANCH  31  32
HETATM   32  C1  UNL     1     -26.325   7.492  10.102  1.00  0.00     0.230 C 
BRANCH  32  33
HETATM   33  N1  UNL     1     -25.983   8.849   9.766  1.00  0.00    -0.079 N 
ATOM     34  H13 UNL     1     -24.975   8.991   9.810  1.00  0.00     0.274 HD
ATOM     35  H12 UNL     1     -26.135   9.026   8.772  1.00  0.00     0.274 HD
ATOM     36  H11 UNL     1     -26.471   9.541  10.336  1.00  0.00     0.274 HD
ENDBRANCH  32  33
ENDBRANCH  31  32
ENDBRANCH  30  31
ENDBRANCH  28  30
ENDBRANCH  27  28
ENDBRANCH   1  27
BRANCH   5  37
HETATM   37  N6  UNL     1     -24.531   0.544  14.037  1.00  0.00    -0.072 N 
ATOM     38  H63 UNL     1     -24.721   1.394  14.567  1.00  0.00     0.274 HD
ATOM     39  H62 UNL     1     -25.482   0.277  13.780  1.00  0.00     0.274 HD
ATOM     40  H61 UNL     1     -24.120  -0.164  14.646  1.00  0.00     0.274 HD
ENDBRANCH   5  37
BRANCH   2  41
HETATM   41  N2  UNL     1     -23.694   1.232   9.042  1.00  0.00    -0.353 N 
HETATM   42  C7  UNL     1     -24.072   1.958   8.108  1.00  0.00     0.173 C 
HETATM   43  N3  UNL     1     -24.945   1.494   7.018  1.00  0.00    -0.358 N 
HETATM   44  N4  UNL     1     -23.843   3.317   7.764  1.00  0.00    -0.335 N 
HETATM   45  C8  UNL     1     -25.568   2.648   6.421  1.00  0.00     0.176 C 
ATOM     46  H3  UNL     1     -25.084   0.524   6.735  1.00  0.00     0.162 HD
HETATM   47  C9  UNL     1     -25.147   3.805   7.281  1.00  0.00     0.238 C 
ATOM     48  H4  UNL     1     -22.970   3.839   7.836  1.00  0.00     0.165 HD
ATOM     49  H2  UNL     1     -24.058   0.283   8.961  1.00  0.00     0.163 HD
BRANCH  47  50
HETATM   50  O3  UNL     1     -25.033   4.993   6.599  1.00  0.00    -0.375 OA
ATOM     51  H3  UNL     1     -24.619   5.686   7.100  1.00  0.00     0.212 HD
ENDBRANCH  47  50
ENDBRANCH   2  41
BRANCH   3  52
HETATM   52  N5  UNL     1     -21.353   0.578  11.767  1.00  0.00    -0.073 N 
ATOM     53  H53 UNL     1     -20.467   0.600  11.262  1.00  0.00     0.274 HD
ATOM     54  H52 UNL     1     -21.369   1.565  12.026  1.00  0.00     0.274 HD
ATOM     55  H51 UNL     1     -21.352  -0.054  12.568  1.00  0.00     0.274 HD
ENDBRANCH   3  52
TORSDOF 16
ENDMDL
MODEL 2
REMARK VINA RESULT: -5.185806593      3.101      6.024
REMARK  16 active torsions:
REMARK  status: ('A' for Active; 'I' for Inactive)
REMARK    1  A    between atoms: N1_1  and  C1_5 
REMARK    2  A    between atoms: C1_5  and  C2_6 
REMARK    3  A    between atoms: C2_6  and  C3_7 
REMARK    4  A    between atoms: C3_7  and  C4_8 
REMARK    5  A    between atoms: C4_8  and  O2_10 
REMARK    6  A    between atoms: O2_10  and  C5_11 
REMARK    7  A    between atoms: C6_12  and  N2_13 
REMARK    8  A    between atoms: C9_19  and  O3_20 
REMARK    9  A    between atoms: C10_24  and  N5_25 
REMARK   10  A    between atoms: C12_30  and  N6_31 
REMARK   11  A    between atoms: C13_35  and  O4_36 
REMARK   12  A    between atoms: O4_36  and  C14_37 
REMARK   13  A    between atoms: C15_39  and  C16_40 
REMARK   14  A    between atoms: C16_40  and  N7_41 
REMARK   15  A    between atoms: C17_45  and  N8_46 
REMARK   16  A    between atoms: C19_51  and  N9_52 
ROOT
HETATM    1  C5  UNL     1     -25.218  -0.692  12.875  1.00  0.00     0.187 C 
HETATM    2  C6  UNL     1     -26.155  -1.875  12.830  1.00  0.00     0.147 C 
HETATM    3  C10 UNL     1     -27.474  -1.460  13.423  1.00  0.00     0.210 C 
HETATM    4  C11 UNL     1     -28.035  -0.195  12.800  1.00  0.00     0.070 C 
HETATM    5  C12 UNL     1     -27.030   0.880  13.014  1.00  0.00     0.217 C 
HETATM    6  C13 UNL     1     -25.802   0.493  12.167  1.00  0.00     0.186 C 
ENDROOT
BRANCH   6   7
HETATM    7  O4  UNL     1     -26.317   0.186  10.909  1.00  0.00    -0.349 OA
BRANCH   7   8
HETATM    8  C14 UNL     1     -25.938   1.084   9.930  1.00  0.00     0.291 C 
HETATM    9  O5  UNL     1     -25.911   2.412  10.350  1.00  0.00    -0.350 OA
HETATM   10  C15 UNL     1     -25.096   3.088   9.476  1.00  0.00     0.180 C 
HETATM   11  C17 UNL     1     -25.337   2.802   8.035  1.00  0.00     0.216 C 
HETATM   12  C18 UNL     1     -26.617   2.091   7.758  1.00  0.00     0.073 C 
HETATM   13  C19 UNL     1     -26.985   1.063   8.834  1.00  0.00     0.240 C 
BRANCH  10  14
HETATM   14  C16 UNL     1     -25.110   4.595   9.767  1.00  0.00     0.263 C 
BRANCH  14  15
HETATM   15  N7  UNL     1     -25.300   4.745  11.210  1.00  0.00    -0.077 N 
ATOM     16  H73 UNL     1     -25.674   5.656  11.474  1.00  0.00     0.274 HD
ATOM     17  H72 UNL     1     -26.067   4.180  11.575  1.00  0.00     0.274 HD
ATOM     18  H71 UNL     1     -24.403   4.536  11.648  1.00  0.00     0.274 HD
ENDBRANCH  14  15
ENDBRANCH  10  14
BRANCH  11  19
HETATM   19  N8  UNL     1     -24.248   2.074   7.411  1.00  0.00    -0.072 N 
ATOM     20  H83 UNL     1     -23.789   1.460   8.083  1.00  0.00     0.274 HD
ATOM     21  H82 UNL     1     -24.604   1.373   6.760  1.00  0.00     0.274 HD
ATOM     22  H81 UNL     1     -23.570   2.684   6.953  1.00  0.00     0.274 HD
ENDBRANCH  11  19
BRANCH  13  23
HETATM   23  N9  UNL     1     -28.238   1.564   9.423  1.00  0.00    -0.070 N 
ATOM     24  H93 UNL     1     -28.808   0.827   9.839  1.00  0.00     0.274 HD
ATOM     25  H92 UNL     1     -28.091   2.111  10.272  1.00  0.00     0.274 HD
ATOM     26  H91 UNL     1     -28.725   2.083   8.693  1.00  0.00     0.274 HD
ENDBRANCH  13  23
ENDBRANCH   7   8
ENDBRANCH   6   7
BRANCH   1  27
HETATM   27  O2  UNL     1     -23.893  -0.965  12.643  1.00  0.00    -0.311 OA
BRANCH  27  28
HETATM   28  C4  UNL     1     -22.792  -0.292  13.107  1.00  0.00     0.259 C 
HETATM   29  O1  UNL     1     -22.813  -0.128  14.338  1.00  0.00    -0.265 OA
BRANCH  28  30
HETATM   30  C3  UNL     1     -21.747   0.150  12.178  1.00  0.00     0.113 C 
BRANCH  30  31
HETATM   31  C2  UNL     1     -22.318   0.957  11.025  1.00  0.00     0.037 C 
BRANCH  31  32
HETATM   32  C1  UNL     1     -22.169   0.245   9.717  1.00  0.00     0.230 C 
BRANCH  32  33
HETATM   33  N1  UNL     1     -23.004  -0.923   9.608  1.00  0.00    -0.079 N 
ATOM     34  H13 UNL     1     -22.948  -1.490  10.453  1.00  0.00     0.274 HD
ATOM     35  H12 UNL     1     -23.992  -0.667   9.642  1.00  0.00     0.274 HD
ATOM     36  H11 UNL     1     -22.805  -1.485   8.780  1.00  0.00     0.274 HD
ENDBRANCH  32  33
ENDBRANCH  31  32
ENDBRANCH  30  31
ENDBRANCH  28  30
ENDBRANCH  27  28
ENDBRANCH   1  27
BRANCH   5  37
HETATM   37  N6  UNL     1     -27.485   2.205  12.736  1.00  0.00    -0.072 N 
ATOM     38  H63 UNL     1     -28.304   2.174  12.129  1.00  0.00     0.274 HD
ATOM     39  H62 UNL     1     -27.897   2.617  13.573  1.00  0.00     0.274 HD
ATOM     40  H61 UNL     1     -26.782   2.834  12.345  1.00  0.00     0.274 HD
ENDBRANCH   5  37
BRANCH   2  41
HETATM   41  N2  UNL     1     -26.161  -2.618  11.682  1.00  0.00    -0.353 N 
HETATM   42  C7  UNL     1     -25.444  -3.504  11.188  1.00  0.00     0.173 C 
HETATM   43  N3  UNL     1     -25.709  -4.137   9.887  1.00  0.00    -0.358 N 
HETATM   44  N4  UNL     1     -24.263  -4.166  11.619  1.00  0.00    -0.335 N 
HETATM   45  C8  UNL     1     -24.479  -4.716   9.411  1.00  0.00     0.176 C 
ATOM     46  H3  UNL     1     -26.608  -4.161   9.406  1.00  0.00     0.162 HD
HETATM   47  C9  UNL     1     -23.438  -4.287  10.404  1.00  0.00     0.238 C 
ATOM     48  H4  UNL     1     -24.037  -4.487  12.561  1.00  0.00     0.165 HD
ATOM     49  H2  UNL     1     -26.951  -2.386  11.080  1.00  0.00     0.163 HD
BRANCH  47  50
HETATM   50  O3  UNL     1     -22.415  -5.191  10.563  1.00  0.00    -0.375 OA
ATOM     51  H3  UNL     1     -21.581  -4.793  10.787  1.00  0.00     0.212 HD
ENDBRANCH  47  50
ENDBRANCH   2  41
BRANCH   3  52
HETATM   52  N5  UNL     1     -27.179  -1.077  14.832  1.00  0.00    -0.073 N 
ATOM     53  H53 UNL     1     -26.405  -1.598  15.243  1.00  0.00     0.274 HD
ATOM     54  H52 UNL     1     -26.764  -0.150  14.925  1.00  0.00     0.274 HD
ATOM     55  H51 UNL     1     -28.058  -1.184  15.337  1.00  0.00     0.274 HD
ENDBRANCH   3  52
TORSDOF 16
ENDMDL
MODEL 3
REMARK VINA RESULT: -5.146289482      2.199      5.432
REMARK  16 active torsions:
REMARK  status: ('A' for Active; 'I' for Inactive)
REMARK    1  A    between atoms: N1_1  and  C1_5 
REMARK    2  A    between atoms: C1_5  and  C2_6 
REMARK    3  A    between atoms: C2_6  and  C3_7 
REMARK    4  A    between atoms: C3_7  and  C4_8 
REMARK    5  A    between atoms: C4_8  and  O2_10 
REMARK    6  A    between atoms: O2_10  and  C5_11 
REMARK    7  A    between atoms: C6_12  and  N2_13 
REMARK    8  A    between atoms: C9_19  and  O3_20 
REMARK    9  A    between atoms: C10_24  and  N5_25 
REMARK   10  A    between atoms: C12_30  and  N6_31 
REMARK   11  A    between atoms: C13_35  and  O4_36 
REMARK   12  A    between atoms: O4_36  and  C14_37 
REMARK   13  A    between atoms: C15_39  and  C16_40 
REMARK   14  A    between atoms: C16_40  and  N7_41 
REMARK   15  A    between atoms: C17_45  and  N8_46 
REMARK   16  A    between atoms: C19_51  and  N9_52 
ROOT
HETATM    1  C5  UNL     1     -24.443   1.767   9.614  1.00  0.00     0.187 C 
HETATM    2  C6  UNL     1     -24.846   0.886  10.772  1.00  0.00     0.147 C 
HETATM    3  C10 UNL     1     -23.806   1.015  11.852  1.00  0.00     0.210 C 
HETATM    4  C11 UNL     1     -23.521   2.456  12.234  1.00  0.00     0.070 C 
HETATM    5  C12 UNL     1     -23.053   3.149  11.004  1.00  0.00     0.217 C 
HETATM    6  C13 UNL     1     -24.262   3.190  10.050  1.00  0.00     0.186 C 
ENDROOT
BRANCH   6   7
HETATM    7  O4  UNL     1     -25.316   3.668  10.826  1.00  0.00    -0.349 OA
BRANCH   7   8
HETATM    8  C14 UNL     1     -26.141   4.543  10.147  1.00  0.00     0.291 C 
HETATM    9  O5  UNL     1     -26.138   5.842  10.651  1.00  0.00    -0.350 OA
HETATM   10  C15 UNL     1     -26.589   6.659   9.644  1.00  0.00     0.180 C 
HETATM   11  C17 UNL     1     -27.804   6.175   8.931  1.00  0.00     0.216 C 
HETATM   12  C18 UNL     1     -28.518   5.065   9.622  1.00  0.00     0.073 C 
HETATM   13  C19 UNL     1     -27.574   4.080  10.322  1.00  0.00     0.240 C 
BRANCH  10  14
HETATM   14  C16 UNL     1     -26.760   8.101  10.142  1.00  0.00     0.263 C 
BRANCH  14  15
HETATM   15  N7  UNL     1     -25.603   8.854   9.659  1.00  0.00    -0.077 N 
ATOM     16  H73 UNL     1     -25.136   9.388  10.391  1.00  0.00     0.274 HD
ATOM     17  H72 UNL     1     -24.813   8.260   9.408  1.00  0.00     0.274 HD
ATOM     18  H71 UNL     1     -25.931   9.433   8.886  1.00  0.00     0.274 HD
ENDBRANCH  14  15
ENDBRANCH  10  14
BRANCH  11  19
HETATM   19  N8  UNL     1     -27.538   5.782   7.559  1.00  0.00    -0.072 N 
ATOM     20  H83 UNL     1     -27.084   6.537   7.046  1.00  0.00     0.274 HD
ATOM     21  H82 UNL     1     -26.797   5.083   7.517  1.00  0.00     0.274 HD
ATOM     22  H81 UNL     1     -28.372   5.459   7.068  1.00  0.00     0.274 HD
ENDBRANCH  11  19
BRANCH  13  23
HETATM   23  N9  UNL     1     -27.895   4.203  11.755  1.00  0.00    -0.070 N 
ATOM     24  H93 UNL     1     -27.927   5.170  12.077  1.00  0.00     0.274 HD
ATOM     25  H92 UNL     1     -28.862   3.961  11.971  1.00  0.00     0.274 HD
ATOM     26  H91 UNL     1     -27.218   3.634  12.263  1.00  0.00     0.274 HD
ENDBRANCH  13  23
ENDBRANCH   7   8
ENDBRANCH   6   7
BRANCH   1  27
HETATM   27  O2  UNL     1     -25.116   1.557   8.436  1.00  0.00    -0.311 OA
BRANCH  27  28
HETATM   28  C4  UNL     1     -25.240   2.403   7.365  1.00  0.00     0.259 C 
HETATM   29  O1  UNL     1     -26.412   2.772   7.177  1.00  0.00    -0.265 OA
BRANCH  28  30
HETATM   30  C3  UNL     1     -24.062   2.782   6.578  1.00  0.00     0.113 C 
BRANCH  30  31
HETATM   31  C2  UNL     1     -24.041   4.270   6.269  1.00  0.00     0.037 C 
BRANCH  31  32
HETATM   32  C1  UNL     1     -24.353   4.545   4.831  1.00  0.00     0.230 C 
BRANCH  32  33
HETATM   33  N1  UNL     1     -25.755   4.436   4.522  1.00  0.00    -0.079 N 
ATOM     34  H13 UNL     1     -26.234   3.859   5.212  1.00  0.00     0.274 HD
ATOM     35  H12 UNL     1     -26.232   5.323   4.684  1.00  0.00     0.274 HD
ATOM     36  H11 UNL     1     -25.934   4.095   3.578  1.00  0.00     0.274 HD
ENDBRANCH  32  33
ENDBRANCH  31  32
ENDBRANCH  30  31
ENDBRANCH  28  30
ENDBRANCH  27  28
ENDBRANCH   1  27
BRANCH   5  37
HETATM   37  N6  UNL     1     -22.482   4.441  11.211  1.00  0.00    -0.072 N 
ATOM     38  H63 UNL     1     -23.145   5.165  10.932  1.00  0.00     0.274 HD
ATOM     39  H62 UNL     1     -22.412   4.637  12.209  1.00  0.00     0.274 HD
ATOM     40  H61 UNL     1     -21.581   4.598  10.758  1.00  0.00     0.274 HD
ENDBRANCH   5  37
BRANCH   2  41
HETATM   41  N2  UNL     1     -26.166   0.899  11.131  1.00  0.00    -0.353 N 
HETATM   42  C7  UNL     1     -26.811   0.678  12.170  1.00  0.00     0.173 C 
HETATM   43  N3  UNL     1     -28.276   0.773  12.254  1.00  0.00    -0.358 N 
HETATM   44  N4  UNL     1     -26.447   0.309  13.492  1.00  0.00    -0.335 N 
HETATM   45  C8  UNL     1     -28.710   0.001  13.391  1.00  0.00     0.176 C 
ATOM     46  H3  UNL     1     -28.880   1.295  11.619  1.00  0.00     0.162 HD
HETATM   47  C9  UNL     1     -27.468  -0.673  13.899  1.00  0.00     0.238 C 
ATOM     48  H4  UNL     1     -25.655   0.647  14.038  1.00  0.00     0.165 HD
ATOM     49  H2  UNL     1     -26.772   1.154  10.351  1.00  0.00     0.163 HD
BRANCH  47  50
HETATM   50  O3  UNL     1     -27.467  -0.886  15.258  1.00  0.00    -0.375 OA
ATOM     51  H3  UNL     1     -27.349  -0.094  15.770  1.00  0.00     0.212 HD
ENDBRANCH  47  50
ENDBRANCH   2  41
BRANCH   3  52
HETATM   52  N5  UNL     1     -22.534   0.536  11.245  1.00  0.00    -0.073 N 
ATOM     53  H53 UNL     1     -22.059  -0.177  11.800  1.00  0.00     0.274 HD
ATOM     54  H52 UNL     1     -22.668  -0.032  10.408  1.00  0.00     0.274 HD
ATOM     55  H51 UNL     1     -21.972   1.372  11.086  1.00  0.00     0.274 HD
ENDBRANCH   3  52
TORSDOF 16
ENDMDL
MODEL 4
REMARK VINA RESULT: -5.104422696      2.403      5.104
REMARK  16 active torsions:
REMARK  status: ('A' for Active; 'I' for Inactive)
REMARK    1  A    between atoms: N1_1  and  C1_5 
REMARK    2  A    between atoms: C1_5  and  C2_6 
REMARK    3  A    between atoms: C2_6  and  C3_7 
REMARK    4  A    between atoms: C3_7  and  C4_8 
REMARK    5  A    between atoms: C4_8  and  O2_10 
REMARK    6  A    between atoms: O2_10  and  C5_11 
REMARK    7  A    between atoms: C6_12  and  N2_13 
REMARK    8  A    between atoms: C9_19  and  O3_20 
REMARK    9  A    between atoms: C10_24  and  N5_25 
REMARK   10  A    between atoms: C12_30  and  N6_31 
REMARK   11  A    between atoms: C13_35  and  O4_36 
REMARK   12  A    between atoms: O4_36  and  C14_37 
REMARK   13  A    between atoms: C15_39  and  C16_40 
REMARK   14  A    between atoms: C16_40  and  N7_41 
REMARK   15  A    between atoms: C17_45  and  N8_46 
REMARK   16  A    between atoms: C19_51  and  N9_52 
ROOT
HETATM    1  C5  UNL     1     -24.850   2.032   9.569  1.00  0.00     0.187 C 
HETATM    2  C6  UNL     1     -25.904   2.809   8.819  1.00  0.00     0.147 C 
HETATM    3  C10 UNL     1     -26.063   2.197   7.454  1.00  0.00     0.210 C 
HETATM    4  C11 UNL     1     -26.304   0.699   7.497  1.00  0.00     0.070 C 
HETATM    5  C12 UNL     1     -25.135   0.089   8.185  1.00  0.00     0.217 C 
HETATM    6  C13 UNL     1     -25.196   0.575   9.646  1.00  0.00     0.186 C 
ENDROOT
BRANCH   6   7
HETATM    7  O4  UNL     1     -26.510   0.341  10.047  1.00  0.00    -0.349 OA
BRANCH   7   8
HETATM    8  C14 UNL     1     -26.618  -0.024  11.375  1.00  0.00     0.291 C 
HETATM    9  O5  UNL     1     -27.200  -1.273  11.581  1.00  0.00    -0.350 OA
HETATM   10  C15 UNL     1     -26.815  -1.688  12.832  1.00  0.00     0.180 C 
HETATM   11  C17 UNL     1     -26.935  -0.662  13.905  1.00  0.00     0.216 C 
HETATM   12  C18 UNL     1     -27.744   0.530  13.525  1.00  0.00     0.073 C 
HETATM   13  C19 UNL     1     -27.563   0.943  12.059  1.00  0.00     0.240 C 
BRANCH  10  14
HETATM   14  C16 UNL     1     -27.521  -2.997  13.216  1.00  0.00     0.263 C 
BRANCH  14  15
HETATM   15  N7  UNL     1     -27.837  -2.903  14.641  1.00  0.00    -0.077 N 
ATOM     16  H73 UNL     1     -28.596  -2.252  14.842  1.00  0.00     0.274 HD
ATOM     17  H72 UNL     1     -28.285  -3.742  15.009  1.00  0.00     0.274 HD
ATOM     18  H71 UNL     1     -26.968  -2.668  15.120  1.00  0.00     0.274 HD
ENDBRANCH  14  15
ENDBRANCH  10  14
BRANCH  11  19
HETATM   19  N8  UNL     1     -25.648  -0.217  14.409  1.00  0.00    -0.072 N 
ATOM     20  H83 UNL     1     -25.762   0.561  15.058  1.00  0.00     0.274 HD
ATOM     21  H82 UNL     1     -25.248  -0.907  15.046  1.00  0.00     0.274 HD
ATOM     22  H81 UNL     1     -24.989   0.020  13.667  1.00  0.00     0.274 HD
ENDBRANCH  11  19
BRANCH  13  23
HETATM   23  N9  UNL     1     -28.890   0.756  11.447  1.00  0.00    -0.070 N 
ATOM     24  H93 UNL     1     -29.548   0.273  12.059  1.00  0.00     0.274 HD
ATOM     25  H92 UNL     1     -29.414   1.626  11.353  1.00  0.00     0.274 HD
ATOM     26  H91 UNL     1     -28.745   0.278  10.559  1.00  0.00     0.274 HD
ENDBRANCH  13  23
ENDBRANCH   7   8
ENDBRANCH   6   7
BRANCH   1  27
HETATM   27  O2  UNL     1     -24.371   2.618  10.715  1.00  0.00    -0.311 OA
BRANCH  27  28
HETATM   28  C4  UNL     1     -23.569   2.069  11.681  1.00  0.00     0.259 C 
HETATM   29  O1  UNL     1     -24.155   1.926  12.768  1.00  0.00    -0.265 OA
BRANCH  28  30
HETATM   30  C3  UNL     1     -22.178   1.715  11.379  1.00  0.00     0.113 C 
BRANCH  30  31
HETATM   31  C2  UNL     1     -21.905   0.239  11.614  1.00  0.00     0.037 C 
BRANCH  31  32
HETATM   32  C1  UNL     1     -21.116   0.010  12.865  1.00  0.00     0.230 C 
BRANCH  32  33
HETATM   33  N1  UNL     1     -21.034  -1.378  13.238  1.00  0.00    -0.079 N 
ATOM     34  H13 UNL     1     -21.574  -1.959  12.597  1.00  0.00     0.274 HD
ATOM     35  H12 UNL     1     -20.100  -1.748  13.056  1.00  0.00     0.274 HD
ATOM     36  H11 UNL     1     -21.310  -1.553  14.205  1.00  0.00     0.274 HD
ENDBRANCH  32  33
ENDBRANCH  31  32
ENDBRANCH  30  31
ENDBRANCH  28  30
ENDBRANCH  27  28
ENDBRANCH   1  27
BRANCH   5  37
HETATM   37  N6  UNL     1     -25.045  -1.333   8.090  1.00  0.00    -0.072 N 
ATOM     38  H63 UNL     1     -24.247  -1.596   7.512  1.00  0.00     0.274 HD
ATOM     39  H62 UNL     1     -24.754  -1.726   8.986  1.00  0.00     0.274 HD
ATOM     40  H61 UNL     1     -25.888  -1.802   7.758  1.00  0.00     0.274 HD
ENDBRANCH   5  37
BRANCH   2  41
HETATM   41  N2  UNL     1     -27.029   3.156   9.514  1.00  0.00    -0.353 N 
HETATM   42  C7  UNL     1     -27.500   4.206   9.983  1.00  0.00     0.173 C 
HETATM   43  N3  UNL     1     -28.777   4.272  10.710  1.00  0.00    -0.358 N 
HETATM   44  N4  UNL     1     -27.065   5.558   9.998  1.00  0.00    -0.335 N 
HETATM   45  C8  UNL     1     -28.774   5.469  11.513  1.00  0.00     0.176 C 
ATOM     46  H3  UNL     1     -29.533   3.590  10.656  1.00  0.00     0.162 HD
HETATM   47  C9  UNL     1     -27.396   6.042  11.350  1.00  0.00     0.238 C 
ATOM     48  H4  UNL     1     -26.621   6.078   9.240  1.00  0.00     0.165 HD
ATOM     49  H2  UNL     1     -27.633   2.353   9.692  1.00  0.00     0.163 HD
BRANCH  47  50
HETATM   50  O3  UNL     1     -27.350   7.414  11.432  1.00  0.00    -0.375 OA
ATOM     51  H3  UNL     1     -26.518   7.753  11.740  1.00  0.00     0.212 HD
ENDBRANCH  47  50
ENDBRANCH   2  41
BRANCH   3  52
HETATM   52  N5  UNL     1     -24.737   2.338   6.792  1.00  0.00    -0.073 N 
ATOM     53  H53 UNL     1     -24.226   3.175   7.074  1.00  0.00     0.274 HD
ATOM     54  H52 UNL     1     -24.046   1.660   7.114  1.00  0.00     0.274 HD
ATOM     55  H51 UNL     1     -24.922   2.289   5.790  1.00  0.00     0.274 HD
ENDBRANCH   3  52
TORSDOF 16
ENDMDL
MODEL 5
REMARK VINA RESULT: -5.076135864      2.011      4.850
REMARK  16 active torsions:
REMARK  status: ('A' for Active; 'I' for Inactive)
REMARK    1  A    between atoms: N1_1  and  C1_5 
REMARK    2  A    between atoms: C1_5  and  C2_6 
REMARK    3  A    between atoms: C2_6  and  C3_7 
REMARK    4  A    between atoms: C3_7  and  C4_8 
REMARK    5  A    between atoms: C4_8  and  O2_10 
REMARK    6  A    between atoms: O2_10  and  C5_11 
REMARK    7  A    between atoms: C6_12  and  N2_13 
REMARK    8  A    between atoms: C9_19  and  O3_20 
REMARK    9  A    between atoms: C10_24  and  N5_25 
REMARK   10  A    between atoms: C12_30  and  N6_31 
REMARK   11  A    between atoms: C13_35  and  O4_36 
REMARK   12  A    between atoms: O4_36  and  C14_37 
REMARK   13  A    between atoms: C15_39  and  C16_40 
REMARK   14  A    between atoms: C16_40  and  N7_41 
REMARK   15  A    between atoms: C17_45  and  N8_46 
REMARK   16  A    between atoms: C19_51  and  N9_52 
ROOT
HETATM    1  C5  UNL     1     -24.787   2.499   9.643  1.00  0.00     0.187 C 
HETATM    2  C6  UNL     1     -25.074   3.721   8.804  1.00  0.00     0.147 C 
HETATM    3  C10 UNL     1     -25.079   3.313   7.356  1.00  0.00     0.210 C 
HETATM    4  C11 UNL     1     -25.992   2.133   7.074  1.00  0.00     0.070 C 
HETATM    5  C12 UNL     1     -25.513   1.000   7.910  1.00  0.00     0.217 C 
HETATM    6  C13 UNL     1     -25.778   1.407   9.373  1.00  0.00     0.186 C 
ENDROOT
BRANCH   6   7
HETATM    7  O4  UNL     1     -27.100   1.846   9.390  1.00  0.00    -0.349 OA
BRANCH   7   8
HETATM    8  C14 UNL     1     -27.773   1.509  10.548  1.00  0.00     0.291 C 
HETATM    9  O5  UNL     1     -27.226   0.426  11.233  1.00  0.00    -0.350 OA
HETATM   10  C15 UNL     1     -27.670   0.512  12.530  1.00  0.00     0.180 C 
HETATM   11  C17 UNL     1     -29.125   0.791  12.684  1.00  0.00     0.216 C 
HETATM   12  C18 UNL     1     -29.918   0.612  11.436  1.00  0.00     0.073 C 
HETATM   13  C19 UNL     1     -29.166   1.045  10.172  1.00  0.00     0.240 C 
BRANCH  10  14
HETATM   14  C16 UNL     1     -27.238  -0.719  13.340  1.00  0.00     0.263 C 
BRANCH  14  15
HETATM   15  N7  UNL     1     -26.198  -0.271  14.265  1.00  0.00    -0.077 N 
ATOM     16  H73 UNL     1     -26.142   0.744  14.346  1.00  0.00     0.274 HD
ATOM     17  H72 UNL     1     -26.417  -0.466  15.242  1.00  0.00     0.274 HD
ATOM     18  H71 UNL     1     -25.325  -0.698  13.956  1.00  0.00     0.274 HD
ENDBRANCH  14  15
ENDBRANCH  10  14
BRANCH  11  19
HETATM   19  N8  UNL     1     -29.395   2.108  13.230  1.00  0.00    -0.072 N 
ATOM     20  H83 UNL     1     -29.623   2.051  14.222  1.00  0.00     0.274 HD
ATOM     21  H82 UNL     1     -28.540   2.662  13.287  1.00  0.00     0.274 HD
ATOM     22  H81 UNL     1     -30.121   2.611  12.718  1.00  0.00     0.274 HD
ENDBRANCH  11  19
BRANCH  13  23
HETATM   23  N9  UNL     1     -29.012  -0.190   9.382  1.00  0.00    -0.070 N 
ATOM     24  H93 UNL     1     -28.319  -0.105   8.638  1.00  0.00     0.274 HD
ATOM     25  H92 UNL     1     -28.557  -0.942   9.900  1.00  0.00     0.274 HD
ATOM     26  H91 UNL     1     -29.938  -0.443   9.040  1.00  0.00     0.274 HD
ENDBRANCH  13  23
ENDBRANCH   7   8
ENDBRANCH   6   7
BRANCH   1  27
HETATM   27  O2  UNL     1     -24.460   2.733  10.956  1.00  0.00    -0.311 OA
BRANCH  27  28
HETATM   28  C4  UNL     1     -23.687   1.967  11.790  1.00  0.00     0.259 C 
HETATM   29  O1  UNL     1     -24.282   1.642  12.832  1.00  0.00    -0.265 OA
BRANCH  28  30
HETATM   30  C3  UNL     1     -22.315   1.615  11.414  1.00  0.00     0.113 C 
BRANCH  30  31
HETATM   31  C2  UNL     1     -21.998   0.162  11.723  1.00  0.00     0.037 C 
BRANCH  31  32
HETATM   32  C1  UNL     1     -21.041   0.030  12.866  1.00  0.00     0.230 C 
BRANCH  32  33
HETATM   33  N1  UNL     1     -20.986  -1.302  13.410  1.00  0.00    -0.079 N 
ATOM     34  H13 UNL     1     -21.910  -1.733  13.410  1.00  0.00     0.274 HD
ATOM     35  H12 UNL     1     -20.505  -1.936  12.770  1.00  0.00     0.274 HD
ATOM     36  H11 UNL     1     -20.569  -1.341  14.340  1.00  0.00     0.274 HD
ENDBRANCH  32  33
ENDBRANCH  31  32
ENDBRANCH  30  31
ENDBRANCH  28  30
ENDBRANCH  27  28
ENDBRANCH   1  27
BRANCH   5  37
HETATM   37  N6  UNL     1     -26.074  -0.274   7.592  1.00  0.00    -0.072 N 
ATOM     38  H63 UNL     1     -26.873  -0.465   8.196  1.00  0.00     0.274 HD
ATOM     39  H62 UNL     1     -26.540  -0.235   6.685  1.00  0.00     0.274 HD
ATOM     40  H61 UNL     1     -25.420  -1.057   7.618  1.00  0.00     0.274 HD
ENDBRANCH   5  37
BRANCH   2  41
HETATM   41  N2  UNL     1     -26.056   4.561   9.249  1.00  0.00    -0.353 N 
HETATM   42  C7  UNL     1     -26.260   5.786   9.229  1.00  0.00     0.173 C 
HETATM   43  N3  UNL     1     -27.450   6.424   9.813  1.00  0.00    -0.358 N 
HETATM   44  N4  UNL     1     -25.539   6.894   8.708  1.00  0.00    -0.335 N 
HETATM   45  C8  UNL     1     -27.141   7.811  10.056  1.00  0.00     0.176 C 
ATOM     46  H3  UNL     1     -28.339   5.965  10.010  1.00  0.00     0.162 HD
HETATM   47  C9  UNL     1     -25.682   7.946   9.730  1.00  0.00     0.238 C 
ATOM     48  H4  UNL     1     -25.034   6.948   7.824  1.00  0.00     0.165 HD
ATOM     49  H2  UNL     1     -26.810   4.056   9.715  1.00  0.00     0.163 HD
BRANCH  47  50
HETATM   50  O3  UNL     1     -25.333   9.185   9.246  1.00  0.00    -0.375 OA
ATOM     51  H3  UNL     1     -25.852   9.467   8.502  1.00  0.00     0.212 HD
ENDBRANCH  47  50
ENDBRANCH   2  41
BRANCH   3  52
HETATM   52  N5  UNL     1     -23.711   2.794   7.078  1.00  0.00    -0.073 N 
ATOM     53  H53 UNL     1     -23.566   1.834   7.393  1.00  0.00     0.274 HD
ATOM     54  H52 UNL     1     -23.531   2.625   6.089  1.00  0.00     0.274 HD
ATOM     55  H51 UNL     1     -23.070   3.465   7.502  1.00  0.00     0.274 HD
ENDBRANCH   3  52
TORSDOF 16
ENDMDL
