MODEL 1
REMARK VINA RESULT: -8.405939853      0.000      0.000
REMARK  13 active torsions:
REMARK  status: ('A' for Active; 'I' for Inactive)
REMARK    1  A    between atoms: C3_3  and  C5_5 
REMARK    2  A    between atoms: C7_7  and  C8_8 
REMARK    3  A    between atoms: C8_8  and  N1_9 
REMARK    4  A    between atoms: N1_9  and  C10_11 
REMARK    5  A    between atoms: C10_11  and  C11_12 
REMARK    6  A    between atoms: C11_12  and  C12_13 
REMARK    7  A    between atoms: C12_13  and  N2_14 
REMARK    8  A    between atoms: N2_14  and  S1_16 
REMARK    9  A    between atoms: S1_16  and  N3_18 
REMARK   10  A    between atoms: N4_21  and  C15_22 
REMARK   11  A    between atoms: C16_25  and  N6_26 
REMARK   12  A    between atoms: C19_31  and  O2_32 
REMARK   13  A    between atoms: C21_34  and  O3_35 
ROOT
HETATM    1  N3  UNL     1      -8.451  16.280  23.188  1.00  0.00    -0.312 N 
HETATM    2  C13 UNL     1      -7.992  15.008  23.627  1.00  0.00     0.155 C 
HETATM    3  C14 UNL     1      -9.076  14.192  24.294  1.00  0.00     0.161 C 
HETATM    4  N4  UNL     1      -9.850  14.951  25.243  1.00  0.00    -0.214 N 
HETATM    5  C25 UNL     1      -9.525  16.343  25.419  1.00  0.00     0.161 C 
HETATM    6  C26 UNL     1      -9.274  17.001  24.086  1.00  0.00     0.155 C 
ENDROOT
BRANCH   4   7
HETATM    7  C15 UNL     1     -10.898  14.270  25.922  1.00  0.00     0.682 A 
HETATM    8  N5  UNL     1     -11.733  13.397  25.331  1.00  0.00    -0.176 N 
HETATM    9  C16 UNL     1     -12.718  12.749  25.992  1.00  0.00     0.127 A 
ATOM     10  H5  UNL     1     -11.618  13.214  24.334  1.00  0.00     0.186 HD
HETATM   11  C17 UNL     1     -12.905  12.967  27.341  1.00  0.00     0.038 A 
HETATM   12  C18 UNL     1     -13.870  12.363  28.110  1.00  0.00     0.057 A 
HETATM   13  C24 UNL     1     -12.053  13.857  27.943  1.00  0.00     0.066 A 
HETATM   14  C19 UNL     1     -14.045  12.587  29.459  1.00  0.00     0.102 A 
HETATM   15  C21 UNL     1     -13.174  13.492  30.068  1.00  0.00     0.103 A 
HETATM   16  C23 UNL     1     -12.202  14.109  29.321  1.00  0.00     0.070 A 
HETATM   17  N7  UNL     1     -11.096  14.471  27.245  1.00  0.00    -0.191 N 
ATOM     18  H7  UNL     1     -10.484  15.125  27.733  1.00  0.00     0.184 HD
BRANCH   9  19
HETATM   19  N6  UNL     1     -13.506  11.924  25.396  1.00  0.00    -0.384 N 
ATOM     20  H62 UNL     1     -13.094  11.108  24.943  1.00  0.00     0.157 HD
ATOM     21  H61 UNL     1     -14.516  12.066  25.373  1.00  0.00     0.157 HD
ENDBRANCH   9  19
BRANCH  14  22
HETATM   22  O2  UNL     1     -15.041  11.951  30.198  1.00  0.00    -0.353 OA
HETATM   23  C20 UNL     1     -14.769  10.614  30.614  1.00  0.00     0.210 C 
ENDBRANCH  14  22
BRANCH  15  24
HETATM   24  O3  UNL     1     -13.306  13.744  31.406  1.00  0.00    -0.353 OA
HETATM   25  C22 UNL     1     -12.588  13.175  32.455  1.00  0.00     0.210 C 
ENDBRANCH  15  24
ENDBRANCH   4   7
BRANCH   1  26
HETATM   26  S1  UNL     1      -7.339  17.186  22.247  1.00  0.00     0.214 S 
HETATM   27  O1  UNL     1      -7.780  17.224  20.800  1.00  0.00    -0.212 OA
BRANCH  26  28
HETATM   28  N2  UNL     1      -5.699  16.580  22.301  1.00  0.00    -0.323 N 
ATOM     29  H2  UNL     1      -5.402  15.615  22.152  1.00  0.00     0.171 HD
BRANCH  28  30
HETATM   30  C12 UNL     1      -4.846  17.704  22.596  1.00  0.00     0.136 C 
BRANCH  30  31
HETATM   31  C11 UNL     1      -5.008  18.196  24.040  1.00  0.00     0.064 C 
BRANCH  31  32
HETATM   32  C10 UNL     1      -4.949  17.011  24.984  1.00  0.00     0.059 C 
BRANCH  32  33
HETATM   33  N1  UNL     1      -5.949  16.998  25.975  1.00  0.00    -0.394 N 
HETATM   34  C9  UNL     1      -6.497  18.231  26.369  1.00  0.00     0.148 C 
BRANCH  33  35
HETATM   35  C8  UNL     1      -5.813  15.985  27.007  1.00  0.00     0.149 C 
BRANCH  35  36
HETATM   36  C7  UNL     1      -6.833  16.184  28.059  1.00  0.00    -0.000 C 
HETATM   37  C5  UNL     1      -7.690  15.270  28.435  1.00  0.00    -0.059 C 
HETATM   38  C6  UNL     1      -7.766  13.918  27.839  1.00  0.00     0.048 C 
BRANCH  37  39
HETATM   39  C3  UNL     1      -8.634  15.630  29.500  1.00  0.00    -0.060 C 
HETATM   40  C2  UNL     1      -8.611  14.969  30.632  1.00  0.00    -0.024 C 
HETATM   41  C1  UNL     1      -9.581  15.360  31.715  1.00  0.00     0.036 C 
HETATM   42  C4  UNL     1      -9.587  16.734  29.279  1.00  0.00     0.048 C 
ENDBRANCH  37  39
ENDBRANCH  35  36
ENDBRANCH  33  35
ENDBRANCH  32  33
ENDBRANCH  31  32
ENDBRANCH  30  31
ENDBRANCH  28  30
ENDBRANCH  26  28
ENDBRANCH   1  26
TORSDOF 13
ENDMDL
MODEL 2
REMARK VINA RESULT: -8.394637539      2.646      9.279
REMARK  13 active torsions:
REMARK  status: ('A' for Active; 'I' for Inactive)
REMARK    1  A    between atoms: C3_3  and  C5_5 
REMARK    2  A    between atoms: C7_7  and  C8_8 
REMARK    3  A    between atoms: C8_8  and  N1_9 
REMARK    4  A    between atoms: N1_9  and  C10_11 
REMARK    5  A    between atoms: C10_11  and  C11_12 
REMARK    6  A    between atoms: C11_12  and  C12_13 
REMARK    7  A    between atoms: C12_13  and  N2_14 
REMARK    8  A    between atoms: N2_14  and  S1_16 
REMARK    9  A    between atoms: S1_16  and  N3_18 
REMARK   10  A    between atoms: N4_21  and  C15_22 
REMARK   11  A    between atoms: C16_25  and  N6_26 
REMARK   12  A    between atoms: C19_31  and  O2_32 
REMARK   13  A    between atoms: C21_34  and  O3_35 
ROOT
HETATM    1  N3  UNL     1      -9.922  15.285  30.238  1.00  0.00    -0.312 N 
HETATM    2  C13 UNL     1      -9.115  14.219  29.755  1.00  0.00     0.155 C 
HETATM    3  C14 UNL     1      -7.841  14.700  29.098  1.00  0.00     0.161 C 
HETATM    4  N4  UNL     1      -8.055  15.798  28.190  1.00  0.00    -0.214 N 
HETATM    5  C25 UNL     1      -9.397  16.299  28.040  1.00  0.00     0.161 C 
HETATM    6  C26 UNL     1     -10.078  16.402  29.382  1.00  0.00     0.155 C 
ENDROOT
BRANCH   4   7
HETATM    7  C15 UNL     1      -6.914  16.324  27.523  1.00  0.00     0.682 A 
HETATM    8  N5  UNL     1      -5.782  16.694  28.149  1.00  0.00    -0.176 N 
HETATM    9  C16 UNL     1      -4.701  17.182  27.501  1.00  0.00     0.127 A 
ATOM     10  H5  UNL     1      -5.737  16.601  29.164  1.00  0.00     0.186 HD
HETATM   11  C17 UNL     1      -4.723  17.321  26.128  1.00  0.00     0.038 A 
HETATM   12  C18 UNL     1      -3.684  17.802  25.370  1.00  0.00     0.057 A 
HETATM   13  C24 UNL     1      -5.876  16.944  25.491  1.00  0.00     0.066 A 
HETATM   14  C19 UNL     1      -3.715  17.933  23.998  1.00  0.00     0.102 A 
HETATM   15  C21 UNL     1      -4.892  17.546  23.352  1.00  0.00     0.103 A 
HETATM   16  C23 UNL     1      -5.945  17.063  24.089  1.00  0.00     0.070 A 
HETATM   17  N7  UNL     1      -6.917  16.467  26.178  1.00  0.00    -0.191 N 
ATOM     18  H7  UNL     1      -7.755  16.198  25.663  1.00  0.00     0.184 HD
BRANCH   9  19
HETATM   19  N6  UNL     1      -3.634  17.533  28.129  1.00  0.00    -0.384 N 
ATOM     20  H62 UNL     1      -3.007  16.799  28.459  1.00  0.00     0.157 HD
ATOM     21  H61 UNL     1      -3.407  18.514  28.296  1.00  0.00     0.157 HD
ENDBRANCH   9  19
BRANCH  14  22
HETATM   22  O2  UNL     1      -2.636  18.429  23.270  1.00  0.00    -0.353 OA
HETATM   23  C20 UNL     1      -1.576  17.513  23.001  1.00  0.00     0.210 C 
ENDBRANCH  14  22
BRANCH  15  24
HETATM   24  O3  UNL     1      -4.969  17.654  21.991  1.00  0.00    -0.353 OA
HETATM   25  C22 UNL     1      -5.941  18.315  21.244  1.00  0.00     0.210 C 
ENDBRANCH  15  24
ENDBRANCH   4   7
BRANCH   1  26
HETATM   26  S1  UNL     1     -11.285  14.820  31.170  1.00  0.00     0.214 S 
HETATM   27  O1  UNL     1     -11.073  15.170  32.627  1.00  0.00    -0.212 OA
BRANCH  26  28
HETATM   28  N2  UNL     1     -11.670  13.116  31.071  1.00  0.00    -0.323 N 
ATOM     29  H2  UNL     1     -11.026  12.339  31.214  1.00  0.00     0.171 HD
BRANCH  28  30
HETATM   30  C12 UNL     1     -13.072  13.022  30.748  1.00  0.00     0.136 C 
BRANCH  30  31
HETATM   31  C11 UNL     1     -13.357  13.368  29.280  1.00  0.00     0.064 C 
BRANCH  31  32
HETATM   32  C10 UNL     1     -12.286  12.751  28.402  1.00  0.00     0.059 C 
BRANCH  32  33
HETATM   33  N1  UNL     1     -11.804  13.593  27.382  1.00  0.00    -0.394 N 
HETATM   34  C9  UNL     1     -12.582  14.710  27.033  1.00  0.00     0.148 C 
BRANCH  33  35
HETATM   35  C8  UNL     1     -11.077  12.942  26.306  1.00  0.00     0.149 C 
BRANCH  35  36
HETATM   36  C7  UNL     1     -10.720  13.925  25.260  1.00  0.00    -0.000 C 
HETATM   37  C5  UNL     1      -9.493  14.211  24.908  1.00  0.00    -0.059 C 
HETATM   38  C6  UNL     1      -8.295  13.603  25.527  1.00  0.00     0.048 C 
BRANCH  37  39
HETATM   39  C3  UNL     1      -9.313  15.209  23.846  1.00  0.00    -0.060 C 
HETATM   40  C2  UNL     1      -8.857  14.831  22.677  1.00  0.00    -0.024 C 
HETATM   41  C1  UNL     1      -8.689  15.868  21.598  1.00  0.00     0.036 C 
HETATM   42  C4  UNL     1      -9.657  16.619  24.113  1.00  0.00     0.048 C 
ENDBRANCH  37  39
ENDBRANCH  35  36
ENDBRANCH  33  35
ENDBRANCH  32  33
ENDBRANCH  31  32
ENDBRANCH  30  31
ENDBRANCH  28  30
ENDBRANCH  26  28
ENDBRANCH   1  26
TORSDOF 13
ENDMDL
MODEL 3
REMARK VINA RESULT: -8.317459949      2.569      9.282
REMARK  13 active torsions:
REMARK  status: ('A' for Active; 'I' for Inactive)
REMARK    1  A    between atoms: C3_3  and  C5_5 
REMARK    2  A    between atoms: C7_7  and  C8_8 
REMARK    3  A    between atoms: C8_8  and  N1_9 
REMARK    4  A    between atoms: N1_9  and  C10_11 
REMARK    5  A    between atoms: C10_11  and  C11_12 
REMARK    6  A    between atoms: C11_12  and  C12_13 
REMARK    7  A    between atoms: C12_13  and  N2_14 
REMARK    8  A    between atoms: N2_14  and  S1_16 
REMARK    9  A    between atoms: S1_16  and  N3_18 
REMARK   10  A    between atoms: N4_21  and  C15_22 
REMARK   11  A    between atoms: C16_25  and  N6_26 
REMARK   12  A    between atoms: C19_31  and  O2_32 
REMARK   13  A    between atoms: C21_34  and  O3_35 
ROOT
HETATM    1  N3  UNL     1     -10.370  14.741  29.257  1.00  0.00    -0.312 N 
HETATM    2  C13 UNL     1     -10.451  16.146  29.054  1.00  0.00     0.155 C 
HETATM    3  C14 UNL     1      -9.335  16.677  28.183  1.00  0.00     0.161 C 
HETATM    4  N4  UNL     1      -8.041  16.160  28.548  1.00  0.00    -0.214 N 
HETATM    5  C25 UNL     1      -7.970  15.223  29.639  1.00  0.00     0.161 C 
HETATM    6  C26 UNL     1      -9.088  14.214  29.544  1.00  0.00     0.155 C 
ENDROOT
BRANCH   4   7
HETATM    7  C15 UNL     1      -6.924  16.600  27.783  1.00  0.00     0.682 A 
HETATM    8  N5  UNL     1      -5.698  16.806  28.295  1.00  0.00    -0.176 N 
HETATM    9  C16 UNL     1      -4.644  17.213  27.553  1.00  0.00     0.127 A 
ATOM     10  H5  UNL     1      -5.556  16.647  29.292  1.00  0.00     0.186 HD
HETATM   11  C17 UNL     1      -4.795  17.437  26.201  1.00  0.00     0.038 A 
HETATM   12  C18 UNL     1      -3.795  17.849  25.355  1.00  0.00     0.057 A 
HETATM   13  C24 UNL     1      -6.045  17.226  25.679  1.00  0.00     0.066 A 
HETATM   14  C19 UNL     1      -3.957  18.066  24.003  1.00  0.00     0.102 A 
HETATM   15  C21 UNL     1      -5.232  17.848  23.476  1.00  0.00     0.103 A 
HETATM   16  C23 UNL     1      -6.248  17.438  24.302  1.00  0.00     0.070 A 
HETATM   17  N7  UNL     1      -7.054  16.824  26.455  1.00  0.00    -0.191 N 
ATOM     18  H7  UNL     1      -7.968  16.679  26.025  1.00  0.00     0.184 HD
BRANCH   9  19
HETATM   19  N6  UNL     1      -3.483  17.408  28.074  1.00  0.00    -0.384 N 
ATOM     20  H62 UNL     1      -3.251  18.348  28.395  1.00  0.00     0.157 HD
ATOM     21  H61 UNL     1      -2.805  16.652  28.174  1.00  0.00     0.157 HD
ENDBRANCH   9  19
BRANCH  14  22
HETATM   22  O2  UNL     1      -2.911  18.486  23.183  1.00  0.00    -0.353 OA
HETATM   23  C20 UNL     1      -1.918  17.512  22.870  1.00  0.00     0.210 C 
ENDBRANCH  14  22
BRANCH  15  24
HETATM   24  O3  UNL     1      -5.441  18.047  22.139  1.00  0.00    -0.353 OA
HETATM   25  C22 UNL     1      -5.292  17.123  21.107  1.00  0.00     0.210 C 
ENDBRANCH  15  24
ENDBRANCH   4   7
BRANCH   1  26
HETATM   26  S1  UNL     1     -11.705  14.030  30.068  1.00  0.00     0.214 S 
HETATM   27  O1  UNL     1     -11.244  13.323  31.324  1.00  0.00    -0.212 OA
BRANCH  26  28
HETATM   28  N2  UNL     1     -12.602  12.885  29.096  1.00  0.00    -0.323 N 
ATOM     29  H2  UNL     1     -12.407  11.888  28.997  1.00  0.00     0.171 HD
BRANCH  28  30
HETATM   30  C12 UNL     1     -13.670  13.618  28.463  1.00  0.00     0.136 C 
BRANCH  30  31
HETATM   31  C11 UNL     1     -13.630  13.504  26.934  1.00  0.00     0.064 C 
BRANCH  31  32
HETATM   32  C10 UNL     1     -12.494  14.353  26.397  1.00  0.00     0.059 C 
BRANCH  32  33
HETATM   33  N1  UNL     1     -11.510  13.638  25.686  1.00  0.00    -0.394 N 
HETATM   34  C9  UNL     1     -11.653  12.243  25.594  1.00  0.00     0.148 C 
BRANCH  33  35
HETATM   35  C8  UNL     1     -10.155  14.151  25.780  1.00  0.00     0.149 C 
BRANCH  35  36
HETATM   36  C7  UNL     1      -9.531  14.200  24.440  1.00  0.00    -0.000 C 
HETATM   37  C5  UNL     1      -9.349  15.298  23.754  1.00  0.00    -0.059 C 
HETATM   38  C6  UNL     1      -9.766  16.639  24.219  1.00  0.00     0.048 C 
BRANCH  37  39
HETATM   39  C3  UNL     1      -8.708  15.172  22.438  1.00  0.00    -0.060 C 
HETATM   40  C2  UNL     1      -9.221  15.799  21.408  1.00  0.00    -0.024 C 
HETATM   41  C1  UNL     1      -8.543  15.664  20.070  1.00  0.00     0.036 C 
HETATM   42  C4  UNL     1      -7.492  14.347  22.303  1.00  0.00     0.048 C 
ENDBRANCH  37  39
ENDBRANCH  35  36
ENDBRANCH  33  35
ENDBRANCH  32  33
ENDBRANCH  31  32
ENDBRANCH  30  31
ENDBRANCH  28  30
ENDBRANCH  26  28
ENDBRANCH   1  26
TORSDOF 13
ENDMDL
MODEL 4
REMARK VINA RESULT: -8.286474635      2.629      8.407
REMARK  13 active torsions:
REMARK  status: ('A' for Active; 'I' for Inactive)
REMARK    1  A    between atoms: C3_3  and  C5_5 
REMARK    2  A    between atoms: C7_7  and  C8_8 
REMARK    3  A    between atoms: C8_8  and  N1_9 
REMARK    4  A    between atoms: N1_9  and  C10_11 
REMARK    5  A    between atoms: C10_11  and  C11_12 
REMARK    6  A    between atoms: C11_12  and  C12_13 
REMARK    7  A    between atoms: C12_13  and  N2_14 
REMARK    8  A    between atoms: N2_14  and  S1_16 
REMARK    9  A    between atoms: S1_16  and  N3_18 
REMARK   10  A    between atoms: N4_21  and  C15_22 
REMARK   11  A    between atoms: C16_25  and  N6_26 
REMARK   12  A    between atoms: C19_31  and  O2_32 
REMARK   13  A    between atoms: C21_34  and  O3_35 
ROOT
HETATM    1  N3  UNL     1     -12.532  12.651  28.286  1.00  0.00    -0.312 N 
HETATM    2  C13 UNL     1     -12.178  12.040  27.051  1.00  0.00     0.155 C 
HETATM    3  C14 UNL     1     -11.131  12.820  26.290  1.00  0.00     0.161 C 
HETATM    4  N4  UNL     1     -11.403  14.234  26.245  1.00  0.00    -0.214 N 
HETATM    5  C25 UNL     1     -12.580  14.718  26.921  1.00  0.00     0.161 C 
HETATM    6  C26 UNL     1     -12.729  14.052  28.266  1.00  0.00     0.155 C 
ENDROOT
BRANCH   4   7
HETATM    7  C15 UNL     1     -10.471  15.056  25.552  1.00  0.00     0.682 A 
HETATM    8  N5  UNL     1     -10.040  16.248  26.002  1.00  0.00    -0.176 N 
HETATM    9  C16 UNL     1      -9.146  17.013  25.338  1.00  0.00     0.127 A 
ATOM     10  H5  UNL     1     -10.408  16.592  26.889  1.00  0.00     0.186 HD
HETATM   11  C17 UNL     1      -8.625  16.581  24.136  1.00  0.00     0.038 A 
HETATM   12  C18 UNL     1      -7.711  17.273  23.380  1.00  0.00     0.057 A 
HETATM   13  C24 UNL     1      -9.063  15.365  23.678  1.00  0.00     0.066 A 
HETATM   14  C19 UNL     1      -7.193  16.830  22.182  1.00  0.00     0.102 A 
HETATM   15  C21 UNL     1      -7.642  15.590  21.720  1.00  0.00     0.103 A 
HETATM   16  C23 UNL     1      -8.556  14.879  22.457  1.00  0.00     0.070 A 
HETATM   17  N7  UNL     1      -9.949  14.648  24.372  1.00  0.00    -0.191 N 
ATOM     18  H7  UNL     1     -10.247  13.748  23.994  1.00  0.00     0.184 HD
BRANCH   9  19
HETATM   19  N6  UNL     1      -8.758  18.153  25.792  1.00  0.00    -0.384 N 
ATOM     20  H62 UNL     1      -8.971  18.381  26.763  1.00  0.00     0.157 HD
ATOM     21  H61 UNL     1      -8.249  18.818  25.210  1.00  0.00     0.157 HD
ENDBRANCH   9  19
BRANCH  14  22
HETATM   22  O2  UNL     1      -6.268  17.569  21.448  1.00  0.00    -0.353 OA
HETATM   23  C20 UNL     1      -4.943  17.628  21.971  1.00  0.00     0.210 C 
ENDBRANCH  14  22
BRANCH  15  24
HETATM   24  O3  UNL     1      -7.154  15.106  20.537  1.00  0.00    -0.353 OA
HETATM   25  C22 UNL     1      -7.555  15.449  19.248  1.00  0.00     0.210 C 
ENDBRANCH  15  24
ENDBRANCH   4   7
BRANCH   1  26
HETATM   26  S1  UNL     1     -13.565  11.731  29.300  1.00  0.00     0.214 S 
HETATM   27  O1  UNL     1     -14.873  12.459  29.521  1.00  0.00    -0.212 OA
BRANCH  26  28
HETATM   28  N2  UNL     1     -12.880  11.357  30.866  1.00  0.00    -0.323 N 
ATOM     29  H2  UNL     1     -12.251  10.584  31.085  1.00  0.00     0.171 HD
BRANCH  28  30
HETATM   30  C12 UNL     1     -13.373  12.351  31.787  1.00  0.00     0.136 C 
BRANCH  30  31
HETATM   31  C11 UNL     1     -12.260  12.937  32.664  1.00  0.00     0.064 C 
BRANCH  31  32
HETATM   32  C10 UNL     1     -11.408  13.876  31.832  1.00  0.00     0.059 C 
BRANCH  32  33
HETATM   33  N1  UNL     1     -10.081  14.020  32.281  1.00  0.00    -0.394 N 
HETATM   34  C9  UNL     1      -9.742  13.444  33.518  1.00  0.00     0.148 C 
BRANCH  33  35
HETATM   35  C8  UNL     1      -9.423  15.269  31.940  1.00  0.00     0.149 C 
BRANCH  35  36
HETATM   36  C7  UNL     1      -8.547  15.082  30.763  1.00  0.00    -0.000 C 
HETATM   37  C5  UNL     1      -8.793  15.579  29.578  1.00  0.00    -0.059 C 
HETATM   38  C6  UNL     1      -9.995  16.377  29.252  1.00  0.00     0.048 C 
BRANCH  37  39
HETATM   39  C3  UNL     1      -7.816  15.304  28.517  1.00  0.00    -0.060 C 
HETATM   40  C2  UNL     1      -6.896  16.195  28.240  1.00  0.00    -0.024 C 
HETATM   41  C1  UNL     1      -5.898  15.889  27.155  1.00  0.00     0.036 C 
HETATM   42  C4  UNL     1      -7.883  14.023  27.787  1.00  0.00     0.048 C 
ENDBRANCH  37  39
ENDBRANCH  35  36
ENDBRANCH  33  35
ENDBRANCH  32  33
ENDBRANCH  31  32
ENDBRANCH  30  31
ENDBRANCH  28  30
ENDBRANCH  26  28
ENDBRANCH   1  26
TORSDOF 13
ENDMDL
MODEL 5
REMARK VINA RESULT: -8.129727193      2.708      9.217
REMARK  13 active torsions:
REMARK  status: ('A' for Active; 'I' for Inactive)
REMARK    1  A    between atoms: C3_3  and  C5_5 
REMARK    2  A    between atoms: C7_7  and  C8_8 
REMARK    3  A    between atoms: C8_8  and  N1_9 
REMARK    4  A    between atoms: N1_9  and  C10_11 
REMARK    5  A    between atoms: C10_11  and  C11_12 
REMARK    6  A    between atoms: C11_12  and  C12_13 
REMARK    7  A    between atoms: C12_13  and  N2_14 
REMARK    8  A    between atoms: N2_14  and  S1_16 
REMARK    9  A    between atoms: S1_16  and  N3_18 
REMARK   10  A    between atoms: N4_21  and  C15_22 
REMARK   11  A    between atoms: C16_25  and  N6_26 
REMARK   12  A    between atoms: C19_31  and  O2_32 
REMARK   13  A    between atoms: C21_34  and  O3_35 
ROOT
HETATM    1  N3  UNL     1      -8.548  15.906  28.688  1.00  0.00    -0.312 N 
HETATM    2  C13 UNL     1      -9.261  16.884  27.942  1.00  0.00     0.155 C 
HETATM    3  C14 UNL     1      -8.745  17.035  26.529  1.00  0.00     0.161 C 
HETATM    4  N4  UNL     1      -7.309  17.103  26.457  1.00  0.00    -0.214 N 
HETATM    5  C25 UNL     1      -6.565  17.004  27.687  1.00  0.00     0.161 C 
HETATM    6  C26 UNL     1      -7.138  15.920  28.566  1.00  0.00     0.155 C 
ENDROOT
BRANCH   4   7
HETATM    7  C15 UNL     1      -6.726  17.242  25.167  1.00  0.00     0.682 A 
HETATM    8  N5  UNL     1      -5.427  17.518  24.955  1.00  0.00    -0.176 N 
HETATM    9  C16 UNL     1      -4.885  17.637  23.722  1.00  0.00     0.127 A 
ATOM     10  H5  UNL     1      -4.820  17.645  25.765  1.00  0.00     0.186 HD
HETATM   11  C17 UNL     1      -5.673  17.471  22.602  1.00  0.00     0.038 A 
HETATM   12  C18 UNL     1      -5.228  17.567  21.306  1.00  0.00     0.057 A 
HETATM   13  C24 UNL     1      -6.997  17.189  22.818  1.00  0.00     0.066 A 
HETATM   14  C19 UNL     1      -6.024  17.395  20.194  1.00  0.00     0.102 A 
HETATM   15  C21 UNL     1      -7.372  17.106  20.419  1.00  0.00     0.103 A 
HETATM   16  C23 UNL     1      -7.841  17.007  21.705  1.00  0.00     0.070 A 
HETATM   17  N7  UNL     1      -7.483  17.083  24.057  1.00  0.00    -0.191 N 
ATOM     18  H7  UNL     1      -8.475  16.872  24.172  1.00  0.00     0.184 HD
BRANCH   9  19
HETATM   19  N6  UNL     1      -3.639  17.908  23.552  1.00  0.00    -0.384 N 
ATOM     20  H62 UNL     1      -3.395  18.686  22.940  1.00  0.00     0.157 HD
ATOM     21  H61 UNL     1      -2.904  17.371  24.015  1.00  0.00     0.157 HD
ENDBRANCH   9  19
BRANCH  14  22
HETATM   22  O2  UNL     1      -5.528  17.503  18.896  1.00  0.00    -0.353 OA
HETATM   23  C20 UNL     1      -4.889  16.346  18.361  1.00  0.00     0.210 C 
ENDBRANCH  14  22
BRANCH  15  24
HETATM   24  O3  UNL     1      -8.201  16.925  19.346  1.00  0.00    -0.353 OA
HETATM   25  C22 UNL     1      -8.853  15.755  18.963  1.00  0.00     0.210 C 
ENDBRANCH  15  24
ENDBRANCH   4   7
BRANCH   1  26
HETATM   26  S1  UNL     1      -9.194  15.534  30.233  1.00  0.00     0.214 S 
HETATM   27  O1  UNL     1      -8.633  14.222  30.737  1.00  0.00    -0.212 OA
BRANCH  26  28
HETATM   28  N2  UNL     1     -10.940  15.429  30.269  1.00  0.00    -0.323 N 
ATOM     29  H2  UNL     1     -11.594  15.995  29.729  1.00  0.00     0.171 HD
BRANCH  28  30
HETATM   30  C12 UNL     1     -11.277  14.388  31.208  1.00  0.00     0.136 C 
BRANCH  30  31
HETATM   31  C11 UNL     1     -12.574  13.659  30.831  1.00  0.00     0.064 C 
BRANCH  31  32
HETATM   32  C10 UNL     1     -12.599  13.422  29.334  1.00  0.00     0.059 C 
BRANCH  32  33
HETATM   33  N1  UNL     1     -13.757  13.888  28.683  1.00  0.00    -0.394 N 
HETATM   34  C9  UNL     1     -15.002  13.542  29.236  1.00  0.00     0.148 C 
BRANCH  33  35
HETATM   35  C8  UNL     1     -13.686  13.972  27.235  1.00  0.00     0.149 C 
BRANCH  35  36
HETATM   36  C7  UNL     1     -12.283  14.145  26.800  1.00  0.00    -0.000 C 
HETATM   37  C5  UNL     1     -11.730  13.480  25.819  1.00  0.00    -0.059 C 
HETATM   38  C6  UNL     1     -12.432  12.447  25.026  1.00  0.00     0.048 C 
BRANCH  37  39
HETATM   39  C3  UNL     1     -10.325  13.777  25.511  1.00  0.00    -0.060 C 
HETATM   40  C2  UNL     1      -9.385  13.354  26.320  1.00  0.00    -0.024 C 
HETATM   41  C1  UNL     1      -7.950  13.661  25.982  1.00  0.00     0.036 C 
HETATM   42  C4  UNL     1      -9.998  14.541  24.292  1.00  0.00     0.048 C 
ENDBRANCH  37  39
ENDBRANCH  35  36
ENDBRANCH  33  35
ENDBRANCH  32  33
ENDBRANCH  31  32
ENDBRANCH  30  31
ENDBRANCH  28  30
ENDBRANCH  26  28
ENDBRANCH   1  26
TORSDOF 13
ENDMDL
