MODEL 1
REMARK VINA RESULT: -8.919446860      0.000      0.000
REMARK  15 active torsions:
REMARK  status: ('A' for Active; 'I' for Inactive)
REMARK    1  A    between atoms: C2_2  and  C3_3 
REMARK    2  A    between atoms: C5_6  and  N1_7 
REMARK    3  A    between atoms: N1_7  and  C6_8 
REMARK    4  A    between atoms: C6_8  and  O1_9 
REMARK    5  A    between atoms: C6_8  and  C7_11 
REMARK    6  A    between atoms: C7_11  and  C8_12 
REMARK    7  A    between atoms: C8_12  and  C9_13 
REMARK       I    between atoms: C9_13  and  N2_15 
REMARK    8  A    between atoms: N2_15  and  C10_17 
REMARK    9  A    between atoms: C11_22  and  C12_23 
REMARK   10  A    between atoms: C12_23  and  C13_24 
REMARK   11  A    between atoms: C13_24  and  C14_25 
REMARK   12  A    between atoms: C14_25  and  C15_26 
REMARK   13  A    between atoms: C15_26  and  C16_27 
REMARK       I    between atoms: N7_33  and  C18_35 
REMARK   14  A    between atoms: C18_35  and  C19_37 
REMARK   15  A    between atoms: C19_37  and  C20_38 
ROOT
HETATM    1  C10 UNL     1      -5.636  17.057  21.453  1.00  0.00     0.167 A 
HETATM    2  N3  UNL     1      -6.300  18.238  21.580  1.00  0.00    -0.279 N 
ATOM      3  H3  UNL     1      -7.057  18.481  20.940  1.00  0.00     0.189 HD
HETATM    4  N4  UNL     1      -5.963  19.023  22.498  1.00  0.00    -0.296 N 
ATOM      5  H4  UNL     1      -6.453  19.912  22.602  1.00  0.00     0.187 HD
HETATM    6  C11 UNL     1      -4.979  18.719  23.339  1.00  0.00     0.069 A 
HETATM    7  S3  UNL     1      -4.519  17.187  22.746  1.00  0.00    -0.038 SA
ENDROOT
BRANCH   6   8
HETATM    8  C12 UNL     1      -4.477  19.550  24.493  1.00  0.00     0.066 C 
BRANCH   8   9
HETATM    9  C13 UNL     1      -4.507  18.742  25.752  1.00  0.00     0.007 C 
BRANCH   9  10
HETATM   10  C14 UNL     1      -5.910  18.513  26.219  1.00  0.00     0.007 C 
BRANCH  10  11
HETATM   11  C15 UNL     1      -6.140  17.051  26.456  1.00  0.00     0.066 C 
BRANCH  11  12
HETATM   12  C16 UNL     1      -7.431  16.861  27.166  1.00  0.00     0.069 A 
HETATM   13  N5  UNL     1      -8.586  17.467  26.914  1.00  0.00    -0.296 N 
HETATM   14  N6  UNL     1      -9.615  17.208  27.600  1.00  0.00    -0.279 N 
ATOM     15  H5  UNL     1      -8.644  18.149  26.158  1.00  0.00     0.187 HD
HETATM   16  C17 UNL     1      -9.524  16.310  28.590  1.00  0.00     0.167 A 
ATOM     17  H6  UNL     1     -10.499  17.675  27.404  1.00  0.00     0.189 HD
HETATM   18  N7  UNL     1     -10.491  15.926  29.396  1.00  0.00    -0.306 N 
HETATM   19  S2  UNL     1      -7.882  15.856  28.487  1.00  0.00    -0.038 SA
HETATM   20  C18 UNL     1     -10.165  14.961  30.378  1.00  0.00     0.224 C 
ATOM     21  H7  UNL     1     -11.434  16.308  29.317  1.00  0.00     0.171 HD
HETATM   22  O3  UNL     1      -9.556  13.930  29.981  1.00  0.00    -0.273 OA
BRANCH  20  23
HETATM   23  C19 UNL     1     -10.527  15.157  31.810  1.00  0.00     0.107 C 
BRANCH  23  24
HETATM   24  C20 UNL     1      -9.404  14.866  32.759  1.00  0.00    -0.014 C 
HETATM   25  C21 UNL     1      -9.320  15.881  33.875  1.00  0.00     0.010 C 
HETATM   26  C22 UNL     1      -9.756  13.538  33.435  1.00  0.00     0.010 C 
ENDBRANCH  23  24
ENDBRANCH  20  23
ENDBRANCH  11  12
ENDBRANCH  10  11
ENDBRANCH   9  10
ENDBRANCH   8   9
ENDBRANCH   6   8
BRANCH   1  27
HETATM   27  N2  UNL     1      -5.866  16.152  20.563  1.00  0.00    -0.306 N 
HETATM   28  C9  UNL     1      -7.095  15.499  20.435  1.00  0.00     0.224 C 
HETATM   29  O2  UNL     1      -7.620  15.393  19.278  1.00  0.00    -0.273 OA
ATOM     30  H2  UNL     1      -5.115  15.901  19.920  1.00  0.00     0.171 HD
BRANCH  28  31
HETATM   31  C8  UNL     1      -7.831  14.915  21.574  1.00  0.00     0.112 C 
BRANCH  31  32
HETATM   32  C7  UNL     1      -9.046  15.820  21.902  1.00  0.00     0.109 C 
BRANCH  32  33
HETATM   33  C6  UNL     1      -9.041  16.104  23.405  1.00  0.00     0.193 C 
BRANCH  33  34
HETATM   34  N1  UNL     1      -9.663  15.483  24.336  1.00  0.00    -0.360 NA
BRANCH  34  35
HETATM   35  C5  UNL     1     -10.260  14.870  25.178  1.00  0.00     0.225 A 
HETATM   36  S1  UNL     1      -9.779  13.496  26.145  1.00  0.00    -0.049 SA
HETATM   37  C4  UNL     1     -11.215  13.276  27.025  1.00  0.00     0.079 A 
HETATM   38  C3  UNL     1     -12.007  14.277  26.532  1.00  0.00     0.018 A 
HETATM   39  N8  UNL     1     -11.536  15.053  25.630  1.00  0.00    -0.328 N 
ATOM     40  H8  UNL     1     -12.111  15.805  25.251  1.00  0.00     0.169 HD
BRANCH  38  41
HETATM   41  C2  UNL     1     -13.429  14.411  27.079  1.00  0.00     0.053 C 
HETATM   42  C1  UNL     1     -13.561  13.661  28.363  1.00  0.00     0.011 C 
ENDBRANCH  38  41
ENDBRANCH  34  35
ENDBRANCH  33  34
BRANCH  33  43
HETATM   43  O1  UNL     1      -8.273  17.123  23.667  1.00  0.00    -0.339 OA
ATOM     44  H1  UNL     1      -7.408  17.201  23.281  1.00  0.00     0.220 HD
ENDBRANCH  33  43
ENDBRANCH  32  33
ENDBRANCH  31  32
ENDBRANCH  28  31
ENDBRANCH   1  27
TORSDOF 15
ENDMDL
MODEL 2
REMARK VINA RESULT: -8.849269611      2.101      9.512
REMARK  15 active torsions:
REMARK  status: ('A' for Active; 'I' for Inactive)
REMARK    1  A    between atoms: C2_2  and  C3_3 
REMARK    2  A    between atoms: C5_6  and  N1_7 
REMARK    3  A    between atoms: N1_7  and  C6_8 
REMARK    4  A    between atoms: C6_8  and  O1_9 
REMARK    5  A    between atoms: C6_8  and  C7_11 
REMARK    6  A    between atoms: C7_11  and  C8_12 
REMARK    7  A    between atoms: C8_12  and  C9_13 
REMARK       I    between atoms: C9_13  and  N2_15 
REMARK    8  A    between atoms: N2_15  and  C10_17 
REMARK    9  A    between atoms: C11_22  and  C12_23 
REMARK   10  A    between atoms: C12_23  and  C13_24 
REMARK   11  A    between atoms: C13_24  and  C14_25 
REMARK   12  A    between atoms: C14_25  and  C15_26 
REMARK   13  A    between atoms: C15_26  and  C16_27 
REMARK       I    between atoms: N7_33  and  C18_35 
REMARK   14  A    between atoms: C18_35  and  C19_37 
REMARK   15  A    between atoms: C19_37  and  C20_38 
ROOT
HETATM    1  C10 UNL     1     -12.075  13.373  31.911  1.00  0.00     0.167 A 
HETATM    2  N3  UNL     1     -12.794  14.526  31.828  1.00  0.00    -0.279 N 
ATOM      3  H3  UNL     1     -12.655  15.275  32.506  1.00  0.00     0.189 HD
HETATM    4  N4  UNL     1     -13.631  14.648  30.903  1.00  0.00    -0.296 N 
ATOM      5  H4  UNL     1     -14.177  15.508  30.832  1.00  0.00     0.187 HD
HETATM    6  C11 UNL     1     -13.821  13.680  30.012  1.00  0.00     0.069 A 
HETATM    7  S3  UNL     1     -12.703  12.517  30.567  1.00  0.00    -0.038 SA
ENDROOT
BRANCH   6   8
HETATM    8  C12 UNL     1     -14.774  13.691  28.843  1.00  0.00     0.066 C 
BRANCH   8   9
HETATM    9  C13 UNL     1     -14.041  13.341  27.586  1.00  0.00     0.007 C 
BRANCH   9  10
HETATM   10  C14 UNL     1     -13.117  14.442  27.170  1.00  0.00     0.007 C 
BRANCH  10  11
HETATM   11  C15 UNL     1     -11.746  13.894  26.920  1.00  0.00     0.066 C 
BRANCH  11  12
HETATM   12  C16 UNL     1     -10.930  14.907  26.200  1.00  0.00     0.069 A 
HETATM   13  N5  UNL     1     -10.856  16.209  26.453  1.00  0.00    -0.296 N 
HETATM   14  N6  UNL     1     -10.116  16.961  25.759  1.00  0.00    -0.279 N 
ATOM     15  H5  UNL     1     -11.403  16.606  27.217  1.00  0.00     0.187 HD
HETATM   16  C17 UNL     1      -9.404  16.426  24.759  1.00  0.00     0.167 A 
ATOM     17  H6  UNL     1     -10.062  17.960  25.957  1.00  0.00     0.189 HD
HETATM   18  N7  UNL     1      -8.590  17.061  23.943  1.00  0.00    -0.306 N 
HETATM   19  S2  UNL     1      -9.853  14.782  24.865  1.00  0.00    -0.038 SA
HETATM   20  C18 UNL     1      -7.940  16.288  22.952  1.00  0.00     0.224 C 
ATOM     21  H7  UNL     1      -8.434  18.066  24.022  1.00  0.00     0.171 HD
HETATM   22  O3  UNL     1      -7.362  15.237  23.339  1.00  0.00    -0.273 OA
BRANCH  20  23
HETATM   23  C19 UNL     1      -7.942  16.702  21.520  1.00  0.00     0.107 C 
BRANCH  23  24
HETATM   24  C20 UNL     1      -8.082  15.556  20.564  1.00  0.00    -0.014 C 
HETATM   25  C21 UNL     1      -8.936  15.910  19.368  1.00  0.00     0.010 C 
HETATM   26  C22 UNL     1      -6.679  15.297  20.007  1.00  0.00     0.010 C 
ENDBRANCH  23  24
ENDBRANCH  20  23
ENDBRANCH  11  12
ENDBRANCH  10  11
ENDBRANCH   9  10
ENDBRANCH   8   9
ENDBRANCH   6   8
BRANCH   1  27
HETATM   27  N2  UNL     1     -11.182  13.102  32.802  1.00  0.00    -0.306 N 
HETATM   28  C9  UNL     1      -9.997  13.829  32.947  1.00  0.00     0.224 C 
HETATM   29  O2  UNL     1      -9.647  14.212  34.111  1.00  0.00    -0.273 OA
ATOM     30  H2  UNL     1     -11.349  12.318  33.432  1.00  0.00     0.171 HD
BRANCH  28  31
HETATM   31  C8  UNL     1      -9.115  14.185  31.817  1.00  0.00     0.112 C 
BRANCH  31  32
HETATM   32  C7  UNL     1      -9.302  15.689  31.491  1.00  0.00     0.109 C 
BRANCH  32  33
HETATM   33  C6  UNL     1      -9.533  15.829  29.986  1.00  0.00     0.193 C 
BRANCH  33  34
HETATM   34  N1  UNL     1      -8.669  16.028  29.061  1.00  0.00    -0.360 NA
BRANCH  34  35
HETATM   35  C5  UNL     1      -7.840  16.246  28.222  1.00  0.00     0.225 A 
HETATM   36  S1  UNL     1      -6.872  15.150  27.263  1.00  0.00    -0.049 SA
HETATM   37  C4  UNL     1      -5.975  16.291  26.382  1.00  0.00     0.079 A 
HETATM   38  C3  UNL     1      -6.464  17.473  26.868  1.00  0.00     0.018 A 
HETATM   39  N8  UNL     1      -7.374  17.446  27.766  1.00  0.00    -0.328 N 
ATOM     40  H8  UNL     1      -7.751  18.317  28.140  1.00  0.00     0.169 HD
BRANCH  38  41
HETATM   41  C2  UNL     1      -5.883  18.778  26.316  1.00  0.00     0.053 C 
HETATM   42  C1  UNL     1      -4.656  18.498  25.513  1.00  0.00     0.011 C 
ENDBRANCH  38  41
ENDBRANCH  34  35
ENDBRANCH  33  34
BRANCH  33  43
HETATM   43  O1  UNL     1     -10.801  15.709  29.713  1.00  0.00    -0.339 OA
ATOM     44  H1  UNL     1     -11.451  15.647  30.403  1.00  0.00     0.220 HD
ENDBRANCH  33  43
ENDBRANCH  32  33
ENDBRANCH  31  32
ENDBRANCH  28  31
ENDBRANCH   1  27
TORSDOF 15
ENDMDL
MODEL 3
REMARK VINA RESULT: -8.419418738      2.267      5.996
REMARK  15 active torsions:
REMARK  status: ('A' for Active; 'I' for Inactive)
REMARK    1  A    between atoms: C2_2  and  C3_3 
REMARK    2  A    between atoms: C5_6  and  N1_7 
REMARK    3  A    between atoms: N1_7  and  C6_8 
REMARK    4  A    between atoms: C6_8  and  O1_9 
REMARK    5  A    between atoms: C6_8  and  C7_11 
REMARK    6  A    between atoms: C7_11  and  C8_12 
REMARK    7  A    between atoms: C8_12  and  C9_13 
REMARK       I    between atoms: C9_13  and  N2_15 
REMARK    8  A    between atoms: N2_15  and  C10_17 
REMARK    9  A    between atoms: C11_22  and  C12_23 
REMARK   10  A    between atoms: C12_23  and  C13_24 
REMARK   11  A    between atoms: C13_24  and  C14_25 
REMARK   12  A    between atoms: C14_25  and  C15_26 
REMARK   13  A    between atoms: C15_26  and  C16_27 
REMARK       I    between atoms: N7_33  and  C18_35 
REMARK   14  A    between atoms: C18_35  and  C19_37 
REMARK   15  A    between atoms: C19_37  and  C20_38 
ROOT
HETATM    1  C10 UNL     1      -4.973  18.260  25.053  1.00  0.00     0.167 A 
HETATM    2  N3  UNL     1      -6.217  18.049  24.544  1.00  0.00    -0.279 N 
ATOM      3  H3  UNL     1      -7.036  18.060  25.151  1.00  0.00     0.189 HD
HETATM    4  N4  UNL     1      -6.336  17.841  23.313  1.00  0.00    -0.296 N 
ATOM      5  H4  UNL     1      -7.264  17.680  22.920  1.00  0.00     0.187 HD
HETATM    6  C11 UNL     1      -5.276  17.826  22.510  1.00  0.00     0.069 A 
HETATM    7  S3  UNL     1      -4.027  18.135  23.630  1.00  0.00    -0.038 SA
ENDROOT
BRANCH   6   8
HETATM    8  C12 UNL     1      -5.266  17.605  21.018  1.00  0.00     0.066 C 
BRANCH   8   9
HETATM    9  C13 UNL     1      -6.645  17.794  20.467  1.00  0.00     0.007 C 
BRANCH   9  10
HETATM   10  C14 UNL     1      -6.944  16.796  19.393  1.00  0.00     0.007 C 
BRANCH  10  11
HETATM   11  C15 UNL     1      -8.218  16.073  19.706  1.00  0.00     0.066 C 
BRANCH  11  12
HETATM   12  C16 UNL     1      -8.126  15.466  21.059  1.00  0.00     0.069 A 
HETATM   13  N5  UNL     1      -7.181  14.648  21.512  1.00  0.00    -0.296 N 
HETATM   14  N6  UNL     1      -7.224  14.203  22.693  1.00  0.00    -0.279 N 
ATOM     15  H5  UNL     1      -6.413  14.377  20.899  1.00  0.00     0.187 HD
HETATM   16  C17 UNL     1      -8.239  14.568  23.487  1.00  0.00     0.167 A 
ATOM     17  H6  UNL     1      -6.497  13.577  23.037  1.00  0.00     0.189 HD
HETATM   18  N7  UNL     1      -8.436  14.200  24.735  1.00  0.00    -0.306 N 
HETATM   19  S2  UNL     1      -9.134  15.585  22.447  1.00  0.00    -0.038 SA
HETATM   20  C18 UNL     1      -9.585  14.710  25.383  1.00  0.00     0.224 C 
ATOM     21  H7  UNL     1      -7.788  13.574  25.213  1.00  0.00     0.171 HD
HETATM   22  O3  UNL     1      -9.773  15.955  25.310  1.00  0.00    -0.273 OA
BRANCH  20  23
HETATM   23  C19 UNL     1     -10.525  13.815  26.116  1.00  0.00     0.107 C 
BRANCH  23  24
HETATM   24  C20 UNL     1     -11.927  13.858  25.590  1.00  0.00    -0.014 C 
HETATM   25  C21 UNL     1     -12.456  12.481  25.255  1.00  0.00     0.010 C 
HETATM   26  C22 UNL     1     -12.797  14.363  26.745  1.00  0.00     0.010 C 
ENDBRANCH  23  24
ENDBRANCH  20  23
ENDBRANCH  11  12
ENDBRANCH  10  11
ENDBRANCH   9  10
ENDBRANCH   8   9
ENDBRANCH   6   8
BRANCH   1  27
HETATM   27  N2  UNL     1      -4.692  18.487  26.292  1.00  0.00    -0.306 N 
HETATM   28  C9  UNL     1      -4.416  17.474  27.214  1.00  0.00     0.224 C 
HETATM   29  O2  UNL     1      -3.394  17.587  27.967  1.00  0.00    -0.273 OA
ATOM     30  H2  UNL     1      -4.671  19.454  26.615  1.00  0.00     0.171 HD
BRANCH  28  31
HETATM   31  C8  UNL     1      -5.248  16.263  27.369  1.00  0.00     0.112 C 
BRANCH  31  32
HETATM   32  C7  UNL     1      -6.641  16.678  27.907  1.00  0.00     0.109 C 
BRANCH  32  33
HETATM   33  C6  UNL     1      -7.422  15.408  28.246  1.00  0.00     0.193 C 
BRANCH  33  34
HETATM   34  N1  UNL     1      -8.326  15.242  29.138  1.00  0.00    -0.360 NA
BRANCH  34  35
HETATM   35  C5  UNL     1      -9.145  15.105  30.004  1.00  0.00     0.225 A 
HETATM   36  S1  UNL     1     -10.715  14.337  29.978  1.00  0.00    -0.049 SA
HETATM   37  C4  UNL     1     -11.179  14.627  31.586  1.00  0.00     0.079 A 
HETATM   38  C3  UNL     1     -10.096  15.306  32.075  1.00  0.00     0.018 A 
HETATM   39  N8  UNL     1      -9.106  15.537  31.299  1.00  0.00    -0.328 N 
ATOM     40  H8  UNL     1      -8.290  16.042  31.646  1.00  0.00     0.169 HD
BRANCH  38  41
HETATM   41  C2  UNL     1     -10.131  15.770  33.534  1.00  0.00     0.053 C 
HETATM   42  C1  UNL     1      -9.046  15.102  34.313  1.00  0.00     0.011 C 
ENDBRANCH  38  41
ENDBRANCH  34  35
ENDBRANCH  33  34
BRANCH  33  43
HETATM   43  O1  UNL     1      -7.050  14.430  27.470  1.00  0.00    -0.339 OA
ATOM     44  H1  UNL     1      -6.697  13.623  27.827  1.00  0.00     0.220 HD
ENDBRANCH  33  43
ENDBRANCH  32  33
ENDBRANCH  31  32
ENDBRANCH  28  31
ENDBRANCH   1  27
TORSDOF 15
ENDMDL
MODEL 4
REMARK VINA RESULT: -8.393390940      2.921      7.740
REMARK  15 active torsions:
REMARK  status: ('A' for Active; 'I' for Inactive)
REMARK    1  A    between atoms: C2_2  and  C3_3 
REMARK    2  A    between atoms: C5_6  and  N1_7 
REMARK    3  A    between atoms: N1_7  and  C6_8 
REMARK    4  A    between atoms: C6_8  and  O1_9 
REMARK    5  A    between atoms: C6_8  and  C7_11 
REMARK    6  A    between atoms: C7_11  and  C8_12 
REMARK    7  A    between atoms: C8_12  and  C9_13 
REMARK       I    between atoms: C9_13  and  N2_15 
REMARK    8  A    between atoms: N2_15  and  C10_17 
REMARK    9  A    between atoms: C11_22  and  C12_23 
REMARK   10  A    between atoms: C12_23  and  C13_24 
REMARK   11  A    between atoms: C13_24  and  C14_25 
REMARK   12  A    between atoms: C14_25  and  C15_26 
REMARK   13  A    between atoms: C15_26  and  C16_27 
REMARK       I    between atoms: N7_33  and  C18_35 
REMARK   14  A    between atoms: C18_35  and  C19_37 
REMARK   15  A    between atoms: C19_37  and  C20_38 
ROOT
HETATM    1  C10 UNL     1      -8.975  14.244  29.625  1.00  0.00     0.167 A 
HETATM    2  N3  UNL     1      -8.634  13.330  30.574  1.00  0.00    -0.279 N 
ATOM      3  H3  UNL     1      -8.390  12.375  30.312  1.00  0.00     0.189 HD
HETATM    4  N4  UNL     1      -8.624  13.686  31.776  1.00  0.00    -0.296 N 
ATOM      5  H4  UNL     1      -8.370  13.009  32.497  1.00  0.00     0.187 HD
HETATM    6  C11 UNL     1      -8.937  14.928  32.131  1.00  0.00     0.069 A 
HETATM    7  S3  UNL     1      -9.268  15.618  30.606  1.00  0.00    -0.038 SA
ENDROOT
BRANCH   6   8
HETATM    8  C12 UNL     1      -8.955  15.501  33.526  1.00  0.00     0.066 C 
BRANCH   8   9
HETATM    9  C13 UNL     1      -9.766  14.622  34.426  1.00  0.00     0.007 C 
BRANCH   9  10
HETATM   10  C14 UNL     1     -11.228  14.750  34.138  1.00  0.00     0.007 C 
BRANCH  10  11
HETATM   11  C15 UNL     1     -11.901  13.421  34.302  1.00  0.00     0.066 C 
BRANCH  11  12
HETATM   12  C16 UNL     1     -12.365  12.933  32.977  1.00  0.00     0.069 A 
HETATM   13  N5  UNL     1     -12.265  11.699  32.494  1.00  0.00    -0.296 N 
HETATM   14  N6  UNL     1     -12.705  11.418  31.344  1.00  0.00    -0.279 N 
ATOM     15  H5  UNL     1     -11.827  10.970  33.057  1.00  0.00     0.187 HD
HETATM   16  C17 UNL     1     -13.277  12.385  30.615  1.00  0.00     0.167 A 
ATOM     17  H6  UNL     1     -12.627  10.470  30.977  1.00  0.00     0.189 HD
HETATM   18  N7  UNL     1     -13.784  12.266  29.407  1.00  0.00    -0.306 N 
HETATM   19  S2  UNL     1     -13.148  13.724  31.667  1.00  0.00    -0.038 SA
HETATM   20  C18 UNL     1     -14.339  13.429  28.824  1.00  0.00     0.224 C 
ATOM     21  H7  UNL     1     -13.778  11.374  28.912  1.00  0.00     0.171 HD
HETATM   22  O3  UNL     1     -15.156  14.084  29.527  1.00  0.00    -0.273 OA
BRANCH  20  23
HETATM   23  C19 UNL     1     -13.971  13.858  27.444  1.00  0.00     0.107 C 
BRANCH  23  24
HETATM   24  C20 UNL     1     -12.754  13.169  26.906  1.00  0.00    -0.014 C 
HETATM   25  C21 UNL     1     -13.090  12.186  25.808  1.00  0.00     0.010 C 
HETATM   26  C22 UNL     1     -11.911  14.260  26.239  1.00  0.00     0.010 C 
ENDBRANCH  23  24
ENDBRANCH  20  23
ENDBRANCH  11  12
ENDBRANCH  10  11
ENDBRANCH   9  10
ENDBRANCH   8   9
ENDBRANCH   6   8
BRANCH   1  27
HETATM   27  N2  UNL     1      -9.030  14.029  28.354  1.00  0.00    -0.306 N 
HETATM   28  C9  UNL     1      -7.942  14.213  27.497  1.00  0.00     0.224 C 
HETATM   29  O2  UNL     1      -7.654  13.296  26.660  1.00  0.00    -0.273 OA
ATOM     30  H2  UNL     1      -9.912  13.708  27.954  1.00  0.00     0.171 HD
BRANCH  28  31
HETATM   31  C8  UNL     1      -7.093  15.422  27.504  1.00  0.00     0.112 C 
BRANCH  31  32
HETATM   32  C7  UNL     1      -7.998  16.670  27.341  1.00  0.00     0.109 C 
BRANCH  32  33
HETATM   33  C6  UNL     1      -7.709  17.297  25.977  1.00  0.00     0.193 C 
BRANCH  33  34
HETATM   34  N1  UNL     1      -7.789  16.758  24.818  1.00  0.00    -0.360 NA
BRANCH  34  35
HETATM   35  C5  UNL     1      -7.910  16.247  23.739  1.00  0.00     0.225 A 
HETATM   36  S1  UNL     1      -7.731  14.581  23.240  1.00  0.00    -0.049 SA
HETATM   37  C4  UNL     1      -8.046  14.766  21.581  1.00  0.00     0.079 A 
HETATM   38  C3  UNL     1      -8.277  16.111  21.485  1.00  0.00     0.018 A 
HETATM   39  N8  UNL     1      -8.210  16.830  22.541  1.00  0.00    -0.328 N 
ATOM     40  H8  UNL     1      -8.379  17.834  22.489  1.00  0.00     0.169 HD
BRANCH  38  41
HETATM   41  C2  UNL     1      -8.596  16.694  20.106  1.00  0.00     0.053 C 
HETATM   42  C1  UNL     1      -8.670  15.603  19.090  1.00  0.00     0.011 C 
ENDBRANCH  38  41
ENDBRANCH  34  35
ENDBRANCH  33  34
BRANCH  33  43
HETATM   43  O1  UNL     1      -7.348  18.541  26.121  1.00  0.00    -0.339 OA
ATOM     44  H1  UNL     1      -6.737  18.801  26.801  1.00  0.00     0.220 HD
ENDBRANCH  33  43
ENDBRANCH  32  33
ENDBRANCH  31  32
ENDBRANCH  28  31
ENDBRANCH   1  27
TORSDOF 15
ENDMDL
MODEL 5
REMARK VINA RESULT: -8.319172171      2.561      6.837
REMARK  15 active torsions:
REMARK  status: ('A' for Active; 'I' for Inactive)
REMARK    1  A    between atoms: C2_2  and  C3_3 
REMARK    2  A    between atoms: C5_6  and  N1_7 
REMARK    3  A    between atoms: N1_7  and  C6_8 
REMARK    4  A    between atoms: C6_8  and  O1_9 
REMARK    5  A    between atoms: C6_8  and  C7_11 
REMARK    6  A    between atoms: C7_11  and  C8_12 
REMARK    7  A    between atoms: C8_12  and  C9_13 
REMARK       I    between atoms: C9_13  and  N2_15 
REMARK    8  A    between atoms: N2_15  and  C10_17 
REMARK    9  A    between atoms: C11_22  and  C12_23 
REMARK   10  A    between atoms: C12_23  and  C13_24 
REMARK   11  A    between atoms: C13_24  and  C14_25 
REMARK   12  A    between atoms: C14_25  and  C15_26 
REMARK   13  A    between atoms: C15_26  and  C16_27 
REMARK       I    between atoms: N7_33  and  C18_35 
REMARK   14  A    between atoms: C18_35  and  C19_37 
REMARK   15  A    between atoms: C19_37  and  C20_38 
ROOT
HETATM    1  C10 UNL     1      -7.775  14.914  23.737  1.00  0.00     0.167 A 
HETATM    2  N3  UNL     1      -7.415  14.085  22.720  1.00  0.00    -0.279 N 
ATOM      3  H3  UNL     1      -6.798  13.290  22.890  1.00  0.00     0.189 HD
HETATM    4  N4  UNL     1      -7.855  14.317  21.569  1.00  0.00    -0.296 N 
ATOM      5  H4  UNL     1      -7.591  13.702  20.798  1.00  0.00     0.187 HD
HETATM    6  C11 UNL     1      -8.661  15.348  21.333  1.00  0.00     0.069 A 
HETATM    7  S3  UNL     1      -8.778  16.020  22.896  1.00  0.00    -0.038 SA
ENDROOT
BRANCH   6   8
HETATM    8  C12 UNL     1      -9.277  15.740  20.013  1.00  0.00     0.066 C 
BRANCH   8   9
HETATM    9  C13 UNL     1      -8.214  15.832  18.963  1.00  0.00     0.007 C 
BRANCH   9  10
HETATM   10  C14 UNL     1      -7.279  16.968  19.233  1.00  0.00     0.007 C 
BRANCH  10  11
HETATM   11  C15 UNL     1      -5.861  16.514  19.072  1.00  0.00     0.066 C 
BRANCH  11  12
HETATM   12  C16 UNL     1      -5.091  16.844  20.300  1.00  0.00     0.069 A 
HETATM   13  N5  UNL     1      -3.917  16.346  20.672  1.00  0.00    -0.296 N 
HETATM   14  N6  UNL     1      -3.370  16.718  21.748  1.00  0.00    -0.279 N 
ATOM     15  H5  UNL     1      -3.451  15.656  20.083  1.00  0.00     0.187 HD
HETATM   16  C17 UNL     1      -3.993  17.624  22.513  1.00  0.00     0.167 A 
ATOM     17  H6  UNL     1      -2.468  16.335  22.031  1.00  0.00     0.189 HD
HETATM   18  N7  UNL     1      -3.567  18.117  23.656  1.00  0.00    -0.306 N 
HETATM   19  S2  UNL     1      -5.410  17.916  21.606  1.00  0.00    -0.038 SA
HETATM   20  C18 UNL     1      -4.396  19.068  24.296  1.00  0.00     0.224 C 
ATOM     21  H7  UNL     1      -2.678  17.827  24.063  1.00  0.00     0.171 HD
HETATM   22  O3  UNL     1      -4.812  20.027  23.589  1.00  0.00    -0.273 OA
BRANCH  20  23
HETATM   23  C19 UNL     1      -4.758  18.940  25.736  1.00  0.00     0.107 C 
BRANCH  23  24
HETATM   24  C20 UNL     1      -5.235  17.571  26.115  1.00  0.00    -0.014 C 
HETATM   25  C21 UNL     1      -4.330  16.910  27.130  1.00  0.00     0.010 C 
HETATM   26  C22 UNL     1      -6.575  17.772  26.828  1.00  0.00     0.010 C 
ENDBRANCH  23  24
ENDBRANCH  20  23
ENDBRANCH  11  12
ENDBRANCH  10  11
ENDBRANCH   9  10
ENDBRANCH   8   9
ENDBRANCH   6   8
BRANCH   1  27
HETATM   27  N2  UNL     1      -7.405  14.805  24.968  1.00  0.00    -0.306 N 
HETATM   28  C9  UNL     1      -8.191  14.205  25.955  1.00  0.00     0.224 C 
HETATM   29  O2  UNL     1      -7.658  13.346  26.730  1.00  0.00    -0.273 OA
ATOM     30  H2  UNL     1      -6.493  15.176  25.234  1.00  0.00     0.171 HD
BRANCH  28  31
HETATM   31  C8  UNL     1      -9.622  14.510  26.156  1.00  0.00     0.112 C 
BRANCH  31  32
HETATM   32  C7  UNL     1      -9.831  16.041  26.024  1.00  0.00     0.109 C 
BRANCH  32  33
HETATM   33  C6  UNL     1     -10.326  16.574  27.369  1.00  0.00     0.193 C 
BRANCH  33  34
HETATM   34  N1  UNL     1     -10.304  15.999  28.513  1.00  0.00    -0.360 NA
BRANCH  34  35
HETATM   35  C5  UNL     1     -10.254  15.492  29.600  1.00  0.00     0.225 A 
HETATM   36  S1  UNL     1     -11.212  14.212  30.306  1.00  0.00    -0.049 SA
HETATM   37  C4  UNL     1     -10.492  14.160  31.844  1.00  0.00     0.079 A 
HETATM   38  C3  UNL     1      -9.539  15.137  31.744  1.00  0.00     0.018 A 
HETATM   39  N8  UNL     1      -9.426  15.785  30.646  1.00  0.00    -0.328 N 
ATOM     40  H8  UNL     1      -8.722  16.516  30.553  1.00  0.00     0.169 HD
BRANCH  38  41
HETATM   41  C2  UNL     1      -8.658  15.416  32.964  1.00  0.00     0.053 C 
HETATM   42  C1  UNL     1      -9.432  15.193  34.221  1.00  0.00     0.011 C 
ENDBRANCH  38  41
ENDBRANCH  34  35
ENDBRANCH  33  34
BRANCH  33  43
HETATM   43  O1  UNL     1     -10.809  17.776  27.226  1.00  0.00    -0.339 OA
ATOM     44  H1  UNL     1     -11.169  18.067  26.396  1.00  0.00     0.220 HD
ENDBRANCH  33  43
ENDBRANCH  32  33
ENDBRANCH  31  32
ENDBRANCH  28  31
ENDBRANCH   1  27
TORSDOF 15
ENDMDL
