MODEL 1
REMARK VINA RESULT: -5.331761789      0.000      0.000
REMARK  1 active torsions:
REMARK  status: ('A' for Active; 'I' for Inactive)
REMARK    1  A    between atoms: O1_1  and  C1_3 
ROOT
HETATM    1  C1  UNL     1       6.082  11.156  45.062  1.00  0.00     0.321 C 
HETATM    2  C2  UNL     1       6.343  12.371  44.160  1.00  0.00     0.100 C 
HETATM    3  C3  UNL     1       4.852  12.247  43.918  1.00  0.00     0.132 C 
HETATM    4  C4  UNL     1       4.385  12.592  42.549  1.00  0.00     0.039 C 
HETATM    5  C5  UNL     1       4.518  14.045  42.249  1.00  0.00     0.002 C 
HETATM    6  C6  UNL     1       4.409  14.882  43.509  1.00  0.00     0.000 C 
HETATM    7  C7  UNL     1       3.475  14.217  44.520  1.00  0.00     0.002 C 
HETATM    8  C8  UNL     1       4.089  12.932  45.002  1.00  0.00     0.039 C 
HETATM    9  N1  UNL     1       5.027  10.799  44.112  1.00  0.00    -0.040 N 
ATOM     10  H11 UNL     1       4.250  10.195  44.376  1.00  0.00     0.281 HD
ATOM     11  H12 UNL     1       5.202  10.171  43.328  1.00  0.00     0.281 HD
ENDROOT
BRANCH   1  12
HETATM   12  O1  UNL     1       7.156  10.292  45.081  1.00  0.00    -0.370 OA
ATOM     13  H1  UNL     1       7.290   9.879  44.236  1.00  0.00     0.212 HD
ENDBRANCH   1  12
TORSDOF 1
ENDMDL
MODEL 2
REMARK VINA RESULT: -5.260678339      2.419      3.182
REMARK  1 active torsions:
REMARK  status: ('A' for Active; 'I' for Inactive)
REMARK    1  A    between atoms: O1_1  and  C1_3 
ROOT
HETATM    1  C1  UNL     1       7.749   8.836  46.167  1.00  0.00     0.321 C 
HETATM    2  C2  UNL     1       7.847   9.594  44.835  1.00  0.00     0.100 C 
HETATM    3  C3  UNL     1       6.353   9.737  45.048  1.00  0.00     0.132 C 
HETATM    4  C4  UNL     1       5.515   9.707  43.820  1.00  0.00     0.039 C 
HETATM    5  C5  UNL     1       5.713  10.910  42.964  1.00  0.00     0.002 C 
HETATM    6  C6  UNL     1       6.111  12.117  43.791  1.00  0.00     0.000 C 
HETATM    7  C7  UNL     1       5.480  12.051  45.182  1.00  0.00     0.002 C 
HETATM    8  C8  UNL     1       6.063  10.894  45.944  1.00  0.00     0.039 C 
HETATM    9  N1  UNL     1       6.412   8.434  45.729  1.00  0.00    -0.040 N 
ATOM     10  H11 UNL     1       5.696   8.142  46.393  1.00  0.00     0.281 HD
ATOM     11  H12 UNL     1       6.252   7.560  45.229  1.00  0.00     0.281 HD
ENDROOT
BRANCH   1  12
HETATM   12  O1  UNL     1       8.665   7.809  46.239  1.00  0.00    -0.370 OA
ATOM     13  H1  UNL     1       9.559   8.132  46.236  1.00  0.00     0.212 HD
ENDBRANCH   1  12
TORSDOF 1
ENDMDL
MODEL 3
REMARK VINA RESULT: -5.203638014      1.028      1.097
REMARK  1 active torsions:
REMARK  status: ('A' for Active; 'I' for Inactive)
REMARK    1  A    between atoms: O1_1  and  C1_3 
ROOT
HETATM    1  C1  UNL     1       7.139  10.646  44.538  1.00  0.00     0.321 C 
HETATM    2  C2  UNL     1       6.999  11.904  43.668  1.00  0.00     0.100 C 
HETATM    3  C3  UNL     1       5.533  11.521  43.720  1.00  0.00     0.132 C 
HETATM    4  C4  UNL     1       4.744  11.801  42.491  1.00  0.00     0.039 C 
HETATM    5  C5  UNL     1       4.563  13.260  42.249  1.00  0.00     0.002 C 
HETATM    6  C6  UNL     1       4.573  14.041  43.550  1.00  0.00     0.000 C 
HETATM    7  C7  UNL     1       3.993  13.202  44.688  1.00  0.00     0.002 C 
HETATM    8  C8  UNL     1       4.903  12.039  44.969  1.00  0.00     0.039 C 
HETATM    9  N1  UNL     1       5.990  10.124  43.797  1.00  0.00    -0.040 N 
ATOM     10  H11 UNL     1       5.397   9.386  44.176  1.00  0.00     0.281 HD
ATOM     11  H12 UNL     1       6.105   9.551  42.961  1.00  0.00     0.281 HD
ENDROOT
BRANCH   1  12
HETATM   12  O1  UNL     1       8.326   9.988  44.296  1.00  0.00    -0.370 OA
ATOM     13  H1  UNL     1       8.263   9.412  43.543  1.00  0.00     0.212 HD
ENDBRANCH   1  12
TORSDOF 1
ENDMDL
MODEL 4
REMARK VINA RESULT: -5.075016543      2.834      3.817
REMARK  1 active torsions:
REMARK  status: ('A' for Active; 'I' for Inactive)
REMARK    1  A    between atoms: O1_1  and  C1_3 
ROOT
HETATM    1  C1  UNL     1       7.816   7.924  45.252  1.00  0.00     0.321 C 
HETATM    2  C2  UNL     1       7.640   9.334  45.836  1.00  0.00     0.100 C 
HETATM    3  C3  UNL     1       7.322   9.665  44.391  1.00  0.00     0.132 C 
HETATM    4  C4  UNL     1       7.765  11.003  43.918  1.00  0.00     0.039 C 
HETATM    5  C5  UNL     1       7.002  12.115  44.552  1.00  0.00     0.002 C 
HETATM    6  C6  UNL     1       5.600  11.677  44.932  1.00  0.00     0.000 C 
HETATM    7  C7  UNL     1       5.080  10.623  43.953  1.00  0.00     0.002 C 
HETATM    8  C8  UNL     1       5.892   9.366  44.091  1.00  0.00     0.039 C 
HETATM    9  N1  UNL     1       8.262   8.593  44.029  1.00  0.00    -0.040 N 
ATOM     10  H11 UNL     1       8.224   8.130  43.121  1.00  0.00     0.281 HD
ATOM     11  H12 UNL     1       9.248   8.782  43.849  1.00  0.00     0.281 HD
ENDROOT
BRANCH   1  12
HETATM   12  O1  UNL     1       8.798   7.217  45.912  1.00  0.00    -0.370 OA
ATOM     13  H1  UNL     1       9.076   6.455  45.417  1.00  0.00     0.212 HD
ENDBRANCH   1  12
TORSDOF 1
ENDMDL
MODEL 5
REMARK VINA RESULT: -5.068030286      2.469      3.803
REMARK  1 active torsions:
REMARK  status: ('A' for Active; 'I' for Inactive)
REMARK    1  A    between atoms: O1_1  and  C1_3 
ROOT
HETATM    1  C1  UNL     1       3.787  13.527  43.586  1.00  0.00     0.321 C 
HETATM    2  C2  UNL     1       5.230  13.419  43.071  1.00  0.00     0.100 C 
HETATM    3  C3  UNL     1       5.299  12.326  44.120  1.00  0.00     0.132 C 
HETATM    4  C4  UNL     1       6.600  12.181  44.824  1.00  0.00     0.039 C 
HETATM    5  C5  UNL     1       7.680  11.673  43.931  1.00  0.00     0.002 C 
HETATM    6  C6  UNL     1       7.117  10.802  42.824  1.00  0.00     0.000 C 
HETATM    7  C7  UNL     1       5.870  10.057  43.304  1.00  0.00     0.002 C 
HETATM    8  C8  UNL     1       4.768  11.044  43.571  1.00  0.00     0.039 C 
HETATM    9  N1  UNL     1       4.322  13.116  44.885  1.00  0.00    -0.040 N 
ATOM     10  H11 UNL     1       3.730  12.693  45.599  1.00  0.00     0.281 HD
ATOM     11  H12 UNL     1       4.615  13.798  45.584  1.00  0.00     0.281 HD
ENDROOT
BRANCH   1  12
HETATM   12  O1  UNL     1       3.323  14.824  43.538  1.00  0.00    -0.370 OA
ATOM     13  H1  UNL     1       4.025  15.453  43.657  1.00  0.00     0.212 HD
ENDBRANCH   1  12
TORSDOF 1
ENDMDL
