MODEL 1
REMARK VINA RESULT: -5.819595150      0.000      0.000
REMARK  2 active torsions:
REMARK  status: ('A' for Active; 'I' for Inactive)
REMARK    1  A    between atoms: N1_1  and  C1_5 
REMARK    2  A    between atoms: N2_13  and  O1_14 
ROOT
HETATM    1  C1  UNL     1       4.295  12.819  46.537  1.00  0.00     0.282 C 
HETATM    2  C2  UNL     1       3.756  13.270  45.253  1.00  0.00     0.051 C 
HETATM    3  C3  UNL     1       4.703  13.379  44.105  1.00  0.00     0.008 C 
HETATM    4  C4  UNL     1       5.082  12.082  43.481  1.00  0.00    -0.013 C 
HETATM    5  C5  UNL     1       6.604  12.027  43.375  1.00  0.00     0.006 C 
HETATM    6  C6  UNL     1       6.988  11.852  44.824  1.00  0.00     0.022 C 
HETATM    7  C7  UNL     1       5.785  11.190  45.504  1.00  0.00     0.089 C 
HETATM    8  C8  UNL     1       4.797  10.943  44.423  1.00  0.00     0.027 C 
HETATM    9  N2  UNL     1       5.399  11.969  46.580  1.00  0.00    -0.164 NA
ENDROOT
BRANCH   1  10
HETATM   10  N1  UNL     1       3.201  12.151  47.272  1.00  0.00    -0.061 N 
ATOM     11  H13 UNL     1       2.293  12.592  47.121  1.00  0.00     0.276 HD
ATOM     12  H12 UNL     1       2.969  11.233  46.890  1.00  0.00     0.276 HD
ATOM     13  H11 UNL     1       3.466  12.116  48.256  1.00  0.00     0.276 HD
ENDBRANCH   1  10
BRANCH   9  14
HETATM   14  O1  UNL     1       5.368  11.233  47.719  1.00  0.00    -0.311 OA
ATOM     15  H1  UNL     1       5.947  11.617  48.367  1.00  0.00     0.237 HD
ENDBRANCH   9  14
TORSDOF 2
ENDMDL
MODEL 2
REMARK VINA RESULT: -5.508986158      4.856      5.557
REMARK  2 active torsions:
REMARK  status: ('A' for Active; 'I' for Inactive)
REMARK    1  A    between atoms: N1_1  and  C1_5 
REMARK    2  A    between atoms: N2_13  and  O1_14 
ROOT
HETATM    1  C1  UNL     1       7.654   8.740  45.145  1.00  0.00     0.282 C 
HETATM    2  C2  UNL     1       6.694   8.846  44.045  1.00  0.00     0.051 C 
HETATM    3  C3  UNL     1       7.143   8.408  42.691  1.00  0.00     0.008 C 
HETATM    4  C4  UNL     1       7.194   6.933  42.494  1.00  0.00    -0.013 C 
HETATM    5  C5  UNL     1       8.560   6.574  41.913  1.00  0.00     0.006 C 
HETATM    6  C6  UNL     1       9.452   6.807  43.108  1.00  0.00     0.022 C 
HETATM    7  C7  UNL     1       8.562   6.625  44.342  1.00  0.00     0.089 C 
HETATM    8  C8  UNL     1       7.228   6.228  43.823  1.00  0.00     0.027 C 
HETATM    9  N2  UNL     1       8.649   7.764  45.124  1.00  0.00    -0.164 NA
ENDROOT
BRANCH   1  10
HETATM   10  N1  UNL     1       6.885   8.552  46.393  1.00  0.00    -0.061 N 
ATOM     11  H13 UNL     1       7.402   8.835  47.225  1.00  0.00     0.276 HD
ATOM     12  H12 UNL     1       6.111   9.211  46.486  1.00  0.00     0.276 HD
ATOM     13  H11 UNL     1       6.583   7.578  46.425  1.00  0.00     0.276 HD
ENDBRANCH   1  10
BRANCH   9  14
HETATM   14  O1  UNL     1       9.013   7.450  46.392  1.00  0.00    -0.311 OA
ATOM     15  H1  UNL     1       9.564   6.677  46.386  1.00  0.00     0.237 HD
ENDBRANCH   9  14
TORSDOF 2
ENDMDL
MODEL 3
REMARK VINA RESULT: -5.480229775      1.627      3.055
REMARK  2 active torsions:
REMARK  status: ('A' for Active; 'I' for Inactive)
REMARK    1  A    between atoms: N1_1  and  C1_5 
REMARK    2  A    between atoms: N2_13  and  O1_14 
ROOT
HETATM    1  C1  UNL     1       6.363   9.483  45.979  1.00  0.00     0.282 C 
HETATM    2  C2  UNL     1       7.104   9.297  44.730  1.00  0.00     0.051 C 
HETATM    3  C3  UNL     1       6.617  10.025  43.522  1.00  0.00     0.008 C 
HETATM    4  C4  UNL     1       6.945  11.477  43.491  1.00  0.00    -0.013 C 
HETATM    5  C5  UNL     1       5.666  12.251  43.185  1.00  0.00     0.006 C 
HETATM    6  C6  UNL     1       4.909  12.083  44.481  1.00  0.00     0.022 C 
HETATM    7  C7  UNL     1       5.970  11.852  45.562  1.00  0.00     0.089 C 
HETATM    8  C8  UNL     1       7.281  11.968  44.873  1.00  0.00     0.027 C 
HETATM    9  N2  UNL     1       5.679  10.672  46.224  1.00  0.00    -0.164 NA
ENDROOT
BRANCH   1  10
HETATM   10  N1  UNL     1       7.313   9.287  47.095  1.00  0.00    -0.061 N 
ATOM     11  H13 UNL     1       7.437   8.305  47.343  1.00  0.00     0.276 HD
ATOM     12  H12 UNL     1       8.279   9.483  46.833  1.00  0.00     0.276 HD
ATOM     13  H11 UNL     1       6.990   9.856  47.877  1.00  0.00     0.276 HD
ENDBRANCH   1  10
BRANCH   9  14
HETATM   14  O1  UNL     1       5.586  10.881  47.561  1.00  0.00    -0.311 OA
ATOM     15  H1  UNL     1       5.076  10.187  47.961  1.00  0.00     0.237 HD
ENDBRANCH   9  14
TORSDOF 2
ENDMDL
MODEL 4
REMARK VINA RESULT: -5.405235729      1.940      3.222
REMARK  2 active torsions:
REMARK  status: ('A' for Active; 'I' for Inactive)
REMARK    1  A    between atoms: N1_1  and  C1_5 
REMARK    2  A    between atoms: N2_13  and  O1_14 
ROOT
HETATM    1  C1  UNL     1       6.379   9.193  44.968  1.00  0.00     0.282 C 
HETATM    2  C2  UNL     1       6.348   9.554  43.550  1.00  0.00     0.051 C 
HETATM    3  C3  UNL     1       5.410  10.635  43.131  1.00  0.00     0.008 C 
HETATM    4  C4  UNL     1       5.856  12.016  43.465  1.00  0.00    -0.013 C 
HETATM    5  C5  UNL     1       4.708  12.733  44.172  1.00  0.00     0.006 C 
HETATM    6  C6  UNL     1       4.705  12.026  45.506  1.00  0.00     0.022 C 
HETATM    7  C7  UNL     1       6.130  11.501  45.710  1.00  0.00     0.089 C 
HETATM    8  C8  UNL     1       6.908  11.982  44.540  1.00  0.00     0.027 C 
HETATM    9  N2  UNL     1       6.072  10.139  45.945  1.00  0.00    -0.164 NA
ENDROOT
BRANCH   1  10
HETATM   10  N1  UNL     1       7.731   8.678  45.269  1.00  0.00    -0.061 N 
ATOM     11  H13 UNL     1       8.098   8.071  44.535  1.00  0.00     0.276 HD
ATOM     12  H12 UNL     1       8.451   9.399  45.219  1.00  0.00     0.276 HD
ATOM     13  H11 UNL     1       7.691   8.220  46.179  1.00  0.00     0.276 HD
ENDBRANCH   1  10
BRANCH   9  14
HETATM   14  O1  UNL     1       6.700   9.823  47.104  1.00  0.00    -0.311 OA
ATOM     15  H1  UNL     1       7.637   9.762  46.956  1.00  0.00     0.237 HD
ENDBRANCH   9  14
TORSDOF 2
ENDMDL
MODEL 5
REMARK VINA RESULT: -5.349064084      3.513      4.310
REMARK  2 active torsions:
REMARK  status: ('A' for Active; 'I' for Inactive)
REMARK    1  A    between atoms: N1_1  and  C1_5 
REMARK    2  A    between atoms: N2_13  and  O1_14 
ROOT
HETATM    1  C1  UNL     1       7.742   8.445  45.250  1.00  0.00     0.282 C 
HETATM    2  C2  UNL     1       6.597   8.947  46.012  1.00  0.00     0.051 C 
HETATM    3  C3  UNL     1       6.365  10.421  46.020  1.00  0.00     0.008 C 
HETATM    4  C4  UNL     1       5.765  10.968  44.772  1.00  0.00    -0.013 C 
HETATM    5  C5  UNL     1       6.606  12.159  44.317  1.00  0.00     0.006 C 
HETATM    6  C6  UNL     1       7.857  11.463  43.838  1.00  0.00     0.022 C 
HETATM    7  C7  UNL     1       7.427  10.047  43.441  1.00  0.00     0.089 C 
HETATM    8  C8  UNL     1       5.954  10.004  43.632  1.00  0.00     0.027 C 
HETATM    9  N2  UNL     1       8.206   9.136  44.132  1.00  0.00    -0.164 NA
ENDROOT
BRANCH   1  10
HETATM   10  N1  UNL     1       7.418   7.071  44.810  1.00  0.00    -0.061 N 
ATOM     11  H13 UNL     1       7.002   6.505  45.550  1.00  0.00     0.276 HD
ATOM     12  H12 UNL     1       6.633   7.038  44.159  1.00  0.00     0.276 HD
ATOM     13  H11 UNL     1       8.270   6.661  44.427  1.00  0.00     0.276 HD
ENDBRANCH   1  10
BRANCH   9  14
HETATM   14  O1  UNL     1       8.812   8.275  43.278  1.00  0.00    -0.311 OA
ATOM     15  H1  UNL     1       9.744   8.455  43.247  1.00  0.00     0.237 HD
ENDBRANCH   9  14
TORSDOF 2
ENDMDL
