MODEL 1
REMARK VINA RESULT: -5.807260248      0.000      0.000
REMARK  1 active torsions:
REMARK  status: ('A' for Active; 'I' for Inactive)
REMARK    1  A    between atoms: O1_1  and  C1_3 
ROOT
HETATM    1  C1  UNL     1       5.758  11.993  45.741  1.00  0.00     0.152 C 
HETATM    2  C2  UNL     1       6.438  11.047  44.856  1.00  0.00     0.021 A 
HETATM    3  C3  UNL     1       7.678  11.025  44.191  1.00  0.00     0.012 A 
HETATM    4  C4  UNL     1       6.787  11.964  43.631  1.00  0.00    -0.007 A 
HETATM    5  C5  UNL     1       5.554  11.875  42.848  1.00  0.00     0.012 C 
HETATM    6  C6  UNL     1       4.455  12.544  43.628  1.00  0.00     0.019 C 
HETATM    7  C7  UNL     1       4.530  14.054  43.571  1.00  0.00     0.033 C 
HETATM    8  C8  UNL     1       3.606  14.366  44.759  1.00  0.00     0.168 C 
HETATM    9  O2  UNL     1       3.788  13.363  45.672  1.00  0.00    -0.383 OA
HETATM   10  C9  UNL     1       4.404  12.295  45.079  1.00  0.00     0.154 C 
ENDROOT
BRANCH   1  11
HETATM   11  O1  UNL     1       5.549  11.497  47.003  1.00  0.00    -0.393 OA
ATOM     12  H1  UNL     1       4.917  12.000  47.503  1.00  0.00     0.210 HD
ENDBRANCH   1  11
TORSDOF 1
ENDMDL
MODEL 2
REMARK VINA RESULT: -5.801442390      0.937      3.266
REMARK  1 active torsions:
REMARK  status: ('A' for Active; 'I' for Inactive)
REMARK    1  A    between atoms: O1_1  and  C1_3 
ROOT
HETATM    1  C1  UNL     1       4.490  12.085  45.372  1.00  0.00     0.152 C 
HETATM    2  C2  UNL     1       4.702  12.961  44.219  1.00  0.00     0.021 A 
HETATM    3  C3  UNL     1       4.297  12.943  42.871  1.00  0.00     0.012 A 
HETATM    4  C4  UNL     1       5.254  11.947  43.156  1.00  0.00    -0.007 A 
HETATM    5  C5  UNL     1       6.683  11.951  43.475  1.00  0.00     0.012 C 
HETATM    6  C6  UNL     1       6.860  11.336  44.837  1.00  0.00     0.019 C 
HETATM    7  C7  UNL     1       6.740   9.828  44.820  1.00  0.00     0.033 C 
HETATM    8  C8  UNL     1       6.532   9.607  46.327  1.00  0.00     0.168 C 
HETATM    9  O2  UNL     1       5.830  10.687  46.790  1.00  0.00    -0.383 OA
HETATM   10  C9  UNL     1       5.890  11.708  45.881  1.00  0.00     0.154 C 
ENDROOT
BRANCH   1  11
HETATM   11  O1  UNL     1       3.782  12.685  46.383  1.00  0.00    -0.393 OA
ATOM     12  H1  UNL     1       2.943  13.030  46.098  1.00  0.00     0.210 HD
ENDBRANCH   1  11
TORSDOF 1
ENDMDL
MODEL 3
REMARK VINA RESULT: -5.780723551      2.063      3.323
REMARK  1 active torsions:
REMARK  status: ('A' for Active; 'I' for Inactive)
REMARK    1  A    between atoms: O1_1  and  C1_3 
ROOT
HETATM    1  C1  UNL     1       3.706  13.613  42.219  1.00  0.00     0.152 C 
HETATM    2  C2  UNL     1       4.773  12.763  41.689  1.00  0.00     0.021 A 
HETATM    3  C3  UNL     1       4.895  11.394  41.386  1.00  0.00     0.012 A 
HETATM    4  C4  UNL     1       4.838  11.632  42.775  1.00  0.00    -0.007 A 
HETATM    5  C5  UNL     1       5.745  12.232  43.756  1.00  0.00     0.012 C 
HETATM    6  C6  UNL     1       5.054  13.422  44.366  1.00  0.00     0.019 C 
HETATM    7  C7  UNL     1       4.007  13.032  45.387  1.00  0.00     0.033 C 
HETATM    8  C8  UNL     1       3.253  14.370  45.451  1.00  0.00     0.168 C 
HETATM    9  O2  UNL     1       3.311  14.915  44.197  1.00  0.00    -0.383 OA
HETATM   10  C9  UNL     1       4.289  14.299  43.464  1.00  0.00     0.154 C 
ENDROOT
BRANCH   1  11
HETATM   11  O1  UNL     1       3.282  14.566  41.327  1.00  0.00    -0.393 OA
ATOM     12  H1  UNL     1       3.018  14.204  40.489  1.00  0.00     0.210 HD
ENDBRANCH   1  11
TORSDOF 1
ENDMDL
MODEL 4
REMARK VINA RESULT: -5.631681273      1.495      3.300
REMARK  1 active torsions:
REMARK  status: ('A' for Active; 'I' for Inactive)
REMARK    1  A    between atoms: O1_1  and  C1_3 
ROOT
HETATM    1  C1  UNL     1       3.537  13.983  43.809  1.00  0.00     0.152 C 
HETATM    2  C2  UNL     1       4.185  14.099  42.501  1.00  0.00     0.021 A 
HETATM    3  C3  UNL     1       3.971  13.529  41.232  1.00  0.00     0.012 A 
HETATM    4  C4  UNL     1       4.472  12.593  42.162  1.00  0.00    -0.007 A 
HETATM    5  C5  UNL     1       5.759  12.392  42.829  1.00  0.00     0.012 C 
HETATM    6  C6  UNL     1       5.538  12.498  44.315  1.00  0.00     0.019 C 
HETATM    7  C7  UNL     1       4.898  11.260  44.902  1.00  0.00     0.033 C 
HETATM    8  C8  UNL     1       4.440  11.862  46.240  1.00  0.00     0.168 C 
HETATM    9  O2  UNL     1       4.112  13.168  45.992  1.00  0.00    -0.383 OA
HETATM   10  C9  UNL     1       4.639  13.563  44.793  1.00  0.00     0.154 C 
ENDROOT
BRANCH   1  11
HETATM   11  O1  UNL     1       2.966  15.156  44.234  1.00  0.00    -0.393 OA
ATOM     12  H1  UNL     1       2.162  15.024  44.724  1.00  0.00     0.210 HD
ENDBRANCH   1  11
TORSDOF 1
ENDMDL
MODEL 5
REMARK VINA RESULT: -5.613037636      1.733      4.056
REMARK  1 active torsions:
REMARK  status: ('A' for Active; 'I' for Inactive)
REMARK    1  A    between atoms: O1_1  and  C1_3 
ROOT
HETATM    1  C1  UNL     1       4.418  14.263  43.905  1.00  0.00     0.152 C 
HETATM    2  C2  UNL     1       3.260  14.414  44.787  1.00  0.00     0.021 A 
HETATM    3  C3  UNL     1       3.013  15.096  45.993  1.00  0.00     0.012 A 
HETATM    4  C4  UNL     1       3.867  13.988  46.171  1.00  0.00    -0.007 A 
HETATM    5  C5  UNL     1       3.694  12.535  46.122  1.00  0.00     0.012 C 
HETATM    6  C6  UNL     1       4.588  11.994  45.038  1.00  0.00     0.019 C 
HETATM    7  C7  UNL     1       6.041  11.932  45.452  1.00  0.00     0.033 C 
HETATM    8  C8  UNL     1       6.662  11.780  44.055  1.00  0.00     0.168 C 
HETATM    9  O2  UNL     1       5.869  12.489  43.193  1.00  0.00    -0.383 OA
HETATM   10  C9  UNL     1       4.661  12.752  43.777  1.00  0.00     0.154 C 
ENDROOT
BRANCH   1  11
HETATM   11  O1  UNL     1       4.220  14.802  42.658  1.00  0.00    -0.393 OA
ATOM     12  H1  UNL     1       3.931  14.163  42.017  1.00  0.00     0.210 HD
ENDBRANCH   1  11
TORSDOF 1
ENDMDL
