MODEL 1
REMARK VINA RESULT: -5.728737073      0.000      0.000
REMARK  1 active torsions:
REMARK  status: ('A' for Active; 'I' for Inactive)
REMARK    1  A    between atoms: O1_1  and  C1_3 
ROOT
HETATM    1  C1  UNL     1       4.644  12.469  47.072  1.00  0.00     0.153 C 
HETATM    2  C2  UNL     1       5.303  11.099  46.870  1.00  0.00     0.064 C 
HETATM    3  C3  UNL     1       6.002  11.304  45.552  1.00  0.00     0.275 C 
HETATM    4  N1  UNL     1       5.304  12.393  44.877  1.00  0.00     0.095 N 
HETATM    5  C4  UNL     1       4.917  12.029  43.549  1.00  0.00     0.273 C 
HETATM    6  C5  UNL     1       4.881  13.156  42.576  1.00  0.00     0.030 C 
HETATM    7  C6  UNL     1       4.466  14.466  43.154  1.00  0.00     0.002 C 
HETATM    8  C7  UNL     1       3.287  14.380  44.068  1.00  0.00     0.002 C 
HETATM    9  C8  UNL     1       3.632  14.083  45.491  1.00  0.00     0.038 C 
HETATM   10  C9  UNL     1       4.136  12.689  45.646  1.00  0.00     0.251 C 
ENDROOT
BRANCH   1  11
HETATM   11  O1  UNL     1       3.638  12.438  47.997  1.00  0.00    -0.393 OA
ATOM     12  H1  UNL     1       3.766  13.066  48.698  1.00  0.00     0.210 HD
ENDBRANCH   1  11
TORSDOF 1
ENDMDL
MODEL 2
REMARK VINA RESULT: -5.549066463      1.297      2.511
REMARK  1 active torsions:
REMARK  status: ('A' for Active; 'I' for Inactive)
REMARK    1  A    between atoms: O1_1  and  C1_3 
ROOT
HETATM    1  C1  UNL     1       4.284  12.076  46.272  1.00  0.00     0.153 C 
HETATM    2  C2  UNL     1       3.885  13.420  46.894  1.00  0.00     0.064 C 
HETATM    3  C3  UNL     1       3.265  14.115  45.710  1.00  0.00     0.275 C 
HETATM    4  N1  UNL     1       3.819  13.480  44.519  1.00  0.00     0.095 N 
HETATM    5  C4  UNL     1       4.363  14.442  43.613  1.00  0.00     0.273 C 
HETATM    6  C5  UNL     1       4.283  14.064  42.175  1.00  0.00     0.030 C 
HETATM    7  C6  UNL     1       4.424  12.604  41.906  1.00  0.00     0.002 C 
HETATM    8  C7  UNL     1       5.527  11.949  42.673  1.00  0.00     0.002 C 
HETATM    9  C8  UNL     1       5.128  11.462  44.027  1.00  0.00     0.038 C 
HETATM   10  C9  UNL     1       4.857  12.598  44.953  1.00  0.00     0.251 C 
ENDROOT
BRANCH   1  11
HETATM   11  O1  UNL     1       5.207  11.402  47.024  1.00  0.00    -0.393 OA
ATOM     12  H1  UNL     1       5.920  11.959  47.312  1.00  0.00     0.210 HD
ENDBRANCH   1  11
TORSDOF 1
ENDMDL
MODEL 3
REMARK VINA RESULT: -5.507296031      2.364      3.125
REMARK  1 active torsions:
REMARK  status: ('A' for Active; 'I' for Inactive)
REMARK    1  A    between atoms: O1_1  and  C1_3 
ROOT
HETATM    1  C1  UNL     1       7.165   9.508  46.008  1.00  0.00     0.153 C 
HETATM    2  C2  UNL     1       7.268   8.292  45.081  1.00  0.00     0.064 C 
HETATM    3  C3  UNL     1       7.124   8.942  43.730  1.00  0.00     0.275 C 
HETATM    4  N1  UNL     1       6.431  10.207  43.951  1.00  0.00     0.095 N 
HETATM    5  C4  UNL     1       5.292  10.340  43.097  1.00  0.00     0.273 C 
HETATM    6  C5  UNL     1       4.964  11.738  42.703  1.00  0.00     0.030 C 
HETATM    7  C6  UNL     1       5.253  12.763  43.746  1.00  0.00     0.002 C 
HETATM    8  C7  UNL     1       4.814  12.372  45.121  1.00  0.00     0.002 C 
HETATM    9  C8  UNL     1       5.826  11.588  45.889  1.00  0.00     0.038 C 
HETATM   10  C9  UNL     1       6.004  10.223  45.315  1.00  0.00     0.251 C 
ENDROOT
BRANCH   1  11
HETATM   11  O1  UNL     1       6.882   9.162  47.301  1.00  0.00    -0.393 OA
ATOM     12  H1  UNL     1       6.151   8.559  47.366  1.00  0.00     0.210 HD
ENDBRANCH   1  11
TORSDOF 1
ENDMDL
MODEL 4
REMARK VINA RESULT: -5.504105591      1.194      1.662
REMARK  1 active torsions:
REMARK  status: ('A' for Active; 'I' for Inactive)
REMARK    1  A    between atoms: O1_1  and  C1_3 
ROOT
HETATM    1  C1  UNL     1       5.944  11.428  46.293  1.00  0.00     0.153 C 
HETATM    2  C2  UNL     1       6.562  10.645  45.128  1.00  0.00     0.064 C 
HETATM    3  C3  UNL     1       6.486  11.663  44.020  1.00  0.00     0.275 C 
HETATM    4  N1  UNL     1       5.429  12.598  44.389  1.00  0.00     0.095 N 
HETATM    5  C4  UNL     1       4.476  12.760  43.335  1.00  0.00     0.273 C 
HETATM    6  C5  UNL     1       3.836  14.103  43.269  1.00  0.00     0.030 C 
HETATM    7  C6  UNL     1       3.621  14.756  44.592  1.00  0.00     0.002 C 
HETATM    8  C7  UNL     1       3.070  13.842  45.638  1.00  0.00     0.002 C 
HETATM    9  C8  UNL     1       4.108  13.085  46.401  1.00  0.00     0.038 C 
HETATM   10  C9  UNL     1       4.774  12.065  45.542  1.00  0.00     0.251 C 
ENDROOT
BRANCH   1  11
HETATM   11  O1  UNL     1       5.542  10.617  47.317  1.00  0.00    -0.393 OA
ATOM     12  H1  UNL     1       6.270  10.188  47.752  1.00  0.00     0.210 HD
ENDBRANCH   1  11
TORSDOF 1
ENDMDL
MODEL 5
REMARK VINA RESULT: -5.493309884      2.094      3.608
REMARK  1 active torsions:
REMARK  status: ('A' for Active; 'I' for Inactive)
REMARK    1  A    between atoms: O1_1  and  C1_3 
ROOT
HETATM    1  C1  UNL     1       4.017  13.373  42.736  1.00  0.00     0.153 C 
HETATM    2  C2  UNL     1       5.130  12.449  42.225  1.00  0.00     0.064 C 
HETATM    3  C3  UNL     1       5.165  11.408  43.313  1.00  0.00     0.275 C 
HETATM    4  N1  UNL     1       4.599  12.033  44.503  1.00  0.00     0.095 N 
HETATM    5  C4  UNL     1       5.463  11.894  45.634  1.00  0.00     0.273 C 
HETATM    6  C5  UNL     1       4.767  11.814  46.948  1.00  0.00     0.030 C 
HETATM    7  C6  UNL     1       3.518  12.623  47.043  1.00  0.00     0.002 C 
HETATM    8  C7  UNL     1       3.642  14.000  46.475  1.00  0.00     0.002 C 
HETATM    9  C8  UNL     1       3.356  14.088  45.012  1.00  0.00     0.038 C 
HETATM   10  C9  UNL     1       4.420  13.420  44.210  1.00  0.00     0.251 C 
ENDROOT
BRANCH   1  11
HETATM   11  O1  UNL     1       4.038  14.603  42.138  1.00  0.00    -0.393 OA
ATOM     12  H1  UNL     1       3.637  15.277  42.674  1.00  0.00     0.210 HD
ENDBRANCH   1  11
TORSDOF 1
ENDMDL
