MODEL 1
REMARK VINA RESULT: -5.539042105      0.000      0.000
REMARK  3 active torsions:
REMARK  status: ('A' for Active; 'I' for Inactive)
REMARK    1  A    between atoms: C2_3  and  C3_4 
REMARK    2  A    between atoms: C4_5  and  C5_6 
REMARK    3  A    between atoms: C6_7  and  C7_8 
ROOT
HETATM    1  N1  UNL     1       6.408  10.252  39.202  1.00  0.00    -0.196 NA
HETATM    2  C1  UNL     1       5.459  10.835  39.437  1.00  0.00     0.071 C 
HETATM    3  C2  UNL     1       4.242  11.557  39.742  1.00  0.00     0.217 C 
ENDROOT
BRANCH   3   4
HETATM    4  C3  UNL     1       4.415  12.293  40.996  1.00  0.00    -0.088 C 
HETATM    5  C4  UNL     1       4.557  12.912  42.041  1.00  0.00    -0.077 C 
BRANCH   5   6
HETATM    6  C5  UNL     1       4.746  13.624  43.266  1.00  0.00     0.067 C 
HETATM    7  C6  UNL     1       3.751  14.216  43.876  1.00  0.00     0.045 C 
BRANCH   7   8
HETATM    8  C7  UNL     1       3.962  14.941  45.130  1.00  0.00     0.070 C 
HETATM    9  N2  UNL     1       3.356  15.925  45.616  1.00  0.00    -0.363 N 
HETATM   10  C8  UNL     1       3.709  16.480  46.841  1.00  0.00     0.072 C 
ATOM     11  H2  UNL     1       2.579  16.332  45.096  1.00  0.00     0.165 HD
HETATM   12  C9  UNL     1       5.103  16.104  47.266  1.00  0.00     0.125 C 
HETATM   13  S1  UNL     1       5.242  14.529  46.319  1.00  0.00    -0.107 SA
ENDBRANCH   7   8
ENDBRANCH   5   6
ENDBRANCH   3   4
TORSDOF 3
ENDMDL
MODEL 2
REMARK VINA RESULT: -5.450155718      4.159      4.437
REMARK  3 active torsions:
REMARK  status: ('A' for Active; 'I' for Inactive)
REMARK    1  A    between atoms: C2_3  and  C3_4 
REMARK    2  A    between atoms: C4_5  and  C5_6 
REMARK    3  A    between atoms: C6_7  and  C7_8 
ROOT
HETATM    1  N1  UNL     1       8.680   8.288  46.577  1.00  0.00    -0.196 NA
HETATM    2  C1  UNL     1       7.878   8.563  45.817  1.00  0.00     0.071 C 
HETATM    3  C2  UNL     1       6.845   8.898  44.859  1.00  0.00     0.217 C 
ENDROOT
BRANCH   3   4
HETATM    4  C3  UNL     1       6.208  10.156  45.250  1.00  0.00    -0.088 C 
HETATM    5  C4  UNL     1       5.677  11.207  45.582  1.00  0.00    -0.077 C 
BRANCH   5   6
HETATM    6  C5  UNL     1       5.040  12.432  45.950  1.00  0.00     0.067 C 
HETATM    7  C6  UNL     1       5.730  13.516  46.199  1.00  0.00     0.045 C 
BRANCH   7   8
HETATM    8  C7  UNL     1       5.062  14.764  46.574  1.00  0.00     0.070 C 
HETATM    9  N2  UNL     1       5.274  15.550  47.527  1.00  0.00    -0.363 N 
HETATM   10  C8  UNL     1       4.521  16.703  47.718  1.00  0.00     0.072 C 
ATOM     11  H2  UNL     1       6.025  15.336  48.184  1.00  0.00     0.165 HD
HETATM   12  C9  UNL     1       3.206  16.661  46.988  1.00  0.00     0.125 C 
HETATM   13  S1  UNL     1       3.686  15.472  45.665  1.00  0.00    -0.107 SA
ENDBRANCH   7   8
ENDBRANCH   5   6
ENDBRANCH   3   4
TORSDOF 3
ENDMDL
MODEL 3
REMARK VINA RESULT: -5.446005251      1.535      1.649
REMARK  3 active torsions:
REMARK  status: ('A' for Active; 'I' for Inactive)
REMARK    1  A    between atoms: C2_3  and  C3_4 
REMARK    2  A    between atoms: C4_5  and  C5_6 
REMARK    3  A    between atoms: C6_7  and  C7_8 
ROOT
HETATM    1  N1  UNL     1       2.129  11.752  37.960  1.00  0.00    -0.196 NA
HETATM    2  C1  UNL     1       3.034  11.562  38.624  1.00  0.00     0.071 C 
HETATM    3  C2  UNL     1       4.198  11.329  39.454  1.00  0.00     0.217 C 
ENDROOT
BRANCH   3   4
HETATM    4  C3  UNL     1       4.185  12.262  40.582  1.00  0.00    -0.088 C 
HETATM    5  C4  UNL     1       4.174  13.044  41.522  1.00  0.00    -0.077 C 
BRANCH   5   6
HETATM    6  C5  UNL     1       4.175  13.943  42.634  1.00  0.00     0.067 C 
HETATM    7  C6  UNL     1       4.181  13.508  43.867  1.00  0.00     0.045 C 
BRANCH   7   8
HETATM    8  C7  UNL     1       4.182  14.442  44.995  1.00  0.00     0.070 C 
HETATM    9  N2  UNL     1       3.424  15.404  45.260  1.00  0.00    -0.363 N 
HETATM   10  C8  UNL     1       3.589  16.185  46.398  1.00  0.00     0.072 C 
ATOM     11  H2  UNL     1       2.660  15.621  44.619  1.00  0.00     0.165 HD
HETATM   12  C9  UNL     1       4.967  16.062  46.989  1.00  0.00     0.125 C 
HETATM   13  S1  UNL     1       5.377  14.389  46.334  1.00  0.00    -0.107 SA
ENDBRANCH   7   8
ENDBRANCH   5   6
ENDBRANCH   3   4
TORSDOF 3
ENDMDL
MODEL 4
REMARK VINA RESULT: -5.404711266      2.263      7.124
REMARK  3 active torsions:
REMARK  status: ('A' for Active; 'I' for Inactive)
REMARK    1  A    between atoms: C2_3  and  C3_4 
REMARK    2  A    between atoms: C4_5  and  C5_6 
REMARK    3  A    between atoms: C6_7  and  C7_8 
ROOT
HETATM    1  N1  UNL     1       1.953  18.208  47.054  1.00  0.00    -0.196 NA
HETATM    2  C1  UNL     1       2.757  17.405  47.123  1.00  0.00     0.071 C 
HETATM    3  C2  UNL     1       3.766  16.371  47.225  1.00  0.00     0.217 C 
ENDROOT
BRANCH   3   4
HETATM    4  C3  UNL     1       3.796  15.597  45.983  1.00  0.00    -0.088 C 
HETATM    5  C4  UNL     1       3.823  14.948  44.947  1.00  0.00    -0.077 C 
BRANCH   5   6
HETATM    6  C5  UNL     1       3.854  14.209  43.724  1.00  0.00     0.067 C 
HETATM    7  C6  UNL     1       4.654  13.187  43.559  1.00  0.00     0.045 C 
BRANCH   7   8
HETATM    8  C7  UNL     1       4.673  12.441  42.299  1.00  0.00     0.070 C 
HETATM    9  N2  UNL     1       4.280  12.762  41.154  1.00  0.00    -0.363 N 
HETATM   10  C8  UNL     1       4.386  11.902  40.066  1.00  0.00     0.072 C 
ATOM     11  H2  UNL     1       3.868  13.685  41.015  1.00  0.00     0.165 HD
HETATM   12  C9  UNL     1       4.570  10.467  40.480  1.00  0.00     0.125 C 
HETATM   13  S1  UNL     1       5.316  10.773  42.137  1.00  0.00    -0.107 SA
ENDBRANCH   7   8
ENDBRANCH   5   6
ENDBRANCH   3   4
TORSDOF 3
ENDMDL
MODEL 5
REMARK VINA RESULT: -5.385429222      2.180      7.004
REMARK  3 active torsions:
REMARK  status: ('A' for Active; 'I' for Inactive)
REMARK    1  A    between atoms: C2_3  and  C3_4 
REMARK    2  A    between atoms: C4_5  and  C5_6 
REMARK    3  A    between atoms: C6_7  and  C7_8 
ROOT
HETATM    1  N1  UNL     1       5.108  16.412  48.006  1.00  0.00    -0.196 NA
HETATM    2  C1  UNL     1       4.298  16.270  47.219  1.00  0.00     0.071 C 
HETATM    3  C2  UNL     1       3.273  16.107  46.209  1.00  0.00     0.217 C 
ENDROOT
BRANCH   3   4
HETATM    4  C3  UNL     1       3.681  15.063  45.267  1.00  0.00    -0.088 C 
HETATM    5  C4  UNL     1       4.023  14.193  44.479  1.00  0.00    -0.077 C 
BRANCH   5   6
HETATM    6  C5  UNL     1       4.402  13.166  43.559  1.00  0.00     0.067 C 
HETATM    7  C6  UNL     1       4.141  13.260  42.281  1.00  0.00     0.045 C 
BRANCH   7   8
HETATM    8  C7  UNL     1       4.536  12.199  41.352  1.00  0.00     0.070 C 
HETATM    9  N2  UNL     1       4.393  12.104  40.111  1.00  0.00    -0.363 N 
HETATM   10  C8  UNL     1       4.844  11.001  39.395  1.00  0.00     0.072 C 
ATOM     11  H2  UNL     1       3.930  12.863  39.609  1.00  0.00     0.165 HD
HETATM   12  C9  UNL     1       5.076   9.799  40.271  1.00  0.00     0.125 C 
HETATM   13  S1  UNL     1       5.373  10.693  41.855  1.00  0.00    -0.107 SA
ENDBRANCH   7   8
ENDBRANCH   5   6
ENDBRANCH   3   4
TORSDOF 3
ENDMDL
