MODEL 1
REMARK VINA RESULT: -5.428977391      0.000      0.000
REMARK  1 active torsions:
REMARK  status: ('A' for Active; 'I' for Inactive)
REMARK    1  A    between atoms: O1_1  and  C1_3 
ROOT
HETATM    1  C1  UNL     1       4.205  14.227  43.710  1.00  0.00     0.119 C 
HETATM    2  C2  UNL     1       3.689  13.651  42.399  1.00  0.00     0.032 C 
HETATM    3  C3  UNL     1       4.664  12.577  41.980  1.00  0.00     0.004 C 
HETATM    4  C4  UNL     1       4.735  11.446  42.973  1.00  0.00     0.014 C 
HETATM    5  C5  UNL     1       5.184  11.997  44.285  1.00  0.00     0.005 C 
HETATM    6  C6  UNL     1       5.413  11.009  45.393  1.00  0.00     0.179 C 
HETATM    7  O2  UNL     1       6.720  10.872  44.953  1.00  0.00    -0.389 OA
HETATM    8  C7  UNL     1       6.634  12.207  44.494  1.00  0.00     0.179 C 
HETATM    9  C8  UNL     1       4.247  13.079  44.711  1.00  0.00     0.045 C 
ENDROOT
BRANCH   1  10
HETATM   10  O1  UNL     1       3.335  15.174  44.226  1.00  0.00    -0.396 OA
ATOM     11  H1  UNL     1       3.684  16.053  44.134  1.00  0.00     0.210 HD
ENDBRANCH   1  10
TORSDOF 1
ENDMDL
MODEL 2
REMARK VINA RESULT: -5.251810951      1.885      2.564
REMARK  1 active torsions:
REMARK  status: ('A' for Active; 'I' for Inactive)
REMARK    1  A    between atoms: O1_1  and  C1_3 
ROOT
HETATM    1  C1  UNL     1       3.993  12.942  46.554  1.00  0.00     0.119 C 
HETATM    2  C2  UNL     1       3.113  13.950  45.829  1.00  0.00     0.032 C 
HETATM    3  C3  UNL     1       3.828  14.312  44.549  1.00  0.00     0.004 C 
HETATM    4  C4  UNL     1       4.005  13.127  43.635  1.00  0.00     0.014 C 
HETATM    5  C5  UNL     1       4.817  12.098  44.347  1.00  0.00     0.005 C 
HETATM    6  C6  UNL     1       5.190  10.869  43.569  1.00  0.00     0.179 C 
HETATM    7  O2  UNL     1       6.328  11.531  43.136  1.00  0.00    -0.389 OA
HETATM    8  C7  UNL     1       6.289  12.251  44.353  1.00  0.00     0.179 C 
HETATM    9  C8  UNL     1       4.142  11.739  45.630  1.00  0.00     0.045 C 
ENDROOT
BRANCH   1  10
HETATM   10  O1  UNL     1       3.387  12.481  47.713  1.00  0.00    -0.396 OA
ATOM     11  H1  UNL     1       3.308  13.172  48.361  1.00  0.00     0.210 HD
ENDBRANCH   1  10
TORSDOF 1
ENDMDL
MODEL 3
REMARK VINA RESULT: -5.144151175      1.278      2.372
REMARK  1 active torsions:
REMARK  status: ('A' for Active; 'I' for Inactive)
REMARK    1  A    between atoms: O1_1  and  C1_3 
ROOT
HETATM    1  C1  UNL     1       3.427  13.809  44.400  1.00  0.00     0.119 C 
HETATM    2  C2  UNL     1       3.320  13.821  45.919  1.00  0.00     0.032 C 
HETATM    3  C3  UNL     1       3.696  12.438  46.394  1.00  0.00     0.004 C 
HETATM    4  C4  UNL     1       5.116  12.076  46.044  1.00  0.00     0.014 C 
HETATM    5  C5  UNL     1       5.261  12.114  44.559  1.00  0.00     0.005 C 
HETATM    6  C6  UNL     1       6.586  11.688  43.996  1.00  0.00     0.179 C 
HETATM    7  O2  UNL     1       6.113  10.385  43.960  1.00  0.00    -0.389 OA
HETATM    8  C7  UNL     1       4.820  10.933  43.784  1.00  0.00     0.179 C 
HETATM    9  C8  UNL     1       4.873  13.467  44.061  1.00  0.00     0.045 C 
ENDROOT
BRANCH   1  10
HETATM   10  O1  UNL     1       3.178  15.063  43.865  1.00  0.00    -0.396 OA
ATOM     11  H1  UNL     1       2.247  15.210  43.743  1.00  0.00     0.210 HD
ENDBRANCH   1  10
TORSDOF 1
ENDMDL
MODEL 4
REMARK VINA RESULT: -5.127474210      0.988      1.142
REMARK  1 active torsions:
REMARK  status: ('A' for Active; 'I' for Inactive)
REMARK    1  A    between atoms: O1_1  and  C1_3 
ROOT
HETATM    1  C1  UNL     1       4.698  13.628  42.626  1.00  0.00     0.119 C 
HETATM    2  C2  UNL     1       4.305  12.508  41.672  1.00  0.00     0.032 C 
HETATM    3  C3  UNL     1       5.109  11.294  42.070  1.00  0.00     0.004 C 
HETATM    4  C4  UNL     1       4.793  10.828  43.468  1.00  0.00     0.014 C 
HETATM    5  C5  UNL     1       5.116  11.932  44.418  1.00  0.00     0.005 C 
HETATM    6  C6  UNL     1       4.961  11.635  45.882  1.00  0.00     0.179 C 
HETATM    7  O2  UNL     1       6.271  11.183  45.894  1.00  0.00    -0.389 OA
HETATM    8  C7  UNL     1       6.523  12.097  44.844  1.00  0.00     0.179 C 
HETATM    9  C8  UNL     1       4.349  13.154  44.031  1.00  0.00     0.045 C 
ENDROOT
BRANCH   1  10
HETATM   10  O1  UNL     1       3.955  14.774  42.395  1.00  0.00    -0.396 OA
ATOM     11  H1  UNL     1       3.899  14.972  41.467  1.00  0.00     0.210 HD
ENDBRANCH   1  10
TORSDOF 1
ENDMDL
MODEL 5
REMARK VINA RESULT: -4.921134738      2.104      2.778
REMARK  1 active torsions:
REMARK  status: ('A' for Active; 'I' for Inactive)
REMARK    1  A    between atoms: O1_1  and  C1_3 
ROOT
HETATM    1  C1  UNL     1       5.427  12.022  45.916  1.00  0.00     0.119 C 
HETATM    2  C2  UNL     1       4.265  12.428  45.019  1.00  0.00     0.032 C 
HETATM    3  C3  UNL     1       4.842  12.691  43.649  1.00  0.00     0.004 C 
HETATM    4  C4  UNL     1       5.471  11.462  43.045  1.00  0.00     0.014 C 
HETATM    5  C5  UNL     1       6.578  11.011  43.938  1.00  0.00     0.005 C 
HETATM    6  C6  UNL     1       7.401   9.847  43.463  1.00  0.00     0.179 C 
HETATM    7  O2  UNL     1       8.233  10.746  42.813  1.00  0.00    -0.389 OA
HETATM    8  C7  UNL     1       7.891  11.683  43.816  1.00  0.00     0.179 C 
HETATM    9  C8  UNL     1       6.036  10.765  45.308  1.00  0.00     0.045 C 
ENDROOT
BRANCH   1  10
HETATM   10  O1  UNL     1       4.991  11.680  47.186  1.00  0.00    -0.396 OA
ATOM     11  H1  UNL     1       4.672  12.439  47.660  1.00  0.00     0.210 HD
ENDBRANCH   1  10
TORSDOF 1
ENDMDL
