MODEL 1
REMARK VINA RESULT: -6.086681775      0.000      0.000
REMARK  6 active torsions:
REMARK  status: ('A' for Active; 'I' for Inactive)
REMARK    1  A    between atoms: N3_9  and  N4_10 
REMARK    2  A    between atoms: N4_10  and  C3_12 
REMARK    3  A    between atoms: C3_12  and  C4_13 
REMARK    4  A    between atoms: C5_15  and  N5_16 
REMARK    5  A    between atoms: C6_21  and  N8_22 
REMARK    6  A    between atoms: C9_33  and  N11_34 
ROOT
HETATM    1  C4  UNL     1      27.267 -35.362  11.993  1.00  0.00     0.237 C 
HETATM    2  O2  UNL     1      28.141 -34.594  11.190  1.00  0.00    -0.331 OA
HETATM    3  C5  UNL     1      27.207 -34.026  10.266  1.00  0.00     0.361 C 
HETATM    4  N10 UNL     1      26.547 -35.182   9.786  1.00  0.00    -0.314 N 
ATOM      5  H10 UNL     1      26.180 -35.341   8.848  1.00  0.00     0.167 HD
HETATM    6  C8  UNL     1      26.504 -36.095  10.919  1.00  0.00     0.251 C 
HETATM    7  O4  UNL     1      25.953 -37.217  10.958  1.00  0.00    -0.270 OA
ENDROOT
BRANCH   1   8
HETATM    8  C3  UNL     1      27.986 -36.289  12.906  1.00  0.00     0.181 C 
BRANCH   8   9
HETATM    9  N4  UNL     1      27.117 -37.186  13.596  1.00  0.00    -0.325 N 
ATOM     10  H4  UNL     1      27.135 -38.192  13.431  1.00  0.00     0.180 HD
BRANCH   9  11
HETATM   11  N3  UNL     1      26.255 -36.609  14.496  1.00  0.00    -0.208 N 
HETATM   12  C2  UNL     1      26.701 -36.244  15.829  1.00  0.00     0.344 C 
HETATM   13  N2  UNL     1      25.575 -36.241  16.692  1.00  0.00    -0.294 N 
HETATM   14  O1  UNL     1      27.889 -35.974  16.177  1.00  0.00    -0.245 OA
HETATM   15  C1  UNL     1      24.455 -36.601  15.883  1.00  0.00     0.131 C 
ATOM     16  H2  UNL     1      25.567 -36.024  17.689  1.00  0.00     0.172 HD
HETATM   17  N1  UNL     1      23.345 -37.131  16.275  1.00  0.00    -0.386 N 
HETATM   18  C9  UNL     1      24.878 -36.212  14.489  1.00  0.00     0.375 C 
ATOM     19  H12 UNL     1      23.059 -37.395  17.218  1.00  0.00     0.157 HD
ATOM     20  H11 UNL     1      22.544 -37.389  15.696  1.00  0.00     0.157 HD
BRANCH  18  21
HETATM   21  N11 UNL     1      24.047 -36.776  13.495  1.00  0.00    -0.049 N 
ATOM     22 3H11 UNL     1      24.478 -37.605  13.084  1.00  0.00     0.277 HD
ATOM     23 2H11 UNL     1      23.221 -37.208  13.909  1.00  0.00     0.277 HD
ATOM     24 1H11 UNL     1      23.787 -36.102  12.775  1.00  0.00     0.277 HD
ENDBRANCH  18  21
ENDBRANCH   9  11
ENDBRANCH   8   9
ENDBRANCH   1   8
BRANCH   3  25
HETATM   25  N5  UNL     1      27.903 -33.193   9.359  1.00  0.00    -0.179 N 
HETATM   26  N6  UNL     1      28.226 -33.768   8.178  1.00  0.00    -0.218 N 
HETATM   27  N7  UNL     1      28.877 -33.120   7.262  1.00  0.00    -0.117 N 
ATOM     28  H6  UNL     1      27.950 -34.735   8.003  1.00  0.00     0.209 HD
HETATM   29  C6  UNL     1      29.289 -31.857   7.377  1.00  0.00     0.695 A 
ATOM     30  H7  UNL     1      29.088 -33.612   6.393  1.00  0.00     0.207 HD
HETATM   31  N9  UNL     1      28.985 -31.237   8.550  1.00  0.00    -0.139 N 
HETATM   32  C7  UNL     1      28.298 -31.934   9.506  1.00  0.00     0.360 A 
ATOM     33  H9  UNL     1      29.265 -30.270   8.713  1.00  0.00     0.189 HD
HETATM   34  O3  UNL     1      28.061 -31.297  10.546  1.00  0.00    -0.244 OA
BRANCH  29  35
HETATM   35  N8  UNL     1      29.941 -31.238   6.437  1.00  0.00    -0.233 N 
ATOM     36  H82 UNL     1      29.668 -31.325   5.459  1.00  0.00     0.174 HD
ATOM     37  H81 UNL     1      30.749 -30.643   6.622  1.00  0.00     0.174 HD
ENDBRANCH  29  35
ENDBRANCH   3  25
TORSDOF 6
ENDMDL
MODEL 2
REMARK VINA RESULT: -5.967155015      2.113      7.252
REMARK  6 active torsions:
REMARK  status: ('A' for Active; 'I' for Inactive)
REMARK    1  A    between atoms: N3_9  and  N4_10 
REMARK    2  A    between atoms: N4_10  and  C3_12 
REMARK    3  A    between atoms: C3_12  and  C4_13 
REMARK    4  A    between atoms: C5_15  and  N5_16 
REMARK    5  A    between atoms: C6_21  and  N8_22 
REMARK    6  A    between atoms: C9_33  and  N11_34 
ROOT
HETATM    1  C4  UNL     1      25.291 -34.702  10.164  1.00  0.00     0.237 C 
HETATM    2  O2  UNL     1      26.362 -35.483  10.656  1.00  0.00    -0.331 OA
HETATM    3  C5  UNL     1      25.909 -35.725  11.992  1.00  0.00     0.361 C 
HETATM    4  N10 UNL     1      25.653 -34.409  12.445  1.00  0.00    -0.314 N 
ATOM      5  H10 UNL     1      25.775 -34.045  13.390  1.00  0.00     0.167 HD
HETATM    6  C8  UNL     1      25.178 -33.687  11.274  1.00  0.00     0.251 C 
HETATM    7  O4  UNL     1      24.777 -32.504  11.234  1.00  0.00    -0.270 OA
ENDROOT
BRANCH   1   8
HETATM    8  C3  UNL     1      25.591 -34.070   8.852  1.00  0.00     0.181 C 
BRANCH   8   9
HETATM    9  N4  UNL     1      26.100 -32.743   8.970  1.00  0.00    -0.325 N 
ATOM     10  H4  UNL     1      25.495 -31.947   9.175  1.00  0.00     0.180 HD
BRANCH   9  11
HETATM   11  N3  UNL     1      27.454 -32.603   8.791  1.00  0.00    -0.208 N 
HETATM   12  C2  UNL     1      28.253 -31.816   9.714  1.00  0.00     0.344 C 
HETATM   13  N2  UNL     1      29.407 -31.357   9.028  1.00  0.00    -0.294 N 
HETATM   14  O1  UNL     1      27.978 -31.572  10.927  1.00  0.00    -0.245 OA
HETATM   15  C1  UNL     1      29.304 -31.865   7.697  1.00  0.00     0.131 C 
ATOM     16  H2  UNL     1      30.158 -30.780   9.409  1.00  0.00     0.172 HD
HETATM   17  N1  UNL     1      29.856 -31.385   6.632  1.00  0.00    -0.386 N 
HETATM   18  C9  UNL     1      28.418 -33.076   7.841  1.00  0.00     0.375 C 
ATOM     19  H12 UNL     1      30.454 -30.566   6.535  1.00  0.00     0.157 HD
ATOM     20  H11 UNL     1      29.782 -31.748   5.681  1.00  0.00     0.157 HD
BRANCH  18  21
HETATM   21  N11 UNL     1      27.929 -33.539   6.599  1.00  0.00    -0.049 N 
ATOM     22 3H11 UNL     1      28.391 -33.066   5.823  1.00  0.00     0.277 HD
ATOM     23 2H11 UNL     1      28.238 -34.494   6.416  1.00  0.00     0.277 HD
ATOM     24 1H11 UNL     1      26.915 -33.461   6.525  1.00  0.00     0.277 HD
ENDBRANCH  18  21
ENDBRANCH   9  11
ENDBRANCH   8   9
ENDBRANCH   1   8
BRANCH   3  25
HETATM   25  N5  UNL     1      26.865 -36.522  12.666  1.00  0.00    -0.179 N 
HETATM   26  N6  UNL     1      27.432 -37.498  11.921  1.00  0.00    -0.218 N 
HETATM   27  N7  UNL     1      28.314 -38.308  12.419  1.00  0.00    -0.117 N 
ATOM     28  H6  UNL     1      27.159 -37.600  10.943  1.00  0.00     0.209 HD
HETATM   29  C6  UNL     1      28.747 -38.272  13.681  1.00  0.00     0.695 A 
ATOM     30  H7  UNL     1      28.703 -39.023  11.803  1.00  0.00     0.207 HD
HETATM   31  N9  UNL     1      28.204 -37.304  14.468  1.00  0.00    -0.139 N 
HETATM   32  C7  UNL     1      27.275 -36.457  13.926  1.00  0.00     0.360 A 
ATOM     33  H9  UNL     1      28.485 -37.211  15.444  1.00  0.00     0.189 HD
HETATM   34  O3  UNL     1      26.829 -35.603  14.711  1.00  0.00    -0.244 OA
BRANCH  29  35
HETATM   35  N8  UNL     1      29.633 -39.102  14.147  1.00  0.00    -0.233 N 
ATOM     36  H82 UNL     1      30.565 -38.786  14.412  1.00  0.00     0.174 HD
ATOM     37  H81 UNL     1      29.448 -40.098  14.272  1.00  0.00     0.174 HD
ENDBRANCH  29  35
ENDBRANCH   3  25
TORSDOF 6
ENDMDL
MODEL 3
REMARK VINA RESULT: -5.929863988      2.999      6.675
REMARK  6 active torsions:
REMARK  status: ('A' for Active; 'I' for Inactive)
REMARK    1  A    between atoms: N3_9  and  N4_10 
REMARK    2  A    between atoms: N4_10  and  C3_12 
REMARK    3  A    between atoms: C3_12  and  C4_13 
REMARK    4  A    between atoms: C5_15  and  N5_16 
REMARK    5  A    between atoms: C6_21  and  N8_22 
REMARK    6  A    between atoms: C9_33  and  N11_34 
ROOT
HETATM    1  C4  UNL     1      26.146 -36.917  14.334  1.00  0.00     0.237 C 
HETATM    2  O2  UNL     1      26.852 -37.591  13.311  1.00  0.00    -0.331 OA
HETATM    3  C5  UNL     1      27.723 -38.410  14.097  1.00  0.00     0.361 C 
HETATM    4  N10 UNL     1      28.332 -37.447  14.937  1.00  0.00    -0.314 N 
ATOM      5  H10 UNL     1      29.287 -37.453  15.296  1.00  0.00     0.167 HD
HETATM    6  C8  UNL     1      27.303 -36.447  15.181  1.00  0.00     0.251 C 
HETATM    7  O4  UNL     1      27.391 -35.446  15.924  1.00  0.00    -0.270 OA
ENDROOT
BRANCH   1   8
HETATM    8  C3  UNL     1      25.327 -35.787  13.824  1.00  0.00     0.181 C 
BRANCH   8   9
HETATM    9  N4  UNL     1      26.103 -34.645  13.467  1.00  0.00    -0.325 N 
ATOM     10  H4  UNL     1      26.554 -34.056  14.167  1.00  0.00     0.180 HD
BRANCH   9  11
HETATM   11  N3  UNL     1      26.205 -34.388  12.121  1.00  0.00    -0.208 N 
HETATM   12  C2  UNL     1      27.466 -34.561  11.422  1.00  0.00     0.344 C 
HETATM   13  N2  UNL     1      27.465 -33.715  10.282  1.00  0.00    -0.294 N 
HETATM   14  O1  UNL     1      28.414 -35.330  11.760  1.00  0.00    -0.245 OA
HETATM   15  C1  UNL     1      26.208 -33.037  10.295  1.00  0.00     0.131 C 
ATOM     16  H2  UNL     1      28.210 -33.614   9.593  1.00  0.00     0.172 HD
HETATM   17  N1  UNL     1      25.925 -31.904   9.743  1.00  0.00    -0.386 N 
HETATM   18  C9  UNL     1      25.311 -33.952  11.089  1.00  0.00     0.375 C 
ATOM     19  H12 UNL     1      26.532 -31.284   9.206  1.00  0.00     0.157 HD
ATOM     20  H11 UNL     1      25.027 -31.419   9.752  1.00  0.00     0.157 HD
BRANCH  18  21
HETATM   21  N11 UNL     1      24.114 -33.320  11.493  1.00  0.00    -0.049 N 
ATOM     22 3H11 UNL     1      23.445 -33.276  10.724  1.00  0.00     0.277 HD
ATOM     23 2H11 UNL     1      23.587 -33.912  12.136  1.00  0.00     0.277 HD
ATOM     24 1H11 UNL     1      24.276 -32.396  11.893  1.00  0.00     0.277 HD
ENDBRANCH  18  21
ENDBRANCH   9  11
ENDBRANCH   8   9
ENDBRANCH   1   8
BRANCH   3  25
HETATM   25  N5  UNL     1      28.528 -39.190  13.233  1.00  0.00    -0.179 N 
HETATM   26  N6  UNL     1      28.179 -39.150  11.927  1.00  0.00    -0.218 N 
HETATM   27  N7  UNL     1      28.824 -39.830  11.030  1.00  0.00    -0.117 N 
ATOM     28  H6  UNL     1      27.389 -38.572  11.640  1.00  0.00     0.209 HD
HETATM   29  C6  UNL     1      29.869 -40.619  11.286  1.00  0.00     0.695 A 
ATOM     30  H7  UNL     1      28.511 -39.756  10.062  1.00  0.00     0.207 HD
HETATM   31  N9  UNL     1      30.257 -40.689  12.589  1.00  0.00    -0.139 N 
HETATM   32  C7  UNL     1      29.565 -39.966  13.523  1.00  0.00     0.360 A 
ATOM     33  H9  UNL     1      31.048 -41.270  12.865  1.00  0.00     0.189 HD
HETATM   34  O3  UNL     1      29.982 -40.085  14.687  1.00  0.00    -0.244 OA
BRANCH  29  35
HETATM   35  N8  UNL     1      30.493 -41.288  10.361  1.00  0.00    -0.233 N 
ATOM     36  H82 UNL     1      31.180 -42.003  10.598  1.00  0.00     0.174 HD
ATOM     37  H81 UNL     1      30.333 -41.137   9.365  1.00  0.00     0.174 HD
ENDBRANCH  29  35
ENDBRANCH   3  25
TORSDOF 6
ENDMDL
MODEL 4
REMARK VINA RESULT: -5.904322628      2.138      3.295
REMARK  6 active torsions:
REMARK  status: ('A' for Active; 'I' for Inactive)
REMARK    1  A    between atoms: N3_9  and  N4_10 
REMARK    2  A    between atoms: N4_10  and  C3_12 
REMARK    3  A    between atoms: C3_12  and  C4_13 
REMARK    4  A    between atoms: C5_15  and  N5_16 
REMARK    5  A    between atoms: C6_21  and  N8_22 
REMARK    6  A    between atoms: C9_33  and  N11_34 
ROOT
HETATM    1  C4  UNL     1      27.316 -35.347  12.031  1.00  0.00     0.237 C 
HETATM    2  O2  UNL     1      28.176 -34.595  11.198  1.00  0.00    -0.331 OA
HETATM    3  C5  UNL     1      27.218 -33.974  10.335  1.00  0.00     0.361 C 
HETATM    4  N10 UNL     1      26.492 -35.096   9.868  1.00  0.00    -0.314 N 
ATOM      5  H10 UNL     1      26.072 -35.222   8.947  1.00  0.00     0.167 HD
HETATM    6  C8  UNL     1      26.472 -36.030  10.984  1.00  0.00     0.251 C 
HETATM    7  O4  UNL     1      25.882 -37.130  11.030  1.00  0.00    -0.270 OA
ENDROOT
BRANCH   1   8
HETATM    8  C3  UNL     1      28.045 -36.318  12.888  1.00  0.00     0.181 C 
BRANCH   8   9
HETATM    9  N4  UNL     1      27.267 -37.465  13.225  1.00  0.00    -0.325 N 
ATOM     10  H4  UNL     1      26.282 -37.396  13.482  1.00  0.00     0.180 HD
BRANCH   9  11
HETATM   11  N3  UNL     1      27.927 -38.669  13.184  1.00  0.00    -0.208 N 
HETATM   12  C2  UNL     1      28.700 -39.137  14.321  1.00  0.00     0.344 C 
HETATM   13  N2  UNL     1      29.699 -40.027  13.847  1.00  0.00    -0.294 N 
HETATM   14  O1  UNL     1      28.525 -38.814  15.533  1.00  0.00    -0.245 OA
HETATM   15  C1  UNL     1      29.528 -40.095  12.431  1.00  0.00     0.131 C 
ATOM     16  H2  UNL     1      30.397 -40.518  14.405  1.00  0.00     0.172 HD
HETATM   17  N1  UNL     1      30.418 -40.411  11.550  1.00  0.00    -0.386 N 
HETATM   18  C9  UNL     1      28.082 -39.722  12.223  1.00  0.00     0.375 C 
ATOM     19  H12 UNL     1      31.396 -40.663  11.690  1.00  0.00     0.157 HD
ATOM     20  H11 UNL     1      30.296 -40.460  10.538  1.00  0.00     0.157 HD
BRANCH  18  21
HETATM   21  N11 UNL     1      27.790 -39.416  10.875  1.00  0.00    -0.049 N 
ATOM     22 3H11 UNL     1      28.191 -38.518  10.607  1.00  0.00     0.277 HD
ATOM     23 2H11 UNL     1      28.309 -40.024  10.241  1.00  0.00     0.277 HD
ATOM     24 1H11 UNL     1      26.790 -39.446  10.676  1.00  0.00     0.277 HD
ENDBRANCH  18  21
ENDBRANCH   9  11
ENDBRANCH   8   9
ENDBRANCH   1   8
BRANCH   3  25
HETATM   25  N5  UNL     1      27.899 -33.149   9.408  1.00  0.00    -0.179 N 
HETATM   26  N6  UNL     1      28.204 -33.734   8.228  1.00  0.00    -0.218 N 
HETATM   27  N7  UNL     1      28.839 -33.095   7.296  1.00  0.00    -0.117 N 
ATOM     28  H6  UNL     1      27.928 -34.704   8.067  1.00  0.00     0.209 HD
HETATM   29  C6  UNL     1      29.250 -31.829   7.392  1.00  0.00     0.695 A 
ATOM     30  H7  UNL     1      29.038 -33.594   6.428  1.00  0.00     0.207 HD
HETATM   31  N9  UNL     1      28.963 -31.198   8.564  1.00  0.00    -0.139 N 
HETATM   32  C7  UNL     1      28.293 -31.888   9.537  1.00  0.00     0.360 A 
ATOM     33  H9  UNL     1      29.243 -30.229   8.713  1.00  0.00     0.189 HD
HETATM   34  O3  UNL     1      28.070 -31.241  10.574  1.00  0.00    -0.244 OA
BRANCH  29  35
HETATM   35  N8  UNL     1      29.886 -31.218   6.436  1.00  0.00    -0.233 N 
ATOM     36  H82 UNL     1      30.180 -31.714   5.595  1.00  0.00     0.174 HD
ATOM     37  H81 UNL     1      30.124 -30.227   6.474  1.00  0.00     0.174 HD
ENDBRANCH  29  35
ENDBRANCH   3  25
TORSDOF 6
ENDMDL
MODEL 5
REMARK VINA RESULT: -5.816691728      2.506      6.896
REMARK  6 active torsions:
REMARK  status: ('A' for Active; 'I' for Inactive)
REMARK    1  A    between atoms: N3_9  and  N4_10 
REMARK    2  A    between atoms: N4_10  and  C3_12 
REMARK    3  A    between atoms: C3_12  and  C4_13 
REMARK    4  A    between atoms: C5_15  and  N5_16 
REMARK    5  A    between atoms: C6_21  and  N8_22 
REMARK    6  A    between atoms: C9_33  and  N11_34 
ROOT
HETATM    1  C4  UNL     1      27.680 -35.346   7.583  1.00  0.00     0.237 C 
HETATM    2  O2  UNL     1      27.817 -34.994   8.946  1.00  0.00    -0.331 OA
HETATM    3  C5  UNL     1      26.826 -35.845   9.531  1.00  0.00     0.361 C 
HETATM    4  N10 UNL     1      25.682 -35.510   8.767  1.00  0.00    -0.314 N 
ATOM      5  H10 UNL     1      24.713 -35.479   9.084  1.00  0.00     0.167 HD
HETATM    6  C8  UNL     1      26.185 -35.222   7.432  1.00  0.00     0.251 C 
HETATM    7  O4  UNL     1      25.507 -34.942   6.420  1.00  0.00    -0.270 OA
ENDROOT
BRANCH   1   8
HETATM    8  C3  UNL     1      28.416 -34.430   6.672  1.00  0.00     0.181 C 
BRANCH   8   9
HETATM    9  N4  UNL     1      27.756 -33.180   6.478  1.00  0.00    -0.325 N 
ATOM     10  H4  UNL     1      27.137 -33.011   5.685  1.00  0.00     0.180 HD
BRANCH   9  11
HETATM   11  N3  UNL     1      28.007 -32.218   7.426  1.00  0.00    -0.208 N 
HETATM   12  C2  UNL     1      29.332 -31.641   7.573  1.00  0.00     0.344 C 
HETATM   13  N2  UNL     1      29.469 -31.169   8.904  1.00  0.00    -0.294 N 
HETATM   14  O1  UNL     1      30.223 -31.566   6.675  1.00  0.00    -0.245 OA
HETATM   15  C1  UNL     1      28.232 -31.460   9.556  1.00  0.00     0.131 C 
ATOM     16  H2  UNL     1      30.286 -30.714   9.312  1.00  0.00     0.172 HD
HETATM   17  N1  UNL     1      28.033 -31.611  10.823  1.00  0.00    -0.386 N 
HETATM   18  C9  UNL     1      27.237 -31.537   8.426  1.00  0.00     0.375 C 
ATOM     19  H12 UNL     1      28.706 -31.559  11.588  1.00  0.00     0.157 HD
ATOM     20  H11 UNL     1      27.149 -31.819  11.289  1.00  0.00     0.157 HD
BRANCH  18  21
HETATM   21  N11 UNL     1      26.017 -32.130   8.819  1.00  0.00    -0.049 N 
ATOM     22 3H11 UNL     1      25.706 -32.819   8.133  1.00  0.00     0.277 HD
ATOM     23 2H11 UNL     1      26.150 -32.746   9.621  1.00  0.00     0.277 HD
ATOM     24 1H11 UNL     1      25.289 -31.440   9.002  1.00  0.00     0.277 HD
ENDBRANCH  18  21
ENDBRANCH   9  11
ENDBRANCH   8   9
ENDBRANCH   1   8
BRANCH   3  25
HETATM   25  N5  UNL     1      26.814 -35.644  10.931  1.00  0.00    -0.179 N 
HETATM   26  N6  UNL     1      27.451 -36.590  11.657  1.00  0.00    -0.218 N 
HETATM   27  N7  UNL     1      27.503 -36.534  12.951  1.00  0.00    -0.117 N 
ATOM     28  H6  UNL     1      27.903 -37.368  11.174  1.00  0.00     0.209 HD
HETATM   29  C6  UNL     1      26.951 -35.569  13.689  1.00  0.00     0.695 A 
ATOM     30  H7  UNL     1      28.001 -37.280  13.439  1.00  0.00     0.207 HD
HETATM   31  N9  UNL     1      26.299 -34.593  13.001  1.00  0.00    -0.139 N 
HETATM   32  C7  UNL     1      26.254 -34.668  11.635  1.00  0.00     0.360 A 
ATOM     33  H9  UNL     1      25.852 -33.820  13.494  1.00  0.00     0.189 HD
HETATM   34  O3  UNL     1      25.640 -33.739  11.083  1.00  0.00    -0.244 OA
BRANCH  29  35
HETATM   35  N8  UNL     1      27.022 -35.545  14.988  1.00  0.00    -0.233 N 
ATOM     36  H82 UNL     1      27.905 -35.367  15.466  1.00  0.00     0.174 HD
ATOM     37  H81 UNL     1      26.214 -35.701  15.590  1.00  0.00     0.174 HD
ENDBRANCH  29  35
ENDBRANCH   3  25
TORSDOF 6
ENDMDL
