MODEL 1
REMARK VINA RESULT: -5.222711729      0.000      0.000
REMARK  10 active torsions:
REMARK  status: ('A' for Active; 'I' for Inactive)
REMARK    1  A    between atoms: N1_1  and  N2_4 
REMARK    2  A    between atoms: N2_4  and  C1_5 
REMARK    3  A    between atoms: C1_5  and  C2_6 
REMARK    4  A    between atoms: C2_6  and  O1_7 
REMARK    5  A    between atoms: C2_6  and  N3_9 
REMARK    6  A    between atoms: N3_9  and  N4_10 
REMARK    7  A    between atoms: C3_12  and  C4_13 
REMARK    8  A    between atoms: C4_13  and  C5_15 
REMARK    9  A    between atoms: C5_15  and  C6_16 
REMARK       I    between atoms: C6_16  and  N5_18 
REMARK   10  A    between atoms: N5_18  and  C7_20 
ROOT
HETATM    1  N4  UNL     1      12.641  -8.123 -36.957  1.00  0.00    -0.241 N 
ATOM      2  H4  UNL     1      13.347  -8.859 -36.959  1.00  0.00     0.201 HD
HETATM    3  C3  UNL     1      12.612  -7.246 -37.907  1.00  0.00     0.171 C 
ENDROOT
BRANCH   3   4
HETATM    4  C4  UNL     1      13.508  -7.220 -39.002  1.00  0.00     0.175 C 
HETATM    5  O2  UNL     1      14.769  -7.218 -38.734  1.00  0.00    -0.291 OA
BRANCH   4   6
HETATM    6  C5  UNL     1      13.109  -7.177 -40.409  1.00  0.00     0.187 C 
BRANCH   6   7
HETATM    7  C6  UNL     1      11.675  -6.792 -40.576  1.00  0.00     0.229 C 
HETATM    8  O3  UNL     1      10.830  -7.708 -40.680  1.00  0.00    -0.273 OA
HETATM    9  N5  UNL     1      11.244  -5.461 -40.626  1.00  0.00    -0.326 N 
ATOM     10  H5  UNL     1      11.955  -4.736 -40.528  1.00  0.00     0.169 HD
BRANCH   9  11
HETATM   11  C7  UNL     1       9.870  -5.023 -40.804  1.00  0.00     0.041 A 
HETATM   12  C8  UNL     1       9.112  -4.519 -39.808  1.00  0.00     0.037 A 
HETATM   13  C9  UNL     1       7.848  -4.089 -40.126  1.00  0.00     0.052 A 
HETATM   14  S1  UNL     1       7.746  -4.396 -41.797  1.00  0.00    -0.111 SA
HETATM   15  C10 UNL     1       9.282  -5.052 -42.057  1.00  0.00     0.079 A 
ENDBRANCH   9  11
ENDBRANCH   6   7
ENDBRANCH   4   6
ENDBRANCH   3   4
BRANCH   1  16
HETATM   16  N3  UNL     1      11.697  -8.053 -35.929  1.00  0.00    -0.304 NA
BRANCH  16  17
HETATM   17  C2  UNL     1      10.823  -7.987 -34.980  1.00  0.00     0.230 C 
BRANCH  17  18
HETATM   18  C1  UNL     1       9.307  -8.085 -35.209  1.00  0.00     0.236 C 
BRANCH  18  19
HETATM   19  N2  UNL     1       8.815  -6.735 -35.285  1.00  0.00    -0.139 NA
BRANCH  19  20
HETATM   20  N1  UNL     1       9.638  -5.931 -36.098  1.00  0.00    -0.348 N 
ATOM     21  H12 UNL     1      10.162  -5.129 -35.748  1.00  0.00     0.172 HD
ATOM     22  H11 UNL     1       9.638  -6.255 -37.065  1.00  0.00     0.172 HD
ENDBRANCH  19  20
ENDBRANCH  18  19
ENDBRANCH  17  18
BRANCH  17  23
HETATM   23  O1  UNL     1      11.046  -7.829 -33.700  1.00  0.00    -0.336 OA
ATOM     24  H1  UNL     1      11.485  -8.604 -33.368  1.00  0.00     0.220 HD
ENDBRANCH  17  23
ENDBRANCH  16  17
ENDBRANCH   1  16
TORSDOF 10
ENDMDL
MODEL 2
REMARK VINA RESULT: -5.059580305      3.083      4.142
REMARK  10 active torsions:
REMARK  status: ('A' for Active; 'I' for Inactive)
REMARK    1  A    between atoms: N1_1  and  N2_4 
REMARK    2  A    between atoms: N2_4  and  C1_5 
REMARK    3  A    between atoms: C1_5  and  C2_6 
REMARK    4  A    between atoms: C2_6  and  O1_7 
REMARK    5  A    between atoms: C2_6  and  N3_9 
REMARK    6  A    between atoms: N3_9  and  N4_10 
REMARK    7  A    between atoms: C3_12  and  C4_13 
REMARK    8  A    between atoms: C4_13  and  C5_15 
REMARK    9  A    between atoms: C5_15  and  C6_16 
REMARK       I    between atoms: C6_16  and  N5_18 
REMARK   10  A    between atoms: N5_18  and  C7_20 
ROOT
HETATM    1  N4  UNL     1      10.730  -6.339 -37.901  1.00  0.00    -0.241 N 
ATOM      2  H4  UNL     1      10.924  -6.600 -38.868  1.00  0.00     0.201 HD
HETATM    3  C3  UNL     1      10.012  -5.296 -37.640  1.00  0.00     0.171 C 
ENDROOT
BRANCH   3   4
HETATM    4  C4  UNL     1       9.438  -4.451 -38.618  1.00  0.00     0.175 C 
HETATM    5  O2  UNL     1       9.190  -3.233 -38.276  1.00  0.00    -0.291 OA
BRANCH   4   6
HETATM    6  C5  UNL     1       9.091  -4.861 -39.980  1.00  0.00     0.187 C 
BRANCH   6   7
HETATM    7  C6  UNL     1       7.970  -4.048 -40.544  1.00  0.00     0.229 C 
HETATM    8  O3  UNL     1       8.112  -3.570 -41.690  1.00  0.00    -0.273 OA
HETATM    9  N5  UNL     1       6.783  -3.800 -39.845  1.00  0.00    -0.326 N 
ATOM     10  H5  UNL     1       6.692  -4.212 -38.917  1.00  0.00     0.169 HD
BRANCH   9  11
HETATM   11  C7  UNL     1       5.667  -3.005 -40.330  1.00  0.00     0.041 A 
HETATM   12  C8  UNL     1       4.648  -3.512 -41.054  1.00  0.00     0.037 A 
HETATM   13  C9  UNL     1       3.628  -2.662 -41.400  1.00  0.00     0.052 A 
HETATM   14  S1  UNL     1       4.111  -1.182 -40.711  1.00  0.00    -0.111 SA
HETATM   15  C10 UNL     1       5.572  -1.662 -40.009  1.00  0.00     0.079 A 
ENDBRANCH   9  11
ENDBRANCH   6   7
ENDBRANCH   4   6
ENDBRANCH   3   4
BRANCH   1  16
HETATM   16  N3  UNL     1      11.238  -7.105 -36.848  1.00  0.00    -0.304 NA
BRANCH  16  17
HETATM   17  C2  UNL     1      11.710  -7.813 -35.877  1.00  0.00     0.230 C 
BRANCH  17  18
HETATM   18  C1  UNL     1      11.067  -7.885 -34.483  1.00  0.00     0.236 C 
BRANCH  18  19
HETATM   19  N2  UNL     1       9.800  -7.209 -34.580  1.00  0.00    -0.139 NA
BRANCH  19  20
HETATM   20  N1  UNL     1       8.760  -8.104 -34.895  1.00  0.00    -0.348 N 
ATOM     21  H12 UNL     1       8.716  -8.630 -35.769  1.00  0.00     0.172 HD
ATOM     22  H11 UNL     1       8.071  -8.155 -34.145  1.00  0.00     0.172 HD
ENDBRANCH  19  20
ENDBRANCH  18  19
ENDBRANCH  17  18
BRANCH  17  23
HETATM   23  O1  UNL     1      12.778  -8.571 -35.887  1.00  0.00    -0.336 OA
ATOM     24  H1  UNL     1      13.547  -8.014 -35.842  1.00  0.00     0.220 HD
ENDBRANCH  17  23
ENDBRANCH  16  17
ENDBRANCH   1  16
TORSDOF 10
ENDMDL
MODEL 3
REMARK VINA RESULT: -5.042602920      1.325      1.436
REMARK  10 active torsions:
REMARK  status: ('A' for Active; 'I' for Inactive)
REMARK    1  A    between atoms: N1_1  and  N2_4 
REMARK    2  A    between atoms: N2_4  and  C1_5 
REMARK    3  A    between atoms: C1_5  and  C2_6 
REMARK    4  A    between atoms: C2_6  and  O1_7 
REMARK    5  A    between atoms: C2_6  and  N3_9 
REMARK    6  A    between atoms: N3_9  and  N4_10 
REMARK    7  A    between atoms: C3_12  and  C4_13 
REMARK    8  A    between atoms: C4_13  and  C5_15 
REMARK    9  A    between atoms: C5_15  and  C6_16 
REMARK       I    between atoms: C6_16  and  N5_18 
REMARK   10  A    between atoms: N5_18  and  C7_20 
ROOT
HETATM    1  N4  UNL     1      12.893  -8.321 -37.413  1.00  0.00    -0.241 N 
ATOM      2  H4  UNL     1      13.664  -8.969 -37.571  1.00  0.00     0.201 HD
HETATM    3  C3  UNL     1      12.533  -7.498 -38.342  1.00  0.00     0.171 C 
ENDROOT
BRANCH   3   4
HETATM    4  C4  UNL     1      13.134  -7.417 -39.620  1.00  0.00     0.175 C 
HETATM    5  O2  UNL     1      14.398  -7.663 -39.696  1.00  0.00    -0.291 OA
BRANCH   4   6
HETATM    6  C5  UNL     1      12.434  -7.061 -40.855  1.00  0.00     0.187 C 
BRANCH   6   7
HETATM    7  C6  UNL     1      11.513  -5.899 -40.664  1.00  0.00     0.229 C 
HETATM    8  O3  UNL     1      12.001  -4.749 -40.718  1.00  0.00    -0.273 OA
HETATM    9  N5  UNL     1      10.141  -6.046 -40.426  1.00  0.00    -0.326 N 
ATOM     10  H5  UNL     1       9.772  -6.996 -40.399  1.00  0.00     0.169 HD
BRANCH   9  11
HETATM   11  C7  UNL     1       9.199  -4.961 -40.215  1.00  0.00     0.041 A 
HETATM   12  C8  UNL     1       9.063  -4.308 -39.042  1.00  0.00     0.037 A 
HETATM   13  C9  UNL     1       8.176  -3.263 -38.995  1.00  0.00     0.052 A 
HETATM   14  S1  UNL     1       7.555  -3.213 -40.578  1.00  0.00    -0.111 SA
HETATM   15  C10 UNL     1       8.418  -4.497 -41.260  1.00  0.00     0.079 A 
ENDBRANCH   9  11
ENDBRANCH   6   7
ENDBRANCH   4   6
ENDBRANCH   3   4
BRANCH   1  16
HETATM   16  N3  UNL     1      12.216  -8.315 -36.190  1.00  0.00    -0.304 NA
BRANCH  16  17
HETATM   17  C2  UNL     1      11.590  -8.311 -35.060  1.00  0.00     0.230 C 
BRANCH  17  18
HETATM   18  C1  UNL     1      10.841  -7.090 -34.505  1.00  0.00     0.236 C 
BRANCH  18  19
HETATM   19  N2  UNL     1       9.573  -7.044 -35.183  1.00  0.00    -0.139 NA
BRANCH  19  20
HETATM   20  N1  UNL     1       8.761  -8.141 -34.837  1.00  0.00    -0.348 N 
ATOM     21  H12 UNL     1       9.125  -9.006 -34.436  1.00  0.00     0.172 HD
ATOM     22  H11 UNL     1       7.778  -7.956 -35.037  1.00  0.00     0.172 HD
ENDBRANCH  19  20
ENDBRANCH  18  19
ENDBRANCH  17  18
BRANCH  17  23
HETATM   23  O1  UNL     1      11.480  -9.298 -34.206  1.00  0.00    -0.336 OA
ATOM     24  H1  UNL     1      10.928  -9.971 -34.587  1.00  0.00     0.220 HD
ENDBRANCH  17  23
ENDBRANCH  16  17
ENDBRANCH   1  16
TORSDOF 10
ENDMDL
MODEL 4
REMARK VINA RESULT: -5.032392641      2.977      4.173
REMARK  10 active torsions:
REMARK  status: ('A' for Active; 'I' for Inactive)
REMARK    1  A    between atoms: N1_1  and  N2_4 
REMARK    2  A    between atoms: N2_4  and  C1_5 
REMARK    3  A    between atoms: C1_5  and  C2_6 
REMARK    4  A    between atoms: C2_6  and  O1_7 
REMARK    5  A    between atoms: C2_6  and  N3_9 
REMARK    6  A    between atoms: N3_9  and  N4_10 
REMARK    7  A    between atoms: C3_12  and  C4_13 
REMARK    8  A    between atoms: C4_13  and  C5_15 
REMARK    9  A    between atoms: C5_15  and  C6_16 
REMARK       I    between atoms: C6_16  and  N5_18 
REMARK   10  A    between atoms: N5_18  and  C7_20 
ROOT
HETATM    1  N4  UNL     1      10.782  -6.483 -37.883  1.00  0.00    -0.241 N 
ATOM      2  H4  UNL     1      11.027  -6.768 -38.831  1.00  0.00     0.201 HD
HETATM    3  C3  UNL     1      10.001  -5.472 -37.688  1.00  0.00     0.171 C 
ENDROOT
BRANCH   3   4
HETATM    4  C4  UNL     1       9.421  -4.695 -38.718  1.00  0.00     0.175 C 
HETATM    5  O2  UNL     1       9.362  -5.222 -39.894  1.00  0.00    -0.291 OA
BRANCH   4   6
HETATM    6  C5  UNL     1       8.902  -3.337 -38.552  1.00  0.00     0.187 C 
BRANCH   6   7
HETATM    7  C6  UNL     1       7.925  -2.973 -39.624  1.00  0.00     0.229 C 
HETATM    8  O3  UNL     1       8.177  -1.974 -40.332  1.00  0.00    -0.273 OA
HETATM    9  N5  UNL     1       6.750  -3.696 -39.861  1.00  0.00    -0.326 N 
ATOM     10  H5  UNL     1       6.577  -4.512 -39.274  1.00  0.00     0.169 HD
BRANCH   9  11
HETATM   11  C7  UNL     1       5.755  -3.384 -40.872  1.00  0.00     0.041 A 
HETATM   12  C8  UNL     1       5.799  -3.857 -42.135  1.00  0.00     0.037 A 
HETATM   13  C9  UNL     1       4.764  -3.531 -42.973  1.00  0.00     0.052 A 
HETATM   14  S1  UNL     1       3.757  -2.576 -41.989  1.00  0.00    -0.111 SA
HETATM   15  C10 UNL     1       4.652  -2.608 -40.555  1.00  0.00     0.079 A 
ENDBRANCH   9  11
ENDBRANCH   6   7
ENDBRANCH   4   6
ENDBRANCH   3   4
BRANCH   1  16
HETATM   16  N3  UNL     1      11.289  -7.182 -36.784  1.00  0.00    -0.304 NA
BRANCH  16  17
HETATM   17  C2  UNL     1      11.759  -7.830 -35.770  1.00  0.00     0.230 C 
BRANCH  17  18
HETATM   18  C1  UNL     1      11.054  -7.907 -34.407  1.00  0.00     0.236 C 
BRANCH  18  19
HETATM   19  N2  UNL     1       9.799  -7.220 -34.554  1.00  0.00    -0.139 NA
BRANCH  19  20
HETATM   20  N1  UNL     1       8.758  -8.110 -34.881  1.00  0.00    -0.348 N 
ATOM     21  H12 UNL     1       8.501  -8.347 -35.840  1.00  0.00     0.172 HD
ATOM     22  H11 UNL     1       8.305  -8.479 -34.045  1.00  0.00     0.172 HD
ENDBRANCH  19  20
ENDBRANCH  18  19
ENDBRANCH  17  18
BRANCH  17  23
HETATM   23  O1  UNL     1      12.875  -8.511 -35.706  1.00  0.00    -0.336 OA
ATOM     24  H1  UNL     1      13.448  -8.100 -35.067  1.00  0.00     0.220 HD
ENDBRANCH  17  23
ENDBRANCH  16  17
ENDBRANCH   1  16
TORSDOF 10
ENDMDL
MODEL 5
REMARK VINA RESULT: -5.009504000      1.809      2.042
REMARK  10 active torsions:
REMARK  status: ('A' for Active; 'I' for Inactive)
REMARK    1  A    between atoms: N1_1  and  N2_4 
REMARK    2  A    between atoms: N2_4  and  C1_5 
REMARK    3  A    between atoms: C1_5  and  C2_6 
REMARK    4  A    between atoms: C2_6  and  O1_7 
REMARK    5  A    between atoms: C2_6  and  N3_9 
REMARK    6  A    between atoms: N3_9  and  N4_10 
REMARK    7  A    between atoms: C3_12  and  C4_13 
REMARK    8  A    between atoms: C4_13  and  C5_15 
REMARK    9  A    between atoms: C5_15  and  C6_16 
REMARK       I    between atoms: C6_16  and  N5_18 
REMARK   10  A    between atoms: N5_18  and  C7_20 
ROOT
HETATM    1  N4  UNL     1      12.847  -8.419 -37.528  1.00  0.00    -0.241 N 
ATOM      2  H4  UNL     1      13.273  -9.288 -37.849  1.00  0.00     0.201 HD
HETATM    3  C3  UNL     1      12.788  -7.393 -38.311  1.00  0.00     0.171 C 
ENDROOT
BRANCH   3   4
HETATM    4  C4  UNL     1      13.277  -7.368 -39.639  1.00  0.00     0.175 C 
HETATM    5  O2  UNL     1      14.541  -7.563 -39.808  1.00  0.00    -0.291 OA
BRANCH   4   6
HETATM    6  C5  UNL     1      12.460  -7.122 -40.828  1.00  0.00     0.187 C 
BRANCH   6   7
HETATM    7  C6  UNL     1      11.545  -5.954 -40.650  1.00  0.00     0.229 C 
HETATM    8  O3  UNL     1      12.013  -4.809 -40.835  1.00  0.00    -0.273 OA
HETATM    9  N5  UNL     1      10.201  -6.088 -40.284  1.00  0.00    -0.326 N 
ATOM     10  H5  UNL     1       9.846  -7.034 -40.151  1.00  0.00     0.169 HD
BRANCH   9  11
HETATM   11  C7  UNL     1       9.267  -4.993 -40.079  1.00  0.00     0.041 A 
HETATM   12  C8  UNL     1       9.162  -4.310 -38.920  1.00  0.00     0.037 A 
HETATM   13  C9  UNL     1       8.279  -3.261 -38.878  1.00  0.00     0.052 A 
HETATM   14  S1  UNL     1       7.620  -3.249 -40.447  1.00  0.00    -0.111 SA
HETATM   15  C10 UNL     1       8.463  -4.554 -41.116  1.00  0.00     0.079 A 
ENDBRANCH   9  11
ENDBRANCH   6   7
ENDBRANCH   4   6
ENDBRANCH   3   4
BRANCH   1  16
HETATM   16  N3  UNL     1      12.321  -8.327 -36.236  1.00  0.00    -0.304 NA
BRANCH  16  17
HETATM   17  C2  UNL     1      11.834  -8.243 -35.043  1.00  0.00     0.230 C 
BRANCH  17  18
HETATM   18  C1  UNL     1      11.590  -6.913 -34.313  1.00  0.00     0.236 C 
BRANCH  18  19
HETATM   19  N2  UNL     1      12.664  -6.762 -33.366  1.00  0.00    -0.139 NA
BRANCH  19  20
HETATM   20  N1  UNL     1      13.850  -7.363 -33.830  1.00  0.00    -0.348 N 
ATOM     21  H12 UNL     1      14.757  -6.895 -33.824  1.00  0.00     0.172 HD
ATOM     22  H11 UNL     1      13.681  -8.311 -34.167  1.00  0.00     0.172 HD
ENDBRANCH  19  20
ENDBRANCH  18  19
ENDBRANCH  17  18
BRANCH  17  23
HETATM   23  O1  UNL     1      11.472  -9.226 -34.257  1.00  0.00    -0.336 OA
ATOM     24  H1  UNL     1      11.744 -10.048 -34.651  1.00  0.00     0.220 HD
ENDBRANCH  17  23
ENDBRANCH  16  17
ENDBRANCH   1  16
TORSDOF 10
ENDMDL
