MODEL 1
REMARK VINA RESULT: -7.289056863      0.000      0.000
REMARK  14 active torsions:
REMARK  status: ('A' for Active; 'I' for Inactive)
REMARK    1  A    between atoms: C3_4  and  N2_5 
REMARK    2  A    between atoms: C4_9  and  N5_10 
REMARK       I    between atoms: N5_10  and  C5_12 
REMARK       I    between atoms: C5_12  and  N6_14 
REMARK    3  A    between atoms: N6_14  and  N7_16 
REMARK    4  A    between atoms: C6_23  and  O2_24 
REMARK    5  A    between atoms: C7_26  and  C8_27 
REMARK    6  A    between atoms: C8_27  and  O3_28 
REMARK    7  A    between atoms: C8_27  and  N10_30 
REMARK    8  A    between atoms: N10_30  and  C9_32 
REMARK    9  A    between atoms: C9_32  and  C10_33 
REMARK   10  A    between atoms: C9_32  and  C11_36 
REMARK   11  A    between atoms: C10_33  and  O4_34 
REMARK   12  A    between atoms: C11_36  and  O5_37 
REMARK   13  A    between atoms: C12_39  and  N11_40 
REMARK   14  A    between atoms: N11_40  and  C13_42 
ROOT
HETATM    1  N1  UNL     1       6.199  -6.402  -1.414  1.00  0.00    -0.191 NA
HETATM    2  C1  UNL     1       7.327  -6.362  -1.594  1.00  0.00     0.105 C 
HETATM    3  C2  UNL     1       8.741  -6.277  -1.819  1.00  0.00     0.119 A 
HETATM    4  C3  UNL     1       9.281  -5.012  -1.909  1.00  0.00     0.169 A 
HETATM    5  N9  UNL     1      10.598  -4.858  -2.119  1.00  0.00    -0.319 N 
ATOM      6  H9  UNL     1      10.995  -3.922  -2.185  1.00  0.00     0.169 HD
HETATM    7  C6  UNL     1      11.397  -5.934  -2.244  1.00  0.00     0.158 A 
HETATM    8  C7  UNL     1      10.915  -7.208  -2.163  1.00  0.00     0.093 A 
HETATM    9  C12 UNL     1       9.541  -7.391  -1.944  1.00  0.00     0.077 A 
ENDROOT
BRANCH   4  10
HETATM   10  N2  UNL     1       8.508  -3.821  -1.790  1.00  0.00    -0.147 N 
HETATM   11  N3  UNL     1       7.828  -3.319  -2.821  1.00  0.00     0.018 NA
HETATM   12  N4  UNL     1       7.199  -2.204  -2.422  1.00  0.00    -0.113 N 
HETATM   13  C4  UNL     1       7.489  -2.009  -1.122  1.00  0.00     0.715 A 
ATOM     14  H4  UNL     1       6.605  -1.610  -3.000  1.00  0.00     0.203 HD
HETATM   15  N8  UNL     1       8.297  -3.028  -0.778  1.00  0.00    -0.109 N 
ATOM     16  H8  UNL     1       8.693  -3.162   0.152  1.00  0.00     0.207 HD
BRANCH  13  17
HETATM   17  N5  UNL     1       7.099  -1.059  -0.332  1.00  0.00    -0.138 N 
HETATM   18  C5  UNL     1       7.548   0.265  -0.436  1.00  0.00     0.352 C 
HETATM   19  O1  UNL     1       7.198   1.002  -1.391  1.00  0.00    -0.245 OA
HETATM   20  N6  UNL     1       8.420   0.763   0.574  1.00  0.00    -0.258 N 
ATOM     21  H6  UNL     1       8.703   0.163   1.349  1.00  0.00     0.191 HD
ATOM     22  H5  UNL     1       6.431  -1.287   0.405  1.00  0.00     0.189 HD
BRANCH  20  23
HETATM   23  N7  UNL     1       8.881   2.067   0.500  1.00  0.00    -0.341 N 
ATOM     24  H72 UNL     1       8.938   2.523  -0.412  1.00  0.00     0.177 HD
ATOM     25  H71 UNL     1       9.157   2.554   1.351  1.00  0.00     0.177 HD
ENDBRANCH  20  23
ENDBRANCH  13  17
ENDBRANCH   4  10
BRANCH   9  26
HETATM   26  N11 UNL     1       9.134  -8.558  -1.879  1.00  0.00    -0.343 N 
ATOM     27  H11 UNL     1       9.319  -8.927  -0.946  1.00  0.00     0.167 HD
BRANCH  26  28
HETATM   28  C13 UNL     1       8.524  -9.514  -2.628  1.00  0.00     0.105 C 
HETATM   29  N12 UNL     1       9.078 -10.324  -3.503  1.00  0.00    -0.355 N 
HETATM   30  C14 UNL     1       8.073 -11.191  -4.079  1.00  0.00     0.356 C 
ATOM     31  H12 UNL     1      10.070 -10.338  -3.742  1.00  0.00     0.162 HD
HETATM   32  N13 UNL     1       6.879 -10.365  -3.977  1.00  0.00    -0.053 N 
HETATM   33  C15 UNL     1       7.049  -9.832  -2.620  1.00  0.00     0.309 C 
ATOM     34 2H13 UNL     1       6.755  -9.671  -4.714  1.00  0.00     0.279 HD
ATOM     35 1H13 UNL     1       5.995 -10.839  -4.160  1.00  0.00     0.279 HD
ENDBRANCH  26  28
ENDBRANCH   9  26
BRANCH   8  36
HETATM   36  C8  UNL     1      11.836  -8.332  -2.311  1.00  0.00     0.153 C 
BRANCH  36  37
HETATM   37  O3  UNL     1      11.762  -9.052  -3.487  1.00  0.00    -0.346 OA
ATOM     38  H3  UNL     1      12.583  -9.253  -3.922  1.00  0.00     0.219 HD
ENDBRANCH  36  37
BRANCH  36  39
HETATM   39  N10 UNL     1      12.674  -8.658  -1.424  1.00  0.00    -0.361 N 
ATOM     40  H10 UNL     1      13.078  -7.873  -0.913  1.00  0.00     0.162 HD
BRANCH  39  41
HETATM   41  C9  UNL     1      13.144  -9.923  -1.024  1.00  0.00     0.130 C 
BRANCH  41  42
HETATM   42  C10 UNL     1      12.256 -11.101  -1.327  1.00  0.00     0.191 C 
BRANCH  42  43
HETATM   43  O4  UNL     1      12.771 -11.671  -2.517  1.00  0.00    -0.399 OA
ATOM     44  H4  UNL     1      12.246 -11.311  -3.221  1.00  0.00     0.209 HD
ENDBRANCH  42  43
ENDBRANCH  41  42
BRANCH  41  45
HETATM   45  C11 UNL     1      14.514 -10.259  -1.630  1.00  0.00     0.191 C 
BRANCH  45  46
HETATM   46  O5  UNL     1      14.652  -9.486  -2.764  1.00  0.00    -0.399 OA
ATOM     47  H5  UNL     1      14.870 -10.077  -3.477  1.00  0.00     0.209 HD
ENDBRANCH  45  46
ENDBRANCH  41  45
ENDBRANCH  39  41
ENDBRANCH  36  39
ENDBRANCH   8  36
BRANCH   7  48
HETATM   48  O2  UNL     1      12.767  -5.689  -2.462  1.00  0.00    -0.345 OA
ATOM     49  H2  UNL     1      13.378  -6.081  -1.849  1.00  0.00     0.219 HD
ENDBRANCH   7  48
TORSDOF 14
ENDMDL
MODEL 2
REMARK VINA RESULT: -7.268060525      3.199      8.546
REMARK  14 active torsions:
REMARK  status: ('A' for Active; 'I' for Inactive)
REMARK    1  A    between atoms: C3_4  and  N2_5 
REMARK    2  A    between atoms: C4_9  and  N5_10 
REMARK       I    between atoms: N5_10  and  C5_12 
REMARK       I    between atoms: C5_12  and  N6_14 
REMARK    3  A    between atoms: N6_14  and  N7_16 
REMARK    4  A    between atoms: C6_23  and  O2_24 
REMARK    5  A    between atoms: C7_26  and  C8_27 
REMARK    6  A    between atoms: C8_27  and  O3_28 
REMARK    7  A    between atoms: C8_27  and  N10_30 
REMARK    8  A    between atoms: N10_30  and  C9_32 
REMARK    9  A    between atoms: C9_32  and  C10_33 
REMARK   10  A    between atoms: C9_32  and  C11_36 
REMARK   11  A    between atoms: C10_33  and  O4_34 
REMARK   12  A    between atoms: C11_36  and  O5_37 
REMARK   13  A    between atoms: C12_39  and  N11_40 
REMARK   14  A    between atoms: N11_40  and  C13_42 
ROOT
HETATM    1  N1  UNL     1      12.030  -5.293  -2.241  1.00  0.00    -0.191 NA
HETATM    2  C1  UNL     1      11.061  -5.872  -2.419  1.00  0.00     0.105 C 
HETATM    3  C2  UNL     1       9.862  -6.628  -2.637  1.00  0.00     0.119 A 
HETATM    4  C3  UNL     1       9.968  -8.000  -2.555  1.00  0.00     0.169 A 
HETATM    5  N9  UNL     1       8.886  -8.769  -2.749  1.00  0.00    -0.319 N 
ATOM      6  H9  UNL     1       8.967  -9.783  -2.688  1.00  0.00     0.169 HD
HETATM    7  C6  UNL     1       7.692  -8.209  -3.024  1.00  0.00     0.158 A 
HETATM    8  C7  UNL     1       7.532  -6.856  -3.116  1.00  0.00     0.093 A 
HETATM    9  C12 UNL     1       8.651  -6.035  -2.918  1.00  0.00     0.077 A 
ENDROOT
BRANCH   4  10
HETATM   10  N2  UNL     1      11.191  -8.674  -2.270  1.00  0.00    -0.147 N 
HETATM   11  N3  UNL     1      11.753  -8.627  -1.062  1.00  0.00     0.018 NA
HETATM   12  N4  UNL     1      12.885  -9.346  -1.085  1.00  0.00    -0.113 N 
HETATM   13  C4  UNL     1      13.029  -9.850  -2.325  1.00  0.00     0.715 A 
ATOM     14  H4  UNL     1      13.522  -9.487  -0.302  1.00  0.00     0.203 HD
HETATM   15  N8  UNL     1      11.964  -9.409  -3.017  1.00  0.00    -0.109 N 
ATOM     16  H8  UNL     1      11.785  -9.622  -3.999  1.00  0.00     0.207 HD
BRANCH  13  17
HETATM   17  N5  UNL     1      13.974 -10.601  -2.797  1.00  0.00    -0.138 N 
HETATM   18  C5  UNL     1      15.337 -10.308  -2.653  1.00  0.00     0.352 C 
HETATM   19  O1  UNL     1      15.912 -10.392  -1.540  1.00  0.00    -0.245 OA
HETATM   20  N6  UNL     1      16.066  -9.906  -3.809  1.00  0.00    -0.258 N 
ATOM     21  H6  UNL     1      15.597  -9.837  -4.712  1.00  0.00     0.191 HD
ATOM     22  H5  UNL     1      13.712 -11.450  -3.299  1.00  0.00     0.189 HD
BRANCH  20  23
HETATM   23  N7  UNL     1      17.415  -9.609  -3.700  1.00  0.00    -0.341 N 
ATOM     24  H72 UNL     1      18.017 -10.223  -3.151  1.00  0.00     0.177 HD
ATOM     25  H71 UNL     1      17.789  -8.783  -4.167  1.00  0.00     0.177 HD
ENDBRANCH  20  23
ENDBRANCH  13  17
ENDBRANCH   4  10
BRANCH   9  26
HETATM   26  N11 UNL     1       8.473  -4.813  -3.011  1.00  0.00    -0.343 N 
ATOM     27  H11 UNL     1       8.719  -4.508  -3.953  1.00  0.00     0.167 HD
BRANCH  26  28
HETATM   28  C13 UNL     1       8.061  -3.740  -2.285  1.00  0.00     0.105 C 
HETATM   29  N12 UNL     1       7.092  -2.900  -2.573  1.00  0.00    -0.355 N 
HETATM   30  C14 UNL     1       6.981  -1.900  -1.533  1.00  0.00     0.356 C 
ATOM     31  H12 UNL     1       6.505  -2.945  -3.407  1.00  0.00     0.162 HD
HETATM   32  N13 UNL     1       8.346  -1.843  -1.033  1.00  0.00    -0.053 N 
HETATM   33  C15 UNL     1       8.662  -3.275  -0.982  1.00  0.00     0.309 C 
ATOM     34 2H13 UNL     1       8.992  -1.265  -1.571  1.00  0.00     0.279 HD
ATOM     35 1H13 UNL     1       8.479  -1.327  -0.163  1.00  0.00     0.279 HD
ENDBRANCH  26  28
ENDBRANCH   9  26
BRANCH   8  36
HETATM   36  C8  UNL     1       6.210  -6.314  -3.421  1.00  0.00     0.153 C 
BRANCH  36  37
HETATM   37  O3  UNL     1       5.487  -5.796  -2.364  1.00  0.00    -0.346 OA
ATOM     38  H3  UNL     1       4.657  -6.215  -2.163  1.00  0.00     0.219 HD
ENDBRANCH  36  37
BRANCH  36  39
HETATM   39  N10 UNL     1       5.721  -6.303  -4.584  1.00  0.00    -0.361 N 
ATOM     40  H10 UNL     1       4.817  -6.767  -4.669  1.00  0.00     0.162 HD
BRANCH  39  41
HETATM   41  C9  UNL     1       6.215  -5.757  -5.784  1.00  0.00     0.130 C 
BRANCH  41  42
HETATM   42  C10 UNL     1       5.918  -6.522  -7.047  1.00  0.00     0.191 C 
BRANCH  42  43
HETATM   43  O4  UNL     1       6.972  -7.459  -7.183  1.00  0.00    -0.399 OA
ATOM     44  H4  UNL     1       6.659  -8.109  -7.801  1.00  0.00     0.209 HD
ENDBRANCH  42  43
ENDBRANCH  41  42
BRANCH  41  45
HETATM   45  C11 UNL     1       5.715  -4.327  -6.030  1.00  0.00     0.191 C 
BRANCH  45  46
HETATM   46  O5  UNL     1       6.605  -3.477  -5.406  1.00  0.00    -0.399 OA
ATOM     47  H5  UNL     1       6.105  -2.958  -4.786  1.00  0.00     0.209 HD
ENDBRANCH  45  46
ENDBRANCH  41  45
ENDBRANCH  39  41
ENDBRANCH  36  39
ENDBRANCH   8  36
BRANCH   7  48
HETATM   48  O2  UNL     1       6.605  -9.084  -3.214  1.00  0.00    -0.345 OA
ATOM     49  H2  UNL     1       6.242  -9.135  -4.090  1.00  0.00     0.219 HD
ENDBRANCH   7  48
TORSDOF 14
ENDMDL
MODEL 3
REMARK VINA RESULT: -7.174631901      1.055      1.456
REMARK  14 active torsions:
REMARK  status: ('A' for Active; 'I' for Inactive)
REMARK    1  A    between atoms: C3_4  and  N2_5 
REMARK    2  A    between atoms: C4_9  and  N5_10 
REMARK       I    between atoms: N5_10  and  C5_12 
REMARK       I    between atoms: C5_12  and  N6_14 
REMARK    3  A    between atoms: N6_14  and  N7_16 
REMARK    4  A    between atoms: C6_23  and  O2_24 
REMARK    5  A    between atoms: C7_26  and  C8_27 
REMARK    6  A    between atoms: C8_27  and  O3_28 
REMARK    7  A    between atoms: C8_27  and  N10_30 
REMARK    8  A    between atoms: N10_30  and  C9_32 
REMARK    9  A    between atoms: C9_32  and  C10_33 
REMARK   10  A    between atoms: C9_32  and  C11_36 
REMARK   11  A    between atoms: C10_33  and  O4_34 
REMARK   12  A    between atoms: C11_36  and  O5_37 
REMARK   13  A    between atoms: C12_39  and  N11_40 
REMARK   14  A    between atoms: N11_40  and  C13_42 
ROOT
HETATM    1  N1  UNL     1       6.201  -6.412  -1.492  1.00  0.00    -0.191 NA
HETATM    2  C1  UNL     1       7.333  -6.382  -1.652  1.00  0.00     0.105 C 
HETATM    3  C2  UNL     1       8.751  -6.311  -1.852  1.00  0.00     0.119 A 
HETATM    4  C3  UNL     1       9.306  -5.052  -1.925  1.00  0.00     0.169 A 
HETATM    5  N9  UNL     1      10.628  -4.912  -2.112  1.00  0.00    -0.319 N 
ATOM      6  H9  UNL     1      11.036  -3.979  -2.166  1.00  0.00     0.169 HD
HETATM    7  C6  UNL     1      11.418  -5.995  -2.228  1.00  0.00     0.158 A 
HETATM    8  C7  UNL     1      10.920  -7.264  -2.163  1.00  0.00     0.093 A 
HETATM    9  C12 UNL     1       9.541  -7.433  -1.969  1.00  0.00     0.077 A 
ENDROOT
BRANCH   4  10
HETATM   10  N2  UNL     1       8.544  -3.853  -1.813  1.00  0.00    -0.147 N 
HETATM   11  N3  UNL     1       7.880  -3.343  -2.852  1.00  0.00     0.018 NA
HETATM   12  N4  UNL     1       7.258  -2.223  -2.457  1.00  0.00    -0.113 N 
HETATM   13  C4  UNL     1       7.536  -2.032  -1.154  1.00  0.00     0.715 A 
ATOM     14  H4  UNL     1       6.677  -1.622  -3.042  1.00  0.00     0.203 HD
HETATM   15  N8  UNL     1       8.330  -3.060  -0.803  1.00  0.00    -0.109 N 
ATOM     16  H8  UNL     1       8.714  -3.199   0.132  1.00  0.00     0.207 HD
BRANCH  13  17
HETATM   17  N5  UNL     1       7.147  -1.079  -0.367  1.00  0.00    -0.138 N 
HETATM   18  C5  UNL     1       7.600   0.242  -0.472  1.00  0.00     0.352 C 
HETATM   19  O1  UNL     1       7.257   0.979  -1.430  1.00  0.00    -0.245 OA
HETATM   20  N6  UNL     1       8.471   0.740   0.540  1.00  0.00    -0.258 N 
ATOM     21  H6  UNL     1       8.750   0.140   1.316  1.00  0.00     0.191 HD
ATOM     22  H5  UNL     1       6.476  -1.303   0.368  1.00  0.00     0.189 HD
BRANCH  20  23
HETATM   23  N7  UNL     1       8.937   2.042   0.464  1.00  0.00    -0.341 N 
ATOM     24  H72 UNL     1       8.269   2.812   0.497  1.00  0.00     0.177 HD
ATOM     25  H71 UNL     1       9.938   2.216   0.376  1.00  0.00     0.177 HD
ENDBRANCH  20  23
ENDBRANCH  13  17
ENDBRANCH   4  10
BRANCH   9  26
HETATM   26  N11 UNL     1       9.121  -8.596  -1.918  1.00  0.00    -0.343 N 
ATOM     27  H11 UNL     1       9.277  -9.051  -2.818  1.00  0.00     0.167 HD
BRANCH  26  28
HETATM   28  C13 UNL     1       8.522  -9.473  -1.070  1.00  0.00     0.105 C 
HETATM   29  N12 UNL     1       7.244  -9.561  -0.775  1.00  0.00    -0.355 N 
HETATM   30  C14 UNL     1       7.028 -10.633   0.172  1.00  0.00     0.356 C 
ATOM     31  H12 UNL     1       6.512  -8.961  -1.157  1.00  0.00     0.162 HD
HETATM   32  N13 UNL     1       8.302 -10.667   0.873  1.00  0.00    -0.053 N 
HETATM   33  C15 UNL     1       9.224 -10.536  -0.260  1.00  0.00     0.309 C 
ATOM     34 2H13 UNL     1       8.416  -9.982   1.620  1.00  0.00     0.279 HD
ATOM     35 1H13 UNL     1       8.454 -11.474   1.479  1.00  0.00     0.279 HD
ENDBRANCH  26  28
ENDBRANCH   9  26
BRANCH   8  36
HETATM   36  C8  UNL     1      11.832  -8.397  -2.301  1.00  0.00     0.153 C 
BRANCH  36  37
HETATM   37  O3  UNL     1      11.714  -9.161  -3.446  1.00  0.00    -0.346 OA
ATOM     38  H3  UNL     1      12.378  -9.825  -3.591  1.00  0.00     0.219 HD
ENDBRANCH  36  37
BRANCH  36  39
HETATM   39  N10 UNL     1      12.700  -8.693  -1.433  1.00  0.00    -0.361 N 
ATOM     40  H10 UNL     1      13.070  -7.897  -0.914  1.00  0.00     0.162 HD
BRANCH  39  41
HETATM   41  C9  UNL     1      13.241  -9.939  -1.062  1.00  0.00     0.130 C 
BRANCH  41  42
HETATM   42  C10 UNL     1      12.414 -11.156  -1.377  1.00  0.00     0.191 C 
BRANCH  42  43
HETATM   43  O4  UNL     1      12.956 -11.688  -2.572  1.00  0.00    -0.399 OA
ATOM     44  H4  UNL     1      12.338 -11.462  -3.257  1.00  0.00     0.209 HD
ENDBRANCH  42  43
ENDBRANCH  41  42
BRANCH  41  45
HETATM   45  C11 UNL     1      14.619 -10.191  -1.689  1.00  0.00     0.191 C 
BRANCH  45  46
HETATM   46  O5  UNL     1      14.686  -9.424  -2.835  1.00  0.00    -0.399 OA
ATOM     47  H5  UNL     1      13.953  -8.819  -2.806  1.00  0.00     0.209 HD
ENDBRANCH  45  46
ENDBRANCH  41  45
ENDBRANCH  39  41
ENDBRANCH  36  39
ENDBRANCH   8  36
BRANCH   7  48
HETATM   48  O2  UNL     1      12.794  -5.764  -2.422  1.00  0.00    -0.345 OA
ATOM     49  H2  UNL     1      13.376  -6.506  -2.307  1.00  0.00     0.219 HD
ENDBRANCH   7  48
TORSDOF 14
ENDMDL
MODEL 4
REMARK VINA RESULT: -7.050954473      2.943      8.535
REMARK  14 active torsions:
REMARK  status: ('A' for Active; 'I' for Inactive)
REMARK    1  A    between atoms: C3_4  and  N2_5 
REMARK    2  A    between atoms: C4_9  and  N5_10 
REMARK       I    between atoms: N5_10  and  C5_12 
REMARK       I    between atoms: C5_12  and  N6_14 
REMARK    3  A    between atoms: N6_14  and  N7_16 
REMARK    4  A    between atoms: C6_23  and  O2_24 
REMARK    5  A    between atoms: C7_26  and  C8_27 
REMARK    6  A    between atoms: C8_27  and  O3_28 
REMARK    7  A    between atoms: C8_27  and  N10_30 
REMARK    8  A    between atoms: N10_30  and  C9_32 
REMARK    9  A    between atoms: C9_32  and  C10_33 
REMARK   10  A    between atoms: C9_32  and  C11_36 
REMARK   11  A    between atoms: C10_33  and  O4_34 
REMARK   12  A    between atoms: C11_36  and  O5_37 
REMARK   13  A    between atoms: C12_39  and  N11_40 
REMARK   14  A    between atoms: N11_40  and  C13_42 
ROOT
HETATM    1  N1  UNL     1      11.731  -4.988  -2.709  1.00  0.00    -0.191 NA
HETATM    2  C1  UNL     1      10.799  -5.636  -2.572  1.00  0.00     0.105 C 
HETATM    3  C2  UNL     1       9.651  -6.476  -2.396  1.00  0.00     0.119 A 
HETATM    4  C3  UNL     1       9.889  -7.807  -2.128  1.00  0.00     0.169 A 
HETATM    5  N9  UNL     1       8.860  -8.650  -1.952  1.00  0.00    -0.319 N 
ATOM      6  H9  UNL     1       9.039  -9.634  -1.755  1.00  0.00     0.169 HD
HETATM    7  C6  UNL     1       7.592  -8.204  -2.034  1.00  0.00     0.158 A 
HETATM    8  C7  UNL     1       7.301  -6.896  -2.295  1.00  0.00     0.093 A 
HETATM    9  C12 UNL     1       8.362  -5.999  -2.484  1.00  0.00     0.077 A 
ENDROOT
BRANCH   4  10
HETATM   10  N2  UNL     1      11.197  -8.362  -2.026  1.00  0.00    -0.147 N 
HETATM   11  N3  UNL     1      12.057  -7.964  -1.087  1.00  0.00     0.018 NA
HETATM   12  N4  UNL     1      13.199  -8.652  -1.229  1.00  0.00    -0.113 N 
HETATM   13  C4  UNL     1      13.050  -9.491  -2.270  1.00  0.00     0.715 A 
ATOM     14  H4  UNL     1      14.034  -8.556  -0.650  1.00  0.00     0.203 HD
HETATM   15  N8  UNL     1      11.803  -9.276  -2.728  1.00  0.00    -0.109 N 
ATOM     16  H8  UNL     1      11.386  -9.765  -3.521  1.00  0.00     0.207 HD
BRANCH  13  17
HETATM   17  N5  UNL     1      13.895 -10.341  -2.763  1.00  0.00    -0.138 N 
HETATM   18  C5  UNL     1      15.285 -10.204  -2.644  1.00  0.00     0.352 C 
HETATM   19  O1  UNL     1      15.866 -10.360  -1.542  1.00  0.00    -0.245 OA
HETATM   20  N6  UNL     1      16.033  -9.878  -3.812  1.00  0.00    -0.258 N 
ATOM     21  H6  UNL     1      15.559  -9.751  -4.705  1.00  0.00     0.191 HD
ATOM     22  H5  UNL     1      13.531 -11.151  -3.264  1.00  0.00     0.189 HD
BRANCH  20  23
HETATM   23  N7  UNL     1      17.409  -9.735  -3.726  1.00  0.00    -0.341 N 
ATOM     24  H72 UNL     1      17.980  -9.924  -4.550  1.00  0.00     0.177 HD
ATOM     25  H71 UNL     1      17.832  -9.445  -2.846  1.00  0.00     0.177 HD
ENDBRANCH  20  23
ENDBRANCH  13  17
ENDBRANCH   4  10
BRANCH   9  26
HETATM   26  N11 UNL     1       8.064  -4.821  -2.722  1.00  0.00    -0.343 N 
ATOM     27  H11 UNL     1       7.979  -4.693  -3.731  1.00  0.00     0.167 HD
BRANCH  26  28
HETATM   28  C13 UNL     1       7.812  -3.641  -2.097  1.00  0.00     0.105 C 
HETATM   29  N12 UNL     1       7.019  -2.672  -2.499  1.00  0.00    -0.355 N 
HETATM   30  C14 UNL     1       7.035  -1.591  -1.538  1.00  0.00     0.356 C 
ATOM     31  H12 UNL     1       6.474  -2.681  -3.362  1.00  0.00     0.162 HD
HETATM   32  N13 UNL     1       8.364  -1.729  -0.962  1.00  0.00    -0.053 N 
HETATM   33  C15 UNL     1       8.423  -3.185  -0.795  1.00  0.00     0.309 C 
ATOM     34 2H13 UNL     1       9.126  -1.313  -1.498  1.00  0.00     0.279 HD
ATOM     35 1H13 UNL     1       8.543  -1.178  -0.123  1.00  0.00     0.279 HD
ENDBRANCH  26  28
ENDBRANCH   9  26
BRANCH   8  36
HETATM   36  C8  UNL     1       5.903  -6.479  -2.375  1.00  0.00     0.153 C 
BRANCH  36  37
HETATM   37  O3  UNL     1       5.374  -6.299  -3.639  1.00  0.00    -0.346 OA
ATOM     38  H3  UNL     1       4.818  -5.539  -3.768  1.00  0.00     0.219 HD
ENDBRANCH  36  37
BRANCH  36  39
HETATM   39  N10 UNL     1       5.183  -6.282  -1.357  1.00  0.00    -0.361 N 
ATOM     40  H10 UNL     1       4.229  -6.632  -1.438  1.00  0.00     0.162 HD
BRANCH  39  41
HETATM   41  C9  UNL     1       5.478  -5.661  -0.128  1.00  0.00     0.130 C 
BRANCH  41  42
HETATM   42  C10 UNL     1       4.478  -4.655   0.378  1.00  0.00     0.191 C 
BRANCH  42  43
HETATM   43  O4  UNL     1       5.241  -3.549   0.824  1.00  0.00    -0.399 OA
ATOM     44  H4  UNL     1       4.895  -3.328   1.680  1.00  0.00     0.209 HD
ENDBRANCH  42  43
ENDBRANCH  41  42
BRANCH  41  45
HETATM   45  C11 UNL     1       5.672  -6.672   1.010  1.00  0.00     0.191 C 
BRANCH  45  46
HETATM   46  O5  UNL     1       6.548  -6.101   1.910  1.00  0.00    -0.399 OA
ATOM     47  H5  UNL     1       6.075  -5.406   2.354  1.00  0.00     0.209 HD
ENDBRANCH  45  46
ENDBRANCH  41  45
ENDBRANCH  39  41
ENDBRANCH  36  39
ENDBRANCH   8  36
BRANCH   7  48
HETATM   48  O2  UNL     1       6.569  -9.151  -1.836  1.00  0.00    -0.345 OA
ATOM     49  H2  UNL     1       5.678  -8.823  -1.812  1.00  0.00     0.219 HD
ENDBRANCH   7  48
TORSDOF 14
ENDMDL
MODEL 5
REMARK VINA RESULT: -7.036667359      1.335      1.715
REMARK  14 active torsions:
REMARK  status: ('A' for Active; 'I' for Inactive)
REMARK    1  A    between atoms: C3_4  and  N2_5 
REMARK    2  A    between atoms: C4_9  and  N5_10 
REMARK       I    between atoms: N5_10  and  C5_12 
REMARK       I    between atoms: C5_12  and  N6_14 
REMARK    3  A    between atoms: N6_14  and  N7_16 
REMARK    4  A    between atoms: C6_23  and  O2_24 
REMARK    5  A    between atoms: C7_26  and  C8_27 
REMARK    6  A    between atoms: C8_27  and  O3_28 
REMARK    7  A    between atoms: C8_27  and  N10_30 
REMARK    8  A    between atoms: N10_30  and  C9_32 
REMARK    9  A    between atoms: C9_32  and  C10_33 
REMARK   10  A    between atoms: C9_32  and  C11_36 
REMARK   11  A    between atoms: C10_33  and  O4_34 
REMARK   12  A    between atoms: C11_36  and  O5_37 
REMARK   13  A    between atoms: C12_39  and  N11_40 
REMARK   14  A    between atoms: N11_40  and  C13_42 
ROOT
HETATM    1  N1  UNL     1       6.338  -6.305  -2.698  1.00  0.00    -0.191 NA
HETATM    2  C1  UNL     1       7.459  -6.433  -2.512  1.00  0.00     0.105 C 
HETATM    3  C2  UNL     1       8.865  -6.561  -2.267  1.00  0.00     0.119 A 
HETATM    4  C3  UNL     1       9.500  -5.475  -1.702  1.00  0.00     0.169 A 
HETATM    5  N9  UNL     1      10.816  -5.527  -1.445  1.00  0.00    -0.319 N 
ATOM      6  H9  UNL     1      11.283  -4.722  -1.028  1.00  0.00     0.169 HD
HETATM    7  C6  UNL     1      11.524  -6.635  -1.735  1.00  0.00     0.158 A 
HETATM    8  C7  UNL     1      10.945  -7.738  -2.294  1.00  0.00     0.093 A 
HETATM    9  C12 UNL     1       9.571  -7.704  -2.571  1.00  0.00     0.077 A 
ENDROOT
BRANCH   4  10
HETATM   10  N2  UNL     1       8.828  -4.265  -1.365  1.00  0.00    -0.147 N 
HETATM   11  N3  UNL     1       7.983  -4.195  -0.336  1.00  0.00     0.018 NA
HETATM   12  N4  UNL     1       7.503  -2.945  -0.256  1.00  0.00    -0.113 N 
HETATM   13  C4  UNL     1       8.058  -2.225  -1.249  1.00  0.00     0.715 A 
ATOM     14  H4  UNL     1       6.836  -2.601   0.434  1.00  0.00     0.203 HD
HETATM   15  N8  UNL     1       8.864  -3.080  -1.904  1.00  0.00    -0.109 N 
ATOM     16  H8  UNL     1       9.431  -2.833  -2.716  1.00  0.00     0.207 HD
BRANCH  13  17
HETATM   17  N5  UNL     1       7.883  -0.977  -1.550  1.00  0.00    -0.138 N 
HETATM   18  C5  UNL     1       8.260   0.079  -0.709  1.00  0.00     0.352 C 
HETATM   19  O1  UNL     1       9.468   0.361  -0.513  1.00  0.00    -0.245 OA
HETATM   20  N6  UNL     1       7.233   0.834  -0.073  1.00  0.00    -0.258 N 
ATOM     21  H6  UNL     1       6.253   0.604  -0.234  1.00  0.00     0.191 HD
ATOM     22  H5  UNL     1       7.448  -0.751  -2.445  1.00  0.00     0.189 HD
BRANCH  20  23
HETATM   23  N7  UNL     1       7.574   1.884   0.764  1.00  0.00    -0.341 N 
ATOM     24  H72 UNL     1       8.525   1.941   1.129  1.00  0.00     0.177 HD
ATOM     25  H71 UNL     1       6.874   2.585   1.005  1.00  0.00     0.177 HD
ENDBRANCH  20  23
ENDBRANCH  13  17
ENDBRANCH   4  10
BRANCH   9  26
HETATM   26  N11 UNL     1       9.077  -8.719  -3.081  1.00  0.00    -0.343 N 
ATOM     27  H11 UNL     1       9.017  -9.454  -2.376  1.00  0.00     0.167 HD
BRANCH  26  28
HETATM   28  C13 UNL     1       8.588  -9.186  -4.260  1.00  0.00     0.105 C 
HETATM   29  N12 UNL     1       9.233  -9.334  -5.395  1.00  0.00    -0.355 N 
HETATM   30  C14 UNL     1       8.341  -9.862  -6.405  1.00  0.00     0.356 C 
ATOM     31  H12 UNL     1      10.217  -9.109  -5.544  1.00  0.00     0.162 HD
HETATM   32  N13 UNL     1       7.054  -9.357  -5.953  1.00  0.00    -0.053 N 
HETATM   33  C15 UNL     1       7.164  -9.618  -4.514  1.00  0.00     0.309 C 
ATOM     34 2H13 UNL     1       6.838  -8.394  -6.214  1.00  0.00     0.279 HD
ATOM     35 1H13 UNL     1       6.235  -9.753  -6.415  1.00  0.00     0.279 HD
ENDBRANCH  26  28
ENDBRANCH   9  26
BRANCH   8  36
HETATM   36  C8  UNL     1      11.772  -8.906  -2.587  1.00  0.00     0.153 C 
BRANCH  36  37
HETATM   37  O3  UNL     1      11.725  -9.398  -3.878  1.00  0.00    -0.346 OA
ATOM     38  H3  UNL     1      10.969  -9.925  -4.110  1.00  0.00     0.219 HD
ENDBRANCH  36  37
BRANCH  36  39
HETATM   39  N10 UNL     1      12.505  -9.465  -1.726  1.00  0.00    -0.361 N 
ATOM     40  H10 UNL     1      12.333  -9.170  -0.765  1.00  0.00     0.162 HD
BRANCH  39  41
HETATM   41  C9  UNL     1      13.522 -10.428  -1.870  1.00  0.00     0.130 C 
BRANCH  41  42
HETATM   42  C10 UNL     1      14.941  -9.926  -1.818  1.00  0.00     0.191 C 
BRANCH  42  43
HETATM   43  O4  UNL     1      15.374  -9.866  -3.166  1.00  0.00    -0.399 OA
ATOM     44  H4  UNL     1      16.262 -10.202  -3.164  1.00  0.00     0.209 HD
ENDBRANCH  42  43
ENDBRANCH  41  42
BRANCH  41  45
HETATM   45  C11 UNL     1      13.430 -11.542  -0.817  1.00  0.00     0.191 C 
BRANCH  45  46
HETATM   46  O5  UNL     1      14.199 -12.592  -1.274  1.00  0.00    -0.399 OA
ATOM     47  H5  UNL     1      13.612 -13.329  -1.405  1.00  0.00     0.209 HD
ENDBRANCH  45  46
ENDBRANCH  41  45
ENDBRANCH  39  41
ENDBRANCH  36  39
ENDBRANCH   8  36
BRANCH   7  48
HETATM   48  O2  UNL     1      12.900  -6.609  -1.435  1.00  0.00    -0.345 OA
ATOM     49  H2  UNL     1      13.332  -7.449  -1.326  1.00  0.00     0.219 HD
ENDBRANCH   7  48
TORSDOF 14
ENDMDL
