MODEL 1
REMARK VINA RESULT: -8.008446296      0.000      0.000
REMARK  7 active torsions:
REMARK  status: ('A' for Active; 'I' for Inactive)
REMARK    1  A    between atoms: C2_2  and  O1_3 
REMARK    2  A    between atoms: C3_5  and  O2_6 
REMARK    3  A    between atoms: C11_15  and  C12_16 
REMARK    4  A    between atoms: C13_17  and  C14_18 
REMARK    5  A    between atoms: C16_22  and  C17_23 
REMARK       I    between atoms: C17_23  and  N2_25 
REMARK    6  A    between atoms: N2_25  and  C18_27 
REMARK    7  A    between atoms: C18_27  and  C19_28 
ROOT
HETATM    1  C12 UNL     1     -13.738  17.384  -6.835  1.00  0.00    -0.019 C 
HETATM    2  C13 UNL     1     -13.009  16.780  -5.976  1.00  0.00     0.027 C 
ENDROOT
BRANCH   2   3
HETATM    3  C14 UNL     1     -12.070  17.288  -5.007  1.00  0.00     0.050 A 
HETATM    4  N1  UNL     1     -12.248  17.674  -3.735  1.00  0.00    -0.364 N 
HETATM    5  C15 UNL     1     -11.075  18.072  -3.234  1.00  0.00     0.106 A 
ATOM      6  H1  UNL     1     -13.135  17.665  -3.232  1.00  0.00     0.165 HD
HETATM    7  C16 UNL     1     -10.078  17.946  -4.213  1.00  0.00     0.067 A 
HETATM    8  C24 UNL     1     -10.702  17.455  -5.324  1.00  0.00     0.054 A 
HETATM    9 BR1  UNL     1      -9.881  17.089  -7.032  1.00  0.00    -0.048 Br
BRANCH   7  10
HETATM   10  C17 UNL     1      -8.690  18.248  -3.984  1.00  0.00     0.258 C 
HETATM   11  O3  UNL     1      -8.250  17.910  -2.819  1.00  0.00    -0.267 OA
HETATM   12  N2  UNL     1      -7.845  18.855  -4.932  1.00  0.00    -0.335 N 
ATOM     13  H2  UNL     1      -8.176  19.125  -5.858  1.00  0.00     0.168 HD
BRANCH  12  14
HETATM   14  C18 UNL     1      -6.486  19.072  -4.516  1.00  0.00     0.091 C 
BRANCH  14  15
HETATM   15  C19 UNL     1      -5.425  18.495  -5.301  1.00  0.00     0.085 C 
HETATM   16 CL1  UNL     1      -4.353  17.548  -4.150  1.00  0.00    -0.112 Cl
HETATM   17  C20 UNL     1      -5.813  17.449  -6.343  1.00  0.00     0.033 C 
HETATM   18  C21 UNL     1      -4.405  17.034  -6.795  1.00  0.00     0.004 C 
HETATM   19  C22 UNL     1      -3.516  18.269  -6.578  1.00  0.00     0.022 C 
HETATM   20  C23 UNL     1      -4.507  19.359  -6.089  1.00  0.00     0.111 C 
HETATM   21 CL2  UNL     1      -5.219  20.029  -7.567  1.00  0.00    -0.123 Cl
ENDBRANCH  14  15
ENDBRANCH  12  14
ENDBRANCH   7  10
ENDBRANCH   2   3
BRANCH   1  22
HETATM   22  C11 UNL     1     -13.922  18.756  -7.171  1.00  0.00     0.017 C 
HETATM   23  C9  UNL     1     -14.708  18.888  -8.535  1.00  0.00    -0.033 C 
HETATM   24  C8  UNL     1     -14.086  18.112  -9.622  1.00  0.00     0.011 C 
HETATM   25  C10 UNL     1     -16.148  18.533  -8.256  1.00  0.00     0.016 C 
HETATM   26  C27 UNL     1     -14.617  20.382  -8.710  1.00  0.00    -0.001 C 
HETATM   27  C7  UNL     1     -13.832  18.871 -10.905  1.00  0.00     0.009 C 
HETATM   28  C6  UNL     1     -14.818  19.940 -11.190  1.00  0.00     0.027 C 
HETATM   29  C2  UNL     1     -14.362  20.824 -12.304  1.00  0.00     0.084 C 
HETATM   30  C5  UNL     1     -15.091  20.867 -10.047  1.00  0.00    -0.000 C 
HETATM   31  C1  UNL     1     -12.874  20.856 -12.507  1.00  0.00     0.049 C 
HETATM   32  C3  UNL     1     -14.843  22.213 -11.951  1.00  0.00     0.152 C 
HETATM   33  C4  UNL     1     -14.608  22.222 -10.432  1.00  0.00     0.040 C 
HETATM   34  C26 UNL     1     -13.228  20.744  -8.339  1.00  0.00     0.006 C 
HETATM   35  C25 UNL     1     -12.666  19.502  -7.628  1.00  0.00     0.010 C 
BRANCH  29  36
HETATM   36  O1  UNL     1     -14.950  20.473 -13.520  1.00  0.00    -0.387 OA
ATOM     37  H1  UNL     1     -15.827  20.157 -13.337  1.00  0.00     0.210 HD
ENDBRANCH  29  36
BRANCH  32  38
HETATM   38  O2  UNL     1     -14.087  23.208 -12.564  1.00  0.00    -0.393 OA
ATOM     39  H2  UNL     1     -13.816  23.885 -11.954  1.00  0.00     0.210 HD
ENDBRANCH  32  38
ENDBRANCH   1  22
TORSDOF 7
ENDMDL
MODEL 2
REMARK VINA RESULT: -7.901589745      0.825      1.113
REMARK  7 active torsions:
REMARK  status: ('A' for Active; 'I' for Inactive)
REMARK    1  A    between atoms: C2_2  and  O1_3 
REMARK    2  A    between atoms: C3_5  and  O2_6 
REMARK    3  A    between atoms: C11_15  and  C12_16 
REMARK    4  A    between atoms: C13_17  and  C14_18 
REMARK    5  A    between atoms: C16_22  and  C17_23 
REMARK       I    between atoms: C17_23  and  N2_25 
REMARK    6  A    between atoms: N2_25  and  C18_27 
REMARK    7  A    between atoms: C18_27  and  C19_28 
ROOT
HETATM    1  C12 UNL     1     -13.371  17.273  -6.900  1.00  0.00    -0.019 C 
HETATM    2  C13 UNL     1     -12.642  16.644  -6.059  1.00  0.00     0.027 C 
ENDROOT
BRANCH   2   3
HETATM    3  C14 UNL     1     -11.800  17.124  -4.992  1.00  0.00     0.050 A 
HETATM    4  N1  UNL     1     -12.082  17.402  -3.711  1.00  0.00    -0.364 N 
HETATM    5  C15 UNL     1     -10.970  17.821  -3.101  1.00  0.00     0.106 A 
ATOM      6  H1  UNL     1     -12.999  17.309  -3.273  1.00  0.00     0.165 HD
HETATM    7  C16 UNL     1      -9.905  17.821  -4.015  1.00  0.00     0.067 A 
HETATM    8  C24 UNL     1     -10.426  17.385  -5.199  1.00  0.00     0.054 A 
HETATM    9 BR1  UNL     1      -9.474  17.193  -6.868  1.00  0.00    -0.048 Br
BRANCH   7  10
HETATM   10  C17 UNL     1      -8.554  18.176  -3.668  1.00  0.00     0.258 C 
HETATM   11  O3  UNL     1      -8.191  17.821  -2.481  1.00  0.00    -0.267 OA
HETATM   12  N2  UNL     1      -7.666  18.849  -4.529  1.00  0.00    -0.335 N 
ATOM     13  H2  UNL     1      -7.936  19.133  -5.470  1.00  0.00     0.168 HD
BRANCH  12  14
HETATM   14  C18 UNL     1      -6.355  19.111  -4.000  1.00  0.00     0.091 C 
BRANCH  14  15
HETATM   15  C19 UNL     1      -5.224  19.023  -4.889  1.00  0.00     0.085 C 
HETATM   16 CL1  UNL     1      -4.579  20.727  -5.114  1.00  0.00    -0.112 Cl
HETATM   17  C20 UNL     1      -4.001  18.259  -4.392  1.00  0.00     0.033 C 
HETATM   18  C21 UNL     1      -3.048  18.556  -5.561  1.00  0.00     0.004 C 
HETATM   19  C22 UNL     1      -3.948  18.753  -6.792  1.00  0.00     0.022 C 
HETATM   20  C23 UNL     1      -5.377  18.465  -6.259  1.00  0.00     0.111 C 
HETATM   21 CL2  UNL     1      -5.543  16.702  -6.317  1.00  0.00    -0.123 Cl
ENDBRANCH  14  15
ENDBRANCH  12  14
ENDBRANCH   7  10
ENDBRANCH   2   3
BRANCH   1  22
HETATM   22  C11 UNL     1     -13.647  18.653  -7.118  1.00  0.00     0.017 C 
HETATM   23  C9  UNL     1     -14.498  18.843  -8.435  1.00  0.00    -0.033 C 
HETATM   24  C8  UNL     1     -13.881  18.193  -9.604  1.00  0.00     0.011 C 
HETATM   25  C10 UNL     1     -15.901  18.383  -8.130  1.00  0.00     0.016 C 
HETATM   26  C27 UNL     1     -14.498  20.350  -8.493  1.00  0.00    -0.001 C 
HETATM   27  C7  UNL     1     -13.726  19.064 -10.831  1.00  0.00     0.009 C 
HETATM   28  C6  UNL     1     -14.782  20.090 -10.991  1.00  0.00     0.027 C 
HETATM   29  C2  UNL     1     -14.426  21.083 -12.048  1.00  0.00     0.084 C 
HETATM   30  C5  UNL     1     -15.056  20.908  -9.767  1.00  0.00    -0.000 C 
HETATM   31  C1  UNL     1     -12.952  21.220 -12.305  1.00  0.00     0.049 C 
HETATM   32  C3  UNL     1     -14.968  22.410 -11.566  1.00  0.00     0.152 C 
HETATM   33  C4  UNL     1     -14.668  22.315 -10.061  1.00  0.00     0.040 C 
HETATM   34  C26 UNL     1     -13.117  20.763  -8.149  1.00  0.00     0.006 C 
HETATM   35  C25 UNL     1     -12.456  19.506  -7.562  1.00  0.00     0.010 C 
BRANCH  29  36
HETATM   36  O1  UNL     1     -15.045  20.794 -13.264  1.00  0.00    -0.387 OA
ATOM     37  H1  UNL     1     -15.982  20.895 -13.143  1.00  0.00     0.210 HD
ENDBRANCH  29  36
BRANCH  32  38
HETATM   38  O2  UNL     1     -14.297  23.493 -12.127  1.00  0.00    -0.393 OA
ATOM     39  H2  UNL     1     -14.860  24.019 -12.684  1.00  0.00     0.210 HD
ENDBRANCH  32  38
ENDBRANCH   1  22
TORSDOF 7
ENDMDL
MODEL 3
REMARK VINA RESULT: -7.814359361      4.067      9.065
REMARK  7 active torsions:
REMARK  status: ('A' for Active; 'I' for Inactive)
REMARK    1  A    between atoms: C2_2  and  O1_3 
REMARK    2  A    between atoms: C3_5  and  O2_6 
REMARK    3  A    between atoms: C11_15  and  C12_16 
REMARK    4  A    between atoms: C13_17  and  C14_18 
REMARK    5  A    between atoms: C16_22  and  C17_23 
REMARK       I    between atoms: C17_23  and  N2_25 
REMARK    6  A    between atoms: N2_25  and  C18_27 
REMARK    7  A    between atoms: C18_27  and  C19_28 
ROOT
HETATM    1  C12 UNL     1      -6.528  18.898  -5.286  1.00  0.00    -0.019 C 
HETATM    2  C13 UNL     1      -7.531  19.282  -4.593  1.00  0.00     0.027 C 
ENDROOT
BRANCH   2   3
HETATM    3  C14 UNL     1      -8.800  18.649  -4.335  1.00  0.00     0.050 A 
HETATM    4  N1  UNL     1      -9.199  17.868  -3.320  1.00  0.00    -0.364 N 
HETATM    5  C15 UNL     1     -10.473  17.517  -3.516  1.00  0.00     0.106 A 
ATOM      6  H1  UNL     1      -8.622  17.587  -2.527  1.00  0.00     0.165 HD
HETATM    7  C16 UNL     1     -10.939  18.089  -4.709  1.00  0.00     0.067 A 
HETATM    8  C24 UNL     1      -9.891  18.797  -5.223  1.00  0.00     0.054 A 
HETATM    9 BR1  UNL     1      -9.880  19.791  -6.877  1.00  0.00    -0.048 Br
BRANCH   7  10
HETATM   10  C17 UNL     1     -12.288  17.946  -5.191  1.00  0.00     0.258 C 
HETATM   11  O3  UNL     1     -13.202  18.257  -4.334  1.00  0.00    -0.267 OA
HETATM   12  N2  UNL     1     -12.625  17.513  -6.488  1.00  0.00    -0.335 N 
ATOM     13  H2  UNL     1     -11.915  17.266  -7.177  1.00  0.00     0.168 HD
BRANCH  12  14
HETATM   14  C18 UNL     1     -14.030  17.438  -6.781  1.00  0.00     0.091 C 
BRANCH  14  15
HETATM   15  C19 UNL     1     -14.562  18.282  -7.819  1.00  0.00     0.085 C 
HETATM   16 CL1  UNL     1     -16.392  18.192  -7.706  1.00  0.00    -0.112 Cl
HETATM   17  C20 UNL     1     -14.288  19.779  -7.714  1.00  0.00     0.033 C 
HETATM   18  C21 UNL     1     -15.141  20.259  -8.900  1.00  0.00     0.004 C 
HETATM   19  C22 UNL     1     -15.163  19.089  -9.896  1.00  0.00     0.022 C 
HETATM   20  C23 UNL     1     -14.233  18.029  -9.247  1.00  0.00     0.111 C 
HETATM   21 CL2  UNL     1     -12.592  18.506  -9.718  1.00  0.00    -0.123 Cl
ENDBRANCH  14  15
ENDBRANCH  12  14
ENDBRANCH   7  10
ENDBRANCH   2   3
BRANCH   1  22
HETATM   22  C11 UNL     1      -6.257  17.729  -6.055  1.00  0.00     0.017 C 
HETATM   23  C9  UNL     1      -4.926  17.913  -6.886  1.00  0.00    -0.033 C 
HETATM   24  C8  UNL     1      -4.933  19.142  -7.699  1.00  0.00     0.011 C 
HETATM   25  C10 UNL     1      -3.777  17.810  -5.915  1.00  0.00     0.016 C 
HETATM   26  C27 UNL     1      -4.980  16.638  -7.689  1.00  0.00    -0.001 C 
HETATM   27  C7  UNL     1      -4.580  18.963  -9.158  1.00  0.00     0.009 C 
HETATM   28  C6  UNL     1      -3.616  17.870  -9.426  1.00  0.00     0.027 C 
HETATM   29  C2  UNL     1      -3.525  17.564 -10.885  1.00  0.00     0.084 C 
HETATM   30  C5  UNL     1      -3.950  16.563  -8.776  1.00  0.00    -0.000 C 
HETATM   31  C1  UNL     1      -4.742  17.944 -11.679  1.00  0.00     0.049 C 
HETATM   32  C3  UNL     1      -3.319  16.069 -10.980  1.00  0.00     0.152 C 
HETATM   33  C4  UNL     1      -4.243  15.578  -9.854  1.00  0.00     0.040 C 
HETATM   34  C26 UNL     1      -6.392  16.495  -8.118  1.00  0.00     0.006 C 
HETATM   35  C25 UNL     1      -7.176  17.499  -7.257  1.00  0.00     0.010 C 
BRANCH  29  36
HETATM   36  O1  UNL     1      -2.421  18.178 -11.476  1.00  0.00    -0.387 OA
ATOM     37  H1  UNL     1      -1.711  17.547 -11.488  1.00  0.00     0.210 HD
ENDBRANCH  29  36
BRANCH  32  38
HETATM   38  O2  UNL     1      -3.733  15.553 -12.205  1.00  0.00    -0.393 OA
ATOM     39  H2  UNL     1      -4.503  15.002 -12.125  1.00  0.00     0.210 HD
ENDBRANCH  32  38
ENDBRANCH   1  22
TORSDOF 7
ENDMDL
MODEL 4
REMARK VINA RESULT: -7.742385050      1.195      1.278
REMARK  7 active torsions:
REMARK  status: ('A' for Active; 'I' for Inactive)
REMARK    1  A    between atoms: C2_2  and  O1_3 
REMARK    2  A    between atoms: C3_5  and  O2_6 
REMARK    3  A    between atoms: C11_15  and  C12_16 
REMARK    4  A    between atoms: C13_17  and  C14_18 
REMARK    5  A    between atoms: C16_22  and  C17_23 
REMARK       I    between atoms: C17_23  and  N2_25 
REMARK    6  A    between atoms: N2_25  and  C18_27 
REMARK    7  A    between atoms: C18_27  and  C19_28 
ROOT
HETATM    1  C12 UNL     1     -13.801  17.283  -6.324  1.00  0.00    -0.019 C 
HETATM    2  C13 UNL     1     -12.858  16.738  -5.656  1.00  0.00     0.027 C 
ENDROOT
BRANCH   2   3
HETATM    3  C14 UNL     1     -11.698  17.309  -5.018  1.00  0.00     0.050 A 
HETATM    4  N1  UNL     1     -11.505  17.720  -3.757  1.00  0.00    -0.364 N 
HETATM    5  C15 UNL     1     -10.257  18.179  -3.634  1.00  0.00     0.106 A 
ATOM      6  H1  UNL     1     -12.200  17.688  -3.011  1.00  0.00     0.165 HD
HETATM    7  C16 UNL     1      -9.593  18.068  -4.865  1.00  0.00     0.067 A 
HETATM    8  C24 UNL     1     -10.496  17.524  -5.733  1.00  0.00     0.054 A 
HETATM    9 BR1  UNL     1     -10.206  17.147  -7.603  1.00  0.00    -0.048 Br
BRANCH   7  10
HETATM   10  C17 UNL     1      -8.215  18.433  -5.067  1.00  0.00     0.258 C 
HETATM   11  O3  UNL     1      -7.915  19.631  -4.693  1.00  0.00    -0.267 OA
HETATM   12  N2  UNL     1      -7.242  17.578  -5.617  1.00  0.00    -0.335 N 
ATOM     13  H2  UNL     1      -7.462  16.628  -5.914  1.00  0.00     0.168 HD
BRANCH  12  14
HETATM   14  C18 UNL     1      -5.918  18.125  -5.735  1.00  0.00     0.091 C 
BRANCH  14  15
HETATM   15  C19 UNL     1      -5.163  17.850  -6.930  1.00  0.00     0.085 C 
HETATM   16 CL1  UNL     1      -3.389  18.068  -6.513  1.00  0.00    -0.112 Cl
HETATM   17  C20 UNL     1      -5.211  16.426  -7.477  1.00  0.00     0.033 C 
HETATM   18  C21 UNL     1      -4.183  16.575  -8.610  1.00  0.00     0.004 C 
HETATM   19  C22 UNL     1      -4.246  18.049  -9.039  1.00  0.00     0.022 C 
HETATM   20  C23 UNL     1      -5.387  18.642  -8.169  1.00  0.00     0.111 C 
HETATM   21 CL2  UNL     1      -6.880  18.241  -9.035  1.00  0.00    -0.123 Cl
ENDBRANCH  14  15
ENDBRANCH  12  14
ENDBRANCH   7  10
ENDBRANCH   2   3
BRANCH   1  22
HETATM   22  C11 UNL     1     -14.089  18.628  -6.695  1.00  0.00     0.017 C 
HETATM   23  C9  UNL     1     -14.756  18.673  -8.126  1.00  0.00    -0.033 C 
HETATM   24  C8  UNL     1     -13.964  17.958  -9.142  1.00  0.00     0.011 C 
HETATM   25  C10 UNL     1     -16.173  18.179  -7.974  1.00  0.00     0.016 C 
HETATM   26  C27 UNL     1     -14.797  20.169  -8.313  1.00  0.00    -0.001 C 
HETATM   27  C7  UNL     1     -13.670  18.732 -10.407  1.00  0.00     0.009 C 
HETATM   28  C6  UNL     1     -14.726  19.696 -10.796  1.00  0.00     0.027 C 
HETATM   29  C2  UNL     1     -14.260  20.615 -11.876  1.00  0.00     0.084 C 
HETATM   30  C5  UNL     1     -15.192  20.597  -9.695  1.00  0.00    -0.000 C 
HETATM   31  C1  UNL     1     -12.770  20.793 -11.944  1.00  0.00     0.049 C 
HETATM   32  C3  UNL     1     -14.905  21.951 -11.588  1.00  0.00     0.152 C 
HETATM   33  C4  UNL     1     -14.812  21.992 -10.054  1.00  0.00     0.040 C 
HETATM   34  C26 UNL     1     -13.490  20.669  -7.824  1.00  0.00     0.006 C 
HETATM   35  C25 UNL     1     -12.876  19.492  -7.048  1.00  0.00     0.010 C 
BRANCH  29  36
HETATM   36  O1  UNL     1     -14.696  20.201 -13.135  1.00  0.00    -0.387 OA
ATOM     37  H1  UNL     1     -14.675  19.251 -13.151  1.00  0.00     0.210 HD
ENDBRANCH  29  36
BRANCH  32  38
HETATM   38  O2  UNL     1     -14.198  23.014 -12.144  1.00  0.00    -0.393 OA
ATOM     39  H2  UNL     1     -13.574  23.392 -11.536  1.00  0.00     0.210 HD
ENDBRANCH  32  38
ENDBRANCH   1  22
TORSDOF 7
ENDMDL
MODEL 5
REMARK VINA RESULT: -7.670701986      1.419      1.735
REMARK  7 active torsions:
REMARK  status: ('A' for Active; 'I' for Inactive)
REMARK    1  A    between atoms: C2_2  and  O1_3 
REMARK    2  A    between atoms: C3_5  and  O2_6 
REMARK    3  A    between atoms: C11_15  and  C12_16 
REMARK    4  A    between atoms: C13_17  and  C14_18 
REMARK    5  A    between atoms: C16_22  and  C17_23 
REMARK       I    between atoms: C17_23  and  N2_25 
REMARK    6  A    between atoms: N2_25  and  C18_27 
REMARK    7  A    between atoms: C18_27  and  C19_28 
ROOT
HETATM    1  C12 UNL     1     -13.867  17.265  -6.597  1.00  0.00    -0.019 C 
HETATM    2  C13 UNL     1     -12.832  16.537  -6.417  1.00  0.00     0.027 C 
ENDROOT
BRANCH   2   3
HETATM    3  C14 UNL     1     -11.428  16.850  -6.508  1.00  0.00     0.050 A 
HETATM    4  N1  UNL     1     -10.544  16.631  -7.493  1.00  0.00    -0.364 N 
HETATM    5  C15 UNL     1      -9.351  17.101  -7.120  1.00  0.00     0.106 A 
ATOM      6  H1  UNL     1     -10.751  16.179  -8.384  1.00  0.00     0.165 HD
HETATM    7  C16 UNL     1      -9.445  17.654  -5.834  1.00  0.00     0.067 A 
HETATM    8  C24 UNL     1     -10.747  17.496  -5.451  1.00  0.00     0.054 A 
HETATM    9 BR1  UNL     1     -11.516  18.022  -3.760  1.00  0.00    -0.048 Br
BRANCH   7  10
HETATM   10  C17 UNL     1      -8.348  18.289  -5.153  1.00  0.00     0.258 C 
HETATM   11  O3  UNL     1      -8.208  17.943  -3.917  1.00  0.00    -0.267 OA
HETATM   12  N2  UNL     1      -7.470  19.211  -5.753  1.00  0.00    -0.335 N 
ATOM     13  H2  UNL     1      -7.564  19.491  -6.729  1.00  0.00     0.168 HD
BRANCH  12  14
HETATM   14  C18 UNL     1      -6.431  19.733  -4.907  1.00  0.00     0.091 C 
BRANCH  14  15
HETATM   15  C19 UNL     1      -5.087  19.249  -5.088  1.00  0.00     0.085 C 
HETATM   16 CL1  UNL     1      -3.983  20.714  -5.120  1.00  0.00    -0.112 Cl
HETATM   17  C20 UNL     1      -4.492  18.398  -3.970  1.00  0.00     0.033 C 
HETATM   18  C21 UNL     1      -3.064  18.254  -4.519  1.00  0.00     0.004 C 
HETATM   19  C22 UNL     1      -3.195  18.341  -6.047  1.00  0.00     0.022 C 
HETATM   20  C23 UNL     1      -4.725  18.444  -6.286  1.00  0.00     0.111 C 
HETATM   21 CL2  UNL     1      -5.310  16.771  -6.249  1.00  0.00    -0.123 Cl
ENDBRANCH  14  15
ENDBRANCH  12  14
ENDBRANCH   7  10
ENDBRANCH   2   3
BRANCH   1  22
HETATM   22  C11 UNL     1     -14.054  18.634  -6.944  1.00  0.00     0.017 C 
HETATM   23  C9  UNL     1     -14.788  18.754  -8.337  1.00  0.00    -0.033 C 
HETATM   24  C8  UNL     1     -14.115  17.983  -9.398  1.00  0.00     0.011 C 
HETATM   25  C10 UNL     1     -16.233  18.384  -8.114  1.00  0.00     0.016 C 
HETATM   26  C27 UNL     1     -14.706  20.249  -8.512  1.00  0.00    -0.001 C 
HETATM   27  C7  UNL     1     -13.820  18.743 -10.672  1.00  0.00     0.009 C 
HETATM   28  C6  UNL     1     -14.806  19.800 -10.998  1.00  0.00     0.027 C 
HETATM   29  C2  UNL     1     -14.317  20.686 -12.095  1.00  0.00     0.084 C 
HETATM   30  C5  UNL     1     -15.133  20.726  -9.868  1.00  0.00    -0.000 C 
HETATM   31  C1  UNL     1     -12.823  20.735 -12.240  1.00  0.00     0.049 C 
HETATM   32  C3  UNL     1     -14.826  22.071 -11.764  1.00  0.00     0.152 C 
HETATM   33  C4  UNL     1     -14.650  22.086 -10.237  1.00  0.00     0.040 C 
HETATM   34  C26 UNL     1     -13.337  20.627  -8.088  1.00  0.00     0.006 C 
HETATM   35  C25 UNL     1     -12.789  19.393  -7.353  1.00  0.00     0.010 C 
BRANCH  29  36
HETATM   36  O1  UNL     1     -14.853  20.327 -13.332  1.00  0.00    -0.387 OA
ATOM     37  H1  UNL     1     -15.730  20.687 -13.383  1.00  0.00     0.210 HD
ENDBRANCH  29  36
BRANCH  32  38
HETATM   38  O2  UNL     1     -14.058  23.074 -12.350  1.00  0.00    -0.393 OA
ATOM     39  H2  UNL     1     -13.941  23.822 -11.776  1.00  0.00     0.210 HD
ENDBRANCH  32  38
ENDBRANCH   1  22
TORSDOF 7
ENDMDL
