MODEL 1
REMARK VINA RESULT: -6.941483612      0.000      0.000
REMARK  7 active torsions:
REMARK  status: ('A' for Active; 'I' for Inactive)
REMARK    1  A    between atoms: C2_2  and  C3_3 
REMARK    2  A    between atoms: C2_2  and  C4_5 
REMARK    3  A    between atoms: C12_13  and  O1_14 
REMARK    4  A    between atoms: N1_16  and  C13_17 
REMARK    5  A    between atoms: N2_20  and  C16_21 
REMARK    6  A    between atoms: C16_21  and  C17_22 
REMARK    7  A    between atoms: C20_26  and  O2_27 
ROOT
HETATM    1  C4  UNL     1     -12.228  16.969  -5.435  1.00  0.00     0.018 C 
HETATM    2  C5  UNL     1     -12.548  17.992  -4.347  1.00  0.00     0.008 C 
HETATM    3  C6  UNL     1     -11.839  19.266  -4.750  1.00  0.00     0.007 C 
HETATM    4  C7  UNL     1     -11.031  18.894  -5.946  1.00  0.00     0.014 C 
HETATM    5  C8  UNL     1     -10.704  20.013  -6.879  1.00  0.00     0.022 C 
HETATM    6  C9  UNL     1     -11.880  20.658  -7.544  1.00  0.00     0.084 C 
HETATM    7  C10 UNL     1     -12.264  21.989  -7.009  1.00  0.00     0.013 A 
HETATM    8  C11 UNL     1     -13.458  22.510  -7.411  1.00  0.00     0.004 A 
HETATM    9  C12 UNL     1     -13.630  23.732  -6.833  1.00  0.00     0.151 A 
HETATM   10  N1  UNL     1     -12.560  23.998  -6.068  1.00  0.00    -0.303 N 
HETATM   11  C20 UNL     1     -11.740  22.947  -6.176  1.00  0.00     0.152 A 
HETATM   12  C21 UNL     1     -14.367  21.754  -8.345  1.00  0.00     0.048 C 
HETATM   13  C22 UNL     1     -14.399  20.373  -7.726  1.00  0.00     0.071 C 
HETATM   14  C23 UNL     1     -13.004  19.730  -7.782  1.00  0.00     0.180 C 
HETATM   15  F1  UNL     1     -12.965  19.222  -9.099  1.00  0.00    -0.219 F 
HETATM   16  N3  UNL     1     -13.126  18.590  -6.940  1.00  0.00    -0.378 N 
ATOM     17  H3  UNL     1     -14.039  18.306  -6.586  1.00  0.00     0.157 HD
HETATM   18  C24 UNL     1     -11.973  17.859  -6.602  1.00  0.00     0.032 C 
HETATM   19  C25 UNL     1     -11.205  17.241  -7.717  1.00  0.00     0.039 C 
ENDROOT
BRANCH  10  20
HETATM   20  C13 UNL     1     -12.469  25.243  -5.336  1.00  0.00     0.097 C 
HETATM   21  C14 UNL     1     -12.324  25.178  -3.881  1.00  0.00     0.056 C 
HETATM   22  C15 UNL     1     -10.960  25.314  -3.290  1.00  0.00     0.274 C 
HETATM   23  N2  UNL     1     -10.237  26.396  -3.857  1.00  0.00     0.089 N 
HETATM   24  C18 UNL     1     -10.128  26.200  -5.265  1.00  0.00     0.274 C 
HETATM   25  C19 UNL     1     -11.454  26.152  -5.949  1.00  0.00     0.056 C 
BRANCH  23  26
HETATM   26  C16 UNL     1     -10.545  27.705  -3.415  1.00  0.00     0.283 C 
BRANCH  26  27
HETATM   27  C17 UNL     1     -10.146  27.922  -1.993  1.00  0.00     0.115 C 
HETATM   28 BR2  UNL     1     -11.683  28.244  -0.859  1.00  0.00    -0.095 Br
ENDBRANCH  26  27
ENDBRANCH  23  26
ENDBRANCH  10  20
BRANCH   9  29
HETATM   29  O1  UNL     1     -14.762  24.581  -7.017  1.00  0.00    -0.345 OA
ATOM     30  H1  UNL     1     -15.669  24.320  -6.910  1.00  0.00     0.219 HD
ENDBRANCH   9  29
BRANCH  11  31
HETATM   31  O2  UNL     1     -10.524  22.867  -5.515  1.00  0.00    -0.345 OA
ATOM     32  H2  UNL     1     -10.289  22.222  -4.859  1.00  0.00     0.219 HD
ENDBRANCH  11  31
BRANCH   1  33
HETATM   33  C2  UNL     1     -13.274  15.934  -5.544  1.00  0.00    -0.002 C 
HETATM   34  C1  UNL     1     -12.925  14.665  -6.248  1.00  0.00     0.011 C 
BRANCH  33  35
HETATM   35  C3  UNL     1     -14.064  15.683  -4.289  1.00  0.00     0.089 C 
HETATM   36 BR1  UNL     1     -14.284  13.769  -4.037  1.00  0.00    -0.096 Br
ENDBRANCH  33  35
ENDBRANCH   1  33
TORSDOF 7
ENDMDL
MODEL 2
REMARK VINA RESULT: -6.515461000      3.178      4.781
REMARK  7 active torsions:
REMARK  status: ('A' for Active; 'I' for Inactive)
REMARK    1  A    between atoms: C2_2  and  C3_3 
REMARK    2  A    between atoms: C2_2  and  C4_5 
REMARK    3  A    between atoms: C12_13  and  O1_14 
REMARK    4  A    between atoms: N1_16  and  C13_17 
REMARK    5  A    between atoms: N2_20  and  C16_21 
REMARK    6  A    between atoms: C16_21  and  C17_22 
REMARK    7  A    between atoms: C20_26  and  O2_27 
ROOT
HETATM    1  C4  UNL     1     -13.555  19.014 -11.614  1.00  0.00     0.018 C 
HETATM    2  C5  UNL     1     -12.826  20.357 -11.576  1.00  0.00     0.008 C 
HETATM    3  C6  UNL     1     -13.454  21.139 -10.445  1.00  0.00     0.007 C 
HETATM    4  C7  UNL     1     -14.597  20.301  -9.985  1.00  0.00     0.014 C 
HETATM    5  C8  UNL     1     -15.025  20.511  -8.569  1.00  0.00     0.022 C 
HETATM    6  C9  UNL     1     -14.004  20.159  -7.533  1.00  0.00     0.084 C 
HETATM    7  C10 UNL     1     -13.326  21.312  -6.888  1.00  0.00     0.013 A 
HETATM    8  C11 UNL     1     -12.232  21.051  -6.117  1.00  0.00     0.004 A 
HETATM    9  C12 UNL     1     -11.759  22.221  -5.602  1.00  0.00     0.151 A 
HETATM   10  N1  UNL     1     -12.539  23.225  -6.033  1.00  0.00    -0.303 N 
HETATM   11  C20 UNL     1     -13.481  22.675  -6.807  1.00  0.00     0.152 A 
HETATM   12  C21 UNL     1     -11.713  19.648  -5.945  1.00  0.00     0.048 C 
HETATM   13  C22 UNL     1     -11.685  19.131  -7.368  1.00  0.00     0.071 C 
HETATM   14  C23 UNL     1     -13.111  19.054  -7.935  1.00  0.00     0.180 C 
HETATM   15  F1  UNL     1     -13.570  17.823  -7.417  1.00  0.00    -0.219 F 
HETATM   16  N3  UNL     1     -12.907  18.826  -9.325  1.00  0.00    -0.378 N 
ATOM     17  H3  UNL     1     -11.974  18.618  -9.681  1.00  0.00     0.157 HD
HETATM   18  C24 UNL     1     -14.005  18.889 -10.201  1.00  0.00     0.032 C 
HETATM   19  C25 UNL     1     -15.119  17.929  -9.971  1.00  0.00     0.039 C 
ENDROOT
BRANCH  10  20
HETATM   20  C13 UNL     1     -12.272  24.590  -5.632  1.00  0.00     0.097 C 
HETATM   21  C14 UNL     1     -12.191  25.611  -6.676  1.00  0.00     0.056 C 
HETATM   22  C15 UNL     1     -13.390  26.458  -6.946  1.00  0.00     0.274 C 
HETATM   23  N2  UNL     1     -13.976  26.952  -5.750  1.00  0.00     0.089 N 
HETATM   24  C18 UNL     1     -14.345  25.854  -4.920  1.00  0.00     0.274 C 
HETATM   25  C19 UNL     1     -13.180  25.009  -4.523  1.00  0.00     0.056 C 
BRANCH  23  26
HETATM   26  C16 UNL     1     -13.357  28.055  -5.114  1.00  0.00     0.283 C 
BRANCH  26  27
HETATM   27  C17 UNL     1     -14.328  29.153  -4.832  1.00  0.00     0.115 C 
HETATM   28 BR2  UNL     1     -14.601  30.284  -6.380  1.00  0.00    -0.095 Br
ENDBRANCH  26  27
ENDBRANCH  23  26
ENDBRANCH  10  20
BRANCH   9  29
HETATM   29  O1  UNL     1     -10.624  22.348  -4.747  1.00  0.00    -0.345 OA
ATOM     30  H1  UNL     1     -10.649  22.604  -3.833  1.00  0.00     0.219 HD
ENDBRANCH   9  29
BRANCH  11  31
HETATM   31  O2  UNL     1     -14.471  23.416  -7.433  1.00  0.00    -0.345 OA
ATOM     32  H2  UNL     1     -14.333  24.194  -7.960  1.00  0.00     0.219 HD
ENDBRANCH  11  31
BRANCH   1  33
HETATM   33  C2  UNL     1     -12.715  17.947 -12.192  1.00  0.00    -0.002 C 
HETATM   34  C1  UNL     1     -13.180  17.302 -13.454  1.00  0.00     0.011 C 
BRANCH  33  35
HETATM   35  C3  UNL     1     -11.238  18.232 -12.215  1.00  0.00     0.089 C 
HETATM   36 BR1  UNL     1     -10.300  16.858 -11.211  1.00  0.00    -0.096 Br
ENDBRANCH  33  35
ENDBRANCH   1  33
TORSDOF 7
ENDMDL
MODEL 3
REMARK VINA RESULT: -6.446103964      0.848      1.039
REMARK  7 active torsions:
REMARK  status: ('A' for Active; 'I' for Inactive)
REMARK    1  A    between atoms: C2_2  and  C3_3 
REMARK    2  A    between atoms: C2_2  and  C4_5 
REMARK    3  A    between atoms: C12_13  and  O1_14 
REMARK    4  A    between atoms: N1_16  and  C13_17 
REMARK    5  A    between atoms: N2_20  and  C16_21 
REMARK    6  A    between atoms: C16_21  and  C17_22 
REMARK    7  A    between atoms: C20_26  and  O2_27 
ROOT
HETATM    1  C4  UNL     1     -12.195  16.992  -4.760  1.00  0.00     0.018 C 
HETATM    2  C5  UNL     1     -12.419  18.218  -3.877  1.00  0.00     0.008 C 
HETATM    3  C6  UNL     1     -11.711  19.363  -4.566  1.00  0.00     0.007 C 
HETATM    4  C7  UNL     1     -10.993  18.738  -5.713  1.00  0.00     0.014 C 
HETATM    5  C8  UNL     1     -10.705  19.641  -6.866  1.00  0.00     0.022 C 
HETATM    6  C9  UNL     1     -11.909  20.184  -7.571  1.00  0.00     0.084 C 
HETATM    7  C10 UNL     1     -12.228  21.606  -7.286  1.00  0.00     0.013 A 
HETATM    8  C11 UNL     1     -13.435  22.080  -7.709  1.00  0.00     0.004 A 
HETATM    9  C12 UNL     1     -13.541  23.397  -7.373  1.00  0.00     0.151 A 
HETATM   10  N1  UNL     1     -12.416  23.769  -6.743  1.00  0.00    -0.303 N 
HETATM   11  C20 UNL     1     -11.628  22.690  -6.692  1.00  0.00     0.152 A 
HETATM   12  C21 UNL     1     -14.420  21.188  -8.417  1.00  0.00     0.048 C 
HETATM   13  C22 UNL     1     -14.441  19.956  -7.538  1.00  0.00     0.071 C 
HETATM   14  C23 UNL     1     -13.067  19.267  -7.552  1.00  0.00     0.180 C 
HETATM   15  F1  UNL     1     -13.127  18.511  -8.743  1.00  0.00    -0.219 F 
HETATM   16  N3  UNL     1     -13.157  18.318  -6.497  1.00  0.00    -0.378 N 
ATOM     17  H3  UNL     1     -14.050  18.140  -6.038  1.00  0.00     0.157 HD
HETATM   18  C24 UNL     1     -12.000  17.627  -6.093  1.00  0.00     0.032 C 
HETATM   19  C25 UNL     1     -11.322  16.778  -7.110  1.00  0.00     0.039 C 
ENDROOT
BRANCH  10  20
HETATM   20  C13 UNL     1     -12.249  25.129  -6.277  1.00  0.00     0.097 C 
HETATM   21  C14 UNL     1     -12.121  25.353  -4.837  1.00  0.00     0.056 C 
HETATM   22  C15 UNL     1     -10.756  25.521  -4.255  1.00  0.00     0.274 C 
HETATM   23  N2  UNL     1      -9.958  26.417  -5.015  1.00  0.00     0.089 N 
HETATM   24  C18 UNL     1      -9.850  25.931  -6.351  1.00  0.00     0.274 C 
HETATM   25  C19 UNL     1     -11.172  25.828  -7.039  1.00  0.00     0.056 C 
BRANCH  23  26
HETATM   26  C16 UNL     1     -10.182  27.805  -4.855  1.00  0.00     0.283 C 
BRANCH  26  27
HETATM   27  C17 UNL     1     -10.197  28.205  -3.417  1.00  0.00     0.115 C 
HETATM   28 BR2  UNL     1     -11.911  28.942  -2.895  1.00  0.00    -0.095 Br
ENDBRANCH  26  27
ENDBRANCH  23  26
ENDBRANCH  10  20
BRANCH   9  29
HETATM   29  O1  UNL     1     -14.664  24.232  -7.650  1.00  0.00    -0.345 OA
ATOM     30  H1  UNL     1     -14.651  25.009  -8.195  1.00  0.00     0.219 HD
ENDBRANCH   9  29
BRANCH  11  31
HETATM   31  O2  UNL     1     -10.372  22.699  -6.105  1.00  0.00    -0.345 OA
ATOM     32  H2  UNL     1      -9.718  23.380  -6.204  1.00  0.00     0.219 HD
ENDBRANCH  11  31
BRANCH   1  33
HETATM   33  C2  UNL     1     -13.268  15.991  -4.599  1.00  0.00    -0.002 C 
HETATM   34  C1  UNL     1     -14.677  16.452  -4.759  1.00  0.00     0.011 C 
BRANCH  33  35
HETATM   35  C3  UNL     1     -13.025  14.672  -5.278  1.00  0.00     0.089 C 
HETATM   36 BR1  UNL     1     -13.963  13.269  -4.315  1.00  0.00    -0.096 Br
ENDBRANCH  33  35
ENDBRANCH   1  33
TORSDOF 7
ENDMDL
MODEL 4
REMARK VINA RESULT: -6.443630546      5.652      8.966
REMARK  7 active torsions:
REMARK  status: ('A' for Active; 'I' for Inactive)
REMARK    1  A    between atoms: C2_2  and  C3_3 
REMARK    2  A    between atoms: C2_2  and  C4_5 
REMARK    3  A    between atoms: C12_13  and  O1_14 
REMARK    4  A    between atoms: N1_16  and  C13_17 
REMARK    5  A    between atoms: N2_20  and  C16_21 
REMARK    6  A    between atoms: C16_21  and  C17_22 
REMARK    7  A    between atoms: C20_26  and  O2_27 
ROOT
HETATM    1  C4  UNL     1     -12.785  17.064  -6.072  1.00  0.00     0.018 C 
HETATM    2  C5  UNL     1     -11.858  15.932  -6.510  1.00  0.00     0.008 C 
HETATM    3  C6  UNL     1     -10.724  16.590  -7.264  1.00  0.00     0.007 C 
HETATM    4  C7  UNL     1     -11.111  18.026  -7.364  1.00  0.00     0.014 C 
HETATM    5  C8  UNL     1      -9.982  18.991  -7.522  1.00  0.00     0.022 C 
HETATM    6  C9  UNL     1      -9.027  19.053  -6.371  1.00  0.00     0.084 C 
HETATM    7  C10 UNL     1      -7.719  18.383  -6.591  1.00  0.00     0.013 A 
HETATM    8  C11 UNL     1      -6.912  18.204  -5.507  1.00  0.00     0.004 A 
HETATM    9  C12 UNL     1      -5.760  17.592  -5.903  1.00  0.00     0.151 A 
HETATM   10  N1  UNL     1      -5.823  17.380  -7.227  1.00  0.00    -0.303 N 
HETATM   11  C20 UNL     1      -7.003  17.857  -7.638  1.00  0.00     0.152 A 
HETATM   12  C21 UNL     1      -7.339  18.646  -4.132  1.00  0.00     0.048 C 
HETATM   13  C22 UNL     1      -8.746  18.098  -4.032  1.00  0.00     0.071 C 
HETATM   14  C23 UNL     1      -9.658  18.779  -5.064  1.00  0.00     0.180 C 
HETATM   15  F1  UNL     1     -10.000  19.982  -4.410  1.00  0.00    -0.219 F 
HETATM   16  N3  UNL     1     -10.840  17.987  -5.041  1.00  0.00    -0.378 N 
ATOM     17  H3  UNL     1     -10.965  17.268  -4.329  1.00  0.00     0.157 HD
HETATM   18  C24 UNL     1     -11.835  18.209  -6.010  1.00  0.00     0.032 C 
HETATM   19  C25 UNL     1     -12.462  19.558  -6.050  1.00  0.00     0.039 C 
ENDROOT
BRANCH  10  20
HETATM   20  C13 UNL     1      -4.724  16.746  -7.924  1.00  0.00     0.097 C 
HETATM   21  C14 UNL     1      -5.028  15.961  -9.121  1.00  0.00     0.056 C 
HETATM   22  C15 UNL     1      -4.850  16.596 -10.460  1.00  0.00     0.274 C 
HETATM   23  N2  UNL     1      -3.612  17.285 -10.565  1.00  0.00     0.089 N 
HETATM   24  C18 UNL     1      -3.544  18.284  -9.551  1.00  0.00     0.274 C 
HETATM   25  C19 UNL     1      -3.616  17.718  -8.171  1.00  0.00     0.056 C 
BRANCH  23  26
HETATM   26  C16 UNL     1      -2.443  16.519 -10.787  1.00  0.00     0.283 C 
BRANCH  26  27
HETATM   27  C17 UNL     1      -2.676  15.418 -11.768  1.00  0.00     0.115 C 
HETATM   28 BR2  UNL     1      -2.523  13.674 -10.939  1.00  0.00    -0.095 Br
ENDBRANCH  26  27
ENDBRANCH  23  26
ENDBRANCH  10  20
BRANCH   9  29
HETATM   29  O1  UNL     1      -4.675  17.240  -5.047  1.00  0.00    -0.345 OA
ATOM     30  H1  UNL     1      -3.994  16.611  -5.253  1.00  0.00     0.219 HD
ENDBRANCH   9  29
BRANCH  11  31
HETATM   31  O2  UNL     1      -7.418  17.808  -8.960  1.00  0.00    -0.345 OA
ATOM     32  H2  UNL     1      -6.855  17.685  -9.715  1.00  0.00     0.219 HD
ENDBRANCH  11  31
BRANCH   1  33
HETATM   33  C2  UNL     1     -13.554  16.710  -4.863  1.00  0.00    -0.002 C 
HETATM   34  C1  UNL     1     -15.043  16.704  -4.963  1.00  0.00     0.011 C 
BRANCH  33  35
HETATM   35  C3  UNL     1     -13.035  15.527  -4.093  1.00  0.00     0.089 C 
HETATM   36 BR1  UNL     1     -14.308  14.065  -4.226  1.00  0.00    -0.096 Br
ENDBRANCH  33  35
ENDBRANCH   1  33
TORSDOF 7
ENDMDL
MODEL 5
REMARK VINA RESULT: -6.317113679      5.387      7.557
REMARK  7 active torsions:
REMARK  status: ('A' for Active; 'I' for Inactive)
REMARK    1  A    between atoms: C2_2  and  C3_3 
REMARK    2  A    between atoms: C2_2  and  C4_5 
REMARK    3  A    between atoms: C12_13  and  O1_14 
REMARK    4  A    between atoms: N1_16  and  C13_17 
REMARK    5  A    between atoms: N2_20  and  C16_21 
REMARK    6  A    between atoms: C16_21  and  C17_22 
REMARK    7  A    between atoms: C20_26  and  O2_27 
ROOT
HETATM    1  C4  UNL     1     -13.497  19.368  -7.000  1.00  0.00     0.018 C 
HETATM    2  C5  UNL     1     -12.415  20.362  -6.585  1.00  0.00     0.008 C 
HETATM    3  C6  UNL     1     -11.261  19.532  -6.071  1.00  0.00     0.007 C 
HETATM    4  C7  UNL     1     -11.768  18.130  -6.063  1.00  0.00     0.014 C 
HETATM    5  C8  UNL     1     -10.727  17.065  -6.167  1.00  0.00     0.022 C 
HETATM    6  C9  UNL     1      -9.943  17.056  -7.442  1.00  0.00     0.084 C 
HETATM    7  C10 UNL     1      -8.559  17.587  -7.343  1.00  0.00     0.013 A 
HETATM    8  C11 UNL     1      -7.889  17.822  -8.507  1.00  0.00     0.004 A 
HETATM    9  C12 UNL     1      -6.641  18.288  -8.218  1.00  0.00     0.151 A 
HETATM   10  N1  UNL     1      -6.507  18.352  -6.884  1.00  0.00    -0.303 N 
HETATM   11  C20 UNL     1      -7.663  17.930  -6.360  1.00  0.00     0.152 A 
HETATM   12  C21 UNL     1      -8.535  17.577  -9.845  1.00  0.00     0.048 C 
HETATM   13  C22 UNL     1      -9.883  18.246  -9.687  1.00  0.00     0.071 C 
HETATM   14  C23 UNL     1     -10.712  17.529  -8.611  1.00  0.00     0.180 C 
HETATM   15  F1  UNL     1     -11.253  16.440  -9.329  1.00  0.00    -0.219 F 
HETATM   16  N3  UNL     1     -11.805  18.412  -8.385  1.00  0.00    -0.378 N 
ATOM     17  H3  UNL     1     -11.952  19.215  -8.995  1.00  0.00     0.157 HD
HETATM   18  C24 UNL     1     -12.679  18.163  -7.312  1.00  0.00     0.032 C 
HETATM   19  C25 UNL     1     -13.423  16.874  -7.321  1.00  0.00     0.039 C 
ENDROOT
BRANCH  10  20
HETATM   20  C13 UNL     1      -5.269  18.810  -6.289  1.00  0.00     0.097 C 
HETATM   21  C14 UNL     1      -5.341  19.851  -5.264  1.00  0.00     0.056 C 
HETATM   22  C15 UNL     1      -5.295  19.447  -3.828  1.00  0.00     0.274 C 
HETATM   23  N2  UNL     1      -4.264  18.504  -3.570  1.00  0.00     0.089 N 
HETATM   24  C18 UNL     1      -4.470  17.351  -4.382  1.00  0.00     0.274 C 
HETATM   25  C19 UNL     1      -4.431  17.656  -5.844  1.00  0.00     0.056 C 
BRANCH  23  26
HETATM   26  C16 UNL     1      -2.936  18.984  -3.465  1.00  0.00     0.283 C 
BRANCH  26  27
HETATM   27  C17 UNL     1      -2.363  18.744  -2.107  1.00  0.00     0.115 C 
HETATM   28 BR2  UNL     1      -1.560  16.987  -1.968  1.00  0.00    -0.095 Br
ENDBRANCH  26  27
ENDBRANCH  23  26
ENDBRANCH  10  20
BRANCH   9  29
HETATM   29  O1  UNL     1      -5.650  18.646  -9.179  1.00  0.00    -0.345 OA
ATOM     30  H1  UNL     1      -5.820  19.053 -10.020  1.00  0.00     0.219 HD
ENDBRANCH   9  29
BRANCH  11  31
HETATM   31  O2  UNL     1      -7.893  17.861  -4.995  1.00  0.00    -0.345 OA
ATOM     32  H2  UNL     1      -7.593  18.490  -4.349  1.00  0.00     0.219 HD
ENDBRANCH  11  31
BRANCH   1  33
HETATM   33  C2  UNL     1     -14.382  19.919  -8.045  1.00  0.00    -0.002 C 
HETATM   34  C1  UNL     1     -15.733  19.306  -8.206  1.00  0.00     0.011 C 
BRANCH  33  35
HETATM   35  C3  UNL     1     -14.430  21.420  -8.121  1.00  0.00     0.089 C 
HETATM   36 BR1  UNL     1     -14.276  21.977  -9.976  1.00  0.00    -0.096 Br
ENDBRANCH  33  35
ENDBRANCH   1  33
TORSDOF 7
ENDMDL
