MODEL 1
REMARK VINA RESULT: -5.994910486      0.000      0.000
REMARK  9 active torsions:
REMARK  status: ('A' for Active; 'I' for Inactive)
REMARK    1  A    between atoms: C2_2  and  C3_3 
REMARK    2  A    between atoms: C3_3  and  N1_4 
REMARK    3  A    between atoms: C3_3  and  C12_14 
REMARK    4  A    between atoms: N1_4  and  C4_6 
REMARK    5  A    between atoms: C4_6  and  C6_8 
REMARK    6  A    between atoms: C6_8  and  C8_10 
REMARK    7  A    between atoms: C8_10  and  C9_11 
REMARK    8  A    between atoms: C12_14  and  O1_15 
REMARK    9  A    between atoms: C12_14  and  C13_17 
ROOT
HETATM    1  C3  UNL     1      26.295 -14.762  -3.287  1.00  0.00     0.107 C 
ENDROOT
BRANCH   1   2
HETATM    2  C2  UNL     1      26.400 -15.245  -4.716  1.00  0.00     0.023 C 
HETATM    3  C1  UNL     1      27.802 -14.937  -5.274  1.00  0.00     0.007 C 
ENDBRANCH   1   2
BRANCH   1   4
HETATM    4  N1  UNL     1      26.092 -15.738  -2.312  1.00  0.00    -0.410 N 
ATOM      5  H1  UNL     1      25.371 -16.430  -2.520  1.00  0.00     0.154 HD
BRANCH   4   6
HETATM    6  C4  UNL     1      26.737 -15.888  -1.105  1.00  0.00     0.076 C 
HETATM    7  C5  UNL     1      26.998 -14.741  -0.235  1.00  0.00     0.032 C 
BRANCH   6   8
HETATM    8  C6  UNL     1      25.952 -16.996  -0.357  1.00  0.00     0.004 C 
HETATM    9  C7  UNL     1      26.989 -17.902   0.191  1.00  0.00     0.012 C 
BRANCH   8  10
HETATM   10  C8  UNL     1      24.826 -17.551  -1.106  1.00  0.00     0.010 C 
BRANCH  10  11
HETATM   11  C9  UNL     1      23.534 -17.705  -0.366  1.00  0.00    -0.022 C 
HETATM   12  C10 UNL     1      22.716 -16.439  -0.714  1.00  0.00     0.009 C 
HETATM   13  C11 UNL     1      22.677 -18.866  -0.808  1.00  0.00     0.009 C 
ENDBRANCH  10  11
ENDBRANCH   8  10
ENDBRANCH   6   8
ENDBRANCH   4   6
ENDBRANCH   1   4
BRANCH   1  14
HETATM   14  C12 UNL     1      25.349 -13.591  -3.256  1.00  0.00     0.171 C 
BRANCH  14  15
HETATM   15  O1  UNL     1      24.381 -13.652  -4.259  1.00  0.00    -0.391 OA
ATOM     16  H1  UNL     1      23.589 -14.097  -3.979  1.00  0.00     0.210 HD
ENDBRANCH  14  15
BRANCH  14  17
HETATM   17  C13 UNL     1      25.987 -12.246  -3.358  1.00  0.00     0.216 C 
HETATM   18  C14 UNL     1      26.177 -11.734  -4.746  1.00  0.00     0.037 C 
HETATM   19  C15 UNL     1      27.218 -10.636  -4.523  1.00  0.00     0.029 C 
HETATM   20  C16 UNL     1      28.094 -11.242  -3.481  1.00  0.00     0.233 C 
HETATM   21  N2  UNL     1      27.341 -12.259  -2.820  1.00  0.00    -0.068 N 
ATOM     22  H22 UNL     1      27.361 -12.165  -1.804  1.00  0.00     0.277 HD
ATOM     23  H21 UNL     1      27.780 -13.177  -2.881  1.00  0.00     0.277 HD
ENDBRANCH  14  17
ENDBRANCH   1  14
TORSDOF 9
ENDMDL
MODEL 2
REMARK VINA RESULT: -5.796978300      1.900      3.279
REMARK  9 active torsions:
REMARK  status: ('A' for Active; 'I' for Inactive)
REMARK    1  A    between atoms: C2_2  and  C3_3 
REMARK    2  A    between atoms: C3_3  and  N1_4 
REMARK    3  A    between atoms: C3_3  and  C12_14 
REMARK    4  A    between atoms: N1_4  and  C4_6 
REMARK    5  A    between atoms: C4_6  and  C6_8 
REMARK    6  A    between atoms: C6_8  and  C8_10 
REMARK    7  A    between atoms: C8_10  and  C9_11 
REMARK    8  A    between atoms: C12_14  and  O1_15 
REMARK    9  A    between atoms: C12_14  and  C13_17 
ROOT
HETATM    1  C3  UNL     1      27.025 -13.885  -0.238  1.00  0.00     0.107 C 
ENDROOT
BRANCH   1   2
HETATM    2  C2  UNL     1      26.829 -12.967   0.948  1.00  0.00     0.023 C 
HETATM    3  C1  UNL     1      27.629 -13.488   2.156  1.00  0.00     0.007 C 
ENDBRANCH   1   2
BRANCH   1   4
HETATM    4  N1  UNL     1      27.572 -15.139   0.029  1.00  0.00    -0.410 N 
ATOM      5  H1  UNL     1      28.115 -15.213   0.889  1.00  0.00     0.154 HD
BRANCH   4   6
HETATM    6  C4  UNL     1      27.474 -16.292  -0.718  1.00  0.00     0.076 C 
HETATM    7  C5  UNL     1      28.620 -17.184  -0.891  1.00  0.00     0.032 C 
BRANCH   6   8
HETATM    8  C6  UNL     1      26.250 -17.049  -0.144  1.00  0.00     0.004 C 
HETATM    9  C7  UNL     1      26.805 -18.294   0.441  1.00  0.00     0.012 C 
BRANCH   8  10
HETATM   10  C8  UNL     1      25.104 -17.121  -1.047  1.00  0.00     0.010 C 
BRANCH  10  11
HETATM   11  C9  UNL     1      23.791 -17.509  -0.442  1.00  0.00    -0.022 C 
HETATM   12  C10 UNL     1      22.839 -16.330  -0.752  1.00  0.00     0.009 C 
HETATM   13  C11 UNL     1      23.135 -18.722  -1.056  1.00  0.00     0.009 C 
ENDBRANCH  10  11
ENDBRANCH   8  10
ENDBRANCH   6   8
ENDBRANCH   4   6
ENDBRANCH   1   4
BRANCH   1  14
HETATM   14  C12 UNL     1      27.687 -13.097  -1.337  1.00  0.00     0.171 C 
BRANCH  14  15
HETATM   15  O1  UNL     1      27.785 -11.736  -1.043  1.00  0.00    -0.391 OA
ATOM     16  H1  UNL     1      28.626 -11.502  -0.667  1.00  0.00     0.210 HD
ENDBRANCH  14  15
BRANCH  14  17
HETATM   17  C13 UNL     1      27.042 -13.199  -2.678  1.00  0.00     0.216 C 
HETATM   18  C14 UNL     1      25.666 -13.774  -2.683  1.00  0.00     0.037 C 
HETATM   19  C15 UNL     1      25.502 -14.158  -4.154  1.00  0.00     0.029 C 
HETATM   20  C16 UNL     1      26.865 -14.650  -4.502  1.00  0.00     0.233 C 
HETATM   21  N2  UNL     1      27.780 -14.097  -3.557  1.00  0.00    -0.068 N 
ATOM     22  H22 UNL     1      28.578 -13.644  -4.001  1.00  0.00     0.277 HD
ATOM     23  H21 UNL     1      28.296 -14.811  -3.044  1.00  0.00     0.277 HD
ENDBRANCH  14  17
ENDBRANCH   1  14
TORSDOF 9
ENDMDL
MODEL 3
REMARK VINA RESULT: -5.787213104      2.474      3.488
REMARK  9 active torsions:
REMARK  status: ('A' for Active; 'I' for Inactive)
REMARK    1  A    between atoms: C2_2  and  C3_3 
REMARK    2  A    between atoms: C3_3  and  N1_4 
REMARK    3  A    between atoms: C3_3  and  C12_14 
REMARK    4  A    between atoms: N1_4  and  C4_6 
REMARK    5  A    between atoms: C4_6  and  C6_8 
REMARK    6  A    between atoms: C6_8  and  C8_10 
REMARK    7  A    between atoms: C8_10  and  C9_11 
REMARK    8  A    between atoms: C12_14  and  O1_15 
REMARK    9  A    between atoms: C12_14  and  C13_17 
ROOT
HETATM    1  C3  UNL     1      28.470 -15.042  -4.060  1.00  0.00     0.107 C 
ENDROOT
BRANCH   1   2
HETATM    2  C2  UNL     1      29.610 -15.959  -3.676  1.00  0.00     0.023 C 
HETATM    3  C1  UNL     1      29.374 -16.531  -2.265  1.00  0.00     0.007 C 
ENDBRANCH   1   2
BRANCH   1   4
HETATM    4  N1  UNL     1      27.234 -15.306  -3.473  1.00  0.00    -0.410 N 
ATOM      5  H1  UNL     1      26.963 -16.289  -3.431  1.00  0.00     0.154 HD
BRANCH   4   6
HETATM    6  C4  UNL     1      26.330 -14.412  -2.943  1.00  0.00     0.076 C 
HETATM    7  C5  UNL     1      25.150 -13.988  -3.697  1.00  0.00     0.032 C 
BRANCH   6   8
HETATM    8  C6  UNL     1      25.938 -14.996  -1.563  1.00  0.00     0.004 C 
HETATM    9  C7  UNL     1      26.881 -14.378  -0.599  1.00  0.00     0.012 C 
BRANCH   8  10
HETATM   10  C8  UNL     1      25.737 -16.443  -1.553  1.00  0.00     0.010 C 
BRANCH  10  11
HETATM   11  C9  UNL     1      25.601 -17.096  -0.213  1.00  0.00    -0.022 C 
HETATM   12  C10 UNL     1      24.321 -17.959  -0.311  1.00  0.00     0.009 C 
HETATM   13  C11 UNL     1      26.705 -18.062   0.145  1.00  0.00     0.009 C 
ENDBRANCH  10  11
ENDBRANCH   8  10
ENDBRANCH   6   8
ENDBRANCH   4   6
ENDBRANCH   1   4
BRANCH   1  14
HETATM   14  C12 UNL     1      28.472 -14.893  -5.558  1.00  0.00     0.171 C 
BRANCH  14  15
HETATM   15  O1  UNL     1      29.343 -15.783  -6.188  1.00  0.00    -0.391 OA
ATOM     16  H1  UNL     1      30.254 -15.620  -5.974  1.00  0.00     0.210 HD
ENDBRANCH  14  15
BRANCH  14  17
HETATM   17  C13 UNL     1      28.807 -13.533  -6.069  1.00  0.00     0.216 C 
HETATM   18  C14 UNL     1      27.728 -12.513  -5.925  1.00  0.00     0.037 C 
HETATM   19  C15 UNL     1      28.189 -11.442  -6.914  1.00  0.00     0.029 C 
HETATM   20  C16 UNL     1      28.738 -12.263  -8.030  1.00  0.00     0.233 C 
HETATM   21  N2  UNL     1      29.058 -13.551  -7.504  1.00  0.00    -0.068 N 
ATOM     22  H22 UNL     1      30.007 -13.845  -7.733  1.00  0.00     0.277 HD
ATOM     23  H21 UNL     1      28.562 -14.304  -7.980  1.00  0.00     0.277 HD
ENDBRANCH  14  17
ENDBRANCH   1  14
TORSDOF 9
ENDMDL
MODEL 4
REMARK VINA RESULT: -5.773451437      1.886      2.816
REMARK  9 active torsions:
REMARK  status: ('A' for Active; 'I' for Inactive)
REMARK    1  A    between atoms: C2_2  and  C3_3 
REMARK    2  A    between atoms: C3_3  and  N1_4 
REMARK    3  A    between atoms: C3_3  and  C12_14 
REMARK    4  A    between atoms: N1_4  and  C4_6 
REMARK    5  A    between atoms: C4_6  and  C6_8 
REMARK    6  A    between atoms: C6_8  and  C8_10 
REMARK    7  A    between atoms: C8_10  and  C9_11 
REMARK    8  A    between atoms: C12_14  and  O1_15 
REMARK    9  A    between atoms: C12_14  and  C13_17 
ROOT
HETATM    1  C3  UNL     1      27.154 -14.280  -2.641  1.00  0.00     0.107 C 
ENDROOT
BRANCH   1   2
HETATM    2  C2  UNL     1      25.927 -13.406  -2.767  1.00  0.00     0.023 C 
HETATM    3  C1  UNL     1      24.971 -13.989  -3.825  1.00  0.00     0.007 C 
ENDBRANCH   1   2
BRANCH   1   4
HETATM    4  N1  UNL     1      27.264 -15.036  -1.475  1.00  0.00    -0.410 N 
ATOM      5  H1  UNL     1      27.201 -14.515  -0.600  1.00  0.00     0.154 HD
BRANCH   4   6
HETATM    6  C4  UNL     1      27.447 -16.395  -1.350  1.00  0.00     0.076 C 
HETATM    7  C5  UNL     1      28.705 -16.950  -0.850  1.00  0.00     0.032 C 
BRANCH   6   8
HETATM    8  C6  UNL     1      26.239 -16.896  -0.519  1.00  0.00     0.004 C 
HETATM    9  C7  UNL     1      26.766 -18.020   0.292  1.00  0.00     0.012 C 
BRANCH   8  10
HETATM   10  C8  UNL     1      25.007 -17.071  -1.285  1.00  0.00     0.010 C 
BRANCH  10  11
HETATM   11  C9  UNL     1      23.792 -17.499  -0.522  1.00  0.00    -0.022 C 
HETATM   12  C10 UNL     1      22.770 -16.354  -0.715  1.00  0.00     0.009 C 
HETATM   13  C11 UNL     1      23.107 -18.736  -1.048  1.00  0.00     0.009 C 
ENDBRANCH  10  11
ENDBRANCH   8  10
ENDBRANCH   6   8
ENDBRANCH   4   6
ENDBRANCH   1   4
BRANCH   1  14
HETATM   14  C12 UNL     1      28.359 -13.455  -3.008  1.00  0.00     0.171 C 
BRANCH  14  15
HETATM   15  O1  UNL     1      28.050 -12.108  -3.209  1.00  0.00    -0.391 OA
ATOM     16  H1  UNL     1      27.203 -11.983  -3.619  1.00  0.00     0.210 HD
ENDBRANCH  14  15
BRANCH  14  17
HETATM   17  C13 UNL     1      29.104 -13.908  -4.218  1.00  0.00     0.216 C 
HETATM   18  C14 UNL     1      28.286 -14.046  -5.457  1.00  0.00     0.037 C 
HETATM   19  C15 UNL     1      29.189 -14.927  -6.321  1.00  0.00     0.029 C 
HETATM   20  C16 UNL     1      29.766 -15.863  -5.315  1.00  0.00     0.233 C 
HETATM   21  N2  UNL     1      29.655 -15.244  -4.033  1.00  0.00    -0.068 N 
ATOM     22  H22 UNL     1      30.537 -15.239  -3.521  1.00  0.00     0.277 HD
ATOM     23  H21 UNL     1      29.116 -15.803  -3.372  1.00  0.00     0.277 HD
ENDBRANCH  14  17
ENDBRANCH   1  14
TORSDOF 9
ENDMDL
MODEL 5
REMARK VINA RESULT: -5.765111270      1.440      2.254
REMARK  9 active torsions:
REMARK  status: ('A' for Active; 'I' for Inactive)
REMARK    1  A    between atoms: C2_2  and  C3_3 
REMARK    2  A    between atoms: C3_3  and  N1_4 
REMARK    3  A    between atoms: C3_3  and  C12_14 
REMARK    4  A    between atoms: N1_4  and  C4_6 
REMARK    5  A    between atoms: C4_6  and  C6_8 
REMARK    6  A    between atoms: C6_8  and  C8_10 
REMARK    7  A    between atoms: C8_10  and  C9_11 
REMARK    8  A    between atoms: C12_14  and  O1_15 
REMARK    9  A    between atoms: C12_14  and  C13_17 
ROOT
HETATM    1  C3  UNL     1      27.397 -13.647  -4.121  1.00  0.00     0.107 C 
ENDROOT
BRANCH   1   2
HETATM    2  C2  UNL     1      27.197 -14.656  -5.229  1.00  0.00     0.023 C 
HETATM    3  C1  UNL     1      28.469 -14.750  -6.092  1.00  0.00     0.007 C 
ENDBRANCH   1   2
BRANCH   1   4
HETATM    4  N1  UNL     1      27.689 -14.158  -2.858  1.00  0.00    -0.410 N 
ATOM      5  H1  UNL     1      28.062 -13.490  -2.183  1.00  0.00     0.154 HD
BRANCH   4   6
HETATM    6  C4  UNL     1      27.538 -15.449  -2.401  1.00  0.00     0.076 C 
HETATM    7  C5  UNL     1      28.631 -16.148  -1.725  1.00  0.00     0.032 C 
BRANCH   6   8
HETATM    8  C6  UNL     1      26.257 -15.428  -1.530  1.00  0.00     0.004 C 
HETATM    9  C7  UNL     1      26.656 -14.752  -0.271  1.00  0.00     0.012 C 
BRANCH   8  10
HETATM   10  C8  UNL     1      25.542 -16.701  -1.473  1.00  0.00     0.010 C 
BRANCH  10  11
HETATM   11  C9  UNL     1      25.370 -17.319  -0.121  1.00  0.00    -0.022 C 
HETATM   12  C10 UNL     1      24.112 -18.211  -0.241  1.00  0.00     0.009 C 
HETATM   13  C11 UNL     1      26.478 -18.251   0.304  1.00  0.00     0.009 C 
ENDBRANCH  10  11
ENDBRANCH   8  10
ENDBRANCH   6   8
ENDBRANCH   4   6
ENDBRANCH   1   4
BRANCH   1  14
HETATM   14  C12 UNL     1      26.271 -12.649  -4.185  1.00  0.00     0.171 C 
BRANCH  14  15
HETATM   15  O1  UNL     1      25.028 -13.249  -4.393  1.00  0.00    -0.391 OA
ATOM     16  H1  UNL     1      24.306 -12.640  -4.300  1.00  0.00     0.210 HD
ENDBRANCH  14  15
BRANCH  14  17
HETATM   17  C13 UNL     1      26.412 -11.587  -5.223  1.00  0.00     0.216 C 
HETATM   18  C14 UNL     1      27.802 -11.096  -5.449  1.00  0.00     0.037 C 
HETATM   19  C15 UNL     1      27.543  -9.773  -6.171  1.00  0.00     0.029 C 
HETATM   20  C16 UNL     1      26.334  -9.263  -5.464  1.00  0.00     0.233 C 
HETATM   21  N2  UNL     1      25.690 -10.378  -4.848  1.00  0.00    -0.068 N 
ATOM     22  H22 UNL     1      24.696 -10.430  -5.070  1.00  0.00     0.277 HD
ATOM     23  H21 UNL     1      25.600 -10.272  -3.838  1.00  0.00     0.277 HD
ENDBRANCH  14  17
ENDBRANCH   1  14
TORSDOF 9
ENDMDL
