MODEL 1
REMARK VINA RESULT: -9.794249763      0.000      0.000
REMARK  6 active torsions:
REMARK  status: ('A' for Active; 'I' for Inactive)
REMARK    1  A    between atoms: O1_2  and  C2_3 
REMARK    2  A    between atoms: C2_3  and  C3_5 
REMARK    3  A    between atoms: C3_5  and  O3_7 
REMARK    4  A    between atoms: C3_5  and  C10_17 
REMARK    5  A    between atoms: O3_7  and  C5_8 
REMARK       I    between atoms: C10_17  and  N2_19 
REMARK    6  A    between atoms: N2_19  and  C11_21 
ROOT
HETATM    1  C10 UNL     1      35.684 -25.108  12.552  1.00  0.00     0.263 C 
HETATM    2  O4  UNL     1      34.916 -25.760  13.269  1.00  0.00    -0.270 OA
HETATM    3  N2  UNL     1      37.006 -24.914  13.102  1.00  0.00    -0.345 N 
ATOM      4  H2  UNL     1      37.692 -24.388  12.561  1.00  0.00     0.163 HD
ENDROOT
BRANCH   1   5
HETATM    5  C3  UNL     1      35.285 -24.582  11.255  1.00  0.00     0.232 C 
HETATM    6  C4  UNL     1      33.704 -24.753  11.174  1.00  0.00     0.069 C 
BRANCH   5   7
HETATM    7  C2  UNL     1      35.810 -25.372  10.088  1.00  0.00     0.303 C 
HETATM    8  O2  UNL     1      36.648 -26.265  10.295  1.00  0.00    -0.261 OA
BRANCH   7   9
HETATM    9  O1  UNL     1      35.365 -25.102   8.835  1.00  0.00    -0.324 OA
HETATM   10  C1  UNL     1      35.714 -25.849   7.681  1.00  0.00     0.213 C 
ENDBRANCH   7   9
ENDBRANCH   5   7
BRANCH   5  11
HETATM   11  O3  UNL     1      35.540 -23.262  10.975  1.00  0.00    -0.302 OA
BRANCH  11  12
HETATM   12  C5  UNL     1      36.184 -22.243  11.588  1.00  0.00     0.183 A 
HETATM   13  N1  UNL     1      37.507 -22.049  11.256  1.00  0.00    -0.343 N 
HETATM   14  C6  UNL     1      38.240 -21.087  11.797  1.00  0.00     0.114 A 
ATOM     15  H1  UNL     1      37.938 -22.668  10.570  1.00  0.00     0.167 HD
HETATM   16  C7  UNL     1      37.635 -20.267  12.718  1.00  0.00     0.052 A 
HETATM   17 CL1  UNL     1      38.575 -18.987  13.448  1.00  0.00    -0.083 Cl
HETATM   18  C8  UNL     1      36.335 -20.413  13.085  1.00  0.00     0.072 A 
HETATM   19  C9  UNL     1      35.578 -21.425  12.513  1.00  0.00     0.168 A 
HETATM   20  F1  UNL     1      34.279 -21.607  12.945  1.00  0.00    -0.202 F 
ENDBRANCH  11  12
ENDBRANCH   5  11
ENDBRANCH   1   5
BRANCH   3  21
HETATM   21  C11 UNL     1      37.389 -25.439  14.395  1.00  0.00     0.174 C 
HETATM   22  C12 UNL     1      37.607 -24.289  15.316  1.00  0.00     0.151 C 
HETATM   23  O5  UNL     1      36.752 -23.993  16.123  1.00  0.00    -0.296 OA
HETATM   24  C13 UNL     1      38.855 -23.482  15.279  1.00  0.00     0.086 C 
HETATM   25  C14 UNL     1      40.049 -24.388  15.145  1.00  0.00     0.009 C 
HETATM   26  C15 UNL     1      40.364 -25.156  16.384  1.00  0.00     0.031 C 
HETATM   27  C19 UNL     1      39.819 -25.318  13.988  1.00  0.00     0.104 C 
HETATM   28  C16 UNL     1      40.252 -26.673  16.187  1.00  0.00     0.086 C 
HETATM   29  C17 UNL     1      38.844 -26.915  15.678  1.00  0.00     0.049 C 
HETATM   30  N3  UNL     1      41.213 -26.984  15.125  1.00  0.00    -0.356 N 
HETATM   31  C18 UNL     1      38.652 -26.244  14.357  1.00  0.00     0.059 C 
HETATM   32 BR1  UNL     1      38.602 -27.616  12.994  1.00  0.00    -0.082 Br
HETATM   33  C20 UNL     1      41.018 -26.228  13.934  1.00  0.00     0.224 C 
ATOM     34  H3  UNL     1      41.954 -27.677  15.230  1.00  0.00     0.162 HD
HETATM   35  O6  UNL     1      41.752 -26.290  12.919  1.00  0.00    -0.273 OA
ENDBRANCH   3  21
TORSDOF 6
ENDMDL
MODEL 2
REMARK VINA RESULT: -9.675151135      2.645      6.178
REMARK  6 active torsions:
REMARK  status: ('A' for Active; 'I' for Inactive)
REMARK    1  A    between atoms: O1_2  and  C2_3 
REMARK    2  A    between atoms: C2_3  and  C3_5 
REMARK    3  A    between atoms: C3_5  and  O3_7 
REMARK    4  A    between atoms: C3_5  and  C10_17 
REMARK    5  A    between atoms: O3_7  and  C5_8 
REMARK       I    between atoms: C10_17  and  N2_19 
REMARK    6  A    between atoms: N2_19  and  C11_21 
ROOT
HETATM    1  C10 UNL     1      39.033 -25.676  13.055  1.00  0.00     0.263 C 
HETATM    2  O4  UNL     1      39.755 -25.378  12.096  1.00  0.00    -0.270 OA
HETATM    3  N2  UNL     1      37.616 -25.643  12.777  1.00  0.00    -0.345 N 
ATOM      4  H2  UNL     1      36.962 -25.882  13.523  1.00  0.00     0.163 HD
ENDROOT
BRANCH   1   5
HETATM    5  C3  UNL     1      39.572 -26.033  14.358  1.00  0.00     0.232 C 
HETATM    6  C4  UNL     1      41.153 -26.111  14.179  1.00  0.00     0.069 C 
BRANCH   5   7
HETATM    7  C2  UNL     1      39.178 -27.406  14.827  1.00  0.00     0.303 C 
HETATM    8  O2  UNL     1      38.765 -28.229  13.994  1.00  0.00    -0.261 OA
BRANCH   7   9
HETATM    9  O1  UNL     1      39.278 -27.725  16.142  1.00  0.00    -0.324 OA
HETATM   10  C1  UNL     1      39.261 -29.050  16.650  1.00  0.00     0.213 C 
ENDBRANCH   7   9
ENDBRANCH   5   7
BRANCH   5  11
HETATM   11  O3  UNL     1      39.352 -25.184  15.416  1.00  0.00    -0.302 OA
BRANCH  11  12
HETATM   12  C5  UNL     1      38.419 -24.264  15.746  1.00  0.00     0.183 A 
HETATM   13  N1  UNL     1      37.502 -24.619  16.712  1.00  0.00    -0.343 N 
HETATM   14  C6  UNL     1      36.540 -23.801  17.112  1.00  0.00     0.114 A 
ATOM     15  H1  UNL     1      37.567 -25.545  17.134  1.00  0.00     0.167 HD
HETATM   16  C7  UNL     1      36.476 -22.559  16.528  1.00  0.00     0.052 A 
HETATM   17 CL1  UNL     1      35.218 -21.457  17.035  1.00  0.00    -0.083 Cl
HETATM   18  C8  UNL     1      37.350 -22.156  15.570  1.00  0.00     0.072 A 
HETATM   19  C9  UNL     1      38.353 -23.022  15.158  1.00  0.00     0.168 A 
HETATM   20  F1  UNL     1      39.192 -22.627  14.135  1.00  0.00    -0.202 F 
ENDBRANCH  11  12
ENDBRANCH   5  11
ENDBRANCH   1   5
BRANCH   3  21
HETATM   21  C11 UNL     1      37.091 -25.282  11.477  1.00  0.00     0.174 C 
HETATM   22  C12 UNL     1      36.352 -23.997  11.617  1.00  0.00     0.151 C 
HETATM   23  O5  UNL     1      36.873 -22.960  11.262  1.00  0.00    -0.296 OA
HETATM   24  C13 UNL     1      34.978 -23.940  12.181  1.00  0.00     0.086 C 
HETATM   25  C14 UNL     1      34.146 -25.063  11.621  1.00  0.00     0.009 C 
HETATM   26  C15 UNL     1      33.765 -24.873  10.191  1.00  0.00     0.031 C 
HETATM   27  C19 UNL     1      34.893 -26.353  11.804  1.00  0.00     0.104 C 
HETATM   28  C16 UNL     1      34.331 -25.965   9.276  1.00  0.00     0.086 C 
HETATM   29  C17 UNL     1      35.831 -25.947   9.500  1.00  0.00     0.049 C 
HETATM   30  N3  UNL     1      33.776 -27.217   9.800  1.00  0.00    -0.356 N 
HETATM   31  C18 UNL     1      36.144 -26.300  10.917  1.00  0.00     0.059 C 
HETATM   32 BR1  UNL     1      36.894 -28.083  10.937  1.00  0.00    -0.082 Br
HETATM   33  C20 UNL     1      34.038 -27.427  11.184  1.00  0.00     0.224 C 
ATOM     34  H3  UNL     1      33.251 -27.877   9.226  1.00  0.00     0.162 HD
HETATM   35  O6  UNL     1      33.616 -28.400  11.853  1.00  0.00    -0.273 OA
ENDBRANCH   3  21
TORSDOF 6
ENDMDL
MODEL 3
REMARK VINA RESULT: -9.525996930      3.019      6.239
REMARK  6 active torsions:
REMARK  status: ('A' for Active; 'I' for Inactive)
REMARK    1  A    between atoms: O1_2  and  C2_3 
REMARK    2  A    between atoms: C2_3  and  C3_5 
REMARK    3  A    between atoms: C3_5  and  O3_7 
REMARK    4  A    between atoms: C3_5  and  C10_17 
REMARK    5  A    between atoms: O3_7  and  C5_8 
REMARK       I    between atoms: C10_17  and  N2_19 
REMARK    6  A    between atoms: N2_19  and  C11_21 
ROOT
HETATM    1  C10 UNL     1      37.960 -23.749  14.455  1.00  0.00     0.263 C 
HETATM    2  O4  UNL     1      38.550 -22.886  13.794  1.00  0.00    -0.270 OA
HETATM    3  N2  UNL     1      36.946 -24.478  13.730  1.00  0.00    -0.345 N 
ATOM      4  H2  UNL     1      36.422 -25.207  14.214  1.00  0.00     0.163 HD
ENDROOT
BRANCH   1   5
HETATM    5  C3  UNL     1      38.266 -24.006  15.854  1.00  0.00     0.232 C 
HETATM    6  C4  UNL     1      39.274 -22.859  16.307  1.00  0.00     0.069 C 
BRANCH   5   7
HETATM    7  C2  UNL     1      39.022 -25.286  16.087  1.00  0.00     0.303 C 
HETATM    8  O2  UNL     1      40.104 -25.241  16.694  1.00  0.00    -0.261 OA
BRANCH   7   9
HETATM    9  O1  UNL     1      38.515 -26.461  15.636  1.00  0.00    -0.324 OA
HETATM   10  C1  UNL     1      39.298 -27.596  15.301  1.00  0.00     0.213 C 
ENDBRANCH   7   9
ENDBRANCH   5   7
BRANCH   5  11
HETATM   11  O3  UNL     1      37.239 -23.991  16.766  1.00  0.00    -0.302 OA
BRANCH  11  12
HETATM   12  C5  UNL     1      36.573 -23.045  17.466  1.00  0.00     0.183 A 
HETATM   13  N1  UNL     1      36.853 -22.948  18.811  1.00  0.00    -0.343 N 
HETATM   14  C6  UNL     1      36.259 -22.062  19.597  1.00  0.00     0.114 A 
ATOM     15  H1  UNL     1      37.543 -23.580  19.217  1.00  0.00     0.167 HD
HETATM   16  C7  UNL     1      35.334 -21.223  19.025  1.00  0.00     0.052 A 
HETATM   17 CL1  UNL     1      34.533 -20.043  20.036  1.00  0.00    -0.083 Cl
HETATM   18  C8  UNL     1      35.017 -21.275  17.706  1.00  0.00     0.072 A 
HETATM   19  C9  UNL     1      35.645 -22.208  16.892  1.00  0.00     0.168 A 
HETATM   20  F1  UNL     1      35.263 -22.297  15.569  1.00  0.00    -0.202 F 
ENDBRANCH  11  12
ENDBRANCH   5  11
ENDBRANCH   1   5
BRANCH   3  21
HETATM   21  C11 UNL     1      36.647 -24.209  12.338  1.00  0.00     0.174 C 
HETATM   22  C12 UNL     1      35.463 -23.308  12.285  1.00  0.00     0.151 C 
HETATM   23  O5  UNL     1      35.616 -22.122  12.078  1.00  0.00    -0.296 OA
HETATM   24  C13 UNL     1      34.080 -23.819  12.478  1.00  0.00     0.086 C 
HETATM   25  C14 UNL     1      33.899 -25.108  11.721  1.00  0.00     0.009 C 
HETATM   26  C15 UNL     1      33.825 -24.931  10.242  1.00  0.00     0.031 C 
HETATM   27  C19 UNL     1      35.015 -26.042  12.089  1.00  0.00     0.104 C 
HETATM   28  C16 UNL     1      34.965 -25.640   9.501  1.00  0.00     0.086 C 
HETATM   29  C17 UNL     1      36.244 -25.092  10.103  1.00  0.00     0.049 C 
HETATM   30  N3  UNL     1      34.824 -27.054   9.864  1.00  0.00    -0.356 N 
HETATM   31  C18 UNL     1      36.323 -25.443  11.553  1.00  0.00     0.059 C 
HETATM   32 BR1  UNL     1      37.670 -26.816  11.762  1.00  0.00    -0.082 Br
HETATM   33  C20 UNL     1      34.810 -27.289  11.268  1.00  0.00     0.224 C 
ATOM     34  H3  UNL     1      34.743 -27.801   9.174  1.00  0.00     0.162 HD
HETATM   35  O6  UNL     1      34.646 -28.410  11.805  1.00  0.00    -0.273 OA
ENDBRANCH   3  21
TORSDOF 6
ENDMDL
MODEL 4
REMARK VINA RESULT: -9.520422306      3.042      5.447
REMARK  6 active torsions:
REMARK  status: ('A' for Active; 'I' for Inactive)
REMARK    1  A    between atoms: O1_2  and  C2_3 
REMARK    2  A    between atoms: C2_3  and  C3_5 
REMARK    3  A    between atoms: C3_5  and  O3_7 
REMARK    4  A    between atoms: C3_5  and  C10_17 
REMARK    5  A    between atoms: O3_7  and  C5_8 
REMARK       I    between atoms: C10_17  and  N2_19 
REMARK    6  A    between atoms: N2_19  and  C11_21 
ROOT
HETATM    1  C10 UNL     1      37.144 -25.724  11.678  1.00  0.00     0.263 C 
HETATM    2  O4  UNL     1      36.080 -25.499  11.088  1.00  0.00    -0.270 OA
HETATM    3  N2  UNL     1      37.716 -24.580  12.350  1.00  0.00    -0.345 N 
ATOM      4  H2  UNL     1      38.592 -24.695  12.860  1.00  0.00     0.163 HD
ENDROOT
BRANCH   1   5
HETATM    5  C3  UNL     1      37.767 -27.038  11.692  1.00  0.00     0.232 C 
HETATM    6  C4  UNL     1      38.771 -27.069  10.457  1.00  0.00     0.069 C 
BRANCH   5   7
HETATM    7  C2  UNL     1      36.811 -28.169  11.428  1.00  0.00     0.303 C 
HETATM    8  O2  UNL     1      36.759 -28.658  10.288  1.00  0.00    -0.261 OA
BRANCH   7   9
HETATM    9  O1  UNL     1      36.024 -28.637  12.431  1.00  0.00    -0.324 OA
HETATM   10  C1  UNL     1      34.610 -28.534  12.455  1.00  0.00     0.213 C 
ENDBRANCH   7   9
ENDBRANCH   5   7
BRANCH   5  11
HETATM   11  O3  UNL     1      38.505 -27.404  12.791  1.00  0.00    -0.302 OA
BRANCH  11  12
HETATM   12  C5  UNL     1      39.144 -26.759  13.793  1.00  0.00     0.183 A 
HETATM   13  N1  UNL     1      38.442 -26.566  14.962  1.00  0.00    -0.343 N 
HETATM   14  C6  UNL     1      38.963 -25.942  16.008  1.00  0.00     0.114 A 
ATOM     15  H1  UNL     1      37.486 -26.916  15.025  1.00  0.00     0.167 HD
HETATM   16  C7  UNL     1      40.252 -25.480  15.897  1.00  0.00     0.052 A 
HETATM   17 CL1  UNL     1      40.968 -24.655  17.260  1.00  0.00    -0.083 Cl
HETATM   18  C8  UNL     1      40.991 -25.640  14.769  1.00  0.00     0.072 A 
HETATM   19  C9  UNL     1      40.434 -26.295  13.679  1.00  0.00     0.168 A 
HETATM   20  F1  UNL     1      41.170 -26.389  12.515  1.00  0.00    -0.202 F 
ENDBRANCH  11  12
ENDBRANCH   5  11
ENDBRANCH   1   5
BRANCH   3  21
HETATM   21  C11 UNL     1      37.088 -23.275  12.324  1.00  0.00     0.174 C 
HETATM   22  C12 UNL     1      38.134 -22.266  12.000  1.00  0.00     0.151 C 
HETATM   23  O5  UNL     1      38.212 -21.820  10.874  1.00  0.00    -0.296 OA
HETATM   24  C13 UNL     1      39.095 -21.777  13.023  1.00  0.00     0.086 C 
HETATM   25  C14 UNL     1      38.378 -21.515  14.320  1.00  0.00     0.009 C 
HETATM   26  C15 UNL     1      37.509 -20.302  14.291  1.00  0.00     0.031 C 
HETATM   27  C19 UNL     1      37.577 -22.732  14.681  1.00  0.00     0.104 C 
HETATM   28  C16 UNL     1      36.027 -20.628  14.514  1.00  0.00     0.086 C 
HETATM   29  C17 UNL     1      35.668 -21.643  13.445  1.00  0.00     0.049 C 
HETATM   30  N3  UNL     1      35.980 -21.271  15.831  1.00  0.00    -0.356 N 
HETATM   31  C18 UNL     1      36.467 -22.891  13.633  1.00  0.00     0.059 C 
HETATM   32 BR1  UNL     1      35.281 -24.263  14.307  1.00  0.00    -0.082 Br
HETATM   33  C20 UNL     1      36.845 -22.395  15.953  1.00  0.00     0.224 C 
ATOM     34  H3  UNL     1      35.382 -20.943  16.589  1.00  0.00     0.162 HD
HETATM   35  O6  UNL     1      37.007 -23.062  17.002  1.00  0.00    -0.273 OA
ENDBRANCH   3  21
TORSDOF 6
ENDMDL
MODEL 5
REMARK VINA RESULT: -9.454457289      2.997      5.290
REMARK  6 active torsions:
REMARK  status: ('A' for Active; 'I' for Inactive)
REMARK    1  A    between atoms: O1_2  and  C2_3 
REMARK    2  A    between atoms: C2_3  and  C3_5 
REMARK    3  A    between atoms: C3_5  and  O3_7 
REMARK    4  A    between atoms: C3_5  and  C10_17 
REMARK    5  A    between atoms: O3_7  and  C5_8 
REMARK       I    between atoms: C10_17  and  N2_19 
REMARK    6  A    between atoms: N2_19  and  C11_21 
ROOT
HETATM    1  C10 UNL     1      36.319 -25.416  10.907  1.00  0.00     0.263 C 
HETATM    2  O4  UNL     1      35.910 -24.696   9.987  1.00  0.00    -0.270 OA
HETATM    3  N2  UNL     1      36.638 -24.713  12.128  1.00  0.00    -0.345 N 
ATOM      4  H2  UNL     1      36.977 -25.246  12.929  1.00  0.00     0.163 HD
ENDROOT
BRANCH   1   5
HETATM    5  C3  UNL     1      36.462 -26.857  10.767  1.00  0.00     0.232 C 
HETATM    6  C4  UNL     1      36.306 -27.170   9.214  1.00  0.00     0.069 C 
BRANCH   5   7
HETATM    7  C2  UNL     1      35.363 -27.646  11.423  1.00  0.00     0.303 C 
HETATM    8  O2  UNL     1      35.564 -28.839  11.703  1.00  0.00    -0.261 OA
BRANCH   7   9
HETATM    9  O1  UNL     1      34.175 -27.049  11.698  1.00  0.00    -0.324 OA
HETATM   10  C1  UNL     1      32.999 -27.207  10.920  1.00  0.00     0.213 C 
ENDBRANCH   7   9
ENDBRANCH   5   7
BRANCH   5  11
HETATM   11  O3  UNL     1      37.643 -27.441  11.156  1.00  0.00    -0.302 OA
BRANCH  11  12
HETATM   12  C5  UNL     1      38.599 -27.183  12.076  1.00  0.00     0.183 A 
HETATM   13  N1  UNL     1      39.595 -26.302  11.716  1.00  0.00    -0.343 N 
HETATM   14  C6  UNL     1      40.586 -25.978  12.533  1.00  0.00     0.114 A 
ATOM     15  H1  UNL     1      39.568 -25.883  10.786  1.00  0.00     0.167 HD
HETATM   16  C7  UNL     1      40.598 -26.556  13.779  1.00  0.00     0.052 A 
HETATM   17 CL1  UNL     1      41.892 -26.148  14.881  1.00  0.00    -0.083 Cl
HETATM   18  C8  UNL     1      39.645 -27.433  14.188  1.00  0.00     0.072 A 
HETATM   19  C9  UNL     1      38.612 -27.765  13.322  1.00  0.00     0.168 A 
HETATM   20  F1  UNL     1      37.689 -28.710  13.723  1.00  0.00    -0.202 F 
ENDBRANCH  11  12
ENDBRANCH   5  11
ENDBRANCH   1   5
BRANCH   3  21
HETATM   21  C11 UNL     1      36.495 -23.277  12.253  1.00  0.00     0.174 C 
HETATM   22  C12 UNL     1      37.837 -22.660  12.061  1.00  0.00     0.151 C 
HETATM   23  O5  UNL     1      38.118 -22.148  10.998  1.00  0.00    -0.296 OA
HETATM   24  C13 UNL     1      38.855 -22.647  13.144  1.00  0.00     0.086 C 
HETATM   25  C14 UNL     1      38.207 -22.298  14.456  1.00  0.00     0.009 C 
HETATM   26  C15 UNL     1      37.806 -20.865  14.565  1.00  0.00     0.031 C 
HETATM   27  C19 UNL     1      37.022 -23.197  14.662  1.00  0.00     0.104 C 
HETATM   28  C16 UNL     1      36.292 -20.683  14.734  1.00  0.00     0.086 C 
HETATM   29  C17 UNL     1      35.663 -21.389  13.549  1.00  0.00     0.049 C 
HETATM   30  N3  UNL     1      35.964 -21.410  15.964  1.00  0.00    -0.356 N 
HETATM   31  C18 UNL     1      35.978 -22.849  13.592  1.00  0.00     0.059 C 
HETATM   32 BR1  UNL     1      34.364 -23.793  14.088  1.00  0.00    -0.082 Br
HETATM   33  C20 UNL     1      36.387 -22.769  15.959  1.00  0.00     0.224 C 
ATOM     34  H3  UNL     1      35.476 -20.981  16.751  1.00  0.00     0.162 HD
HETATM   35  O6  UNL     1      36.261 -23.563  16.922  1.00  0.00    -0.273 OA
ENDBRANCH   3  21
TORSDOF 6
ENDMDL
