MODEL 1
REMARK VINA RESULT: -8.194675485      0.000      0.000
REMARK  9 active torsions:
REMARK  status: ('A' for Active; 'I' for Inactive)
REMARK    1  A    between atoms: O1_2  and  C2_3 
REMARK    2  A    between atoms: C4_8  and  N2_9 
REMARK    3  A    between atoms: N2_9  and  C5_10 
REMARK    4  A    between atoms: C5_10  and  O2_11 
REMARK    5  A    between atoms: C5_10  and  C6_13 
REMARK    6  A    between atoms: C6_13  and  N3_14 
REMARK    7  A    between atoms: C9_18  and  C10_19 
REMARK    8  A    between atoms: C11_22  and  C12_23 
REMARK    9  A    between atoms: C13_26  and  O4_27 
ROOT
HETATM    1  C2  UNL     1      36.209 -21.481  20.442  1.00  0.00     0.141 A 
HETATM    2  C3  UNL     1      37.413 -22.056  20.744  1.00  0.00     0.142 A 
HETATM    3 CL1  UNL     1      37.968 -21.901  22.424  1.00  0.00    -0.061 Cl
HETATM    4  N1  UNL     1      38.147 -22.703  19.854  1.00  0.00    -0.318 N 
ATOM      5  H1  UNL     1      39.035 -23.103  20.159  1.00  0.00     0.169 HD
HETATM    6  C4  UNL     1      37.774 -22.864  18.527  1.00  0.00     0.201 A 
HETATM    7  C11 UNL     1      36.532 -22.281  18.193  1.00  0.00     0.123 A 
HETATM    8  C13 UNL     1      35.775 -21.608  19.121  1.00  0.00     0.125 A 
ENDROOT
BRANCH   6   9
HETATM    9  N2  UNL     1      38.468 -23.426  17.739  1.00  0.00    -0.364 NA
BRANCH   9  10
HETATM   10  C5  UNL     1      39.221 -24.055  16.872  1.00  0.00     0.221 C 
BRANCH  10  11
HETATM   11  O2  UNL     1      40.530 -23.878  16.979  1.00  0.00    -0.338 OA
ATOM     12  H2  UNL     1      40.985 -24.417  17.616  1.00  0.00     0.220 HD
ENDBRANCH  10  11
BRANCH  10  13
HETATM   13  C6  UNL     1      38.834 -24.977  15.726  1.00  0.00     0.373 C 
BRANCH  13  14
HETATM   14  N3  UNL     1      39.402 -24.556  14.483  1.00  0.00     0.113 N 
HETATM   15  C7  UNL     1      38.713 -23.336  14.089  1.00  0.00     0.347 C 
HETATM   16  S1  UNL     1      37.172 -24.064  13.372  1.00  0.00    -0.137 SA
HETATM   17  C8  UNL     1      37.756 -25.811  13.344  1.00  0.00     0.113 C 
HETATM   18  C9  UNL     1      39.257 -25.482  13.425  1.00  0.00     0.258 C 
BRANCH  18  19
HETATM   19  C10 UNL     1      40.119 -26.684  13.549  1.00  0.00     0.163 C 
HETATM   20 BR1  UNL     1      41.678 -26.255  14.656  1.00  0.00    -0.077 Br
HETATM   21 BR2  UNL     1      39.108 -28.072  14.444  1.00  0.00    -0.077 Br
ENDBRANCH  18  19
ENDBRANCH  13  14
ENDBRANCH  10  13
ENDBRANCH   9  10
ENDBRANCH   6   9
BRANCH   7  22
HETATM   22  C12 UNL     1      35.949 -22.473  16.886  1.00  0.00     0.272 C 
HETATM   23  N4  UNL     1      35.877 -21.416  15.945  1.00  0.00    -0.057 NA
HETATM   24  O3  UNL     1      35.495 -23.606  16.551  1.00  0.00    -0.271 OA
ENDBRANCH   7  22
BRANCH   8  25
HETATM   25  O4  UNL     1      34.560 -21.023  18.835  1.00  0.00    -0.352 OA
HETATM   26  C14 UNL     1      34.492 -19.605  18.768  1.00  0.00     0.210 C 
ENDBRANCH   8  25
BRANCH   1  27
HETATM   27  O1  UNL     1      35.434 -20.804  21.366  1.00  0.00    -0.350 OA
HETATM   28  C1  UNL     1      34.393 -21.479  22.047  1.00  0.00     0.210 C 
ENDBRANCH   1  27
TORSDOF 9
ENDMDL
MODEL 2
REMARK VINA RESULT: -8.191330033      1.800      2.066
REMARK  9 active torsions:
REMARK  status: ('A' for Active; 'I' for Inactive)
REMARK    1  A    between atoms: O1_2  and  C2_3 
REMARK    2  A    between atoms: C4_8  and  N2_9 
REMARK    3  A    between atoms: N2_9  and  C5_10 
REMARK    4  A    between atoms: C5_10  and  O2_11 
REMARK    5  A    between atoms: C5_10  and  C6_13 
REMARK    6  A    between atoms: C6_13  and  N3_14 
REMARK    7  A    between atoms: C9_18  and  C10_19 
REMARK    8  A    between atoms: C11_22  and  C12_23 
REMARK    9  A    between atoms: C13_26  and  O4_27 
ROOT
HETATM    1  C2  UNL     1      36.312 -21.585  20.472  1.00  0.00     0.141 A 
HETATM    2  C3  UNL     1      37.555 -22.088  20.744  1.00  0.00     0.142 A 
HETATM    3 CL1  UNL     1      38.122 -21.937  22.421  1.00  0.00    -0.061 Cl
HETATM    4  N1  UNL     1      38.317 -22.664  19.829  1.00  0.00    -0.318 N 
ATOM      5  H1  UNL     1      39.232 -23.013  20.113  1.00  0.00     0.169 HD
HETATM    6  C4  UNL     1      37.936 -22.817  18.503  1.00  0.00     0.201 A 
HETATM    7  C11 UNL     1      36.654 -22.307  18.199  1.00  0.00     0.123 A 
HETATM    8  C13 UNL     1      35.869 -21.708  19.153  1.00  0.00     0.125 A 
ENDROOT
BRANCH   6   9
HETATM    9  N2  UNL     1      38.653 -23.313  17.693  1.00  0.00    -0.364 NA
BRANCH   9  10
HETATM   10  C5  UNL     1      39.451 -23.846  16.802  1.00  0.00     0.221 C 
BRANCH  10  11
HETATM   11  O2  UNL     1      40.686 -24.120  17.194  1.00  0.00    -0.338 OA
ATOM     12  H2  UNL     1      41.163 -24.768  16.688  1.00  0.00     0.220 HD
ENDBRANCH  10  11
BRANCH  10  13
HETATM   13  C6  UNL     1      39.190 -24.209  15.348  1.00  0.00     0.373 C 
BRANCH  13  14
HETATM   14  N3  UNL     1      38.242 -25.273  15.223  1.00  0.00     0.113 N 
HETATM   15  C7  UNL     1      38.944 -26.511  15.532  1.00  0.00     0.347 C 
HETATM   16  S1  UNL     1      39.792 -26.802  13.914  1.00  0.00    -0.137 SA
HETATM   17  C8  UNL     1      38.871 -25.523  12.959  1.00  0.00     0.113 C 
HETATM   18  C9  UNL     1      37.684 -25.416  13.932  1.00  0.00     0.258 C 
BRANCH  18  19
HETATM   19  C10 UNL     1      36.716 -24.352  13.568  1.00  0.00     0.163 C 
HETATM   20 BR1  UNL     1      37.582 -23.068  12.368  1.00  0.00    -0.077 Br
HETATM   21 BR2  UNL     1      35.241 -25.168  12.614  1.00  0.00    -0.077 Br
ENDBRANCH  18  19
ENDBRANCH  13  14
ENDBRANCH  10  13
ENDBRANCH   9  10
ENDBRANCH   6   9
BRANCH   7  22
HETATM   22  C12 UNL     1      36.066 -22.505  16.896  1.00  0.00     0.272 C 
HETATM   23  N4  UNL     1      36.060 -21.475  15.923  1.00  0.00    -0.057 NA
HETATM   24  O3  UNL     1      35.548 -23.620  16.592  1.00  0.00    -0.271 OA
ENDBRANCH   7  22
BRANCH   8  25
HETATM   25  O4  UNL     1      34.614 -21.196  18.897  1.00  0.00    -0.352 OA
HETATM   26  C14 UNL     1      34.476 -19.790  18.747  1.00  0.00     0.210 C 
ENDBRANCH   8  25
BRANCH   1  27
HETATM   27  O1  UNL     1      35.508 -20.982  21.422  1.00  0.00    -0.350 OA
HETATM   28  C1  UNL     1      34.432 -21.699  21.997  1.00  0.00     0.210 C 
ENDBRANCH   1  27
TORSDOF 9
ENDMDL
MODEL 3
REMARK VINA RESULT: -7.968670980      1.007      1.401
REMARK  9 active torsions:
REMARK  status: ('A' for Active; 'I' for Inactive)
REMARK    1  A    between atoms: O1_2  and  C2_3 
REMARK    2  A    between atoms: C4_8  and  N2_9 
REMARK    3  A    between atoms: N2_9  and  C5_10 
REMARK    4  A    between atoms: C5_10  and  O2_11 
REMARK    5  A    between atoms: C5_10  and  C6_13 
REMARK    6  A    between atoms: C6_13  and  N3_14 
REMARK    7  A    between atoms: C9_18  and  C10_19 
REMARK    8  A    between atoms: C11_22  and  C12_23 
REMARK    9  A    between atoms: C13_26  and  O4_27 
ROOT
HETATM    1  C2  UNL     1      36.320 -21.595  20.208  1.00  0.00     0.141 A 
HETATM    2  C3  UNL     1      37.499 -22.255  20.423  1.00  0.00     0.142 A 
HETATM    3 CL1  UNL     1      38.154 -22.192  22.073  1.00  0.00    -0.061 Cl
HETATM    4  N1  UNL     1      38.140 -22.917  19.474  1.00  0.00    -0.318 N 
ATOM      5  H1  UNL     1      39.014 -23.383  19.715  1.00  0.00     0.169 HD
HETATM    6  C4  UNL     1      37.684 -23.010  18.166  1.00  0.00     0.201 A 
HETATM    7  C11 UNL     1      36.466 -22.338  17.921  1.00  0.00     0.123 A 
HETATM    8  C13 UNL     1      35.807 -21.650  18.910  1.00  0.00     0.125 A 
ENDROOT
BRANCH   6   9
HETATM    9  N2  UNL     1      38.296 -23.588  17.324  1.00  0.00    -0.364 NA
BRANCH   9  10
HETATM   10  C5  UNL     1      38.956 -24.230  16.393  1.00  0.00     0.221 C 
BRANCH  10  11
HETATM   11  O2  UNL     1      40.276 -24.256  16.506  1.00  0.00    -0.338 OA
ATOM     12  H2  UNL     1      40.774 -23.854  15.804  1.00  0.00     0.220 HD
ENDBRANCH  10  11
BRANCH  10  13
HETATM   13  C6  UNL     1      38.446 -24.967  15.163  1.00  0.00     0.373 C 
BRANCH  13  14
HETATM   14  N3  UNL     1      39.498 -25.646  14.471  1.00  0.00     0.113 N 
HETATM   15  C7  UNL     1      39.681 -24.965  13.197  1.00  0.00     0.347 C 
HETATM   16  S1  UNL     1      38.288 -25.715  12.238  1.00  0.00    -0.137 SA
HETATM   17  C8  UNL     1      37.884 -27.040  13.454  1.00  0.00     0.113 C 
HETATM   18  C9  UNL     1      39.236 -27.006  14.188  1.00  0.00     0.258 C 
BRANCH  18  19
HETATM   19  C10 UNL     1      39.285 -27.893  15.376  1.00  0.00     0.163 C 
HETATM   20 BR1  UNL     1      38.625 -29.672  14.887  1.00  0.00    -0.077 Br
HETATM   21 BR2  UNL     1      41.132 -28.068  15.933  1.00  0.00    -0.077 Br
ENDBRANCH  18  19
ENDBRANCH  13  14
ENDBRANCH  10  13
ENDBRANCH   9  10
ENDBRANCH   6   9
BRANCH   7  22
HETATM   22  C12 UNL     1      35.802 -22.449  16.644  1.00  0.00     0.272 C 
HETATM   23  N4  UNL     1      35.751 -21.360  15.738  1.00  0.00    -0.057 NA
HETATM   24  O3  UNL     1      35.253 -23.538  16.303  1.00  0.00    -0.271 OA
ENDBRANCH   7  22
BRANCH   8  25
HETATM   25  O4  UNL     1      34.619 -20.980  18.711  1.00  0.00    -0.352 OA
HETATM   26  C14 UNL     1      34.636 -19.559  18.715  1.00  0.00     0.210 C 
ENDBRANCH   8  25
BRANCH   1  27
HETATM   27  O1  UNL     1      35.643 -20.902  21.194  1.00  0.00    -0.350 OA
HETATM   28  C1  UNL     1      34.594 -21.529  21.907  1.00  0.00     0.210 C 
ENDBRANCH   1  27
TORSDOF 9
ENDMDL
MODEL 4
REMARK VINA RESULT: -7.830931129      3.594      4.680
REMARK  9 active torsions:
REMARK  status: ('A' for Active; 'I' for Inactive)
REMARK    1  A    between atoms: O1_2  and  C2_3 
REMARK    2  A    between atoms: C4_8  and  N2_9 
REMARK    3  A    between atoms: N2_9  and  C5_10 
REMARK    4  A    between atoms: C5_10  and  O2_11 
REMARK    5  A    between atoms: C5_10  and  C6_13 
REMARK    6  A    between atoms: C6_13  and  N3_14 
REMARK    7  A    between atoms: C9_18  and  C10_19 
REMARK    8  A    between atoms: C11_22  and  C12_23 
REMARK    9  A    between atoms: C13_26  and  O4_27 
ROOT
HETATM    1  C2  UNL     1      37.251 -20.967  14.327  1.00  0.00     0.141 A 
HETATM    2  C3  UNL     1      38.539 -21.195  13.928  1.00  0.00     0.142 A 
HETATM    3 CL1  UNL     1      39.159 -20.166  12.620  1.00  0.00    -0.061 Cl
HETATM    4  N1  UNL     1      39.309 -22.123  14.471  1.00  0.00    -0.318 N 
ATOM      5  H1  UNL     1      40.260 -22.230  14.117  1.00  0.00     0.169 HD
HETATM    6  C4  UNL     1      38.891 -22.959  15.498  1.00  0.00     0.201 A 
HETATM    7  C11 UNL     1      37.564 -22.740  15.928  1.00  0.00     0.123 A 
HETATM    8  C13 UNL     1      36.768 -21.776  15.358  1.00  0.00     0.125 A 
ENDROOT
BRANCH   6   9
HETATM    9  N2  UNL     1      39.596 -23.806  15.949  1.00  0.00    -0.364 NA
BRANCH   9  10
HETATM   10  C5  UNL     1      40.361 -24.749  16.438  1.00  0.00     0.221 C 
BRANCH  10  11
HETATM   11  O2  UNL     1      41.235 -24.387  17.366  1.00  0.00    -0.338 OA
ATOM     12  H2  UNL     1      41.182 -24.835  18.202  1.00  0.00     0.220 HD
ENDBRANCH  10  11
BRANCH  10  13
HETATM   13  C6  UNL     1      40.420 -26.233  16.106  1.00  0.00     0.373 C 
BRANCH  13  14
HETATM   14  N3  UNL     1      39.122 -26.779  15.861  1.00  0.00     0.113 N 
HETATM   15  C7  UNL     1      38.999 -27.978  16.678  1.00  0.00     0.347 C 
HETATM   16  S1  UNL     1      39.929 -29.175  15.618  1.00  0.00    -0.137 SA
HETATM   17  C8  UNL     1      40.041 -28.097  14.128  1.00  0.00     0.113 C 
HETATM   18  C9  UNL     1      38.886 -27.158  14.519  1.00  0.00     0.258 C 
BRANCH  18  19
HETATM   19  C10 UNL     1      38.712 -26.016  13.588  1.00  0.00     0.163 C 
HETATM   20 BR1  UNL     1      40.290 -25.872  12.434  1.00  0.00    -0.077 Br
HETATM   21 BR2  UNL     1      37.175 -26.372  12.464  1.00  0.00    -0.077 Br
ENDBRANCH  18  19
ENDBRANCH  13  14
ENDBRANCH  10  13
ENDBRANCH   9  10
ENDBRANCH   6   9
BRANCH   7  22
HETATM   22  C12 UNL     1      37.028 -23.441  17.069  1.00  0.00     0.272 C 
HETATM   23  N4  UNL     1      37.152 -22.923  18.382  1.00  0.00    -0.057 NA
HETATM   24  O3  UNL     1      36.422 -24.542  16.915  1.00  0.00    -0.271 OA
ENDBRANCH   7  22
BRANCH   8  25
HETATM   25  O4  UNL     1      35.468 -21.532  15.747  1.00  0.00    -0.352 OA
HETATM   26  C14 UNL     1      34.430 -22.295  15.148  1.00  0.00     0.210 C 
ENDBRANCH   8  25
BRANCH   1  27
HETATM   27  O1  UNL     1      36.439 -19.998  13.766  1.00  0.00    -0.350 OA
HETATM   28  C1  UNL     1      35.777 -20.252  12.541  1.00  0.00     0.210 C 
ENDBRANCH   1  27
TORSDOF 9
ENDMDL
MODEL 5
REMARK VINA RESULT: -7.391930347      5.430      7.974
REMARK  9 active torsions:
REMARK  status: ('A' for Active; 'I' for Inactive)
REMARK    1  A    between atoms: O1_2  and  C2_3 
REMARK    2  A    between atoms: C4_8  and  N2_9 
REMARK    3  A    between atoms: N2_9  and  C5_10 
REMARK    4  A    between atoms: C5_10  and  O2_11 
REMARK    5  A    between atoms: C5_10  and  C6_13 
REMARK    6  A    between atoms: C6_13  and  N3_14 
REMARK    7  A    between atoms: C9_18  and  C10_19 
REMARK    8  A    between atoms: C11_22  and  C12_23 
REMARK    9  A    between atoms: C13_26  and  O4_27 
ROOT
HETATM    1  C2  UNL     1      34.458 -25.204  10.788  1.00  0.00     0.141 A 
HETATM    2  C3  UNL     1      34.583 -24.781  12.083  1.00  0.00     0.142 A 
HETATM    3 CL1  UNL     1      33.379 -23.608  12.655  1.00  0.00    -0.061 Cl
HETATM    4  N1  UNL     1      35.539 -25.207  12.893  1.00  0.00    -0.318 N 
ATOM      5  H1  UNL     1      35.563 -24.843  13.845  1.00  0.00     0.169 HD
HETATM    6  C4  UNL     1      36.509 -26.124  12.514  1.00  0.00     0.201 A 
HETATM    7  C11 UNL     1      36.399 -26.577  11.180  1.00  0.00     0.123 A 
HETATM    8  C13 UNL     1      35.406 -26.128  10.344  1.00  0.00     0.125 A 
ENDROOT
BRANCH   6   9
HETATM    9  N2  UNL     1      37.376 -26.469  13.254  1.00  0.00    -0.364 NA
BRANCH   9  10
HETATM   10  C5  UNL     1      38.333 -26.833  14.070  1.00  0.00     0.221 C 
BRANCH  10  11
HETATM   11  O2  UNL     1      38.895 -28.011  13.843  1.00  0.00    -0.338 OA
ATOM     12  H2  UNL     1      39.769 -28.004  13.470  1.00  0.00     0.220 HD
ENDBRANCH  10  11
BRANCH  10  13
HETATM   13  C6  UNL     1      38.920 -26.112  15.274  1.00  0.00     0.373 C 
BRANCH  13  14
HETATM   14  N3  UNL     1      39.695 -24.973  14.891  1.00  0.00     0.113 N 
HETATM   15  C7  UNL     1      41.050 -25.193  15.377  1.00  0.00     0.347 C 
HETATM   16  S1  UNL     1      40.830 -24.704  17.148  1.00  0.00    -0.137 SA
HETATM   17  C8  UNL     1      39.158 -23.954  16.954  1.00  0.00     0.113 C 
HETATM   18  C9  UNL     1      39.248 -23.746  15.432  1.00  0.00     0.258 C 
BRANCH  18  19
HETATM   19  C10 UNL     1      37.989 -23.240  14.830  1.00  0.00     0.163 C 
HETATM   20 BR1  UNL     1      36.557 -23.306  16.166  1.00  0.00    -0.077 Br
HETATM   21 BR2  UNL     1      38.255 -21.390  14.322  1.00  0.00    -0.077 Br
ENDBRANCH  18  19
ENDBRANCH  13  14
ENDBRANCH  10  13
ENDBRANCH   9  10
ENDBRANCH   6   9
BRANCH   7  22
HETATM   22  C12 UNL     1      37.255 -27.625  10.679  1.00  0.00     0.272 C 
HETATM   23  N4  UNL     1      38.556 -27.347  10.190  1.00  0.00    -0.057 NA
HETATM   24  O3  UNL     1      36.858 -28.827  10.676  1.00  0.00    -0.271 OA
ENDBRANCH   7  22
BRANCH   8  25
HETATM   25  O4  UNL     1      35.265 -26.544   9.036  1.00  0.00    -0.352 OA
HETATM   26  C14 UNL     1      35.949 -25.822   8.021  1.00  0.00     0.210 C 
ENDBRANCH   8  25
BRANCH   1  27
HETATM   27  O1  UNL     1      33.463 -24.765   9.935  1.00  0.00    -0.350 OA
HETATM   28  C1  UNL     1      32.371 -25.610   9.626  1.00  0.00     0.210 C 
ENDBRANCH   1  27
TORSDOF 9
ENDMDL
