MODEL 1
REMARK VINA RESULT: -7.499239531      0.000      0.000
REMARK  8 active torsions:
REMARK  status: ('A' for Active; 'I' for Inactive)
REMARK    1  A    between atoms: O1_2  and  C2_3 
REMARK    2  A    between atoms: C7_8  and  O2_9 
REMARK    3  A    between atoms: O2_9  and  C8_10 
REMARK    4  A    between atoms: C8_10  and  C9_11 
REMARK    5  A    between atoms: C9_11  and  N1_12 
REMARK    6  A    between atoms: C16_19  and  N2_20 
REMARK    7  A    between atoms: N2_20  and  C17_22 
REMARK    8  A    between atoms: C17_22  and  C18_23 
ROOT
HETATM    1  C2  UNL     1       5.112  10.319  22.884  1.00  0.00     0.102 A 
HETATM    2  C3  UNL     1       5.003   9.008  23.355  1.00  0.00     0.047 A 
HETATM    3  C4  UNL     1       4.842   7.946  22.492  1.00  0.00    -0.047 A 
HETATM    4  C5  UNL     1       4.792   8.223  21.143  1.00  0.00    -0.047 A 
HETATM    5  C6  UNL     1       4.899   9.517  20.681  1.00  0.00     0.047 A 
HETATM    6  C7  UNL     1       5.062  10.595  21.532  1.00  0.00     0.102 A 
HETATM    7  C15 UNL     1       4.616   6.940  20.413  1.00  0.00     0.064 C 
HETATM    8  C16 UNL     1       5.213   5.960  21.376  1.00  0.00     0.085 C 
HETATM    9  C25 UNL     1       4.699   6.460  22.696  1.00  0.00     0.064 C 
ENDROOT
BRANCH   8  10
HETATM   10  N2  UNL     1       4.990   4.594  21.104  1.00  0.00    -0.415 N 
ATOM     11  H2  UNL     1       5.751   3.953  20.879  1.00  0.00     0.153 HD
BRANCH  10  12
HETATM   12  C17 UNL     1       3.617   4.164  21.167  1.00  0.00     0.139 C 
BRANCH  12  13
HETATM   13  C18 UNL     1       3.226   3.567  19.829  1.00  0.00     0.098 C 
HETATM   14  C19 UNL     1       2.097   4.348  19.246  1.00  0.00     0.059 C 
HETATM   15  C20 UNL     1       1.159   3.567  18.399  1.00  0.00     0.190 C 
HETATM   16  C21 UNL     1      -0.093   3.270  19.175  1.00  0.00     0.033 C 
HETATM   17  N3  UNL     1       1.822   2.380  17.923  1.00  0.00    -0.050 N 
HETATM   18  C22 UNL     1      -0.347   1.790  19.342  1.00  0.00     0.006 C 
HETATM   19  C23 UNL     1       0.898   1.045  19.757  1.00  0.00     0.054 C 
HETATM   20  C24 UNL     1       2.133   1.554  19.060  1.00  0.00     0.280 C 
HETATM   21  N4  UNL     1       2.986   2.178  20.018  1.00  0.00    -0.390 N 
ATOM     22  H4  UNL     1       3.400   1.660  20.793  1.00  0.00     0.155 HD
ATOM     23  H32 UNL     1       1.281   1.885  17.213  1.00  0.00     0.280 HD
ATOM     24  H31 UNL     1       2.641   2.588  17.351  1.00  0.00     0.280 HD
ENDBRANCH  12  13
ENDBRANCH  10  12
ENDBRANCH   8  10
BRANCH   6  25
HETATM   25  O2  UNL     1       5.174  11.909  21.101  1.00  0.00    -0.347 OA
BRANCH  25  26
HETATM   26  C8  UNL     1       6.418  12.544  20.895  1.00  0.00     0.206 C 
BRANCH  26  27
HETATM   27  C9  UNL     1       6.904  12.187  19.527  1.00  0.00     0.299 C 
BRANCH  27  28
HETATM   28  N1  UNL     1       8.301  11.830  19.480  1.00  0.00     0.090 N 
HETATM   29  C10 UNL     1       8.797  12.026  18.131  1.00  0.00     0.272 C 
HETATM   30  C11 UNL     1       8.308  10.952  17.191  1.00  0.00     0.030 C 
HETATM   31  C12 UNL     1       8.568   9.555  17.718  1.00  0.00     0.003 C 
HETATM   32  C13 UNL     1       7.891   9.478  19.091  1.00  0.00     0.030 C 
HETATM   33  C14 UNL     1       8.575  10.493  19.958  1.00  0.00     0.272 C 
ENDBRANCH  27  28
ENDBRANCH  26  27
ENDBRANCH  25  26
ENDBRANCH   6  25
BRANCH   1  34
HETATM   34  O1  UNL     1       5.275  11.393  23.751  1.00  0.00    -0.353 OA
HETATM   35  C1  UNL     1       5.003  11.174  25.122  1.00  0.00     0.210 C 
ENDBRANCH   1  34
TORSDOF 8
ENDMDL
MODEL 2
REMARK VINA RESULT: -7.383882752      1.884      2.571
REMARK  8 active torsions:
REMARK  status: ('A' for Active; 'I' for Inactive)
REMARK    1  A    between atoms: O1_2  and  C2_3 
REMARK    2  A    between atoms: C7_8  and  O2_9 
REMARK    3  A    between atoms: O2_9  and  C8_10 
REMARK    4  A    between atoms: C8_10  and  C9_11 
REMARK    5  A    between atoms: C9_11  and  N1_12 
REMARK    6  A    between atoms: C16_19  and  N2_20 
REMARK    7  A    between atoms: N2_20  and  C17_22 
REMARK    8  A    between atoms: C17_22  and  C18_23 
ROOT
HETATM    1  C2  UNL     1       5.170   9.980  22.804  1.00  0.00     0.102 A 
HETATM    2  C3  UNL     1       5.088   8.666  23.271  1.00  0.00     0.047 A 
HETATM    3  C4  UNL     1       4.848   7.613  22.416  1.00  0.00    -0.047 A 
HETATM    4  C5  UNL     1       4.692   7.901  21.078  1.00  0.00    -0.047 A 
HETATM    5  C6  UNL     1       4.773   9.199  20.618  1.00  0.00     0.047 A 
HETATM    6  C7  UNL     1       5.013  10.268  21.462  1.00  0.00     0.102 A 
HETATM    7  C15 UNL     1       4.447   6.626  20.354  1.00  0.00     0.064 C 
HETATM    8  C16 UNL     1       5.112   5.634  21.258  1.00  0.00     0.085 C 
HETATM    9  C25 UNL     1       4.710   6.126  22.619  1.00  0.00     0.064 C 
ENDROOT
BRANCH   8  10
HETATM   10  N2  UNL     1       4.857   4.271  20.994  1.00  0.00    -0.415 N 
ATOM     11  H2  UNL     1       5.449   3.716  20.377  1.00  0.00     0.153 HD
BRANCH  10  12
HETATM   12  C17 UNL     1       3.703   3.716  21.656  1.00  0.00     0.139 C 
BRANCH  12  13
HETATM   13  C18 UNL     1       3.394   2.360  21.052  1.00  0.00     0.098 C 
HETATM   14  C19 UNL     1       3.079   1.390  22.139  1.00  0.00     0.059 C 
HETATM   15  C20 UNL     1       3.454  -0.019  21.857  1.00  0.00     0.190 C 
HETATM   16  C21 UNL     1       4.721  -0.361  22.589  1.00  0.00     0.033 C 
HETATM   17  N3  UNL     1       3.558  -0.210  20.433  1.00  0.00    -0.050 N 
HETATM   18  C22 UNL     1       5.846  -0.765  21.666  1.00  0.00     0.006 C 
HETATM   19  C23 UNL     1       5.977   0.171  20.489  1.00  0.00     0.054 C 
HETATM   20  C24 UNL     1       4.640   0.608  19.950  1.00  0.00     0.280 C 
HETATM   21  N4  UNL     1       4.471   2.003  20.195  1.00  0.00    -0.390 N 
ATOM     22  H4  UNL     1       5.087   2.703  19.780  1.00  0.00     0.155 HD
ATOM     23  H32 UNL     1       3.659  -1.191  20.173  1.00  0.00     0.280 HD
ATOM     24  H31 UNL     1       2.680  -0.029  19.946  1.00  0.00     0.280 HD
ENDBRANCH  12  13
ENDBRANCH  10  12
ENDBRANCH   8  10
BRANCH   6  25
HETATM   25  O2  UNL     1       5.101  11.584  21.034  1.00  0.00    -0.347 OA
BRANCH  25  26
HETATM   26  C8  UNL     1       6.321  12.292  20.978  1.00  0.00     0.206 C 
BRANCH  26  27
HETATM   27  C9  UNL     1       6.865  12.178  19.591  1.00  0.00     0.299 C 
BRANCH  27  28
HETATM   28  N1  UNL     1       8.267  11.846  19.540  1.00  0.00     0.090 N 
HETATM   29  C10 UNL     1       8.766  12.087  18.199  1.00  0.00     0.272 C 
HETATM   30  C11 UNL     1       8.299  11.031  17.228  1.00  0.00     0.030 C 
HETATM   31  C12 UNL     1       8.579   9.624  17.717  1.00  0.00     0.003 C 
HETATM   32  C13 UNL     1       7.898   9.499  19.085  1.00  0.00     0.030 C 
HETATM   33  C14 UNL     1       8.562  10.501  19.983  1.00  0.00     0.272 C 
ENDBRANCH  27  28
ENDBRANCH  26  27
ENDBRANCH  25  26
ENDBRANCH   6  25
BRANCH   1  34
HETATM   34  O1  UNL     1       5.410  11.045  23.663  1.00  0.00    -0.353 OA
HETATM   35  C1  UNL     1       5.066  10.877  25.025  1.00  0.00     0.210 C 
ENDBRANCH   1  34
TORSDOF 8
ENDMDL
MODEL 3
REMARK VINA RESULT: -7.380668829      1.317      1.682
REMARK  8 active torsions:
REMARK  status: ('A' for Active; 'I' for Inactive)
REMARK    1  A    between atoms: O1_2  and  C2_3 
REMARK    2  A    between atoms: C7_8  and  O2_9 
REMARK    3  A    between atoms: O2_9  and  C8_10 
REMARK    4  A    between atoms: C8_10  and  C9_11 
REMARK    5  A    between atoms: C9_11  and  N1_12 
REMARK    6  A    between atoms: C16_19  and  N2_20 
REMARK    7  A    between atoms: N2_20  and  C17_22 
REMARK    8  A    between atoms: C17_22  and  C18_23 
ROOT
HETATM    1  C2  UNL     1       4.506  11.467  22.288  1.00  0.00     0.102 A 
HETATM    2  C3  UNL     1       4.029  10.369  23.008  1.00  0.00     0.047 A 
HETATM    3  C4  UNL     1       4.264   9.078  22.589  1.00  0.00    -0.047 A 
HETATM    4  C5  UNL     1       4.989   8.906  21.430  1.00  0.00    -0.047 A 
HETATM    5  C6  UNL     1       5.459   9.991  20.720  1.00  0.00     0.047 A 
HETATM    6  C7  UNL     1       5.233  11.293  21.127  1.00  0.00     0.102 A 
HETATM    7  C15 UNL     1       5.118   7.447  21.175  1.00  0.00     0.064 C 
HETATM    8  C16 UNL     1       4.989   6.886  22.558  1.00  0.00     0.085 C 
HETATM    9  C25 UNL     1       3.888   7.726  23.140  1.00  0.00     0.064 C 
ENDROOT
BRANCH   8  10
HETATM   10  N2  UNL     1       4.819   5.490  22.660  1.00  0.00    -0.415 N 
ATOM     11  H2  UNL     1       5.600   4.839  22.576  1.00  0.00     0.153 HD
BRANCH  10  12
HETATM   12  C17 UNL     1       3.468   5.043  22.890  1.00  0.00     0.139 C 
BRANCH  12  13
HETATM   13  C18 UNL     1       3.182   3.857  21.990  1.00  0.00     0.098 C 
HETATM   14  C19 UNL     1       3.341   4.262  20.565  1.00  0.00     0.059 C 
HETATM   15  C20 UNL     1       2.465   3.546  19.602  1.00  0.00     0.190 C 
HETATM   16  C21 UNL     1       1.314   4.431  19.214  1.00  0.00     0.033 C 
HETATM   17  N3  UNL     1       2.044   2.295  20.179  1.00  0.00    -0.050 N 
HETATM   18  C22 UNL     1      -0.030   3.843  19.574  1.00  0.00     0.006 C 
HETATM   19  C23 UNL     1      -0.048   3.288  20.978  1.00  0.00     0.054 C 
HETATM   20  C24 UNL     1       1.235   2.584  21.335  1.00  0.00     0.280 C 
HETATM   21  N4  UNL     1       1.911   3.330  22.347  1.00  0.00    -0.390 N 
ATOM     22  H4  UNL     1       1.505   3.476  23.271  1.00  0.00     0.155 HD
ATOM     23  H32 UNL     1       1.570   1.692  19.507  1.00  0.00     0.280 HD
ATOM     24  H31 UNL     1       2.827   1.676  20.391  1.00  0.00     0.280 HD
ENDBRANCH  12  13
ENDBRANCH  10  12
ENDBRANCH   8  10
BRANCH   6  25
HETATM   25  O2  UNL     1       5.692  12.406  20.437  1.00  0.00    -0.347 OA
BRANCH  25  26
HETATM   26  C8  UNL     1       7.064  12.693  20.270  1.00  0.00     0.206 C 
BRANCH  26  27
HETATM   27  C9  UNL     1       7.485  12.191  18.926  1.00  0.00     0.299 C 
BRANCH  27  28
HETATM   28  N1  UNL     1       8.730  11.463  18.940  1.00  0.00     0.090 N 
HETATM   29  C10 UNL     1       9.516  11.842  17.781  1.00  0.00     0.272 C 
HETATM   30  C11 UNL     1       8.971  11.238  16.510  1.00  0.00     0.030 C 
HETATM   31  C12 UNL     1       8.766   9.740  16.620  1.00  0.00     0.003 C 
HETATM   32  C13 UNL     1       7.834   9.517  17.816  1.00  0.00     0.030 C 
HETATM   33  C14 UNL     1       8.564  10.029  19.023  1.00  0.00     0.272 C 
ENDBRANCH  27  28
ENDBRANCH  26  27
ENDBRANCH  25  26
ENDBRANCH   6  25
BRANCH   1  34
HETATM   34  O1  UNL     1       4.271  12.771  22.707  1.00  0.00    -0.353 OA
HETATM   35  C1  UNL     1       3.445  12.954  23.840  1.00  0.00     0.210 C 
ENDBRANCH   1  34
TORSDOF 8
ENDMDL
MODEL 4
REMARK VINA RESULT: -7.280980110      5.058      8.012
REMARK  8 active torsions:
REMARK  status: ('A' for Active; 'I' for Inactive)
REMARK    1  A    between atoms: O1_2  and  C2_3 
REMARK    2  A    between atoms: C7_8  and  O2_9 
REMARK    3  A    between atoms: O2_9  and  C8_10 
REMARK    4  A    between atoms: C8_10  and  C9_11 
REMARK    5  A    between atoms: C9_11  and  N1_12 
REMARK    6  A    between atoms: C16_19  and  N2_20 
REMARK    7  A    between atoms: N2_20  and  C17_22 
REMARK    8  A    between atoms: C17_22  and  C18_23 
ROOT
HETATM    1  C2  UNL     1       2.672  10.795  24.231  1.00  0.00     0.102 A 
HETATM    2  C3  UNL     1       3.155   9.898  23.276  1.00  0.00     0.047 A 
HETATM    3  C4  UNL     1       4.114  10.270  22.359  1.00  0.00    -0.047 A 
HETATM    4  C5  UNL     1       4.582  11.565  22.418  1.00  0.00    -0.047 A 
HETATM    5  C6  UNL     1       4.103  12.450  23.361  1.00  0.00     0.047 A 
HETATM    6  C7  UNL     1       3.142  12.092  24.288  1.00  0.00     0.102 A 
HETATM    7  C15 UNL     1       5.598  11.740  21.347  1.00  0.00     0.064 C 
HETATM    8  C16 UNL     1       6.087  10.336  21.163  1.00  0.00     0.085 C 
HETATM    9  C25 UNL     1       4.813   9.544  21.239  1.00  0.00     0.064 C 
ENDROOT
BRANCH   8  10
HETATM   10  N2  UNL     1       6.898  10.094  20.034  1.00  0.00    -0.415 N 
ATOM     11  H2  UNL     1       6.929   9.185  19.572  1.00  0.00     0.153 HD
BRANCH  10  12
HETATM   12  C17 UNL     1       7.679  11.215  19.578  1.00  0.00     0.139 C 
BRANCH  12  13
HETATM   13  C18 UNL     1       8.632  10.744  18.497  1.00  0.00     0.098 C 
HETATM   14  C19 UNL     1       8.651  11.734  17.383  1.00  0.00     0.059 C 
HETATM   15  C20 UNL     1       8.902  11.163  16.034  1.00  0.00     0.190 C 
HETATM   16  C21 UNL     1       7.608  11.070  15.276  1.00  0.00     0.033 C 
HETATM   17  N3  UNL     1       9.568   9.894  16.170  1.00  0.00    -0.050 N 
HETATM   18  C22 UNL     1       7.256   9.656  14.880  1.00  0.00     0.006 C 
HETATM   19  C23 UNL     1       7.442   8.685  16.021  1.00  0.00     0.054 C 
HETATM   20  C24 UNL     1       8.671   8.987  16.839  1.00  0.00     0.280 C 
HETATM   21  N4  UNL     1       8.273   9.415  18.141  1.00  0.00    -0.390 N 
ATOM     22  H4  UNL     1       7.761   8.805  18.777  1.00  0.00     0.155 HD
ATOM     23  H32 UNL     1       9.905   9.528  15.279  1.00  0.00     0.280 HD
ATOM     24  H31 UNL     1      10.472   9.970  16.637  1.00  0.00     0.280 HD
ENDBRANCH  12  13
ENDBRANCH  10  12
ENDBRANCH   8  10
BRANCH   6  25
HETATM   25  O2  UNL     1       2.639  12.956  25.250  1.00  0.00    -0.347 OA
BRANCH  25  26
HETATM   26  C8  UNL     1       3.450  13.868  25.961  1.00  0.00     0.206 C 
BRANCH  26  27
HETATM   27  C9  UNL     1       4.598  13.112  26.547  1.00  0.00     0.299 C 
BRANCH  27  28
HETATM   28  N1  UNL     1       4.304  12.499  27.819  1.00  0.00     0.090 N 
HETATM   29  C10 UNL     1       5.416  12.721  28.724  1.00  0.00     0.272 C 
HETATM   30  C11 UNL     1       6.602  11.854  28.380  1.00  0.00     0.030 C 
HETATM   31  C12 UNL     1       6.233  10.390  28.246  1.00  0.00     0.003 C 
HETATM   32  C13 UNL     1       5.131  10.317  27.183  1.00  0.00     0.030 C 
HETATM   33  C14 UNL     1       3.968  11.096  27.724  1.00  0.00     0.272 C 
ENDBRANCH  27  28
ENDBRANCH  26  27
ENDBRANCH  25  26
ENDBRANCH   6  25
BRANCH   1  34
HETATM   34  O1  UNL     1       1.705  10.422  25.156  1.00  0.00    -0.353 OA
HETATM   35  C1  UNL     1       0.557   9.754  24.670  1.00  0.00     0.210 C 
ENDBRANCH   1  34
TORSDOF 8
ENDMDL
MODEL 5
REMARK VINA RESULT: -7.279733989      1.367      1.932
REMARK  8 active torsions:
REMARK  status: ('A' for Active; 'I' for Inactive)
REMARK    1  A    between atoms: O1_2  and  C2_3 
REMARK    2  A    between atoms: C7_8  and  O2_9 
REMARK    3  A    between atoms: O2_9  and  C8_10 
REMARK    4  A    between atoms: C8_10  and  C9_11 
REMARK    5  A    between atoms: C9_11  and  N1_12 
REMARK    6  A    between atoms: C16_19  and  N2_20 
REMARK    7  A    between atoms: N2_20  and  C17_22 
REMARK    8  A    between atoms: C17_22  and  C18_23 
ROOT
HETATM    1  C2  UNL     1       5.168  10.395  22.915  1.00  0.00     0.102 A 
HETATM    2  C3  UNL     1       5.028   9.079  23.362  1.00  0.00     0.047 A 
HETATM    3  C4  UNL     1       4.810   8.040  22.485  1.00  0.00    -0.047 A 
HETATM    4  C5  UNL     1       4.736   8.345  21.143  1.00  0.00    -0.047 A 
HETATM    5  C6  UNL     1       4.874   9.644  20.703  1.00  0.00     0.047 A 
HETATM    6  C7  UNL     1       5.093  10.698  21.570  1.00  0.00     0.102 A 
HETATM    7  C15 UNL     1       4.500   7.083  20.393  1.00  0.00     0.064 C 
HETATM    8  C16 UNL     1       5.089   6.066  21.321  1.00  0.00     0.085 C 
HETATM    9  C25 UNL     1       4.625   6.555  22.663  1.00  0.00     0.064 C 
ENDROOT
BRANCH   8  10
HETATM   10  N2  UNL     1       4.815   4.713  21.030  1.00  0.00    -0.415 N 
ATOM     11  H2  UNL     1       5.177   3.949  21.600  1.00  0.00     0.153 HD
BRANCH  10  12
HETATM   12  C17 UNL     1       3.990   4.482  19.871  1.00  0.00     0.139 C 
BRANCH  12  13
HETATM   13  C18 UNL     1       2.977   3.402  20.196  1.00  0.00     0.098 C 
HETATM   14  C19 UNL     1       2.142   3.833  21.354  1.00  0.00     0.059 C 
HETATM   15  C20 UNL     1       1.654   2.733  22.225  1.00  0.00     0.190 C 
HETATM   16  C21 UNL     1       2.485   2.673  23.476  1.00  0.00     0.033 C 
HETATM   17  N3  UNL     1       1.661   1.498  21.485  1.00  0.00    -0.050 N 
HETATM   18  C22 UNL     1       3.198   1.353  23.648  1.00  0.00     0.006 C 
HETATM   19  C23 UNL     1       3.864   0.899  22.372  1.00  0.00     0.054 C 
HETATM   20  C24 UNL     1       3.026   1.183  21.153  1.00  0.00     0.280 C 
HETATM   21  N4  UNL     1       3.677   2.175  20.359  1.00  0.00    -0.390 N 
ATOM     22  H4  UNL     1       4.590   2.013  19.934  1.00  0.00     0.155 HD
ATOM     23  H32 UNL     1       1.191   0.740  21.979  1.00  0.00     0.280 HD
ATOM     24  H31 UNL     1       1.053   1.526  20.666  1.00  0.00     0.280 HD
ENDBRANCH  12  13
ENDBRANCH  10  12
ENDBRANCH   8  10
BRANCH   6  25
HETATM   25  O2  UNL     1       5.237  12.017  21.161  1.00  0.00    -0.347 OA
BRANCH  25  26
HETATM   26  C8  UNL     1       6.495  12.613  20.926  1.00  0.00     0.206 C 
BRANCH  26  27
HETATM   27  C9  UNL     1       6.945  12.229  19.553  1.00  0.00     0.299 C 
BRANCH  27  28
HETATM   28  N1  UNL     1       8.330  11.837  19.482  1.00  0.00     0.090 N 
HETATM   29  C10 UNL     1       8.810  12.024  18.126  1.00  0.00     0.272 C 
HETATM   30  C11 UNL     1       8.279  10.965  17.191  1.00  0.00     0.030 C 
HETATM   31  C12 UNL     1       8.511   9.560  17.711  1.00  0.00     0.003 C 
HETATM   32  C13 UNL     1       7.855   9.497  19.095  1.00  0.00     0.030 C 
HETATM   33  C14 UNL     1       8.579  10.492  19.953  1.00  0.00     0.272 C 
ENDBRANCH  27  28
ENDBRANCH  26  27
ENDBRANCH  25  26
ENDBRANCH   6  25
BRANCH   1  34
HETATM   34  O1  UNL     1       5.387  11.445  23.798  1.00  0.00    -0.353 OA
HETATM   35  C1  UNL     1       4.308  11.843  24.621  1.00  0.00     0.210 C 
ENDBRANCH   1  34
TORSDOF 8
ENDMDL
