MODEL 1
REMARK VINA RESULT: -7.822217443      0.000      0.000
REMARK  6 active torsions:
REMARK  status: ('A' for Active; 'I' for Inactive)
REMARK    1  A    between atoms: N2_5  and  C4_6 
REMARK    2  A    between atoms: C4_6  and  C5_7 
REMARK    3  A    between atoms: C5_7  and  N3_8 
REMARK    4  A    between atoms: C6_10  and  N4_11 
REMARK    5  A    between atoms: C6_10  and  C13_25 
REMARK    6  A    between atoms: C8_18  and  C9_19 
ROOT
HETATM    1  N3  UNL     1     -10.556   8.038  -1.200  1.00  0.00    -0.374 N 
ATOM      2  H3  UNL     1     -11.219   8.265  -0.459  1.00  0.00     0.161 HD
HETATM    3  C6  UNL     1     -10.967   6.990  -1.642  1.00  0.00     0.113 C 
ENDROOT
BRANCH   3   4
HETATM    4  N4  UNL     1     -12.156   6.370  -1.088  1.00  0.00    -0.321 N 
HETATM    5  C7  UNL     1     -12.125   5.587  -0.073  1.00  0.00     0.167 A 
HETATM    6  N5  UNL     1     -11.153   5.131   0.713  1.00  0.00    -0.279 N 
HETATM    7  S2  UNL     1     -13.504   4.809   0.660  1.00  0.00    -0.032 SA
HETATM    8  N6  UNL     1     -11.445   4.347   1.672  1.00  0.00    -0.291 N 
ATOM      9  H5  UNL     1     -10.185   5.408   0.548  1.00  0.00     0.189 HD
HETATM   10  C8  UNL     1     -12.674   3.986   1.895  1.00  0.00     0.109 A 
ATOM     11  H6  UNL     1     -10.701   3.995   2.276  1.00  0.00     0.187 HD
ATOM     12  H4  UNL     1     -13.056   6.565  -1.526  1.00  0.00     0.169 HD
BRANCH  10  13
HETATM   13  C9  UNL     1     -13.223   3.088   2.940  1.00  0.00     0.040 A 
HETATM   14  C10 UNL     1     -12.638   2.720   4.098  1.00  0.00     0.022 A 
HETATM   15  C11 UNL     1     -13.314   1.889   4.903  1.00  0.00     0.008 A 
HETATM   16  C12 UNL     1     -14.554   1.481   4.480  1.00  0.00     0.050 A 
HETATM   17  S1  UNL     1     -14.716   2.277   2.976  1.00  0.00    -0.099 SA
ENDBRANCH  10  13
ENDBRANCH   3   4
BRANCH   3  18
HETATM   18  C13 UNL     1     -10.367   6.252  -2.756  1.00  0.00     0.008 A 
HETATM   19  C14 UNL     1      -9.102   5.663  -2.630  1.00  0.00     0.015 A 
HETATM   20  C15 UNL     1      -8.535   4.959  -3.665  1.00  0.00     0.001 A 
HETATM   21  C16 UNL     1      -9.200   4.816  -4.855  1.00  0.00     0.000 A 
HETATM   22  C17 UNL     1     -10.432   5.382  -5.002  1.00  0.00     0.001 A 
HETATM   23  C18 UNL     1     -11.004   6.096  -3.945  1.00  0.00     0.015 A 
ENDBRANCH   3  18
BRANCH   1  24
HETATM   24  C5  UNL     1      -9.664   9.081  -1.174  1.00  0.00     0.151 C 
BRANCH  24  25
HETATM   25  C4  UNL     1      -8.230   8.643  -0.870  1.00  0.00     0.294 C 
BRANCH  25  26
HETATM   26  N2  UNL     1      -7.968   8.461   0.511  1.00  0.00     0.119 N 
HETATM   27  C3  UNL     1      -8.158   7.133   1.018  1.00  0.00     0.304 C 
HETATM   28  C2  UNL     1      -7.346   7.113   2.301  1.00  0.00     0.304 C 
HETATM   29  N1  UNL     1      -6.626   8.367   2.355  1.00  0.00     0.114 N 
HETATM   30  C1  UNL     1      -7.163   9.249   3.365  1.00  0.00     0.312 C 
HETATM   31  C19 UNL     1      -6.733   8.961   1.014  1.00  0.00     0.542 C 
ENDBRANCH  25  26
ENDBRANCH  24  25
ENDBRANCH   1  24
TORSDOF 6
ENDMDL
MODEL 2
REMARK VINA RESULT: -7.369038798      3.308      7.510
REMARK  6 active torsions:
REMARK  status: ('A' for Active; 'I' for Inactive)
REMARK    1  A    between atoms: N2_5  and  C4_6 
REMARK    2  A    between atoms: C4_6  and  C5_7 
REMARK    3  A    between atoms: C5_7  and  N3_8 
REMARK    4  A    between atoms: C6_10  and  N4_11 
REMARK    5  A    between atoms: C6_10  and  C13_25 
REMARK    6  A    between atoms: C8_18  and  C9_19 
ROOT
HETATM    1  N3  UNL     1     -11.357   4.283   1.260  1.00  0.00    -0.374 N 
ATOM      2  H3  UNL     1     -10.403   4.197   1.610  1.00  0.00     0.161 HD
HETATM    3  C6  UNL     1     -11.366   5.359   0.709  1.00  0.00     0.113 C 
ENDROOT
BRANCH   3   4
HETATM    4  N4  UNL     1     -10.172   6.183   0.677  1.00  0.00    -0.321 N 
HETATM    5  C7  UNL     1      -9.649   6.694   1.731  1.00  0.00     0.167 A 
HETATM    6  N5  UNL     1      -9.959   6.663   3.023  1.00  0.00    -0.279 N 
HETATM    7  S2  UNL     1      -8.215   7.685   1.781  1.00  0.00    -0.032 SA
HETATM    8  N6  UNL     1      -9.223   7.285   3.855  1.00  0.00    -0.291 N 
ATOM      9  H5  UNL     1     -10.779   6.147   3.344  1.00  0.00     0.189 HD
HETATM   10  C8  UNL     1      -8.176   7.948   3.461  1.00  0.00     0.109 A 
ATOM     11  H6  UNL     1      -9.459   7.264   4.847  1.00  0.00     0.187 HD
ATOM     12  H4  UNL     1      -9.728   6.362  -0.224  1.00  0.00     0.169 HD
BRANCH  10  13
HETATM   13  C9  UNL     1      -7.200   8.735   4.253  1.00  0.00     0.040 A 
HETATM   14  C10 UNL     1      -7.455   9.556   5.291  1.00  0.00     0.022 A 
HETATM   15  C11 UNL     1      -6.416  10.180   5.865  1.00  0.00     0.008 A 
HETATM   16  C12 UNL     1      -5.172   9.927   5.345  1.00  0.00     0.050 A 
HETATM   17  S1  UNL     1      -5.512   8.831   4.078  1.00  0.00    -0.099 SA
ENDBRANCH  10  13
ENDBRANCH   3   4
BRANCH   3  18
HETATM   18  C13 UNL     1     -12.516   5.940   0.013  1.00  0.00     0.008 A 
HETATM   19  C14 UNL     1     -13.544   6.571   0.726  1.00  0.00     0.015 A 
HETATM   20  C15 UNL     1     -14.622   7.130   0.083  1.00  0.00     0.001 A 
HETATM   21  C16 UNL     1     -14.717   7.081  -1.284  1.00  0.00     0.000 A 
HETATM   22  C17 UNL     1     -13.729   6.471  -1.999  1.00  0.00     0.001 A 
HETATM   23  C18 UNL     1     -12.635   5.905  -1.339  1.00  0.00     0.015 A 
ENDBRANCH   3  18
BRANCH   1  24
HETATM   24  C5  UNL     1     -11.959   3.116   1.661  1.00  0.00     0.151 C 
BRANCH  24  25
HETATM   25  C4  UNL     1     -13.484   3.219   1.741  1.00  0.00     0.294 C 
BRANCH  25  26
HETATM   26  N2  UNL     1     -14.008   2.962   3.033  1.00  0.00     0.119 N 
HETATM   27  C3  UNL     1     -15.070   2.002   3.103  1.00  0.00     0.304 C 
HETATM   28  C2  UNL     1     -15.066   1.560   4.556  1.00  0.00     0.304 C 
HETATM   29  N1  UNL     1     -13.910   2.173   5.173  1.00  0.00     0.114 N 
HETATM   30  C1  UNL     1     -14.287   3.235   6.077  1.00  0.00     0.312 C 
HETATM   31  C19 UNL     1     -13.076   2.679   4.071  1.00  0.00     0.542 C 
ENDBRANCH  25  26
ENDBRANCH  24  25
ENDBRANCH   1  24
TORSDOF 6
ENDMDL
MODEL 3
REMARK VINA RESULT: -7.279437556      3.627      8.032
REMARK  6 active torsions:
REMARK  status: ('A' for Active; 'I' for Inactive)
REMARK    1  A    between atoms: N2_5  and  C4_6 
REMARK    2  A    between atoms: C4_6  and  C5_7 
REMARK    3  A    between atoms: C5_7  and  N3_8 
REMARK    4  A    between atoms: C6_10  and  N4_11 
REMARK    5  A    between atoms: C6_10  and  C13_25 
REMARK    6  A    between atoms: C8_18  and  C9_19 
ROOT
HETATM    1  N3  UNL     1     -13.481   4.974   0.285  1.00  0.00    -0.374 N 
ATOM      2  H3  UNL     1     -14.406   5.141  -0.112  1.00  0.00     0.161 HD
HETATM    3  C6  UNL     1     -12.893   6.013   0.092  1.00  0.00     0.113 C 
ENDROOT
BRANCH   3   4
HETATM    4  N4  UNL     1     -13.550   7.120  -0.577  1.00  0.00    -0.321 N 
HETATM    5  C7  UNL     1     -13.870   7.093  -1.819  1.00  0.00     0.167 A 
HETATM    6  N5  UNL     1     -13.739   6.191  -2.787  1.00  0.00    -0.279 N 
HETATM    7  S2  UNL     1     -14.666   8.373  -2.696  1.00  0.00    -0.032 SA
HETATM    8  N6  UNL     1     -14.173   6.461  -3.952  1.00  0.00    -0.291 N 
ATOM      9  H5  UNL     1     -13.295   5.292  -2.597  1.00  0.00     0.189 HD
HETATM   10  C8  UNL     1     -14.741   7.602  -4.210  1.00  0.00     0.109 A 
ATOM     11  H6  UNL     1     -14.073   5.771  -4.697  1.00  0.00     0.187 HD
ATOM     12  H4  UNL     1     -13.766   7.957  -0.036  1.00  0.00     0.169 HD
BRANCH  10  13
HETATM   13  C9  UNL     1     -15.304   8.115  -5.483  1.00  0.00     0.040 A 
HETATM   14  C10 UNL     1     -15.640   9.386  -5.780  1.00  0.00     0.022 A 
HETATM   15  C11 UNL     1     -16.141   9.631  -7.000  1.00  0.00     0.008 A 
HETATM   16  C12 UNL     1     -16.269   8.561  -7.848  1.00  0.00     0.050 A 
HETATM   17  S1  UNL     1     -15.685   7.262  -6.903  1.00  0.00    -0.099 SA
ENDBRANCH  10  13
ENDBRANCH   3   4
BRANCH   3  18
HETATM   18  C13 UNL     1     -11.517   6.291   0.507  1.00  0.00     0.008 A 
HETATM   19  C14 UNL     1     -10.514   6.531  -0.442  1.00  0.00     0.015 A 
HETATM   20  C15 UNL     1      -9.221   6.804  -0.064  1.00  0.00     0.001 A 
HETATM   21  C16 UNL     1      -8.881   6.848   1.263  1.00  0.00     0.000 A 
HETATM   22  C17 UNL     1      -9.840   6.617   2.205  1.00  0.00     0.001 A 
HETATM   23  C18 UNL     1     -11.152   6.340   1.814  1.00  0.00     0.015 A 
ENDBRANCH   3  18
BRANCH   1  24
HETATM   24  C5  UNL     1     -13.556   3.687   0.759  1.00  0.00     0.151 C 
BRANCH  24  25
HETATM   25  C4  UNL     1     -14.726   3.463   1.719  1.00  0.00     0.294 C 
BRANCH  25  26
HETATM   26  N2  UNL     1     -14.333   3.005   3.002  1.00  0.00     0.119 N 
HETATM   27  C3  UNL     1     -14.996   1.827   3.480  1.00  0.00     0.304 C 
HETATM   28  C2  UNL     1     -14.065   1.296   4.555  1.00  0.00     0.304 C 
HETATM   29  N1  UNL     1     -12.870   2.110   4.508  1.00  0.00     0.114 N 
HETATM   30  C1  UNL     1     -12.779   2.994   5.647  1.00  0.00     0.312 C 
HETATM   31  C19 UNL     1     -12.938   2.867   3.248  1.00  0.00     0.542 C 
ENDBRANCH  25  26
ENDBRANCH  24  25
ENDBRANCH   1  24
TORSDOF 6
ENDMDL
MODEL 4
REMARK VINA RESULT: -7.221729769      3.248      7.886
REMARK  6 active torsions:
REMARK  status: ('A' for Active; 'I' for Inactive)
REMARK    1  A    between atoms: N2_5  and  C4_6 
REMARK    2  A    between atoms: C4_6  and  C5_7 
REMARK    3  A    between atoms: C5_7  and  N3_8 
REMARK    4  A    between atoms: C6_10  and  N4_11 
REMARK    5  A    between atoms: C6_10  and  C13_25 
REMARK    6  A    between atoms: C8_18  and  C9_19 
ROOT
HETATM    1  N3  UNL     1     -12.938   5.487   0.307  1.00  0.00    -0.374 N 
ATOM      2  H3  UNL     1     -13.379   5.355  -0.603  1.00  0.00     0.161 HD
HETATM    3  C6  UNL     1     -11.846   5.929   0.037  1.00  0.00     0.113 C 
ENDROOT
BRANCH   3   4
HETATM    4  N4  UNL     1     -11.456   6.142  -1.344  1.00  0.00    -0.321 N 
HETATM    5  C7  UNL     1     -12.301   6.190  -2.308  1.00  0.00     0.167 A 
HETATM    6  N5  UNL     1     -13.624   6.079  -2.381  1.00  0.00    -0.279 N 
HETATM    7  S2  UNL     1     -11.919   6.450  -3.990  1.00  0.00    -0.032 SA
HETATM    8  N6  UNL     1     -14.195   6.179  -3.515  1.00  0.00    -0.291 N 
ATOM      9  H5  UNL     1     -14.176   5.916  -1.538  1.00  0.00     0.189 HD
HETATM   10  C8  UNL     1     -13.506   6.387  -4.598  1.00  0.00     0.109 A 
ATOM     11  H6  UNL     1     -15.210   6.094  -3.575  1.00  0.00     0.187 HD
ATOM     12  H4  UNL     1     -10.466   6.259  -1.558  1.00  0.00     0.169 HD
BRANCH  10  13
HETATM   13  C9  UNL     1     -13.966   6.528  -6.001  1.00  0.00     0.040 A 
HETATM   14  C10 UNL     1     -13.393   6.015  -7.109  1.00  0.00     0.022 A 
HETATM   15  C11 UNL     1     -13.977   6.271  -8.289  1.00  0.00     0.008 A 
HETATM   16  C12 UNL     1     -15.115   7.036  -8.270  1.00  0.00     0.050 A 
HETATM   17  S1  UNL     1     -15.317   7.364  -6.604  1.00  0.00    -0.099 SA
ENDBRANCH  10  13
ENDBRANCH   3   4
BRANCH   3  18
HETATM   18  C13 UNL     1     -10.827   6.313   1.016  1.00  0.00     0.008 A 
HETATM   19  C14 UNL     1      -9.531   6.655   0.608  1.00  0.00     0.015 A 
HETATM   20  C15 UNL     1      -8.570   7.028   1.517  1.00  0.00     0.001 A 
HETATM   21  C16 UNL     1      -8.861   7.074   2.856  1.00  0.00     0.000 A 
HETATM   22  C17 UNL     1     -10.116   6.745   3.277  1.00  0.00     0.001 A 
HETATM   23  C18 UNL     1     -11.088   6.366   2.347  1.00  0.00     0.015 A 
ENDBRANCH   3  18
BRANCH   1  24
HETATM   24  C5  UNL     1     -13.896   5.069   1.198  1.00  0.00     0.151 C 
BRANCH  24  25
HETATM   25  C4  UNL     1     -13.931   3.550   1.380  1.00  0.00     0.294 C 
BRANCH  25  26
HETATM   26  N2  UNL     1     -13.855   3.134   2.733  1.00  0.00     0.119 N 
HETATM   27  C3  UNL     1     -14.705   2.041   3.104  1.00  0.00     0.304 C 
HETATM   28  C2  UNL     1     -14.068   1.498   4.371  1.00  0.00     0.304 C 
HETATM   29  N1  UNL     1     -12.821   2.210   4.546  1.00  0.00     0.114 N 
HETATM   30  C1  UNL     1     -12.889   3.145   5.645  1.00  0.00     0.312 C 
HETATM   31  C19 UNL     1     -12.559   2.899   3.273  1.00  0.00     0.542 C 
ENDBRANCH  25  26
ENDBRANCH  24  25
ENDBRANCH   1  24
TORSDOF 6
ENDMDL
MODEL 5
REMARK VINA RESULT: -7.133084846      2.789      6.528
REMARK  6 active torsions:
REMARK  status: ('A' for Active; 'I' for Inactive)
REMARK    1  A    between atoms: N2_5  and  C4_6 
REMARK    2  A    between atoms: C4_6  and  C5_7 
REMARK    3  A    between atoms: C5_7  and  N3_8 
REMARK    4  A    between atoms: C6_10  and  N4_11 
REMARK    5  A    between atoms: C6_10  and  C13_25 
REMARK    6  A    between atoms: C8_18  and  C9_19 
ROOT
HETATM    1  N3  UNL     1     -11.257   6.682  -0.972  1.00  0.00    -0.374 N 
ATOM      2  H3  UNL     1     -11.132   7.322  -0.187  1.00  0.00     0.161 HD
HETATM    3  C6  UNL     1     -10.227   6.789  -1.597  1.00  0.00     0.113 C 
ENDROOT
BRANCH   3   4
HETATM    4  N4  UNL     1      -9.181   7.689  -1.149  1.00  0.00    -0.321 N 
HETATM    5  C7  UNL     1      -8.683   7.646   0.032  1.00  0.00     0.167 A 
HETATM    6  N5  UNL     1      -8.905   6.887   1.101  1.00  0.00    -0.279 N 
HETATM    7  S2  UNL     1      -7.422   8.683   0.647  1.00  0.00    -0.032 SA
HETATM    8  N6  UNL     1      -8.227   7.088   2.159  1.00  0.00    -0.291 N 
ATOM      9  H5  UNL     1      -9.612   6.151   1.073  1.00  0.00     0.189 HD
HETATM   10  C8  UNL     1      -7.322   8.021   2.211  1.00  0.00     0.109 A 
ATOM     11  H6  UNL     1      -8.395   6.507   2.981  1.00  0.00     0.187 HD
ATOM     12  H4  UNL     1      -8.827   8.388  -1.802  1.00  0.00     0.169 HD
BRANCH  10  13
HETATM   13  C9  UNL     1      -6.436   8.421   3.331  1.00  0.00     0.040 A 
HETATM   14  C10 UNL     1      -6.755   9.174   4.403  1.00  0.00     0.022 A 
HETATM   15  C11 UNL     1      -5.791   9.422   5.301  1.00  0.00     0.008 A 
HETATM   16  C12 UNL     1      -4.554   8.883   5.054  1.00  0.00     0.050 A 
HETATM   17  S1  UNL     1      -4.795   8.057   3.577  1.00  0.00    -0.099 SA
ENDBRANCH  10  13
ENDBRANCH   3   4
BRANCH   3  18
HETATM   18  C13 UNL     1      -9.899   6.045  -2.815  1.00  0.00     0.008 A 
HETATM   19  C14 UNL     1      -8.715   5.301  -2.907  1.00  0.00     0.015 A 
HETATM   20  C15 UNL     1      -8.403   4.591  -4.041  1.00  0.00     0.001 A 
HETATM   21  C16 UNL     1      -9.251   4.595  -5.118  1.00  0.00     0.000 A 
HETATM   22  C17 UNL     1     -10.409   5.313  -5.053  1.00  0.00     0.001 A 
HETATM   23  C18 UNL     1     -10.721   6.033  -3.896  1.00  0.00     0.015 A 
ENDBRANCH   3  18
BRANCH   1  24
HETATM   24  C5  UNL     1     -12.506   6.150  -0.766  1.00  0.00     0.151 C 
BRANCH  24  25
HETATM   25  C4  UNL     1     -13.024   6.358   0.658  1.00  0.00     0.294 C 
BRANCH  25  26
HETATM   26  N2  UNL     1     -13.588   5.194   1.238  1.00  0.00     0.119 N 
HETATM   27  C3  UNL     1     -14.933   4.886   0.852  1.00  0.00     0.304 C 
HETATM   28  C2  UNL     1     -15.077   3.409   1.177  1.00  0.00     0.304 C 
HETATM   29  N1  UNL     1     -13.766   2.943   1.573  1.00  0.00     0.114 N 
HETATM   30  C1  UNL     1     -13.699   2.679   2.992  1.00  0.00     0.312 C 
HETATM   31  C19 UNL     1     -12.818   3.997   1.180  1.00  0.00     0.542 C 
ENDBRANCH  25  26
ENDBRANCH  24  25
ENDBRANCH   1  24
TORSDOF 6
ENDMDL
