MODEL 1
REMARK VINA RESULT: -7.035849719      0.000      0.000
REMARK  0 active torsions:
REMARK  status: ('A' for Active; 'I' for Inactive)
ROOT
HETATM    1  O1  UNL     1     -17.533 -42.392  27.484  1.00  0.00    -0.272 OA
HETATM    2  C1  UNL     1     -18.089 -42.321  26.382  1.00  0.00     0.234 C 
HETATM    3  C2  UNL     1     -19.587 -42.172  26.458  1.00  0.00     0.177 C 
HETATM    4  S1  UNL     1     -20.213 -42.875  24.892  1.00  0.00    -0.149 SA
HETATM    5  C3  UNL     1     -20.001 -41.721  23.513  1.00  0.00     0.015 C 
HETATM    6  C4  UNL     1     -20.378 -42.494  22.255  1.00  0.00     0.021 C 
HETATM    7  C5  UNL     1     -20.728 -41.587  21.112  1.00  0.00     0.002 C 
HETATM    8  C6  UNL     1     -22.246 -41.566  20.990  1.00  0.00     0.000 C 
HETATM    9  C7  UNL     1     -22.808 -40.266  21.457  1.00  0.00     0.000 C 
HETATM   10  C8  UNL     1     -23.287 -40.288  22.881  1.00  0.00     0.000 C 
HETATM   11  C9  UNL     1     -22.363 -41.059  23.798  1.00  0.00     0.002 C 
HETATM   12  C10 UNL     1     -20.951 -40.558  23.738  1.00  0.00     0.021 C 
HETATM   13  C11 UNL     1     -18.589 -41.249  23.336  1.00  0.00     0.097 C 
HETATM   14  C12 UNL     1     -17.572 -42.187  23.876  1.00  0.00     0.083 C 
HETATM   15  N1  UNL     1     -16.956 -42.867  22.965  1.00  0.00    -0.379 N 
ATOM     16  H1  UNL     1     -17.163 -42.756  21.973  1.00  0.00     0.160 HD
HETATM   17  C13 UNL     1     -15.952 -43.797  23.445  1.00  0.00     0.122 C 
HETATM   18  C14 UNL     1     -15.041 -43.030  24.374  1.00  0.00     0.040 C 
HETATM   19  C15 UNL     1     -15.848 -42.718  25.629  1.00  0.00     0.135 C 
HETATM   20  N2  UNL     1     -17.231 -42.392  25.245  1.00  0.00    -0.307 N 
ENDROOT
TORSDOF 0
ENDMDL
MODEL 2
REMARK VINA RESULT: -6.895340112      2.426      3.271
REMARK  0 active torsions:
REMARK  status: ('A' for Active; 'I' for Inactive)
ROOT
HETATM    1  O1  UNL     1     -21.434 -43.667  24.999  1.00  0.00    -0.272 OA
HETATM    2  C1  UNL     1     -21.271 -42.788  24.145  1.00  0.00     0.234 C 
HETATM    3  C2  UNL     1     -22.514 -42.457  23.359  1.00  0.00     0.177 C 
HETATM    4  S1  UNL     1     -21.908 -41.825  21.757  1.00  0.00    -0.149 SA
HETATM    5  C3  UNL     1     -21.335 -40.113  21.891  1.00  0.00     0.015 C 
HETATM    6  C4  UNL     1     -20.686 -39.779  20.553  1.00  0.00     0.021 C 
HETATM    7  C5  UNL     1     -20.601 -38.301  20.313  1.00  0.00     0.002 C 
HETATM    8  C6  UNL     1     -21.710 -37.930  19.337  1.00  0.00     0.000 C 
HETATM    9  C7  UNL     1     -22.806 -37.186  20.021  1.00  0.00     0.000 C 
HETATM   10  C8  UNL     1     -23.961 -38.052  20.437  1.00  0.00     0.000 C 
HETATM   11  C9  UNL     1     -23.520 -39.388  20.996  1.00  0.00     0.002 C 
HETATM   12  C10 UNL     1     -22.553 -39.239  22.132  1.00  0.00     0.021 C 
HETATM   13  C11 UNL     1     -20.295 -39.908  22.951  1.00  0.00     0.097 C 
HETATM   14  C12 UNL     1     -19.520 -41.133  23.274  1.00  0.00     0.083 C 
HETATM   15  N1  UNL     1     -18.328 -41.141  22.774  1.00  0.00    -0.379 N 
ATOM     16  H1  UNL     1     -17.970 -40.369  22.213  1.00  0.00     0.160 HD
HETATM   17  C13 UNL     1     -17.532 -42.318  23.063  1.00  0.00     0.122 C 
HETATM   18  C14 UNL     1     -17.584 -42.536  24.558  1.00  0.00     0.040 C 
HETATM   19  C15 UNL     1     -19.001 -42.989  24.890  1.00  0.00     0.135 C 
HETATM   20  N2  UNL     1     -19.955 -42.246  24.050  1.00  0.00    -0.307 N 
ENDROOT
TORSDOF 0
ENDMDL
MODEL 3
REMARK VINA RESULT: -6.630292680      3.120      6.547
REMARK  0 active torsions:
REMARK  status: ('A' for Active; 'I' for Inactive)
ROOT
HETATM    1  O1  UNL     1     -23.435 -41.985  22.792  1.00  0.00    -0.272 OA
HETATM    2  C1  UNL     1     -22.583 -42.031  23.686  1.00  0.00     0.234 C 
HETATM    3  C2  UNL     1     -21.346 -42.809  23.316  1.00  0.00     0.177 C 
HETATM    4  S1  UNL     1     -20.669 -43.408  24.903  1.00  0.00    -0.149 SA
HETATM    5  C3  UNL     1     -19.785 -42.098  25.786  1.00  0.00     0.015 C 
HETATM    6  C4  UNL     1     -19.447 -42.669  27.158  1.00  0.00     0.021 C 
HETATM    7  C5  UNL     1     -18.321 -41.931  27.822  1.00  0.00     0.002 C 
HETATM    8  C6  UNL     1     -17.066 -42.781  27.676  1.00  0.00     0.000 C 
HETATM    9  C7  UNL     1     -16.123 -42.186  26.685  1.00  0.00     0.000 C 
HETATM   10  C8  UNL     1     -16.240 -42.774  25.307  1.00  0.00     0.000 C 
HETATM   11  C9  UNL     1     -17.675 -43.023  24.896  1.00  0.00     0.002 C 
HETATM   12  C10 UNL     1     -18.521 -41.790  25.004  1.00  0.00     0.021 C 
HETATM   13  C11 UNL     1     -20.606 -40.864  26.011  1.00  0.00     0.097 C 
HETATM   14  C12 UNL     1     -22.070 -41.113  26.022  1.00  0.00     0.083 C 
HETATM   15  N1  UNL     1     -22.590 -41.099  27.205  1.00  0.00    -0.379 N 
ATOM     16  H1  UNL     1     -22.032 -40.932  28.042  1.00  0.00     0.160 HD
HETATM   17  C13 UNL     1     -24.020 -41.337  27.267  1.00  0.00     0.122 C 
HETATM   18  C14 UNL     1     -24.673 -40.390  26.287  1.00  0.00     0.040 C 
HETATM   19  C15 UNL     1     -24.304 -40.875  24.890  1.00  0.00     0.135 C 
HETATM   20  N2  UNL     1     -22.910 -41.352  24.896  1.00  0.00    -0.307 N 
ENDROOT
TORSDOF 0
ENDMDL
MODEL 4
REMARK VINA RESULT: -6.567066600      2.653      5.675
REMARK  0 active torsions:
REMARK  status: ('A' for Active; 'I' for Inactive)
ROOT
HETATM    1  O1  UNL     1     -24.156 -41.438  23.552  1.00  0.00    -0.272 OA
HETATM    2  C1  UNL     1     -22.949 -41.622  23.745  1.00  0.00     0.234 C 
HETATM    3  C2  UNL     1     -22.440 -41.053  25.045  1.00  0.00     0.177 C 
HETATM    4  S1  UNL     1     -20.668 -40.721  24.757  1.00  0.00    -0.149 SA
HETATM    5  C3  UNL     1     -19.684 -42.238  24.843  1.00  0.00     0.015 C 
HETATM    6  C4  UNL     1     -18.277 -41.854  24.398  1.00  0.00     0.021 C 
HETATM    7  C5  UNL     1     -17.244 -42.836  24.864  1.00  0.00     0.002 C 
HETATM    8  C6  UNL     1     -16.530 -42.219  26.060  1.00  0.00     0.000 C 
HETATM    9  C7  UNL     1     -16.925 -42.890  27.332  1.00  0.00     0.000 C 
HETATM   10  C8  UNL     1     -18.017 -42.178  28.079  1.00  0.00     0.000 C 
HETATM   11  C9  UNL     1     -19.097 -41.639  27.167  1.00  0.00     0.002 C 
HETATM   12  C10 UNL     1     -19.684 -42.704  26.288  1.00  0.00     0.021 C 
HETATM   13  C11 UNL     1     -20.161 -43.317  23.919  1.00  0.00     0.097 C 
HETATM   14  C12 UNL     1     -20.912 -42.810  22.743  1.00  0.00     0.083 C 
HETATM   15  N1  UNL     1     -20.231 -42.827  21.644  1.00  0.00    -0.379 N 
ATOM     16  H1  UNL     1     -19.268 -43.162  21.608  1.00  0.00     0.160 HD
HETATM   17  C13 UNL     1     -20.923 -42.340  20.466  1.00  0.00     0.122 C 
HETATM   18  C14 UNL     1     -22.245 -43.069  20.393  1.00  0.00     0.040 C 
HETATM   19  C15 UNL     1     -23.104 -42.544  21.538  1.00  0.00     0.135 C 
HETATM   20  N2  UNL     1     -22.253 -42.329  22.720  1.00  0.00    -0.307 N 
ENDROOT
TORSDOF 0
ENDMDL
MODEL 5
REMARK VINA RESULT: -6.515414939      3.393      6.197
REMARK  0 active torsions:
REMARK  status: ('A' for Active; 'I' for Inactive)
ROOT
HETATM    1  O1  UNL     1     -19.928 -38.898  20.308  1.00  0.00    -0.272 OA
HETATM    2  C1  UNL     1     -20.266 -39.602  21.266  1.00  0.00     0.234 C 
HETATM    3  C2  UNL     1     -19.120 -40.303  21.949  1.00  0.00     0.177 C 
HETATM    4  S1  UNL     1     -19.858 -41.793  22.706  1.00  0.00    -0.149 SA
HETATM    5  C3  UNL     1     -20.743 -41.394  24.234  1.00  0.00     0.015 C 
HETATM    6  C4  UNL     1     -21.463 -42.672  24.650  1.00  0.00     0.021 C 
HETATM    7  C5  UNL     1     -21.830 -42.672  26.104  1.00  0.00     0.002 C 
HETATM    8  C6  UNL     1     -20.825 -43.556  26.831  1.00  0.00     0.000 C 
HETATM    9  C7  UNL     1     -19.880 -42.743  27.649  1.00  0.00     0.000 C 
HETATM   10  C8  UNL     1     -18.577 -42.453  26.961  1.00  0.00     0.000 C 
HETATM   11  C9  UNL     1     -18.748 -42.124  25.494  1.00  0.00     0.002 C 
HETATM   12  C10 UNL     1     -19.710 -40.995  25.272  1.00  0.00     0.021 C 
HETATM   13  C11 UNL     1     -21.788 -40.333  24.064  1.00  0.00     0.097 C 
HETATM   14  C12 UNL     1     -22.312 -40.224  22.679  1.00  0.00     0.083 C 
HETATM   15  N1  UNL     1     -23.488 -40.738  22.526  1.00  0.00    -0.379 N 
ATOM     16  H1  UNL     1     -23.994 -41.174  23.296  1.00  0.00     0.160 HD
HETATM   17  C13 UNL     1     -24.042 -40.656  21.188  1.00  0.00     0.122 C 
HETATM   18  C14 UNL     1     -23.928 -39.216  20.745  1.00  0.00     0.040 C 
HETATM   19  C15 UNL     1     -22.446 -38.937  20.521  1.00  0.00     0.135 C 
HETATM   20  N2  UNL     1     -21.662 -39.630  21.558  1.00  0.00    -0.307 N 
ENDROOT
TORSDOF 0
ENDMDL
