MODEL 1
REMARK VINA RESULT: -8.460411586      0.000      0.000
REMARK  0 active torsions:
REMARK  status: ('A' for Active; 'I' for Inactive)
ROOT
HETATM    1  C1  UNL     1     -20.553 -39.957  22.852  1.00  0.00     0.314 C 
HETATM    2  N1  UNL     1     -20.969 -40.932  23.782  1.00  0.00     0.118 N 
HETATM    3  C2  UNL     1     -21.148 -42.259  23.268  1.00  0.00     0.361 C 
HETATM    4  C3  UNL     1     -21.565 -42.996  24.550  1.00  0.00     0.066 C 
HETATM    5  C4  UNL     1     -20.645 -42.287  25.553  1.00  0.00     0.041 C 
HETATM    6  C5  UNL     1     -19.977 -41.196  24.844  1.00  0.00     0.237 C 
HETATM    7  C6  UNL     1     -18.712 -41.436  24.166  1.00  0.00     0.109 C 
HETATM    8  C7  UNL     1     -18.842 -42.612  23.243  1.00  0.00     0.272 C 
HETATM    9  O1  UNL     1     -20.063 -42.877  22.767  1.00  0.00    -0.326 OA
HETATM   10  O2  UNL     1     -18.364 -43.403  24.316  1.00  0.00    -0.349 OA
HETATM   11  C8  UNL     1     -17.647 -42.288  24.708  1.00  0.00     0.074 C 
HETATM   12  C9  UNL     1     -16.389 -42.190  23.841  1.00  0.00     0.039 C 
HETATM   13  C10 UNL     1     -15.157 -41.938  24.646  1.00  0.00     0.012 C 
HETATM   14  C11 UNL     1     -14.923 -42.966  25.711  1.00  0.00    -0.040 C 
HETATM   15  C12 UNL     1     -14.487 -44.292  25.131  1.00  0.00     0.009 C 
HETATM   16  C13 UNL     1     -13.854 -44.951  26.361  1.00  0.00     0.001 C 
HETATM   17  C14 UNL     1     -12.971 -43.823  26.864  1.00  0.00     0.001 C 
HETATM   18  C15 UNL     1     -13.749 -42.572  26.562  1.00  0.00     0.009 C 
HETATM   19  C16 UNL     1     -16.187 -43.170  26.485  1.00  0.00     0.012 C 
HETATM   20  C17 UNL     1     -17.240 -42.151  26.117  1.00  0.00     0.039 C 
ENDROOT
TORSDOF 0
ENDMDL
MODEL 2
REMARK VINA RESULT: -7.655124290      1.382      1.711
REMARK  0 active torsions:
REMARK  status: ('A' for Active; 'I' for Inactive)
ROOT
HETATM    1  C1  UNL     1     -22.469 -40.355  24.090  1.00  0.00     0.314 C 
HETATM    2  N1  UNL     1     -22.358 -41.286  25.143  1.00  0.00     0.118 N 
HETATM    3  C2  UNL     1     -22.577 -42.661  24.796  1.00  0.00     0.361 C 
HETATM    4  C3  UNL     1     -22.349 -43.328  26.161  1.00  0.00     0.066 C 
HETATM    5  C4  UNL     1     -21.189 -42.461  26.669  1.00  0.00     0.041 C 
HETATM    6  C5  UNL     1     -20.997 -41.375  25.709  1.00  0.00     0.237 C 
HETATM    7  C6  UNL     1     -20.098 -41.554  24.579  1.00  0.00     0.109 C 
HETATM    8  C7  UNL     1     -20.456 -42.806  23.834  1.00  0.00     0.272 C 
HETATM    9  O1  UNL     1     -21.726 -43.216  23.915  1.00  0.00    -0.326 OA
HETATM   10  O2  UNL     1     -19.496 -43.463  24.641  1.00  0.00    -0.349 OA
HETATM   11  C8  UNL     1     -18.815 -42.261  24.663  1.00  0.00     0.074 C 
HETATM   12  C9  UNL     1     -18.038 -42.119  23.352  1.00  0.00     0.039 C 
HETATM   13  C10 UNL     1     -16.623 -41.695  23.567  1.00  0.00     0.012 C 
HETATM   14  C11 UNL     1     -15.860 -42.610  24.476  1.00  0.00    -0.040 C 
HETATM   15  C12 UNL     1     -15.548 -43.933  23.815  1.00  0.00     0.009 C 
HETATM   16  C13 UNL     1     -14.400 -44.433  24.698  1.00  0.00     0.001 C 
HETATM   17  C14 UNL     1     -13.524 -43.193  24.751  1.00  0.00     0.001 C 
HETATM   18  C15 UNL     1     -14.495 -42.045  24.753  1.00  0.00     0.009 C 
HETATM   19  C16 UNL     1     -16.668 -42.865  25.709  1.00  0.00     0.012 C 
HETATM   20  C17 UNL     1     -17.889 -41.976  25.773  1.00  0.00     0.039 C 
ENDROOT
TORSDOF 0
ENDMDL
MODEL 3
REMARK VINA RESULT: -7.111114171      3.689      6.790
REMARK  0 active torsions:
REMARK  status: ('A' for Active; 'I' for Inactive)
ROOT
HETATM    1  C1  UNL     1     -21.780 -44.321  26.439  1.00  0.00     0.314 C 
HETATM    2  N1  UNL     1     -21.138 -43.143  26.873  1.00  0.00     0.118 N 
HETATM    3  C2  UNL     1     -19.730 -43.058  26.614  1.00  0.00     0.361 C 
HETATM    4  C3  UNL     1     -19.427 -41.668  27.196  1.00  0.00     0.066 C 
HETATM    5  C4  UNL     1     -20.703 -40.935  26.761  1.00  0.00     0.041 C 
HETATM    6  C5  UNL     1     -21.605 -41.926  26.177  1.00  0.00     0.237 C 
HETATM    7  C6  UNL     1     -21.536 -42.223  24.753  1.00  0.00     0.109 C 
HETATM    8  C7  UNL     1     -20.125 -42.558  24.369  1.00  0.00     0.272 C 
HETATM    9  O1  UNL     1     -19.340 -43.063  25.327  1.00  0.00    -0.326 OA
HETATM   10  O2  UNL     1     -19.974 -41.189  24.044  1.00  0.00    -0.349 OA
HETATM   11  C8  UNL     1     -21.318 -41.204  23.720  1.00  0.00     0.074 C 
HETATM   12  C9  UNL     1     -21.474 -41.815  22.325  1.00  0.00     0.039 C 
HETATM   13  C10 UNL     1     -22.371 -41.011  21.444  1.00  0.00     0.012 C 
HETATM   14  C11 UNL     1     -21.935 -39.585  21.294  1.00  0.00    -0.040 C 
HETATM   15  C12 UNL     1     -20.694 -39.461  20.441  1.00  0.00     0.009 C 
HETATM   16  C13 UNL     1     -20.764 -37.983  20.042  1.00  0.00     0.001 C 
HETATM   17  C14 UNL     1     -22.212 -37.879  19.595  1.00  0.00     0.001 C 
HETATM   18  C15 UNL     1     -22.957 -38.810  20.512  1.00  0.00     0.009 C 
HETATM   19  C16 UNL     1     -21.650 -39.012  22.647  1.00  0.00     0.012 C 
HETATM   20  C17 UNL     1     -22.083 -39.946  23.753  1.00  0.00     0.039 C 
ENDROOT
TORSDOF 0
ENDMDL
MODEL 4
REMARK VINA RESULT: -7.072936977      3.467      4.749
REMARK  0 active torsions:
REMARK  status: ('A' for Active; 'I' for Inactive)
ROOT
HETATM    1  C1  UNL     1     -19.091 -39.232  20.537  1.00  0.00     0.314 C 
HETATM    2  N1  UNL     1     -20.397 -38.950  20.984  1.00  0.00     0.118 N 
HETATM    3  C2  UNL     1     -21.432 -39.814  20.494  1.00  0.00     0.361 C 
HETATM    4  C3  UNL     1     -22.653 -39.211  21.207  1.00  0.00     0.066 C 
HETATM    5  C4  UNL     1     -22.008 -38.873  22.558  1.00  0.00     0.041 C 
HETATM    6  C5  UNL     1     -20.574 -39.132  22.440  1.00  0.00     0.237 C 
HETATM    7  C6  UNL     1     -20.045 -40.452  22.750  1.00  0.00     0.109 C 
HETATM    8  C7  UNL     1     -20.797 -41.498  21.979  1.00  0.00     0.272 C 
HETATM    9  O1  UNL     1     -21.357 -41.115  20.828  1.00  0.00    -0.326 OA
HETATM   10  O2  UNL     1     -21.633 -41.617  23.115  1.00  0.00    -0.349 OA
HETATM   11  C8  UNL     1     -20.523 -41.278  23.865  1.00  0.00     0.074 C 
HETATM   12  C9  UNL     1     -19.645 -42.523  24.023  1.00  0.00     0.039 C 
HETATM   13  C10 UNL     1     -19.200 -42.735  25.432  1.00  0.00     0.012 C 
HETATM   14  C11 UNL     1     -20.335 -42.825  26.407  1.00  0.00    -0.040 C 
HETATM   15  C12 UNL     1     -21.100 -44.121  26.267  1.00  0.00     0.009 C 
HETATM   16  C13 UNL     1     -21.814 -44.183  27.621  1.00  0.00     0.001 C 
HETATM   17  C14 UNL     1     -20.661 -43.882  28.562  1.00  0.00     0.001 C 
HETATM   18  C15 UNL     1     -19.807 -42.899  27.812  1.00  0.00     0.009 C 
HETATM   19  C16 UNL     1     -21.275 -41.683  26.175  1.00  0.00     0.012 C 
HETATM   20  C17 UNL     1     -20.707 -40.680  25.199  1.00  0.00     0.039 C 
ENDROOT
TORSDOF 0
ENDMDL
MODEL 5
REMARK VINA RESULT: -6.879426446      1.658      2.879
REMARK  0 active torsions:
REMARK  status: ('A' for Active; 'I' for Inactive)
ROOT
HETATM    1  C1  UNL     1     -21.589 -41.884  20.591  1.00  0.00     0.314 C 
HETATM    2  N1  UNL     1     -21.080 -40.632  20.993  1.00  0.00     0.118 N 
HETATM    3  C2  UNL     1     -21.556 -40.131  22.250  1.00  0.00     0.361 C 
HETATM    4  C3  UNL     1     -20.775 -38.810  22.333  1.00  0.00     0.066 C 
HETATM    5  C4  UNL     1     -19.442 -39.274  21.733  1.00  0.00     0.041 C 
HETATM    6  C5  UNL     1     -19.626 -40.642  21.251  1.00  0.00     0.237 C 
HETATM    7  C6  UNL     1     -19.380 -41.766  22.143  1.00  0.00     0.109 C 
HETATM    8  C7  UNL     1     -20.154 -41.588  23.416  1.00  0.00     0.272 C 
HETATM    9  O1  UNL     1     -21.269 -40.853  23.349  1.00  0.00    -0.326 OA
HETATM   10  O2  UNL     1     -18.990 -40.977  23.942  1.00  0.00    -0.349 OA
HETATM   11  C8  UNL     1     -18.275 -41.815  23.107  1.00  0.00     0.074 C 
HETATM   12  C9  UNL     1     -18.193 -43.197  23.760  1.00  0.00     0.039 C 
HETATM   13  C10 UNL     1     -16.811 -43.760  23.738  1.00  0.00     0.012 C 
HETATM   14  C11 UNL     1     -15.795 -42.867  24.383  1.00  0.00    -0.040 C 
HETATM   15  C12 UNL     1     -15.947 -42.832  25.887  1.00  0.00     0.009 C 
HETATM   16  C13 UNL     1     -14.568 -42.311  26.304  1.00  0.00     0.001 C 
HETATM   17  C14 UNL     1     -13.664 -43.214  25.483  1.00  0.00     0.001 C 
HETATM   18  C15 UNL     1     -14.416 -43.435  24.200  1.00  0.00     0.009 C 
HETATM   19  C16 UNL     1     -15.951 -41.478  23.850  1.00  0.00     0.012 C 
HETATM   20  C17 UNL     1     -16.916 -41.428  22.689  1.00  0.00     0.039 C 
ENDROOT
TORSDOF 0
ENDMDL
