MODEL 1
REMARK VINA RESULT: -9.312941123      0.000      0.000
REMARK  9 active torsions:
REMARK  status: ('A' for Active; 'I' for Inactive)
REMARK    1  A    between atoms: C4_4  and  C5_5 
REMARK    2  A    between atoms: C5_5  and  C6_6 
REMARK    3  A    between atoms: C6_6  and  C7_7 
REMARK    4  A    between atoms: C7_7  and  C9_9 
REMARK    5  A    between atoms: C9_9  and  C11_11 
REMARK    6  A    between atoms: C12_12  and  C13_13 
REMARK    7  A    between atoms: C14_14  and  C15_15 
REMARK    8  A    between atoms: C16_16  and  C17_17 
REMARK    9  A    between atoms: N5_32  and  O1_34 
ROOT
HETATM    1  C17 UNL     1     -22.726  26.365 -13.806  1.00  0.00     0.056 C 
HETATM    2  C18 UNL     1     -23.243  25.157 -13.746  1.00  0.00     0.151 A 
HETATM    3  N1  UNL     1     -22.976  24.144 -14.682  1.00  0.00    -0.321 N 
ATOM      4  H1  UNL     1     -22.352  24.309 -15.472  1.00  0.00     0.169 HD
HETATM    5  C19 UNL     1     -23.611  22.866 -14.491  1.00  0.00     0.140 A 
HETATM    6  N2  UNL     1     -23.529  21.748 -15.228  1.00  0.00    -0.283 N 
ATOM      7  H2  UNL     1     -22.974  21.631 -16.076  1.00  0.00     0.188 HD
HETATM    8  N3  UNL     1     -24.294  20.813 -14.663  1.00  0.00    -0.283 N 
ATOM      9  H3  UNL     1     -24.415  19.864 -15.016  1.00  0.00     0.188 HD
HETATM   10  C20 UNL     1     -24.882  21.307 -13.559  1.00  0.00     0.132 A 
HETATM   11  N4  UNL     1     -25.686  20.677 -12.770  1.00  0.00    -0.384 N 
ATOM     12  H41 UNL     1     -26.133  21.052 -11.933  1.00  0.00     0.157 HD
ATOM     13  H42 UNL     1     -26.000  19.711 -12.863  1.00  0.00     0.157 HD
HETATM   14  C21 UNL     1     -24.459  22.614 -13.434  1.00  0.00     0.107 A 
HETATM   15  C22 UNL     1     -24.729  23.671 -12.467  1.00  0.00     0.187 A 
HETATM   16  N5  UNL     1     -25.521  23.449 -11.472  1.00  0.00    -0.246 N 
ATOM     17  H5  UNL     1     -25.949  22.528 -11.379  1.00  0.00     0.196 HD
HETATM   18  O2  UNL     1     -24.114  24.893 -12.661  1.00  0.00    -0.274 OA
ENDROOT
BRANCH   1  19
HETATM   19  C16 UNL     1     -21.833  26.762 -14.850  1.00  0.00     0.004 C 
HETATM   20  C15 UNL     1     -20.769  27.523 -14.602  1.00  0.00     0.000 C 
BRANCH  20  21
HETATM   21  C14 UNL     1     -20.420  28.013 -13.294  1.00  0.00     0.000 C 
HETATM   22  C13 UNL     1     -19.186  28.331 -12.989  1.00  0.00    -0.000 C 
BRANCH  22  23
HETATM   23  C12 UNL     1     -18.062  28.240 -13.866  1.00  0.00    -0.004 C 
HETATM   24  C11 UNL     1     -17.699  29.166 -14.745  1.00  0.00    -0.022 C 
BRANCH  24  25
HETATM   25  C9  UNL     1     -18.389  30.438 -14.960  1.00  0.00     0.008 C 
HETATM   26  C10 UNL     1     -19.004  30.436 -16.346  1.00  0.00     0.014 C 
BRANCH  25  27
HETATM   27  C7  UNL     1     -17.407  31.586 -14.801  1.00  0.00    -0.011 C 
HETATM   28  C8  UNL     1     -16.695  31.506 -13.461  1.00  0.00     0.010 C 
BRANCH  27  29
HETATM   29  C6  UNL     1     -18.071  32.918 -14.882  1.00  0.00     0.009 C 
BRANCH  29  30
HETATM   30  C5  UNL     1     -17.419  33.729 -15.972  1.00  0.00     0.028 C 
BRANCH  30  31
HETATM   31  C4  UNL     1     -16.822  34.991 -15.487  1.00  0.00    -0.025 C 
HETATM   32  C2  UNL     1     -17.264  36.179 -15.898  1.00  0.00    -0.091 C 
HETATM   33  C1  UNL     1     -18.389  36.199 -16.872  1.00  0.00     0.042 C 
HETATM   34  C3  UNL     1     -16.692  37.456 -15.433  1.00  0.00     0.042 C 
ENDBRANCH  30  31
ENDBRANCH  29  30
ENDBRANCH  27  29
ENDBRANCH  25  27
ENDBRANCH  24  25
ENDBRANCH  22  23
ENDBRANCH  20  21
ENDBRANCH   1  19
BRANCH  16  35
HETATM   35  O1  UNL     1     -25.809  24.410 -10.533  1.00  0.00    -0.288 OA
ATOM     36  H1  UNL     1     -26.129  24.194  -9.666  1.00  0.00     0.244 HD
ENDBRANCH  16  35
TORSDOF 9
ENDMDL
MODEL 2
REMARK VINA RESULT: -9.256385600      1.299      2.396
REMARK  9 active torsions:
REMARK  status: ('A' for Active; 'I' for Inactive)
REMARK    1  A    between atoms: C4_4  and  C5_5 
REMARK    2  A    between atoms: C5_5  and  C6_6 
REMARK    3  A    between atoms: C6_6  and  C7_7 
REMARK    4  A    between atoms: C7_7  and  C9_9 
REMARK    5  A    between atoms: C9_9  and  C11_11 
REMARK    6  A    between atoms: C12_12  and  C13_13 
REMARK    7  A    between atoms: C14_14  and  C15_15 
REMARK    8  A    between atoms: C16_16  and  C17_17 
REMARK    9  A    between atoms: N5_32  and  O1_34 
ROOT
HETATM    1  C17 UNL     1     -23.598  25.861 -13.329  1.00  0.00     0.056 C 
HETATM    2  C18 UNL     1     -23.960  24.599 -13.412  1.00  0.00     0.151 A 
HETATM    3  N1  UNL     1     -23.548  23.733 -14.439  1.00  0.00    -0.321 N 
ATOM      4  H1  UNL     1     -22.933  24.057 -15.186  1.00  0.00     0.169 HD
HETATM    5  C19 UNL     1     -24.022  22.374 -14.405  1.00  0.00     0.140 A 
HETATM    6  N2  UNL     1     -23.784  21.359 -15.250  1.00  0.00    -0.283 N 
ATOM      7  H2  UNL     1     -23.202  21.404 -16.086  1.00  0.00     0.188 HD
HETATM    8  N3  UNL     1     -24.438  20.283 -14.812  1.00  0.00    -0.283 N 
ATOM      9  H3  UNL     1     -24.432  19.370 -15.266  1.00  0.00     0.188 HD
HETATM   10  C20 UNL     1     -25.106  20.579 -13.684  1.00  0.00     0.132 A 
HETATM   11  N4  UNL     1     -25.841  19.774 -12.993  1.00  0.00    -0.384 N 
ATOM     12  H41 UNL     1     -26.349  19.999 -12.137  1.00  0.00     0.157 HD
ATOM     13  H42 UNL     1     -26.029  18.792 -13.196  1.00  0.00     0.157 HD
HETATM   14  C21 UNL     1     -24.853  21.907 -13.409  1.00  0.00     0.107 A 
HETATM   15  C22 UNL     1     -25.274  22.812 -12.347  1.00  0.00     0.187 A 
HETATM   16  N5  UNL     1     -26.053  22.389 -11.408  1.00  0.00    -0.246 N 
ATOM     17  H5  UNL     1     -26.363  21.418 -11.426  1.00  0.00     0.196 HD
HETATM   18  O2  UNL     1     -24.814  24.115 -12.391  1.00  0.00    -0.274 OA
ENDROOT
BRANCH   1  19
HETATM   19  C16 UNL     1     -22.740  26.474 -14.294  1.00  0.00     0.004 C 
HETATM   20  C15 UNL     1     -21.415  26.387 -14.200  1.00  0.00     0.000 C 
BRANCH  20  21
HETATM   21  C14 UNL     1     -20.729  25.688 -13.145  1.00  0.00     0.000 C 
HETATM   22  C13 UNL     1     -20.098  26.332 -12.195  1.00  0.00    -0.000 C 
BRANCH  22  23
HETATM   23  C12 UNL     1     -20.002  27.752 -12.073  1.00  0.00    -0.004 C 
HETATM   24  C11 UNL     1     -19.142  28.521 -12.727  1.00  0.00    -0.022 C 
BRANCH  24  25
HETATM   25  C9  UNL     1     -18.146  28.041 -13.686  1.00  0.00     0.008 C 
HETATM   26  C10 UNL     1     -16.800  28.652 -13.346  1.00  0.00     0.014 C 
BRANCH  25  27
HETATM   27  C7  UNL     1     -18.572  28.414 -15.096  1.00  0.00    -0.011 C 
HETATM   28  C8  UNL     1     -18.493  27.211 -16.020  1.00  0.00     0.010 C 
BRANCH  27  29
HETATM   29  C6  UNL     1     -17.724  29.491 -15.681  1.00  0.00     0.009 C 
BRANCH  29  30
HETATM   30  C5  UNL     1     -18.456  30.805 -15.582  1.00  0.00     0.028 C 
BRANCH  30  31
HETATM   31  C4  UNL     1     -17.713  31.834 -14.825  1.00  0.00    -0.025 C 
HETATM   32  C2  UNL     1     -17.675  33.106 -15.223  1.00  0.00    -0.091 C 
HETATM   33  C1  UNL     1     -18.410  33.464 -16.465  1.00  0.00     0.042 C 
HETATM   34  C3  UNL     1     -16.944  34.156 -14.491  1.00  0.00     0.042 C 
ENDBRANCH  30  31
ENDBRANCH  29  30
ENDBRANCH  27  29
ENDBRANCH  25  27
ENDBRANCH  24  25
ENDBRANCH  22  23
ENDBRANCH  20  21
ENDBRANCH   1  19
BRANCH  16  35
HETATM   35  O1  UNL     1     -26.479  23.202 -10.385  1.00  0.00    -0.288 OA
ATOM     36  H1  UNL     1     -27.399  23.352 -10.206  1.00  0.00     0.244 HD
ENDBRANCH  16  35
TORSDOF 9
ENDMDL
MODEL 3
REMARK VINA RESULT: -9.117770845      6.861     11.421
REMARK  9 active torsions:
REMARK  status: ('A' for Active; 'I' for Inactive)
REMARK    1  A    between atoms: C4_4  and  C5_5 
REMARK    2  A    between atoms: C5_5  and  C6_6 
REMARK    3  A    between atoms: C6_6  and  C7_7 
REMARK    4  A    between atoms: C7_7  and  C9_9 
REMARK    5  A    between atoms: C9_9  and  C11_11 
REMARK    6  A    between atoms: C12_12  and  C13_13 
REMARK    7  A    between atoms: C14_14  and  C15_15 
REMARK    8  A    between atoms: C16_16  and  C17_17 
REMARK    9  A    between atoms: N5_32  and  O1_34 
ROOT
HETATM    1  C17 UNL     1     -17.780  31.792 -14.909  1.00  0.00     0.056 C 
HETATM    2  C18 UNL     1     -17.764  33.038 -15.330  1.00  0.00     0.151 A 
HETATM    3  N1  UNL     1     -16.969  34.046 -14.760  1.00  0.00    -0.321 N 
ATOM      4  H1  UNL     1     -16.352  33.847 -13.972  1.00  0.00     0.169 HD
HETATM    5  C19 UNL     1     -17.052  35.369 -15.323  1.00  0.00     0.140 A 
HETATM    6  N2  UNL     1     -16.410  36.494 -14.971  1.00  0.00    -0.283 N 
ATOM      7  H2  UNL     1     -15.733  36.583 -14.214  1.00  0.00     0.188 HD
HETATM    8  N3  UNL     1     -16.808  37.476 -15.780  1.00  0.00    -0.283 N 
ATOM      9  H3  UNL     1     -16.478  38.440 -15.736  1.00  0.00     0.188 HD
HETATM   10  C20 UNL     1     -17.708  37.008 -16.663  1.00  0.00     0.132 A 
HETATM   11  N4  UNL     1     -18.298  37.686 -17.590  1.00  0.00    -0.384 N 
ATOM     12  H41 UNL     1     -18.981  37.331 -18.259  1.00  0.00     0.157 HD
ATOM     13  H42 UNL     1     -18.174  38.677 -17.794  1.00  0.00     0.157 HD
HETATM   14  C21 UNL     1     -17.876  35.668 -16.387  1.00  0.00     0.107 A 
HETATM   15  C22 UNL     1     -18.697  34.615 -16.972  1.00  0.00     0.187 A 
HETATM   16  N5  UNL     1     -19.474  34.880 -17.969  1.00  0.00    -0.246 N 
ATOM     17  H5  UNL     1     -19.500  35.832 -18.333  1.00  0.00     0.196 HD
HETATM   18  O2  UNL     1     -18.610  33.349 -16.423  1.00  0.00    -0.274 OA
ENDROOT
BRANCH   1  19
HETATM   19  C16 UNL     1     -16.976  31.345 -13.815  1.00  0.00     0.004 C 
HETATM   20  C15 UNL     1     -16.730  30.052 -13.615  1.00  0.00     0.000 C 
BRANCH  20  21
HETATM   21  C14 UNL     1     -17.236  28.999 -14.457  1.00  0.00     0.000 C 
HETATM   22  C13 UNL     1     -18.186  28.195 -14.050  1.00  0.00    -0.000 C 
BRANCH  22  23
HETATM   23  C12 UNL     1     -18.826  28.241 -12.773  1.00  0.00    -0.004 C 
HETATM   24  C11 UNL     1     -19.897  27.539 -12.427  1.00  0.00    -0.022 C 
BRANCH  24  25
HETATM   25  C9  UNL     1     -20.603  26.598 -13.296  1.00  0.00     0.008 C 
HETATM   26  C10 UNL     1     -21.625  27.359 -14.119  1.00  0.00     0.014 C 
BRANCH  25  27
HETATM   27  C7  UNL     1     -21.271  25.526 -12.453  1.00  0.00    -0.011 C 
HETATM   28  C8  UNL     1     -20.314  24.993 -11.400  1.00  0.00     0.010 C 
BRANCH  27  29
HETATM   29  C6  UNL     1     -21.737  24.368 -13.268  1.00  0.00     0.009 C 
BRANCH  29  30
HETATM   30  C5  UNL     1     -20.542  23.551 -13.692  1.00  0.00     0.028 C 
BRANCH  30  31
HETATM   31  C4  UNL     1     -20.476  23.322 -15.150  1.00  0.00    -0.025 C 
HETATM   32  C2  UNL     1     -19.508  23.851 -15.899  1.00  0.00    -0.091 C 
HETATM   33  C1  UNL     1     -18.484  24.687 -15.216  1.00  0.00     0.042 C 
HETATM   34  C3  UNL     1     -19.413  23.642 -17.355  1.00  0.00     0.042 C 
ENDBRANCH  30  31
ENDBRANCH  29  30
ENDBRANCH  27  29
ENDBRANCH  25  27
ENDBRANCH  24  25
ENDBRANCH  22  23
ENDBRANCH  20  21
ENDBRANCH   1  19
BRANCH  16  35
HETATM   35  O1  UNL     1     -20.267  33.925 -18.556  1.00  0.00    -0.288 OA
ATOM     36  H1  UNL     1     -21.008  34.148 -19.108  1.00  0.00     0.244 HD
ENDBRANCH  16  35
TORSDOF 9
ENDMDL
MODEL 4
REMARK VINA RESULT: -9.109748081      6.769     11.702
REMARK  9 active torsions:
REMARK  status: ('A' for Active; 'I' for Inactive)
REMARK    1  A    between atoms: C4_4  and  C5_5 
REMARK    2  A    between atoms: C5_5  and  C6_6 
REMARK    3  A    between atoms: C6_6  and  C7_7 
REMARK    4  A    between atoms: C7_7  and  C9_9 
REMARK    5  A    between atoms: C9_9  and  C11_11 
REMARK    6  A    between atoms: C12_12  and  C13_13 
REMARK    7  A    between atoms: C14_14  and  C15_15 
REMARK    8  A    between atoms: C16_16  and  C17_17 
REMARK    9  A    between atoms: N5_32  and  O1_34 
ROOT
HETATM    1  C17 UNL     1     -17.763  31.733 -14.893  1.00  0.00     0.056 C 
HETATM    2  C18 UNL     1     -17.746  32.976 -15.323  1.00  0.00     0.151 A 
HETATM    3  N1  UNL     1     -16.979  33.997 -14.737  1.00  0.00    -0.321 N 
ATOM      4  H1  UNL     1     -16.385  33.810 -13.929  1.00  0.00     0.169 HD
HETATM    5  C19 UNL     1     -17.058  35.314 -15.313  1.00  0.00     0.140 A 
HETATM    6  N2  UNL     1     -16.439  36.448 -14.951  1.00  0.00    -0.283 N 
ATOM      7  H2  UNL     1     -15.786  36.550 -14.174  1.00  0.00     0.188 HD
HETATM    8  N3  UNL     1     -16.821  37.420 -15.780  1.00  0.00    -0.283 N 
ATOM      9  H3  UNL     1     -16.502  38.388 -15.734  1.00  0.00     0.188 HD
HETATM   10  C20 UNL     1     -17.689  36.936 -16.686  1.00  0.00     0.132 A 
HETATM   11  N4  UNL     1     -18.257  37.600 -17.636  1.00  0.00    -0.384 N 
ATOM     12  H41 UNL     1     -18.916  37.233 -18.324  1.00  0.00     0.157 HD
ATOM     13  H42 UNL     1     -18.137  38.591 -17.845  1.00  0.00     0.157 HD
HETATM   14  C21 UNL     1     -17.852  35.596 -16.404  1.00  0.00     0.107 A 
HETATM   15  C22 UNL     1     -18.644  34.530 -17.006  1.00  0.00     0.187 A 
HETATM   16  N5  UNL     1     -19.392  34.780 -18.028  1.00  0.00    -0.246 N 
ATOM     17  H5  UNL     1     -19.416  35.729 -18.401  1.00  0.00     0.196 HD
HETATM   18  O2  UNL     1     -18.561  33.270 -16.444  1.00  0.00    -0.274 OA
ENDROOT
BRANCH   1  19
HETATM   19  C16 UNL     1     -16.988  31.304 -13.771  1.00  0.00     0.004 C 
HETATM   20  C15 UNL     1     -16.728  30.015 -13.558  1.00  0.00     0.000 C 
BRANCH  20  21
HETATM   21  C14 UNL     1     -17.188  28.951 -14.412  1.00  0.00     0.000 C 
HETATM   22  C13 UNL     1     -18.121  28.118 -14.024  1.00  0.00    -0.000 C 
BRANCH  22  23
HETATM   23  C12 UNL     1     -18.784  28.140 -12.758  1.00  0.00    -0.004 C 
HETATM   24  C11 UNL     1     -19.873  27.449 -12.451  1.00  0.00    -0.022 C 
BRANCH  24  25
HETATM   25  C9  UNL     1     -20.579  26.545 -13.360  1.00  0.00     0.008 C 
HETATM   26  C10 UNL     1     -21.562  27.349 -14.189  1.00  0.00     0.014 C 
BRANCH  25  27
HETATM   27  C7  UNL     1     -21.294  25.470 -12.558  1.00  0.00    -0.011 C 
HETATM   28  C8  UNL     1     -20.335  24.783 -11.602  1.00  0.00     0.010 C 
BRANCH  27  29
HETATM   29  C6  UNL     1     -21.898  24.420 -13.426  1.00  0.00     0.009 C 
BRANCH  29  30
HETATM   30  C5  UNL     1     -23.366  24.298 -13.105  1.00  0.00     0.028 C 
BRANCH  30  31
HETATM   31  C4  UNL     1     -23.823  25.261 -12.082  1.00  0.00    -0.025 C 
HETATM   32  C2  UNL     1     -24.837  24.984 -11.262  1.00  0.00    -0.091 C 
HETATM   33  C1  UNL     1     -25.502  23.662 -11.408  1.00  0.00     0.042 C 
HETATM   34  C3  UNL     1     -25.317  25.923 -10.231  1.00  0.00     0.042 C 
ENDBRANCH  30  31
ENDBRANCH  29  30
ENDBRANCH  27  29
ENDBRANCH  25  27
ENDBRANCH  24  25
ENDBRANCH  22  23
ENDBRANCH  20  21
ENDBRANCH   1  19
BRANCH  16  35
HETATM   35  O1  UNL     1     -20.158  33.811 -18.632  1.00  0.00    -0.288 OA
ATOM     36  H1  UNL     1     -20.480  33.900 -19.520  1.00  0.00     0.244 HD
ENDBRANCH  16  35
TORSDOF 9
ENDMDL
MODEL 5
REMARK VINA RESULT: -9.044063383      1.616      2.829
REMARK  9 active torsions:
REMARK  status: ('A' for Active; 'I' for Inactive)
REMARK    1  A    between atoms: C4_4  and  C5_5 
REMARK    2  A    between atoms: C5_5  and  C6_6 
REMARK    3  A    between atoms: C6_6  and  C7_7 
REMARK    4  A    between atoms: C7_7  and  C9_9 
REMARK    5  A    between atoms: C9_9  and  C11_11 
REMARK    6  A    between atoms: C12_12  and  C13_13 
REMARK    7  A    between atoms: C14_14  and  C15_15 
REMARK    8  A    between atoms: C16_16  and  C17_17 
REMARK    9  A    between atoms: N5_32  and  O1_34 
ROOT
HETATM    1  C17 UNL     1     -22.435  25.412 -16.083  1.00  0.00     0.056 C 
HETATM    2  C18 UNL     1     -23.074  25.001 -15.009  1.00  0.00     0.151 A 
HETATM    3  N1  UNL     1     -23.400  25.834 -13.926  1.00  0.00    -0.321 N 
ATOM      4  H1  UNL     1     -23.146  26.822 -13.927  1.00  0.00     0.169 HD
HETATM    5  C19 UNL     1     -24.102  25.248 -12.814  1.00  0.00     0.140 A 
HETATM    6  N2  UNL     1     -24.525  25.812 -11.672  1.00  0.00    -0.283 N 
ATOM      7  H2  UNL     1     -24.405  26.790 -11.409  1.00  0.00     0.188 HD
HETATM    8  N3  UNL     1     -25.130  24.876 -10.938  1.00  0.00    -0.283 N 
ATOM      9  H3  UNL     1     -25.546  25.031 -10.021  1.00  0.00     0.188 HD
HETATM   10  C20 UNL     1     -25.108  23.699 -11.587  1.00  0.00     0.132 A 
HETATM   11  N4  UNL     1     -25.603  22.583 -11.170  1.00  0.00    -0.384 N 
ATOM     12  H41 UNL     1     -25.587  21.689 -11.662  1.00  0.00     0.157 HD
ATOM     13  H42 UNL     1     -26.084  22.422 -10.285  1.00  0.00     0.157 HD
HETATM   14  C21 UNL     1     -24.458  23.916 -12.784  1.00  0.00     0.107 A 
HETATM   15  C22 UNL     1     -24.117  23.060 -13.914  1.00  0.00     0.187 A 
HETATM   16  N5  UNL     1     -24.443  21.811 -13.900  1.00  0.00    -0.246 N 
ATOM     17  H5  UNL     1     -24.940  21.441 -13.090  1.00  0.00     0.196 HD
HETATM   18  O2  UNL     1     -23.441  23.634 -14.975  1.00  0.00    -0.274 OA
ENDROOT
BRANCH   1  19
HETATM   19  C16 UNL     1     -22.007  26.767 -16.244  1.00  0.00     0.004 C 
HETATM   20  C15 UNL     1     -20.742  27.126 -16.032  1.00  0.00     0.000 C 
BRANCH  20  21
HETATM   21  C14 UNL     1     -19.705  26.213 -15.628  1.00  0.00     0.000 C 
HETATM   22  C13 UNL     1     -19.160  26.279 -14.439  1.00  0.00    -0.000 C 
BRANCH  22  23
HETATM   23  C12 UNL     1     -19.498  27.221 -13.420  1.00  0.00    -0.004 C 
HETATM   24  C11 UNL     1     -18.901  28.391 -13.229  1.00  0.00    -0.022 C 
BRANCH  24  25
HETATM   25  C9  UNL     1     -17.797  28.913 -14.035  1.00  0.00     0.008 C 
HETATM   26  C10 UNL     1     -16.630  29.235 -13.122  1.00  0.00     0.014 C 
BRANCH  25  27
HETATM   27  C7  UNL     1     -18.255  30.148 -14.791  1.00  0.00    -0.011 C 
HETATM   28  C8  UNL     1     -18.259  29.894 -16.289  1.00  0.00     0.010 C 
BRANCH  27  29
HETATM   29  C6  UNL     1     -17.382  31.329 -14.534  1.00  0.00     0.009 C 
BRANCH  29  30
HETATM   30  C5  UNL     1     -18.116  32.583 -14.936  1.00  0.00     0.028 C 
BRANCH  30  31
HETATM   31  C4  UNL     1     -17.270  33.793 -14.902  1.00  0.00    -0.025 C 
HETATM   32  C2  UNL     1     -17.435  34.789 -15.773  1.00  0.00    -0.091 C 
HETATM   33  C1  UNL     1     -18.509  34.644 -16.792  1.00  0.00     0.042 C 
HETATM   34  C3  UNL     1     -16.609  36.010 -15.766  1.00  0.00     0.042 C 
ENDBRANCH  30  31
ENDBRANCH  29  30
ENDBRANCH  27  29
ENDBRANCH  25  27
ENDBRANCH  24  25
ENDBRANCH  22  23
ENDBRANCH  20  21
ENDBRANCH   1  19
BRANCH  16  35
HETATM   35  O1  UNL     1     -24.145  20.963 -14.938  1.00  0.00    -0.288 OA
ATOM     36  H1  UNL     1     -23.251  20.739 -15.171  1.00  0.00     0.244 HD
ENDBRANCH  16  35
TORSDOF 9
ENDMDL
