MODEL 1
REMARK VINA RESULT: -5.116352275      0.000      0.000
REMARK  8 active torsions:
REMARK  status: ('A' for Active; 'I' for Inactive)
REMARK    1  A    between atoms: C2_2  and  N1_3 
REMARK    2  A    between atoms: C5_6  and  N2_7 
REMARK       I    between atoms: N2_7  and  C6_9 
REMARK    3  A    between atoms: C6_9  and  C7_11 
REMARK    4  A    between atoms: C7_11  and  S1_12 
REMARK    5  A    between atoms: S1_12  and  C8_13 
REMARK    6  A    between atoms: C13_18  and  C14_19 
REMARK    7  A    between atoms: C14_19  and  O2_20 
REMARK    8  A    between atoms: N3_22  and  O3_24 
ROOT
HETATM    1  C7  UNL     1      -4.953   9.153  11.772  1.00  0.00     0.177 C 
ENDROOT
BRANCH   1   2
HETATM    2  C6  UNL     1      -5.372   9.949  12.975  1.00  0.00     0.227 C 
HETATM    3  N2  UNL     1      -6.483   9.568  13.768  1.00  0.00    -0.355 N 
ATOM      4  H2  UNL     1      -7.022   8.735  13.532  1.00  0.00     0.162 HD
HETATM    5  O1  UNL     1      -4.696  10.968  13.248  1.00  0.00    -0.273 OA
BRANCH   3   6
HETATM    6  C5  UNL     1      -6.845  10.371  14.916  1.00  0.00     0.091 C 
HETATM    7  C4  UNL     1      -7.199   9.414  16.027  1.00  0.00     0.056 C 
HETATM    8  C3  UNL     1      -7.667  10.105  17.273  1.00  0.00     0.274 C 
HETATM    9  N1  UNL     1      -7.982  11.472  16.903  1.00  0.00     0.088 N 
HETATM   10  C17 UNL     1      -8.837  11.528  15.736  1.00  0.00     0.278 C 
HETATM   11  C15 UNL     1      -7.966  11.292  14.524  1.00  0.00     0.032 C 
HETATM   12  C16 UNL     1      -7.319  12.640  14.179  1.00  0.00     0.014 C 
BRANCH   9  13
HETATM   13  C2  UNL     1      -8.519  12.227  18.011  1.00  0.00     0.268 C 
HETATM   14  C1  UNL     1      -8.041  13.655  17.876  1.00  0.00     0.037 C 
ENDBRANCH   9  13
ENDBRANCH   3   6
ENDBRANCH   1   2
BRANCH   1  15
HETATM   15  S1  UNL     1      -3.478   8.207  12.226  1.00  0.00    -0.154 SA
BRANCH  15  16
HETATM   16  C8  UNL     1      -3.410   7.959  14.043  1.00  0.00     0.059 C 
HETATM   17  C9  UNL     1      -2.315   8.778  14.592  1.00  0.00     0.016 C 
HETATM   18  C10 UNL     1      -1.105   8.020  15.059  1.00  0.00     0.001 C 
HETATM   19  C11 UNL     1      -1.629   6.984  16.065  1.00  0.00     0.001 C 
HETATM   20  C12 UNL     1      -2.390   5.979  15.250  1.00  0.00     0.014 C 
HETATM   21  C13 UNL     1      -3.464   6.523  14.401  1.00  0.00     0.076 C 
BRANCH  21  22
HETATM   22  C14 UNL     1      -4.789   6.141  15.004  1.00  0.00     0.140 C 
HETATM   23  N3  UNL     1      -4.876   5.162  15.812  1.00  0.00    -0.251 N 
ATOM     24  H3  UNL     1      -4.036   4.634  16.048  1.00  0.00     0.196 HD
BRANCH  22  25
HETATM   25  O2  UNL     1      -5.869   6.936  14.606  1.00  0.00    -0.348 OA
ATOM     26  H2  UNL     1      -6.721   6.624  14.889  1.00  0.00     0.219 HD
ENDBRANCH  22  25
BRANCH  23  27
HETATM   27  O3  UNL     1      -6.061   4.805  16.364  1.00  0.00    -0.288 OA
ATOM     28  H3  UNL     1      -6.101   4.284  17.157  1.00  0.00     0.244 HD
ENDBRANCH  23  27
ENDBRANCH  21  22
ENDBRANCH  15  16
ENDBRANCH   1  15
TORSDOF 8
ENDMDL
MODEL 2
REMARK VINA RESULT: -4.553872786     10.400     12.795
REMARK  8 active torsions:
REMARK  status: ('A' for Active; 'I' for Inactive)
REMARK    1  A    between atoms: C2_2  and  N1_3 
REMARK    2  A    between atoms: C5_6  and  N2_7 
REMARK       I    between atoms: N2_7  and  C6_9 
REMARK    3  A    between atoms: C6_9  and  C7_11 
REMARK    4  A    between atoms: C7_11  and  S1_12 
REMARK    5  A    between atoms: S1_12  and  C8_13 
REMARK    6  A    between atoms: C13_18  and  C14_19 
REMARK    7  A    between atoms: C14_19  and  O2_20 
REMARK    8  A    between atoms: N3_22  and  O3_24 
ROOT
HETATM    1  C7  UNL     1     -11.218   9.455   4.585  1.00  0.00     0.177 C 
ENDROOT
BRANCH   1   2
HETATM    2  C6  UNL     1     -11.177   8.080   5.186  1.00  0.00     0.227 C 
HETATM    3  N2  UNL     1     -12.362   7.382   5.527  1.00  0.00    -0.355 N 
ATOM      4  H2  UNL     1     -13.274   7.807   5.366  1.00  0.00     0.162 HD
HETATM    5  O1  UNL     1     -10.046   7.574   5.375  1.00  0.00    -0.273 OA
BRANCH   3   6
HETATM    6  C5  UNL     1     -12.266   6.058   6.105  1.00  0.00     0.091 C 
HETATM    7  C4  UNL     1     -13.039   5.128   5.204  1.00  0.00     0.056 C 
HETATM    8  C3  UNL     1     -13.089   3.719   5.716  1.00  0.00     0.274 C 
HETATM    9  N1  UNL     1     -12.685   3.763   7.108  1.00  0.00     0.088 N 
HETATM   10  C17 UNL     1     -13.409   4.776   7.845  1.00  0.00     0.278 C 
HETATM   11  C15 UNL     1     -12.781   6.111   7.516  1.00  0.00     0.032 C 
HETATM   12  C16 UNL     1     -11.552   6.256   8.422  1.00  0.00     0.014 C 
BRANCH   9  13
HETATM   13  C2  UNL     1     -12.764   2.466   7.740  1.00  0.00     0.268 C 
HETATM   14  C1  UNL     1     -13.532   2.624   9.032  1.00  0.00     0.037 C 
ENDBRANCH   9  13
ENDBRANCH   3   6
ENDBRANCH   1   2
BRANCH   1  15
HETATM   15  S1  UNL     1      -9.573  10.186   4.770  1.00  0.00    -0.154 SA
BRANCH  15  16
HETATM   16  C8  UNL     1      -9.686  11.815   5.607  1.00  0.00     0.059 C 
HETATM   17  C9  UNL     1     -10.542  11.677   6.799  1.00  0.00     0.016 C 
HETATM   18  C10 UNL     1     -11.897  12.318   6.706  1.00  0.00     0.001 C 
HETATM   19  C11 UNL     1     -11.636  13.785   6.334  1.00  0.00     0.001 C 
HETATM   20  C12 UNL     1     -11.152  13.762   4.912  1.00  0.00     0.014 C 
HETATM   21  C13 UNL     1      -9.984  12.904   4.648  1.00  0.00     0.076 C 
BRANCH  21  22
HETATM   22  C14 UNL     1      -8.789  13.786   4.406  1.00  0.00     0.140 C 
HETATM   23  N3  UNL     1      -8.933  15.034   4.210  1.00  0.00    -0.251 N 
ATOM     24  H3  UNL     1      -9.871  15.436   4.217  1.00  0.00     0.196 HD
BRANCH  22  25
HETATM   25  O2  UNL     1      -7.556  13.125   4.418  1.00  0.00    -0.348 OA
ATOM     26  H2  UNL     1      -7.366  12.645   5.215  1.00  0.00     0.219 HD
ENDBRANCH  22  25
BRANCH  23  27
HETATM   27  O3  UNL     1      -7.867  15.843   3.991  1.00  0.00    -0.288 OA
ATOM     28  H3  UNL     1      -7.164  15.587   3.406  1.00  0.00     0.244 HD
ENDBRANCH  23  27
ENDBRANCH  21  22
ENDBRANCH  15  16
ENDBRANCH   1  15
TORSDOF 8
ENDMDL
MODEL 3
REMARK VINA RESULT: -4.496086834      1.220      1.479
REMARK  8 active torsions:
REMARK  status: ('A' for Active; 'I' for Inactive)
REMARK    1  A    between atoms: C2_2  and  N1_3 
REMARK    2  A    between atoms: C5_6  and  N2_7 
REMARK       I    between atoms: N2_7  and  C6_9 
REMARK    3  A    between atoms: C6_9  and  C7_11 
REMARK    4  A    between atoms: C7_11  and  S1_12 
REMARK    5  A    between atoms: S1_12  and  C8_13 
REMARK    6  A    between atoms: C13_18  and  C14_19 
REMARK    7  A    between atoms: C14_19  and  O2_20 
REMARK    8  A    between atoms: N3_22  and  O3_24 
ROOT
HETATM    1  C7  UNL     1      -5.425   8.975  11.884  1.00  0.00     0.177 C 
ENDROOT
BRANCH   1   2
HETATM    2  C6  UNL     1      -5.656   9.905  13.040  1.00  0.00     0.227 C 
HETATM    3  N2  UNL     1      -6.726   9.710  13.949  1.00  0.00    -0.355 N 
ATOM      4  H2  UNL     1      -7.364   8.924  13.831  1.00  0.00     0.162 HD
HETATM    5  O1  UNL     1      -4.859  10.864  13.168  1.00  0.00    -0.273 OA
BRANCH   3   6
HETATM    6  C5  UNL     1      -6.904  10.637  15.046  1.00  0.00     0.091 C 
HETATM    7  C4  UNL     1      -7.177   9.811  16.278  1.00  0.00     0.056 C 
HETATM    8  C3  UNL     1      -7.454  10.643  17.495  1.00  0.00     0.274 C 
HETATM    9  N1  UNL     1      -7.734  11.988  17.031  1.00  0.00     0.088 N 
HETATM   10  C17 UNL     1      -8.716  11.995  15.968  1.00  0.00     0.278 C 
HETATM   11  C15 UNL     1      -8.009  11.593  14.694  1.00  0.00     0.032 C 
HETATM   12  C16 UNL     1      -7.332  12.856  14.148  1.00  0.00     0.014 C 
BRANCH   9  13
HETATM   13  C2  UNL     1      -8.092  12.876  18.112  1.00  0.00     0.268 C 
HETATM   14  C1  UNL     1      -8.006  14.295  17.598  1.00  0.00     0.037 C 
ENDBRANCH   9  13
ENDBRANCH   3   6
ENDBRANCH   1   2
BRANCH   1  15
HETATM   15  S1  UNL     1      -5.556   7.281  12.507  1.00  0.00    -0.154 SA
BRANCH  15  16
HETATM   16  C8  UNL     1      -5.024   7.200  14.262  1.00  0.00     0.059 C 
HETATM   17  C9  UNL     1      -3.760   7.944  14.408  1.00  0.00     0.016 C 
HETATM   18  C10 UNL     1      -2.534   7.107  14.636  1.00  0.00     0.001 C 
HETATM   19  C11 UNL     1      -2.850   6.234  15.859  1.00  0.00     0.001 C 
HETATM   20  C12 UNL     1      -3.879   5.244  15.394  1.00  0.00     0.014 C 
HETATM   21  C13 UNL     1      -5.094   5.819  14.791  1.00  0.00     0.076 C 
BRANCH  21  22
HETATM   22  C14 UNL     1      -6.235   5.642  15.756  1.00  0.00     0.140 C 
HETATM   23  N3  UNL     1      -7.141   6.529  15.860  1.00  0.00    -0.251 N 
ATOM     24  H3  UNL     1      -7.087   7.367  15.281  1.00  0.00     0.196 HD
BRANCH  22  25
HETATM   25  O2  UNL     1      -6.203   4.455  16.496  1.00  0.00    -0.348 OA
ATOM     26  H2  UNL     1      -6.698   3.736  16.122  1.00  0.00     0.219 HD
ENDBRANCH  22  25
BRANCH  23  27
HETATM   27  O3  UNL     1      -8.176   6.384  16.723  1.00  0.00    -0.288 OA
ATOM     28  H3  UNL     1      -8.631   7.137  17.081  1.00  0.00     0.244 HD
ENDBRANCH  23  27
ENDBRANCH  21  22
ENDBRANCH  15  16
ENDBRANCH   1  15
TORSDOF 8
ENDMDL
MODEL 4
REMARK VINA RESULT: -4.298658368      2.080      3.166
REMARK  8 active torsions:
REMARK  status: ('A' for Active; 'I' for Inactive)
REMARK    1  A    between atoms: C2_2  and  N1_3 
REMARK    2  A    between atoms: C5_6  and  N2_7 
REMARK       I    between atoms: N2_7  and  C6_9 
REMARK    3  A    between atoms: C6_9  and  C7_11 
REMARK    4  A    between atoms: C7_11  and  S1_12 
REMARK    5  A    between atoms: S1_12  and  C8_13 
REMARK    6  A    between atoms: C13_18  and  C14_19 
REMARK    7  A    between atoms: C14_19  and  O2_20 
REMARK    8  A    between atoms: N3_22  and  O3_24 
ROOT
HETATM    1  C7  UNL     1      -5.263  11.224  11.616  1.00  0.00     0.177 C 
ENDROOT
BRANCH   1   2
HETATM    2  C6  UNL     1      -6.266  11.410  12.718  1.00  0.00     0.227 C 
HETATM    3  N2  UNL     1      -6.136  10.745  13.962  1.00  0.00    -0.355 N 
ATOM      4  H2  UNL     1      -5.347  10.121  14.132  1.00  0.00     0.162 HD
HETATM    5  O1  UNL     1      -7.227  12.181  12.490  1.00  0.00    -0.273 OA
BRANCH   3   6
HETATM    6  C5  UNL     1      -7.131  10.958  14.991  1.00  0.00     0.091 C 
HETATM    7  C4  UNL     1      -7.044  12.409  15.392  1.00  0.00     0.056 C 
HETATM    8  C3  UNL     1      -7.977  12.769  16.510  1.00  0.00     0.274 C 
HETATM    9  N1  UNL     1      -8.416  11.523  17.108  1.00  0.00     0.088 N 
HETATM   10  C17 UNL     1      -7.302  10.650  17.410  1.00  0.00     0.278 C 
HETATM   11  C15 UNL     1      -6.873   9.997  16.117  1.00  0.00     0.032 C 
HETATM   12  C16 UNL     1      -7.812   8.805  15.893  1.00  0.00     0.014 C 
BRANCH   9  13
HETATM   13  C2  UNL     1      -9.269  11.738  18.254  1.00  0.00     0.268 C 
HETATM   14  C1  UNL     1      -9.824  10.398  18.680  1.00  0.00     0.037 C 
ENDBRANCH   9  13
ENDBRANCH   3   6
ENDBRANCH   1   2
BRANCH   1  15
HETATM   15  S1  UNL     1      -3.796  10.446  12.334  1.00  0.00    -0.154 SA
BRANCH  15  16
HETATM   16  C8  UNL     1      -4.028   8.629  12.456  1.00  0.00     0.059 C 
HETATM   17  C9  UNL     1      -5.249   8.258  11.720  1.00  0.00     0.016 C 
HETATM   18  C10 UNL     1      -6.421   7.848  12.566  1.00  0.00     0.001 C 
HETATM   19  C11 UNL     1      -5.905   6.714  13.465  1.00  0.00     0.001 C 
HETATM   20  C12 UNL     1      -4.969   7.366  14.441  1.00  0.00     0.014 C 
HETATM   21  C13 UNL     1      -3.871   8.150  13.848  1.00  0.00     0.076 C 
BRANCH  21  22
HETATM   22  C14 UNL     1      -2.585   7.393  14.043  1.00  0.00     0.140 C 
HETATM   23  N3  UNL     1      -2.373   6.739  15.114  1.00  0.00    -0.251 N 
ATOM     24  H3  UNL     1      -3.086   6.732  15.843  1.00  0.00     0.196 HD
BRANCH  22  25
HETATM   25  O2  UNL     1      -1.684   7.477  12.977  1.00  0.00    -0.348 OA
ATOM     26  H2  UNL     1      -1.891   8.139  12.328  1.00  0.00     0.219 HD
ENDBRANCH  22  25
BRANCH  23  27
HETATM   27  O3  UNL     1      -1.221   6.052  15.305  1.00  0.00    -0.288 OA
ATOM     28  H3  UNL     1      -0.894   5.866  16.177  1.00  0.00     0.244 HD
ENDBRANCH  23  27
ENDBRANCH  21  22
ENDBRANCH  15  16
ENDBRANCH   1  15
TORSDOF 8
ENDMDL
MODEL 5
REMARK VINA RESULT: -4.009470786      2.999      4.538
REMARK  8 active torsions:
REMARK  status: ('A' for Active; 'I' for Inactive)
REMARK    1  A    between atoms: C2_2  and  N1_3 
REMARK    2  A    between atoms: C5_6  and  N2_7 
REMARK       I    between atoms: N2_7  and  C6_9 
REMARK    3  A    between atoms: C6_9  and  C7_11 
REMARK    4  A    between atoms: C7_11  and  S1_12 
REMARK    5  A    between atoms: S1_12  and  C8_13 
REMARK    6  A    between atoms: C13_18  and  C14_19 
REMARK    7  A    between atoms: C14_19  and  O2_20 
REMARK    8  A    between atoms: N3_22  and  O3_24 
ROOT
HETATM    1  C7  UNL     1      -2.379   6.793  14.038  1.00  0.00     0.177 C 
ENDROOT
BRANCH   1   2
HETATM    2  C6  UNL     1      -2.915   8.159  13.717  1.00  0.00     0.227 C 
HETATM    3  N2  UNL     1      -3.652   8.408  12.532  1.00  0.00    -0.355 N 
ATOM      4  H2  UNL     1      -3.834   7.654  11.871  1.00  0.00     0.162 HD
HETATM    5  O1  UNL     1      -2.682   9.072  14.543  1.00  0.00    -0.273 OA
BRANCH   3   6
HETATM    6  C5  UNL     1      -4.146   9.743  12.270  1.00  0.00     0.091 C 
HETATM    7  C4  UNL     1      -5.357   9.944  13.144  1.00  0.00     0.056 C 
HETATM    8  C3  UNL     1      -6.026  11.270  12.930  1.00  0.00     0.274 C 
HETATM    9  N1  UNL     1      -5.512  11.803  11.683  1.00  0.00     0.088 N 
HETATM   10  C17 UNL     1      -5.580  10.830  10.615  1.00  0.00     0.278 C 
HETATM   11  C15 UNL     1      -4.426   9.871  10.799  1.00  0.00     0.032 C 
HETATM   12  C16 UNL     1      -3.194  10.542  10.179  1.00  0.00     0.014 C 
BRANCH   9  13
HETATM   13  C2  UNL     1      -6.139  13.054  11.325  1.00  0.00     0.268 C 
HETATM   14  C1  UNL     1      -7.055  13.456  12.457  1.00  0.00     0.037 C 
ENDBRANCH   9  13
ENDBRANCH   3   6
ENDBRANCH   1   2
BRANCH   1  15
HETATM   15  S1  UNL     1      -3.338   6.140  15.427  1.00  0.00    -0.154 SA
BRANCH  15  16
HETATM   16  C8  UNL     1      -5.079   5.848  14.923  1.00  0.00     0.059 C 
HETATM   17  C9  UNL     1      -5.673   7.131  14.508  1.00  0.00     0.016 C 
HETATM   18  C10 UNL     1      -6.687   7.715  15.449  1.00  0.00     0.001 C 
HETATM   19  C11 UNL     1      -7.740   6.616  15.656  1.00  0.00     0.001 C 
HETATM   20  C12 UNL     1      -7.061   5.554  16.473  1.00  0.00     0.014 C 
HETATM   21  C13 UNL     1      -5.805   5.024  15.916  1.00  0.00     0.076 C 
BRANCH  21  22
HETATM   22  C14 UNL     1      -6.057   3.628  15.414  1.00  0.00     0.140 C 
HETATM   23  N3  UNL     1      -6.020   2.636  16.210  1.00  0.00    -0.251 N 
ATOM     24  H3  UNL     1      -5.815   2.795  17.197  1.00  0.00     0.196 HD
BRANCH  22  25
HETATM   25  O2  UNL     1      -6.326   3.532  14.045  1.00  0.00    -0.348 OA
ATOM     26  H2  UNL     1      -5.574   3.662  13.479  1.00  0.00     0.219 HD
ENDBRANCH  22  25
BRANCH  23  27
HETATM   27  O3  UNL     1      -6.246   1.372  15.775  1.00  0.00    -0.288 OA
ATOM     28  H3  UNL     1      -5.548   0.845  15.404  1.00  0.00     0.244 HD
ENDBRANCH  23  27
ENDBRANCH  21  22
ENDBRANCH  15  16
ENDBRANCH   1  15
TORSDOF 8
ENDMDL
