MODEL 1
REMARK VINA RESULT: -4.169119540      0.000      0.000
REMARK  9 active torsions:
REMARK  status: ('A' for Active; 'I' for Inactive)
REMARK    1  A    between atoms: C2_2  and  C3_4 
REMARK    2  A    between atoms: C3_4  and  C4_5 
REMARK    3  A    between atoms: C4_5  and  C5_6 
REMARK    4  A    between atoms: C5_6  and  C6_7 
REMARK    5  A    between atoms: C8_9  and  C9_10 
REMARK    6  A    between atoms: C10_11  and  C11_12 
REMARK    7  A    between atoms: C14_15  and  O2_16 
REMARK    8  A    between atoms: C17_20  and  O3_21 
REMARK    9  A    between atoms: C20_25  and  O4_26 
ROOT
HETATM    1  C11 UNL     1     -12.187   4.015  20.193  1.00  0.00     0.040 C 
HETATM    2  C12 UNL     1     -11.674   4.910  19.082  1.00  0.00     0.028 C 
HETATM    3  C13 UNL     1     -11.389   4.412  21.425  1.00  0.00     0.059 C 
HETATM    4  C14 UNL     1     -11.945   5.445  22.284  1.00  0.00     0.072 C 
HETATM    5  C15 UNL     1     -11.376   6.842  22.072  1.00  0.00     0.041 C 
HETATM    6  C16 UNL     1     -12.192   7.633  23.078  1.00  0.00     0.035 C 
HETATM    7  C17 UNL     1     -13.601   7.118  22.756  1.00  0.00     0.132 C 
HETATM    8  C18 UNL     1     -13.398   5.668  22.360  1.00  0.00     0.046 C 
HETATM    9  C19 UNL     1     -13.967   4.844  23.526  1.00  0.00     0.024 C 
HETATM   10  C20 UNL     1     -14.205   5.339  21.133  1.00  0.00     0.202 C 
HETATM   11  C21 UNL     1     -13.640   4.150  20.448  1.00  0.00     0.168 C 
HETATM   12  O5  UNL     1     -14.390   3.275  20.094  1.00  0.00    -0.294 OA
ENDROOT
BRANCH   1  13
HETATM   13  C10 UNL     1     -11.836   2.626  19.816  1.00  0.00    -0.010 C 
HETATM   14  C9  UNL     1     -11.589   1.610  20.575  1.00  0.00    -0.003 C 
BRANCH  14  15
HETATM   15  C8  UNL     1     -11.576   1.499  22.006  1.00  0.00     0.002 C 
HETATM   16  C6  UNL     1     -11.004   0.569  22.732  1.00  0.00    -0.084 C 
HETATM   17  C7  UNL     1     -11.143   0.688  24.238  1.00  0.00     0.043 C 
BRANCH  16  18
HETATM   18  C5  UNL     1     -10.245  -0.572  22.219  1.00  0.00     0.034 C 
BRANCH  18  19
HETATM   19  C4  UNL     1      -9.156  -0.071  21.287  1.00  0.00     0.012 C 
BRANCH  19  20
HETATM   20  C3  UNL     1      -7.958   0.359  22.103  1.00  0.00     0.078 C 
BRANCH  20  21
HETATM   21  C2  UNL     1      -7.064  -0.795  22.306  1.00  0.00     0.123 C 
HETATM   22  C1  UNL     1      -6.844  -1.318  23.676  1.00  0.00     0.091 C 
HETATM   23  O1  UNL     1      -6.505  -1.326  21.375  1.00  0.00    -0.298 OA
ENDBRANCH  20  21
ENDBRANCH  19  20
ENDBRANCH  18  19
ENDBRANCH  16  18
ENDBRANCH  14  15
ENDBRANCH   1  13
BRANCH   4  24
HETATM   24  O2  UNL     1     -11.523   5.145  23.613  1.00  0.00    -0.389 OA
ATOM     25  H2  UNL     1     -11.062   4.315  23.572  1.00  0.00     0.210 HD
ENDBRANCH   4  24
BRANCH  10  26
HETATM   26  O4  UNL     1     -14.420   6.413  20.291  1.00  0.00    -0.387 OA
ATOM     27  H4  UNL     1     -13.723   6.562  19.663  1.00  0.00     0.210 HD
ENDBRANCH  10  26
BRANCH   7  28
HETATM   28  O3  UNL     1     -14.429   7.262  23.860  1.00  0.00    -0.395 OA
ATOM     29  H3  UNL     1     -15.330   7.078  23.622  1.00  0.00     0.210 HD
ENDBRANCH   7  28
TORSDOF 9
ENDMDL
MODEL 2
REMARK VINA RESULT: -3.506599823     17.638     19.258
REMARK  9 active torsions:
REMARK  status: ('A' for Active; 'I' for Inactive)
REMARK    1  A    between atoms: C2_2  and  C3_4 
REMARK    2  A    between atoms: C3_4  and  C4_5 
REMARK    3  A    between atoms: C4_5  and  C5_6 
REMARK    4  A    between atoms: C5_6  and  C6_7 
REMARK    5  A    between atoms: C8_9  and  C9_10 
REMARK    6  A    between atoms: C10_11  and  C11_12 
REMARK    7  A    between atoms: C14_15  and  O2_16 
REMARK    8  A    between atoms: C17_20  and  O3_21 
REMARK    9  A    between atoms: C20_25  and  O4_26 
ROOT
HETATM    1  C11 UNL     1     -11.740  13.373   5.834  1.00  0.00     0.040 C 
HETATM    2  C12 UNL     1     -11.470  13.086   4.370  1.00  0.00     0.028 C 
HETATM    3  C13 UNL     1     -10.957  14.641   6.141  1.00  0.00     0.059 C 
HETATM    4  C14 UNL     1     -11.643  15.913   5.979  1.00  0.00     0.072 C 
HETATM    5  C15 UNL     1     -11.358  16.643   4.673  1.00  0.00     0.041 C 
HETATM    6  C16 UNL     1     -12.246  17.864   4.836  1.00  0.00     0.035 C 
HETATM    7  C17 UNL     1     -13.551  17.198   5.293  1.00  0.00     0.132 C 
HETATM    8  C18 UNL     1     -13.105  16.010   6.123  1.00  0.00     0.046 C 
HETATM    9  C19 UNL     1     -13.439  16.381   7.576  1.00  0.00     0.024 C 
HETATM   10  C20 UNL     1     -13.908  14.788   5.768  1.00  0.00     0.202 C 
HETATM   11  C21 UNL     1     -13.174  13.557   6.155  1.00  0.00     0.168 C 
HETATM   12  O5  UNL     1     -13.767  12.690   6.745  1.00  0.00    -0.294 OA
ENDROOT
BRANCH   1  13
HETATM   13  C10 UNL     1     -11.158  12.248   6.602  1.00  0.00    -0.010 C 
HETATM   14  C9  UNL     1      -9.999  11.690   6.483  1.00  0.00    -0.003 C 
BRANCH  14  15
HETATM   15  C8  UNL     1      -8.917  11.973   5.583  1.00  0.00     0.002 C 
HETATM   16  C6  UNL     1      -8.225  11.118   4.868  1.00  0.00    -0.084 C 
HETATM   17  C7  UNL     1      -7.125  11.686   3.991  1.00  0.00     0.043 C 
BRANCH  16  18
HETATM   18  C5  UNL     1      -8.420   9.669   4.842  1.00  0.00     0.034 C 
BRANCH  18  19
HETATM   19  C4  UNL     1      -7.311   9.029   4.024  1.00  0.00     0.012 C 
BRANCH  19  20
HETATM   20  C3  UNL     1      -6.491   8.123   4.913  1.00  0.00     0.078 C 
BRANCH  20  21
HETATM   21  C2  UNL     1      -5.163   8.725   5.133  1.00  0.00     0.123 C 
HETATM   22  C1  UNL     1      -4.418   8.417   6.378  1.00  0.00     0.091 C 
HETATM   23  O1  UNL     1      -4.669   9.466   4.317  1.00  0.00    -0.298 OA
ENDBRANCH  20  21
ENDBRANCH  19  20
ENDBRANCH  18  19
ENDBRANCH  16  18
ENDBRANCH  14  15
ENDBRANCH   1  13
BRANCH   4  24
HETATM   24  O2  UNL     1     -11.093  16.802   6.950  1.00  0.00    -0.389 OA
ATOM     25  H2  UNL     1     -10.861  17.600   6.490  1.00  0.00     0.210 HD
ENDBRANCH   4  24
BRANCH  10  26
HETATM   26  O4  UNL     1     -14.371  14.771   4.466  1.00  0.00    -0.387 OA
ATOM     27  H4  UNL     1     -15.162  14.260   4.340  1.00  0.00     0.210 HD
ENDBRANCH  10  26
BRANCH   7  28
HETATM   28  O3  UNL     1     -14.322  18.098   6.013  1.00  0.00    -0.395 OA
ATOM     29  H3  UNL     1     -14.008  18.158   6.908  1.00  0.00     0.210 HD
ENDBRANCH   7  28
TORSDOF 9
ENDMDL
MODEL 3
REMARK VINA RESULT: -3.400545460     15.130     18.807
REMARK  9 active torsions:
REMARK  status: ('A' for Active; 'I' for Inactive)
REMARK    1  A    between atoms: C2_2  and  C3_4 
REMARK    2  A    between atoms: C3_4  and  C4_5 
REMARK    3  A    between atoms: C4_5  and  C5_6 
REMARK    4  A    between atoms: C5_6  and  C6_7 
REMARK    5  A    between atoms: C8_9  and  C9_10 
REMARK    6  A    between atoms: C10_11  and  C11_12 
REMARK    7  A    between atoms: C14_15  and  O2_16 
REMARK    8  A    between atoms: C17_20  and  O3_21 
REMARK    9  A    between atoms: C20_25  and  O4_26 
ROOT
HETATM    1  C11 UNL     1     -10.854   8.995   5.418  1.00  0.00     0.040 C 
HETATM    2  C12 UNL     1     -11.250   9.321   3.991  1.00  0.00     0.028 C 
HETATM    3  C13 UNL     1     -12.159   8.669   6.128  1.00  0.00     0.059 C 
HETATM    4  C14 UNL     1     -12.586   7.279   6.148  1.00  0.00     0.072 C 
HETATM    5  C15 UNL     1     -13.633   6.904   5.106  1.00  0.00     0.041 C 
HETATM    6  C16 UNL     1     -13.797   5.424   5.395  1.00  0.00     0.035 C 
HETATM    7  C17 UNL     1     -12.327   4.991   5.468  1.00  0.00     0.132 C 
HETATM    8  C18 UNL     1     -11.606   6.182   6.069  1.00  0.00     0.046 C 
HETATM    9  C19 UNL     1     -11.226   5.752   7.494  1.00  0.00     0.024 C 
HETATM   10  C20 UNL     1     -10.331   6.460   5.321  1.00  0.00     0.202 C 
HETATM   11  C21 UNL     1      -9.903   7.865   5.533  1.00  0.00     0.168 C 
HETATM   12  O5  UNL     1      -8.750   8.084   5.807  1.00  0.00    -0.294 OA
ENDROOT
BRANCH   1  13
HETATM   13  C10 UNL     1     -10.286  10.235   5.995  1.00  0.00    -0.010 C 
HETATM   14  C9  UNL     1     -10.847  11.386   6.170  1.00  0.00    -0.003 C 
BRANCH  14  15
HETATM   15  C8  UNL     1     -12.178  11.829   5.867  1.00  0.00     0.002 C 
HETATM   16  C6  UNL     1     -12.822  12.846   6.388  1.00  0.00    -0.084 C 
HETATM   17  C7  UNL     1     -14.231  13.098   5.887  1.00  0.00     0.043 C 
BRANCH  16  18
HETATM   18  C5  UNL     1     -12.303  13.755   7.410  1.00  0.00     0.034 C 
BRANCH  18  19
HETATM   19  C4  UNL     1     -13.056  15.072   7.338  1.00  0.00     0.012 C 
BRANCH  19  20
HETATM   20  C3  UNL     1     -12.082  16.191   7.046  1.00  0.00     0.078 C 
BRANCH  20  21
HETATM   21  C2  UNL     1     -11.776  16.210   5.604  1.00  0.00     0.123 C 
HETATM   22  C1  UNL     1     -10.375  16.034   5.151  1.00  0.00     0.091 C 
HETATM   23  O1  UNL     1     -12.647  16.366   4.781  1.00  0.00    -0.298 OA
ENDBRANCH  20  21
ENDBRANCH  19  20
ENDBRANCH  18  19
ENDBRANCH  16  18
ENDBRANCH  14  15
ENDBRANCH   1  13
BRANCH   4  24
HETATM   24  O2  UNL     1     -13.294   7.085   7.372  1.00  0.00    -0.389 OA
ATOM     25  H2  UNL     1     -12.944   6.296   7.768  1.00  0.00     0.210 HD
ENDBRANCH   4  24
BRANCH  10  26
HETATM   26  O4  UNL     1     -10.360   6.084   3.991  1.00  0.00    -0.387 OA
ATOM     27  H4  UNL     1     -10.777   6.716   3.417  1.00  0.00     0.210 HD
ENDBRANCH  10  26
BRANCH   7  28
HETATM   28  O3  UNL     1     -12.202   3.844   6.238  1.00  0.00    -0.395 OA
ATOM     29  H3  UNL     1     -11.560   3.258   5.854  1.00  0.00     0.210 HD
ENDBRANCH   7  28
TORSDOF 9
ENDMDL
MODEL 4
REMARK VINA RESULT: -3.118707853     10.019     11.994
REMARK  9 active torsions:
REMARK  status: ('A' for Active; 'I' for Inactive)
REMARK    1  A    between atoms: C2_2  and  C3_4 
REMARK    2  A    between atoms: C3_4  and  C4_5 
REMARK    3  A    between atoms: C4_5  and  C5_6 
REMARK    4  A    between atoms: C5_6  and  C6_7 
REMARK    5  A    between atoms: C8_9  and  C9_10 
REMARK    6  A    between atoms: C10_11  and  C11_12 
REMARK    7  A    between atoms: C14_15  and  O2_16 
REMARK    8  A    between atoms: C17_20  and  O3_21 
REMARK    9  A    between atoms: C20_25  and  O4_26 
ROOT
HETATM    1  C11 UNL     1      -6.772  10.107  14.824  1.00  0.00     0.040 C 
HETATM    2  C12 UNL     1      -5.379  10.582  14.461  1.00  0.00     0.028 C 
HETATM    3  C13 UNL     1      -6.745   9.913  16.333  1.00  0.00     0.059 C 
HETATM    4  C14 UNL     1      -7.138  11.039  17.164  1.00  0.00     0.072 C 
HETATM    5  C15 UNL     1      -5.987  11.851  17.744  1.00  0.00     0.041 C 
HETATM    6  C16 UNL     1      -6.753  12.925  18.494  1.00  0.00     0.035 C 
HETATM    7  C17 UNL     1      -7.769  13.341  17.422  1.00  0.00     0.132 C 
HETATM    8  C18 UNL     1      -8.071  12.063  16.664  1.00  0.00     0.046 C 
HETATM    9  C19 UNL     1      -9.501  11.675  17.074  1.00  0.00     0.024 C 
HETATM   10  C20 UNL     1      -8.075  12.317  15.181  1.00  0.00     0.202 C 
HETATM   11  C21 UNL     1      -7.846  11.052  14.440  1.00  0.00     0.168 C 
HETATM   12  O5  UNL     1      -8.559  10.792  13.503  1.00  0.00    -0.294 OA
ENDROOT
BRANCH   1  13
HETATM   13  C10 UNL     1      -6.955   8.791  14.170  1.00  0.00    -0.010 C 
HETATM   14  C9  UNL     1      -6.152   7.780  14.127  1.00  0.00    -0.003 C 
BRANCH  14  15
HETATM   15  C8  UNL     1      -4.842   7.608  14.689  1.00  0.00     0.002 C 
HETATM   16  C6  UNL     1      -3.691   7.630  14.060  1.00  0.00    -0.084 C 
HETATM   17  C7  UNL     1      -2.444   7.418  14.898  1.00  0.00     0.043 C 
BRANCH  16  18
HETATM   18  C5  UNL     1      -3.504   7.839  12.624  1.00  0.00     0.034 C 
BRANCH  18  19
HETATM   19  C4  UNL     1      -3.834   9.281  12.280  1.00  0.00     0.012 C 
BRANCH  19  20
HETATM   20  C3  UNL     1      -4.781   9.311  11.103  1.00  0.00     0.078 C 
BRANCH  20  21
HETATM   21  C2  UNL     1      -4.694  10.624  10.437  1.00  0.00     0.123 C 
HETATM   22  C1  UNL     1      -5.451  11.774  10.986  1.00  0.00     0.091 C 
HETATM   23  O1  UNL     1      -4.015  10.780   9.450  1.00  0.00    -0.298 OA
ENDBRANCH  20  21
ENDBRANCH  19  20
ENDBRANCH  18  19
ENDBRANCH  16  18
ENDBRANCH  14  15
ENDBRANCH   1  13
BRANCH   4  24
HETATM   24  O2  UNL     1      -7.744  10.493  18.334  1.00  0.00    -0.389 OA
ATOM     25  H2  UNL     1      -7.168  10.698  19.062  1.00  0.00     0.210 HD
ENDBRANCH   4  24
BRANCH  10  26
HETATM   26  O4  UNL     1      -7.250  13.350  14.781  1.00  0.00    -0.387 OA
ATOM     27  H4  UNL     1      -6.986  13.307  13.869  1.00  0.00     0.210 HD
ENDBRANCH  10  26
BRANCH   7  28
HETATM   28  O3  UNL     1      -8.895  13.893  18.015  1.00  0.00    -0.395 OA
ATOM     29  H3  UNL     1      -9.682  13.563  17.597  1.00  0.00     0.210 HD
ENDBRANCH   7  28
TORSDOF 9
ENDMDL
MODEL 5
REMARK VINA RESULT: -3.049079486     12.573     16.300
REMARK  9 active torsions:
REMARK  status: ('A' for Active; 'I' for Inactive)
REMARK    1  A    between atoms: C2_2  and  C3_4 
REMARK    2  A    between atoms: C3_4  and  C4_5 
REMARK    3  A    between atoms: C4_5  and  C5_6 
REMARK    4  A    between atoms: C5_6  and  C6_7 
REMARK    5  A    between atoms: C8_9  and  C9_10 
REMARK    6  A    between atoms: C10_11  and  C11_12 
REMARK    7  A    between atoms: C14_15  and  O2_16 
REMARK    8  A    between atoms: C17_20  and  O3_21 
REMARK    9  A    between atoms: C20_25  and  O4_26 
ROOT
HETATM    1  C11 UNL     1     -12.697   4.766   8.203  1.00  0.00     0.040 C 
HETATM    2  C12 UNL     1     -14.078   5.391   8.201  1.00  0.00     0.028 C 
HETATM    3  C13 UNL     1     -12.552   4.127   9.576  1.00  0.00     0.059 C 
HETATM    4  C14 UNL     1     -12.955   2.737   9.719  1.00  0.00     0.072 C 
HETATM    5  C15 UNL     1     -14.343   2.520  10.310  1.00  0.00     0.041 C 
HETATM    6  C16 UNL     1     -14.429   1.006  10.272  1.00  0.00     0.035 C 
HETATM    7  C17 UNL     1     -13.949   0.737   8.839  1.00  0.00     0.132 C 
HETATM    8  C18 UNL     1     -12.914   1.813   8.574  1.00  0.00     0.046 C 
HETATM    9  C19 UNL     1     -11.561   1.085   8.569  1.00  0.00     0.024 C 
HETATM   10  C20 UNL     1     -13.115   2.411   7.207  1.00  0.00     0.202 C 
HETATM   11  C21 UNL     1     -12.494   3.758   7.137  1.00  0.00     0.168 C 
HETATM   12  O5  UNL     1     -11.808   4.030   6.184  1.00  0.00    -0.294 OA
ENDROOT
BRANCH   1  13
HETATM   13  C10 UNL     1     -11.727   5.878   8.082  1.00  0.00    -0.010 C 
HETATM   14  C9  UNL     1     -11.677   6.828   7.208  1.00  0.00    -0.003 C 
BRANCH  14  15
HETATM   15  C8  UNL     1     -12.531   7.110   6.090  1.00  0.00     0.002 C 
HETATM   16  C6  UNL     1     -12.288   7.907   5.077  1.00  0.00    -0.084 C 
HETATM   17  C7  UNL     1     -13.370   8.028   4.021  1.00  0.00     0.043 C 
BRANCH  16  18
HETATM   18  C5  UNL     1     -11.069   8.690   4.878  1.00  0.00     0.034 C 
BRANCH  18  19
HETATM   19  C4  UNL     1     -11.041   9.837   5.873  1.00  0.00     0.012 C 
BRANCH  19  20
HETATM   20  C3  UNL     1     -11.604  11.079   5.222  1.00  0.00     0.078 C 
BRANCH  20  21
HETATM   21  C2  UNL     1     -11.748  12.141   6.235  1.00  0.00     0.123 C 
HETATM   22  C1  UNL     1     -12.863  13.111   6.125  1.00  0.00     0.091 C 
HETATM   23  O1  UNL     1     -10.971  12.236   7.157  1.00  0.00    -0.298 OA
ENDBRANCH  20  21
ENDBRANCH  19  20
ENDBRANCH  18  19
ENDBRANCH  16  18
ENDBRANCH  14  15
ENDBRANCH   1  13
BRANCH   4  24
HETATM   24  O2  UNL     1     -12.109   2.166  10.715  1.00  0.00    -0.389 OA
ATOM     25  H2  UNL     1     -11.906   2.859  11.333  1.00  0.00     0.210 HD
ENDBRANCH   4  24
BRANCH  10  26
HETATM   26  O4  UNL     1     -14.422   2.380   6.760  1.00  0.00    -0.387 OA
ATOM     27  H4  UNL     1     -14.591   2.937   6.009  1.00  0.00     0.210 HD
ENDBRANCH  10  26
BRANCH   7  28
HETATM   28  O3  UNL     1     -13.428  -0.545   8.740  1.00  0.00    -0.395 OA
ATOM     29  H3  UNL     1     -12.483  -0.526   8.846  1.00  0.00     0.210 HD
ENDBRANCH   7  28
TORSDOF 9
ENDMDL
