MODEL 1
REMARK VINA RESULT: -6.859205864      0.000      0.000
REMARK  6 active torsions:
REMARK  status: ('A' for Active; 'I' for Inactive)
REMARK    1  A    between atoms: C4_4  and  C5_5 
REMARK       I    between atoms: C5_5  and  N1_7 
REMARK    2  A    between atoms: N1_7  and  C6_9 
REMARK    3  A    between atoms: C9_12  and  C11_14 
REMARK    4  A    between atoms: C11_14  and  N2_15 
REMARK    5  A    between atoms: N2_15  and  C12_18 
REMARK    6  A    between atoms: C19_25  and  O2_26 
ROOT
HETATM    1  C6  UNL     1       9.002   7.268  21.623  1.00  0.00     0.114 C 
HETATM    2  C7  UNL     1       8.197   6.028  21.349  1.00  0.00     0.028 C 
HETATM    3  C8  UNL     1       8.766   4.793  21.929  1.00  0.00     0.013 C 
HETATM    4  C9  UNL     1       9.305   4.869  23.309  1.00  0.00    -0.014 C 
HETATM    5  C10 UNL     1      10.403   3.831  23.425  1.00  0.00     0.017 C 
HETATM    6  C17 UNL     1       9.868   6.202  23.701  1.00  0.00     0.022 C 
HETATM    7  C18 UNL     1      11.306   6.398  23.277  1.00  0.00     0.013 C 
HETATM    8  C19 UNL     1       9.081   7.364  23.152  1.00  0.00     0.145 C 
ENDROOT
BRANCH   1   9
HETATM    9  N1  UNL     1       8.295   8.411  21.127  1.00  0.00    -0.348 N 
HETATM   10  C5  UNL     1       8.861   9.217  20.124  1.00  0.00     0.270 C 
HETATM   11  O1  UNL     1       9.989   8.937  19.658  1.00  0.00    -0.266 OA
ATOM     12  H1  UNL     1       7.376   8.642  21.504  1.00  0.00     0.163 HD
BRANCH  10  13
HETATM   13  C4  UNL     1       8.181  10.399  19.578  1.00  0.00     0.124 A 
HETATM   14  C3  UNL     1       7.380  11.273  20.273  1.00  0.00     0.071 A 
HETATM   15  C2  UNL     1       6.968  12.214  19.356  1.00  0.00     0.075 A 
HETATM   16  C1  UNL     1       6.076  13.364  19.669  1.00  0.00     0.079 C 
HETATM   17  O3  UNL     1       7.493  11.909  18.207  1.00  0.00    -0.242 OA
HETATM   18  N3  UNL     1       8.213  10.843  18.314  1.00  0.00    -0.256 N 
ATOM     19  H3  UNL     1       8.728  10.404  17.551  1.00  0.00     0.195 HD
ENDBRANCH  10  13
ENDBRANCH   1   9
BRANCH   8  20
HETATM   20  O2  UNL     1       9.753   8.531  23.464  1.00  0.00    -0.393 OA
ATOM     21  H2  UNL     1      10.683   8.362  23.373  1.00  0.00     0.210 HD
ENDBRANCH   8  20
BRANCH   4  22
HETATM   22  C11 UNL     1       8.164   4.602  24.294  1.00  0.00     0.242 C 
BRANCH  22  23
HETATM   23  N2  UNL     1       7.013   4.054  23.657  1.00  0.00    -0.070 N 
ATOM     24  H22 UNL     1       6.908   4.429  22.714  1.00  0.00     0.277 HD
ATOM     25  H21 UNL     1       7.157   3.069  23.433  1.00  0.00     0.277 HD
BRANCH  23  26
HETATM   26  C12 UNL     1       5.800   4.234  24.416  1.00  0.00     0.186 C 
HETATM   27  C13 UNL     1       4.558   3.875  23.620  1.00  0.00     0.033 C 
HETATM   28  C14 UNL     1       4.502   5.014  22.631  1.00  0.00     0.002 C 
HETATM   29  C15 UNL     1       5.155   6.194  23.291  1.00  0.00     0.002 C 
HETATM   30  C16 UNL     1       5.574   5.711  24.656  1.00  0.00     0.033 C 
ENDBRANCH  23  26
ENDBRANCH  22  23
ENDBRANCH   4  22
TORSDOF 6
ENDMDL
MODEL 2
REMARK VINA RESULT: -6.598540115      3.015      3.589
REMARK  6 active torsions:
REMARK  status: ('A' for Active; 'I' for Inactive)
REMARK    1  A    between atoms: C4_4  and  C5_5 
REMARK       I    between atoms: C5_5  and  N1_7 
REMARK    2  A    between atoms: N1_7  and  C6_9 
REMARK    3  A    between atoms: C9_12  and  C11_14 
REMARK    4  A    between atoms: C11_14  and  N2_15 
REMARK    5  A    between atoms: N2_15  and  C12_18 
REMARK    6  A    between atoms: C19_25  and  O2_26 
ROOT
HETATM    1  C6  UNL     1       8.805   7.223  19.191  1.00  0.00     0.114 C 
HETATM    2  C7  UNL     1       7.778   6.178  19.524  1.00  0.00     0.028 C 
HETATM    3  C8  UNL     1       7.988   5.513  20.828  1.00  0.00     0.013 C 
HETATM    4  C9  UNL     1       8.376   6.364  21.978  1.00  0.00    -0.014 C 
HETATM    5  C10 UNL     1       9.193   5.507  22.923  1.00  0.00     0.017 C 
HETATM    6  C17 UNL     1       9.178   7.582  21.627  1.00  0.00     0.022 C 
HETATM    7  C18 UNL     1      10.661   7.313  21.505  1.00  0.00     0.013 C 
HETATM    8  C19 UNL     1       8.737   8.234  20.342  1.00  0.00     0.145 C 
ENDROOT
BRANCH   1   9
HETATM    9  N1  UNL     1       8.432   7.885  17.977  1.00  0.00    -0.348 N 
HETATM   10  C5  UNL     1       9.221   7.747  16.821  1.00  0.00     0.270 C 
HETATM   11  O1  UNL     1      10.256   7.044  16.849  1.00  0.00    -0.266 OA
ATOM     12  H1  UNL     1       7.589   8.458  17.950  1.00  0.00     0.163 HD
BRANCH  10  13
HETATM   13  C4  UNL     1       8.885   8.402  15.549  1.00  0.00     0.124 A 
HETATM   14  C3  UNL     1       8.035   9.468  15.380  1.00  0.00     0.071 A 
HETATM   15  C2  UNL     1       8.031   9.732  14.028  1.00  0.00     0.075 A 
HETATM   16  C1  UNL     1       7.241  10.816  13.383  1.00  0.00     0.079 C 
HETATM   17  O3  UNL     1       8.823   8.879  13.451  1.00  0.00    -0.242 OA
HETATM   18  N3  UNL     1       9.339   8.084  14.328  1.00  0.00    -0.256 N 
ATOM     19  H3  UNL     1       9.993   7.329  14.123  1.00  0.00     0.195 HD
ENDBRANCH  10  13
ENDBRANCH   1   9
BRANCH   8  20
HETATM   20  O2  UNL     1       9.615   9.261  20.052  1.00  0.00    -0.393 OA
ATOM     21  H2  UNL     1       9.251  10.062  20.410  1.00  0.00     0.210 HD
ENDBRANCH   8  20
BRANCH   4  22
HETATM   22  C11 UNL     1       7.103   6.892  22.646  1.00  0.00     0.242 C 
BRANCH  22  23
HETATM   23  N2  UNL     1       5.945   6.151  22.271  1.00  0.00    -0.070 N 
ATOM     24  H22 UNL     1       5.457   6.609  21.501  1.00  0.00     0.277 HD
ATOM     25  H21 UNL     1       6.207   5.279  21.811  1.00  0.00     0.277 HD
BRANCH  23  26
HETATM   26  C12 UNL     1       5.046   5.900  23.370  1.00  0.00     0.186 C 
HETATM   27  C13 UNL     1       5.760   5.346  24.589  1.00  0.00     0.033 C 
HETATM   28  C14 UNL     1       6.107   3.953  24.120  1.00  0.00     0.002 C 
HETATM   29  C15 UNL     1       5.067   3.564  23.108  1.00  0.00     0.002 C 
HETATM   30  C16 UNL     1       4.134   4.744  23.016  1.00  0.00     0.033 C 
ENDBRANCH  23  26
ENDBRANCH  22  23
ENDBRANCH   4  22
TORSDOF 6
ENDMDL
MODEL 3
REMARK VINA RESULT: -6.501994608      2.558      2.890
REMARK  6 active torsions:
REMARK  status: ('A' for Active; 'I' for Inactive)
REMARK    1  A    between atoms: C4_4  and  C5_5 
REMARK       I    between atoms: C5_5  and  N1_7 
REMARK    2  A    between atoms: N1_7  and  C6_9 
REMARK    3  A    between atoms: C9_12  and  C11_14 
REMARK    4  A    between atoms: C11_14  and  N2_15 
REMARK    5  A    between atoms: N2_15  and  C12_18 
REMARK    6  A    between atoms: C19_25  and  O2_26 
ROOT
HETATM    1  C6  UNL     1       9.346   6.317  20.077  1.00  0.00     0.114 C 
HETATM    2  C7  UNL     1       8.261   5.364  20.495  1.00  0.00     0.028 C 
HETATM    3  C8  UNL     1       8.571   4.588  21.715  1.00  0.00     0.013 C 
HETATM    4  C9  UNL     1       9.209   5.308  22.843  1.00  0.00    -0.014 C 
HETATM    5  C10 UNL     1      10.045   4.303  23.609  1.00  0.00     0.017 C 
HETATM    6  C17 UNL     1      10.089   6.456  22.450  1.00  0.00     0.022 C 
HETATM    7  C18 UNL     1      11.500   6.042  22.098  1.00  0.00     0.013 C 
HETATM    8  C19 UNL     1       9.553   7.243  21.281  1.00  0.00     0.145 C 
ENDROOT
BRANCH   1   9
HETATM    9  N1  UNL     1       8.887   7.100  18.969  1.00  0.00    -0.348 N 
HETATM   10  C5  UNL     1       9.538   7.021  17.724  1.00  0.00     0.270 C 
HETATM   11  O1  UNL     1      10.523   6.263  17.580  1.00  0.00    -0.266 OA
ATOM     12  H1  UNL     1       8.085   7.719  19.083  1.00  0.00     0.163 HD
BRANCH  10  13
HETATM   13  C4  UNL     1       9.110   7.800  16.555  1.00  0.00     0.124 A 
HETATM   14  C3  UNL     1       8.628   9.087  16.564  1.00  0.00     0.071 A 
HETATM   15  C2  UNL     1       8.358   9.395  15.250  1.00  0.00     0.075 A 
HETATM   16  C1  UNL     1       7.814  10.700  14.783  1.00  0.00     0.079 C 
HETATM   17  O3  UNL     1       8.663   8.360  14.525  1.00  0.00    -0.242 OA
HETATM   18  N3  UNL     1       9.108   7.407  15.274  1.00  0.00    -0.256 N 
ATOM     19  H3  UNL     1       9.413   6.493  14.940  1.00  0.00     0.195 HD
ENDBRANCH  10  13
ENDBRANCH   1   9
BRANCH   8  20
HETATM   20  O2  UNL     1      10.495   8.190  20.926  1.00  0.00    -0.393 OA
ATOM     21  H2  UNL     1      10.148   9.044  21.156  1.00  0.00     0.210 HD
ENDBRANCH   8  20
BRANCH   4  22
HETATM   22  C11 UNL     1       8.109   5.918  23.718  1.00  0.00     0.242 C 
BRANCH  22  23
HETATM   23  N2  UNL     1       7.174   4.943  24.172  1.00  0.00    -0.070 N 
ATOM     24  H22 UNL     1       7.090   4.181  23.500  1.00  0.00     0.277 HD
ATOM     25  H21 UNL     1       7.549   4.426  24.968  1.00  0.00     0.277 HD
BRANCH  23  26
HETATM   26  C12 UNL     1       5.879   5.495  24.485  1.00  0.00     0.186 C 
HETATM   27  C13 UNL     1       4.836   4.422  24.740  1.00  0.00     0.033 C 
HETATM   28  C14 UNL     1       4.635   3.870  23.349  1.00  0.00     0.002 C 
HETATM   29  C15 UNL     1       4.940   4.985  22.391  1.00  0.00     0.002 C 
HETATM   30  C16 UNL     1       5.311   6.165  23.252  1.00  0.00     0.033 C 
ENDBRANCH  23  26
ENDBRANCH  22  23
ENDBRANCH   4  22
TORSDOF 6
ENDMDL
MODEL 4
REMARK VINA RESULT: -6.473447751      3.191      3.916
REMARK  6 active torsions:
REMARK  status: ('A' for Active; 'I' for Inactive)
REMARK    1  A    between atoms: C4_4  and  C5_5 
REMARK       I    between atoms: C5_5  and  N1_7 
REMARK    2  A    between atoms: N1_7  and  C6_9 
REMARK    3  A    between atoms: C9_12  and  C11_14 
REMARK    4  A    between atoms: C11_14  and  N2_15 
REMARK    5  A    between atoms: N2_15  and  C12_18 
REMARK    6  A    between atoms: C19_25  and  O2_26 
ROOT
HETATM    1  C6  UNL     1       9.544   6.801  19.854  1.00  0.00     0.114 C 
HETATM    2  C7  UNL     1       8.405   5.836  20.030  1.00  0.00     0.028 C 
HETATM    3  C8  UNL     1       8.281   5.285  21.396  1.00  0.00     0.013 C 
HETATM    4  C9  UNL     1       8.459   6.221  22.532  1.00  0.00    -0.014 C 
HETATM    5  C10 UNL     1       8.993   5.419  23.702  1.00  0.00     0.017 C 
HETATM    6  C17 UNL     1       9.393   7.365  22.274  1.00  0.00     0.022 C 
HETATM    7  C18 UNL     1      10.847   7.022  22.510  1.00  0.00     0.013 C 
HETATM    8  C19 UNL     1       9.288   7.915  20.875  1.00  0.00     0.145 C 
ENDROOT
BRANCH   1   9
HETATM    9  N1  UNL     1       9.489   7.363  18.537  1.00  0.00    -0.348 N 
HETATM   10  C5  UNL     1      10.302   6.851  17.511  1.00  0.00     0.270 C 
HETATM   11  O1  UNL     1      11.080   5.898  17.744  1.00  0.00    -0.266 OA
ATOM     12  H1  UNL     1       8.857   8.140  18.344  1.00  0.00     0.163 HD
BRANCH  10  13
HETATM   13  C4  UNL     1      10.287   7.388  16.144  1.00  0.00     0.124 A 
HETATM   14  C3  UNL     1      11.126   8.350  15.636  1.00  0.00     0.071 A 
HETATM   15  C2  UNL     1      10.739   8.532  14.327  1.00  0.00     0.075 A 
HETATM   16  C1  UNL     1      11.378   9.490  13.383  1.00  0.00     0.079 C 
HETATM   17  O3  UNL     1       9.743   7.732  14.089  1.00  0.00    -0.242 OA
HETATM   18  N3  UNL     1       9.459   7.047  15.146  1.00  0.00    -0.256 N 
ATOM     19  H3  UNL     1       8.716   6.351  15.213  1.00  0.00     0.195 HD
ENDBRANCH  10  13
ENDBRANCH   1   9
BRANCH   8  20
HETATM   20  O2  UNL     1      10.271   8.871  20.709  1.00  0.00    -0.393 OA
ATOM     21  H2  UNL     1      10.698   8.705  19.876  1.00  0.00     0.210 HD
ENDBRANCH   8  20
BRANCH   4  22
HETATM   22  C11 UNL     1       7.106   6.862  22.853  1.00  0.00     0.242 C 
BRANCH  22  23
HETATM   23  N2  UNL     1       6.010   6.092  22.367  1.00  0.00    -0.070 N 
ATOM     24  H22 UNL     1       5.692   6.444  21.464  1.00  0.00     0.277 HD
ATOM     25  H21 UNL     1       6.319   5.160  22.087  1.00  0.00     0.277 HD
BRANCH  23  26
HETATM   26  C12 UNL     1       4.912   6.009  23.298  1.00  0.00     0.186 C 
HETATM   27  C13 UNL     1       5.345   5.500  24.662  1.00  0.00     0.033 C 
HETATM   28  C14 UNL     1       5.632   4.049  24.358  1.00  0.00     0.002 C 
HETATM   29  C15 UNL     1       4.753   3.666  23.202  1.00  0.00     0.002 C 
HETATM   30  C16 UNL     1       3.970   4.907  22.863  1.00  0.00     0.033 C 
ENDBRANCH  23  26
ENDBRANCH  22  23
ENDBRANCH   4  22
TORSDOF 6
ENDMDL
MODEL 5
REMARK VINA RESULT: -6.461199577      3.884      7.855
REMARK  6 active torsions:
REMARK  status: ('A' for Active; 'I' for Inactive)
REMARK    1  A    between atoms: C4_4  and  C5_5 
REMARK       I    between atoms: C5_5  and  N1_7 
REMARK    2  A    between atoms: N1_7  and  C6_9 
REMARK    3  A    between atoms: C9_12  and  C11_14 
REMARK    4  A    between atoms: C11_14  and  N2_15 
REMARK    5  A    between atoms: N2_15  and  C12_18 
REMARK    6  A    between atoms: C19_25  and  O2_26 
ROOT
HETATM    1  C6  UNL     1      11.174   4.552  23.063  1.00  0.00     0.114 C 
HETATM    2  C7  UNL     1       9.838   4.633  23.747  1.00  0.00     0.028 C 
HETATM    3  C8  UNL     1       9.341   6.010  23.951  1.00  0.00     0.013 C 
HETATM    4  C9  UNL     1       9.504   6.970  22.832  1.00  0.00    -0.014 C 
HETATM    5  C10 UNL     1       9.618   8.355  23.435  1.00  0.00     0.017 C 
HETATM    6  C17 UNL     1      10.698   6.733  21.958  1.00  0.00     0.022 C 
HETATM    7  C18 UNL     1      11.970   7.353  22.491  1.00  0.00     0.013 C 
HETATM    8  C19 UNL     1      10.982   5.271  21.722  1.00  0.00     0.145 C 
ENDROOT
BRANCH   1   9
HETATM    9  N1  UNL     1      11.493   3.180  22.806  1.00  0.00    -0.348 N 
HETATM   10  C5  UNL     1      12.196   2.422  23.760  1.00  0.00     0.270 C 
HETATM   11  O1  UNL     1      12.547   2.947  24.841  1.00  0.00    -0.266 OA
ATOM     12  H1  UNL     1      11.209   2.749  21.926  1.00  0.00     0.163 HD
BRANCH  10  13
HETATM   13  C4  UNL     1      12.549   1.012  23.550  1.00  0.00     0.124 A 
HETATM   14  C3  UNL     1      13.252   0.209  24.415  1.00  0.00     0.071 A 
HETATM   15  C2  UNL     1      13.341  -1.019  23.798  1.00  0.00     0.075 A 
HETATM   16  C1  UNL     1      14.025  -2.207  24.378  1.00  0.00     0.079 C 
HETATM   17  O3  UNL     1      12.732  -0.936  22.653  1.00  0.00    -0.242 OA
HETATM   18  N3  UNL     1      12.256   0.252  22.485  1.00  0.00    -0.256 N 
ATOM     19  H3  UNL     1      11.736   0.565  21.665  1.00  0.00     0.195 HD
ENDBRANCH  10  13
ENDBRANCH   1   9
BRANCH   8  20
HETATM   20  O2  UNL     1      12.165   5.166  21.016  1.00  0.00    -0.393 OA
ATOM     21  H2  UNL     1      12.842   5.604  21.519  1.00  0.00     0.210 HD
ENDBRANCH   8  20
BRANCH   4  22
HETATM   22  C11 UNL     1       8.290   6.852  21.906  1.00  0.00     0.242 C 
BRANCH  22  23
HETATM   23  N2  UNL     1       7.064   6.758  22.627  1.00  0.00    -0.070 N 
ATOM     24  H22 UNL     1       7.231   6.459  23.588  1.00  0.00     0.277 HD
ATOM     25  H21 UNL     1       6.675   7.684  22.802  1.00  0.00     0.277 HD
BRANCH  23  26
HETATM   26  C12 UNL     1       6.090   5.906  21.989  1.00  0.00     0.186 C 
HETATM   27  C13 UNL     1       4.736   5.960  22.672  1.00  0.00     0.033 C 
HETATM   28  C14 UNL     1       5.025   5.227  23.960  1.00  0.00     0.002 C 
HETATM   29  C15 UNL     1       6.139   4.263  23.670  1.00  0.00     0.002 C 
HETATM   30  C16 UNL     1       6.471   4.458  22.212  1.00  0.00     0.033 C 
ENDBRANCH  23  26
ENDBRANCH  22  23
ENDBRANCH   4  22
TORSDOF 6
ENDMDL
