MODEL 1
REMARK VINA RESULT: -7.923045305      0.000      0.000
REMARK  7 active torsions:
REMARK  status: ('A' for Active; 'I' for Inactive)
REMARK    1  A    between atoms: C1_2  and  C2_3 
REMARK       I    between atoms: C1_2  and  N4_24 
REMARK    2  A    between atoms: C2_3  and  N1_4 
REMARK       I    between atoms: N1_4  and  C3_5 
REMARK    3  A    between atoms: C3_5  and  C4_7 
REMARK       I    between atoms: C4_7  and  N2_9 
REMARK    4  A    between atoms: N3_13  and  C8_14 
REMARK    5  A    between atoms: C8_14  and  C9_15 
REMARK    6  A    between atoms: C9_15  and  C10_16 
REMARK    7  A    between atoms: N4_24  and  C16_26 
ROOT
HETATM    1  C4  UNL     1      -0.439   0.898  84.869  1.00  0.00     0.326 C 
HETATM    2  O3  UNL     1      -0.610  -0.379  84.759  1.00  0.00    -0.261 OA
HETATM    3  N2  UNL     1      -0.169   1.675  83.738  1.00  0.00    -0.341 N 
HETATM    4  C5  UNL     1       0.141   3.051  83.806  1.00  0.00     0.128 C 
HETATM    5  C6  UNL     1       0.630   3.762  82.619  1.00  0.00     0.050 C 
HETATM    6  C7  UNL     1       0.677   2.989  81.353  1.00  0.00     0.274 C 
HETATM    7  N3  UNL     1       1.660   1.940  81.497  1.00  0.00     0.090 N 
HETATM    8  C14 UNL     1       1.020   0.681  81.832  1.00  0.00     0.292 C 
HETATM    9  C15 UNL     1      -0.294   0.884  82.497  1.00  0.00     0.156 C 
ENDROOT
BRANCH   1  10
HETATM   10  C3  UNL     1      -0.569   1.398  86.276  1.00  0.00     0.379 C 
HETATM   11  N1  UNL     1      -1.425   2.276  86.595  1.00  0.00    -0.398 NA
HETATM   12  O2  UNL     1       0.278   0.838  87.059  1.00  0.00    -0.246 OA
BRANCH  11  13
HETATM   13  C2  UNL     1      -2.423   3.301  86.971  1.00  0.00     0.325 C 
BRANCH  13  14
HETATM   14  C1  UNL     1      -2.422   4.379  85.994  1.00  0.00     0.248 C 
HETATM   15  O1  UNL     1      -2.845   4.137  84.815  1.00  0.00    -0.271 OA
HETATM   16  N4  UNL     1      -1.970   5.675  86.300  1.00  0.00    -0.354 N 
ATOM     17  H4  UNL     1      -1.631   5.867  87.243  1.00  0.00     0.162 HD
BRANCH  16  18
HETATM   18  C16 UNL     1      -1.969   6.742  85.329  1.00  0.00     0.084 A 
HETATM   19  C17 UNL     1      -1.261   7.998  85.886  1.00  0.00     0.027 A 
HETATM   20  C18 UNL     1      -2.707   7.986  85.574  1.00  0.00     0.027 A 
ENDBRANCH  16  18
ENDBRANCH  13  14
ENDBRANCH  11  13
ENDBRANCH   1  10
BRANCH   7  21
HETATM   21  C8  UNL     1       2.529   1.792  80.343  1.00  0.00     0.275 C 
BRANCH  21  22
HETATM   22  C9  UNL     1       3.113   3.160  80.094  1.00  0.00     0.064 C 
BRANCH  22  23
HETATM   23  C10 UNL     1       4.436   3.406  80.735  1.00  0.00     0.146 C 
HETATM   24  C11 UNL     1       4.373   4.659  81.557  1.00  0.00     0.199 C 
HETATM   25  O4  UNL     1       5.634   4.809  82.134  1.00  0.00    -0.387 OA
HETATM   26  C12 UNL     1       6.553   5.106  81.157  1.00  0.00     0.193 C 
HETATM   27  C13 UNL     1       6.304   4.469  79.838  1.00  0.00     0.194 C 
HETATM   28  O5  UNL     1       5.505   3.351  79.878  1.00  0.00    -0.382 OA
ENDBRANCH  22  23
ENDBRANCH  21  22
ENDBRANCH   7  21
TORSDOF 7
ENDMDL
MODEL 2
REMARK VINA RESULT: -7.664021973      1.181      1.541
REMARK  7 active torsions:
REMARK  status: ('A' for Active; 'I' for Inactive)
REMARK    1  A    between atoms: C1_2  and  C2_3 
REMARK       I    between atoms: C1_2  and  N4_24 
REMARK    2  A    between atoms: C2_3  and  N1_4 
REMARK       I    between atoms: N1_4  and  C3_5 
REMARK    3  A    between atoms: C3_5  and  C4_7 
REMARK       I    between atoms: C4_7  and  N2_9 
REMARK    4  A    between atoms: N3_13  and  C8_14 
REMARK    5  A    between atoms: C8_14  and  C9_15 
REMARK    6  A    between atoms: C9_15  and  C10_16 
REMARK    7  A    between atoms: N4_24  and  C16_26 
ROOT
HETATM    1  C4  UNL     1      -0.505   0.681  84.963  1.00  0.00     0.326 C 
HETATM    2  O3  UNL     1      -0.599  -0.594  84.767  1.00  0.00    -0.261 OA
HETATM    3  N2  UNL     1      -0.302   1.549  83.885  1.00  0.00    -0.341 N 
HETATM    4  C5  UNL     1      -0.075   2.934  84.045  1.00  0.00     0.128 C 
HETATM    5  C6  UNL     1       0.350   3.753  82.904  1.00  0.00     0.050 C 
HETATM    6  C7  UNL     1       0.423   3.072  81.587  1.00  0.00     0.274 C 
HETATM    7  N3  UNL     1       1.470   2.079  81.646  1.00  0.00     0.090 N 
HETATM    8  C14 UNL     1       0.914   0.763  81.900  1.00  0.00     0.292 C 
HETATM    9  C15 UNL     1      -0.398   0.838  82.594  1.00  0.00     0.156 C 
ENDROOT
BRANCH   1  10
HETATM   10  C3  UNL     1      -0.642   1.075  86.403  1.00  0.00     0.379 C 
HETATM   11  N1  UNL     1      -1.703   1.602  86.853  1.00  0.00    -0.398 NA
HETATM   12  O2  UNL     1       0.425   0.819  87.068  1.00  0.00    -0.246 OA
BRANCH  11  13
HETATM   13  C2  UNL     1      -2.940   2.217  87.380  1.00  0.00     0.325 C 
BRANCH  13  14
HETATM   14  C1  UNL     1      -2.856   3.666  87.281  1.00  0.00     0.248 C 
HETATM   15  O1  UNL     1      -3.301   4.372  88.246  1.00  0.00    -0.271 OA
HETATM   16  N4  UNL     1      -2.305   4.315  86.163  1.00  0.00    -0.354 N 
ATOM     17  H4  UNL     1      -1.950   3.750  85.391  1.00  0.00     0.162 HD
BRANCH  16  18
HETATM   18  C16 UNL     1      -2.223   5.753  86.067  1.00  0.00     0.084 A 
HETATM   19  C17 UNL     1      -2.160   6.208  84.591  1.00  0.00     0.027 A 
HETATM   20  C18 UNL     1      -1.028   6.407  85.521  1.00  0.00     0.027 A 
ENDBRANCH  16  18
ENDBRANCH  13  14
ENDBRANCH  11  13
ENDBRANCH   1  10
BRANCH   7  21
HETATM   21  C8  UNL     1       2.327   2.064  80.474  1.00  0.00     0.275 C 
BRANCH  21  22
HETATM   22  C9  UNL     1       2.253   3.455  79.896  1.00  0.00     0.064 C 
BRANCH  22  23
HETATM   23  C10 UNL     1       3.418   4.330  80.207  1.00  0.00     0.146 C 
HETATM   24  C11 UNL     1       4.644   3.487  80.402  1.00  0.00     0.199 C 
HETATM   25  O4  UNL     1       5.687   4.375  80.670  1.00  0.00    -0.387 OA
HETATM   26  C12 UNL     1       5.490   4.953  81.900  1.00  0.00     0.193 C 
HETATM   27  C13 UNL     1       4.071   5.189  82.272  1.00  0.00     0.194 C 
HETATM   28  O5  UNL     1       3.197   5.239  81.211  1.00  0.00    -0.382 OA
ENDBRANCH  22  23
ENDBRANCH  21  22
ENDBRANCH   7  21
TORSDOF 7
ENDMDL
MODEL 3
REMARK VINA RESULT: -7.641455842      1.227      1.675
REMARK  7 active torsions:
REMARK  status: ('A' for Active; 'I' for Inactive)
REMARK    1  A    between atoms: C1_2  and  C2_3 
REMARK       I    between atoms: C1_2  and  N4_24 
REMARK    2  A    between atoms: C2_3  and  N1_4 
REMARK       I    between atoms: N1_4  and  C3_5 
REMARK    3  A    between atoms: C3_5  and  C4_7 
REMARK       I    between atoms: C4_7  and  N2_9 
REMARK    4  A    between atoms: N3_13  and  C8_14 
REMARK    5  A    between atoms: C8_14  and  C9_15 
REMARK    6  A    between atoms: C9_15  and  C10_16 
REMARK    7  A    between atoms: N4_24  and  C16_26 
ROOT
HETATM    1  C4  UNL     1      -0.469   0.888  84.837  1.00  0.00     0.326 C 
HETATM    2  O3  UNL     1      -0.600  -0.390  84.688  1.00  0.00    -0.261 OA
HETATM    3  N2  UNL     1      -0.222   1.707  83.730  1.00  0.00    -0.341 N 
HETATM    4  C5  UNL     1       0.045   3.089  83.840  1.00  0.00     0.128 C 
HETATM    5  C6  UNL     1       0.514   3.850  82.675  1.00  0.00     0.050 C 
HETATM    6  C7  UNL     1       0.586   3.117  81.387  1.00  0.00     0.274 C 
HETATM    7  N3  UNL     1       1.601   2.095  81.501  1.00  0.00     0.090 N 
HETATM    8  C14 UNL     1       1.000   0.807  81.797  1.00  0.00     0.292 C 
HETATM    9  C15 UNL     1      -0.320   0.950  82.465  1.00  0.00     0.156 C 
ENDROOT
BRANCH   1  10
HETATM   10  C3  UNL     1      -0.616   1.342  86.257  1.00  0.00     0.379 C 
HETATM   11  N1  UNL     1      -1.461   2.226  86.592  1.00  0.00    -0.398 NA
HETATM   12  O2  UNL     1       0.205   0.738  87.036  1.00  0.00    -0.246 OA
BRANCH  11  13
HETATM   13  C2  UNL     1      -2.445   3.257  86.984  1.00  0.00     0.325 C 
BRANCH  13  14
HETATM   14  C1  UNL     1      -2.453   4.335  86.007  1.00  0.00     0.248 C 
HETATM   15  O1  UNL     1      -2.912   4.100  84.841  1.00  0.00    -0.271 OA
HETATM   16  N4  UNL     1      -1.974   5.624  86.302  1.00  0.00    -0.354 N 
ATOM     17  H4  UNL     1      -1.606   5.811  87.235  1.00  0.00     0.162 HD
BRANCH  16  18
HETATM   18  C16 UNL     1      -1.983   6.691  85.331  1.00  0.00     0.084 A 
HETATM   19  C17 UNL     1      -1.231   7.932  85.864  1.00  0.00     0.027 A 
HETATM   20  C18 UNL     1      -2.686   7.951  85.600  1.00  0.00     0.027 A 
ENDBRANCH  16  18
ENDBRANCH  13  14
ENDBRANCH  11  13
ENDBRANCH   1  10
BRANCH   7  21
HETATM   21  C8  UNL     1       2.475   2.008  80.346  1.00  0.00     0.275 C 
BRANCH  21  22
HETATM   22  C9  UNL     1       3.604   2.971  80.615  1.00  0.00     0.064 C 
BRANCH  22  23
HETATM   23  C10 UNL     1       3.859   3.961  79.531  1.00  0.00     0.146 C 
HETATM   24  C11 UNL     1       2.740   3.916  78.533  1.00  0.00     0.199 C 
HETATM   25  O4  UNL     1       3.042   4.877  77.567  1.00  0.00    -0.387 OA
HETATM   26  C12 UNL     1       4.139   4.472  76.845  1.00  0.00     0.193 C 
HETATM   27  C13 UNL     1       5.154   3.704  77.612  1.00  0.00     0.194 C 
HETATM   28  O5  UNL     1       5.110   3.889  78.974  1.00  0.00    -0.382 OA
ENDBRANCH  22  23
ENDBRANCH  21  22
ENDBRANCH   7  21
TORSDOF 7
ENDMDL
MODEL 4
REMARK VINA RESULT: -7.421909133      2.282      3.386
REMARK  7 active torsions:
REMARK  status: ('A' for Active; 'I' for Inactive)
REMARK    1  A    between atoms: C1_2  and  C2_3 
REMARK       I    between atoms: C1_2  and  N4_24 
REMARK    2  A    between atoms: C2_3  and  N1_4 
REMARK       I    between atoms: N1_4  and  C3_5 
REMARK    3  A    between atoms: C3_5  and  C4_7 
REMARK       I    between atoms: C4_7  and  N2_9 
REMARK    4  A    between atoms: N3_13  and  C8_14 
REMARK    5  A    between atoms: C8_14  and  C9_15 
REMARK    6  A    between atoms: C9_15  and  C10_16 
REMARK    7  A    between atoms: N4_24  and  C16_26 
ROOT
HETATM    1  C4  UNL     1      -0.456   1.659  82.045  1.00  0.00     0.326 C 
HETATM    2  O3  UNL     1      -1.581   1.896  81.453  1.00  0.00    -0.261 OA
HETATM    3  N2  UNL     1       0.601   2.571  81.944  1.00  0.00    -0.341 N 
HETATM    4  C5  UNL     1       1.887   2.318  82.469  1.00  0.00     0.128 C 
HETATM    5  C6  UNL     1       3.009   3.206  82.143  1.00  0.00     0.050 C 
HETATM    6  C7  UNL     1       2.692   4.411  81.337  1.00  0.00     0.274 C 
HETATM    7  N3  UNL     1       2.264   3.980  80.025  1.00  0.00     0.090 N 
HETATM    8  C14 UNL     1       0.816   3.971  79.937  1.00  0.00     0.292 C 
HETATM    9  C15 UNL     1       0.178   3.815  81.271  1.00  0.00     0.156 C 
ENDROOT
BRANCH   1  10
HETATM   10  C3  UNL     1      -0.441   0.369  82.807  1.00  0.00     0.379 C 
HETATM   11  N1  UNL     1      -0.474   0.342  84.074  1.00  0.00    -0.398 NA
HETATM   12  O2  UNL     1      -0.384  -0.644  82.023  1.00  0.00    -0.246 OA
BRANCH  11  13
HETATM   13  C2  UNL     1      -0.512   0.307  85.552  1.00  0.00     0.325 C 
BRANCH  13  14
HETATM   14  C1  UNL     1      -0.046   1.575  86.091  1.00  0.00     0.248 C 
HETATM   15  O1  UNL     1       0.484   1.589  87.251  1.00  0.00    -0.271 OA
HETATM   16  N4  UNL     1      -0.159   2.784  85.383  1.00  0.00    -0.354 N 
ATOM     17  H4  UNL     1      -0.584   2.772  84.455  1.00  0.00     0.162 HD
BRANCH  16  18
HETATM   18  C16 UNL     1       0.303   4.041  85.920  1.00  0.00     0.084 A 
HETATM   19  C17 UNL     1      -0.059   5.213  84.980  1.00  0.00     0.027 A 
HETATM   20  C18 UNL     1       1.343   4.817  85.236  1.00  0.00     0.027 A 
ENDBRANCH  16  18
ENDBRANCH  13  14
ENDBRANCH  11  13
ENDBRANCH   1  10
BRANCH   7  21
HETATM   21  C8  UNL     1       2.847   4.748  78.940  1.00  0.00     0.275 C 
BRANCH  21  22
HETATM   22  C9  UNL     1       4.254   5.072  79.378  1.00  0.00     0.064 C 
BRANCH  22  23
HETATM   23  C10 UNL     1       5.283   4.071  78.978  1.00  0.00     0.146 C 
HETATM   24  C11 UNL     1       6.436   4.123  79.937  1.00  0.00     0.199 C 
HETATM   25  O4  UNL     1       7.342   3.152  79.508  1.00  0.00    -0.387 OA
HETATM   26  C12 UNL     1       7.896   3.539  78.313  1.00  0.00     0.193 C 
HETATM   27  C13 UNL     1       6.992   4.300  77.411  1.00  0.00     0.194 C 
HETATM   28  O5  UNL     1       5.650   4.126  77.658  1.00  0.00    -0.382 OA
ENDBRANCH  22  23
ENDBRANCH  21  22
ENDBRANCH   7  21
TORSDOF 7
ENDMDL
MODEL 5
REMARK VINA RESULT: -7.350777678      2.323      3.928
REMARK  7 active torsions:
REMARK  status: ('A' for Active; 'I' for Inactive)
REMARK    1  A    between atoms: C1_2  and  C2_3 
REMARK       I    between atoms: C1_2  and  N4_24 
REMARK    2  A    between atoms: C2_3  and  N1_4 
REMARK       I    between atoms: N1_4  and  C3_5 
REMARK    3  A    between atoms: C3_5  and  C4_7 
REMARK       I    between atoms: C4_7  and  N2_9 
REMARK    4  A    between atoms: N3_13  and  C8_14 
REMARK    5  A    between atoms: C8_14  and  C9_15 
REMARK    6  A    between atoms: C9_15  and  C10_16 
REMARK    7  A    between atoms: N4_24  and  C16_26 
ROOT
HETATM    1  C4  UNL     1       0.458   1.784  81.594  1.00  0.00     0.326 C 
HETATM    2  O3  UNL     1       0.769   0.798  80.817  1.00  0.00    -0.261 OA
HETATM    3  N2  UNL     1       1.135   3.004  81.492  1.00  0.00    -0.341 N 
HETATM    4  C5  UNL     1       0.924   4.077  82.386  1.00  0.00     0.128 C 
HETATM    5  C6  UNL     1       1.814   5.244  82.368  1.00  0.00     0.050 C 
HETATM    6  C7  UNL     1       2.855   5.270  81.311  1.00  0.00     0.274 C 
HETATM    7  N3  UNL     1       3.784   4.193  81.561  1.00  0.00     0.090 N 
HETATM    8  C14 UNL     1       3.470   3.044  80.732  1.00  0.00     0.292 C 
HETATM    9  C15 UNL     1       2.041   3.024  80.326  1.00  0.00     0.156 C 
ENDROOT
BRANCH   1  10
HETATM   10  C3  UNL     1      -0.653   1.466  82.548  1.00  0.00     0.379 C 
HETATM   11  N1  UNL     1      -0.458   0.776  83.593  1.00  0.00    -0.398 NA
HETATM   12  O2  UNL     1      -1.769   1.965  82.160  1.00  0.00    -0.246 OA
BRANCH  11  13
HETATM   13  C2  UNL     1      -0.234  -0.029  84.813  1.00  0.00     0.325 C 
BRANCH  13  14
HETATM   14  C1  UNL     1      -0.471   0.783  85.997  1.00  0.00     0.248 C 
HETATM   15  O1  UNL     1       0.331   0.677  86.983  1.00  0.00    -0.271 OA
HETATM   16  N4  UNL     1      -1.550   1.679  86.093  1.00  0.00    -0.354 N 
ATOM     17  H4  UNL     1      -2.192   1.763  85.304  1.00  0.00     0.162 HD
BRANCH  16  18
HETATM   18  C16 UNL     1      -1.784   2.484  87.268  1.00  0.00     0.084 A 
HETATM   19  C17 UNL     1      -3.111   2.091  87.955  1.00  0.00     0.027 A 
HETATM   20  C18 UNL     1      -2.913   3.417  87.332  1.00  0.00     0.027 A 
ENDBRANCH  16  18
ENDBRANCH  13  14
ENDBRANCH  11  13
ENDBRANCH   1  10
BRANCH   7  21
HETATM   21  C8  UNL     1       5.177   4.576  81.414  1.00  0.00     0.275 C 
BRANCH  21  22
HETATM   22  C9  UNL     1       5.728   3.701  80.317  1.00  0.00     0.064 C 
BRANCH  22  23
HETATM   23  C10 UNL     1       7.006   4.176  79.715  1.00  0.00     0.146 C 
HETATM   24  C11 UNL     1       6.727   5.304  78.766  1.00  0.00     0.199 C 
HETATM   25  O4  UNL     1       7.966   5.702  78.261  1.00  0.00    -0.387 OA
HETATM   26  C12 UNL     1       8.469   4.713  77.452  1.00  0.00     0.193 C 
HETATM   27  C13 UNL     1       8.138   3.325  77.866  1.00  0.00     0.194 C 
HETATM   28  O5  UNL     1       7.793   3.184  79.189  1.00  0.00    -0.382 OA
ENDBRANCH  22  23
ENDBRANCH  21  22
ENDBRANCH   7  21
TORSDOF 7
ENDMDL
