MODEL 1
REMARK VINA RESULT: -10.309364677      0.000      0.000
REMARK  5 active torsions:
REMARK  status: ('A' for Active; 'I' for Inactive)
REMARK    1  A    between atoms: C2_2  and  C4_4 
REMARK    2  A    between atoms: C4_4  and  C5_5 
REMARK    3  A    between atoms: C5_5  and  C6_6 
REMARK    4  A    between atoms: C6_6  and  O1_7 
REMARK    5  A    between atoms: C6_6  and  C7_9 
ROOT
HETATM    1  C7  UNL     1      64.655  46.642  28.875  1.00  0.00     0.015 C 
HETATM    2  C8  UNL     1      65.016  47.866  29.636  1.00  0.00     0.007 C 
HETATM    3  C9  UNL     1      64.921  47.709  31.141  1.00  0.00     0.006 C 
HETATM    4  C10 UNL     1      65.587  46.520  31.683  1.00  0.00    -0.002 C 
HETATM    5  C11 UNL     1      66.133  45.648  30.540  1.00  0.00    -0.009 C 
HETATM    6  C12 UNL     1      66.757  44.393  31.034  1.00  0.00     0.005 C 
HETATM    7  C13 UNL     1      66.757  44.195  32.494  1.00  0.00     0.006 C 
HETATM    8  C14 UNL     1      66.970  45.421  33.338  1.00  0.00    -0.006 C 
HETATM    9  C15 UNL     1      66.185  45.195  34.587  1.00  0.00     0.005 C 
HETATM   10  C16 UNL     1      66.061  46.350  35.508  1.00  0.00     0.000 C 
HETATM   11  C17 UNL     1      65.435  47.483  34.676  1.00  0.00     0.001 C 
HETATM   12  C18 UNL     1      66.489  47.816  33.653  1.00  0.00     0.010 C 
HETATM   13  C19 UNL     1      66.699  46.715  32.639  1.00  0.00    -0.036 C 
HETATM   14  C20 UNL     1      67.955  47.178  31.879  1.00  0.00     0.016 C 
HETATM   15  C21 UNL     1      64.963  45.363  29.622  1.00  0.00     0.012 C 
ENDROOT
BRANCH   1  16
HETATM   16  C6  UNL     1      63.219  46.578  28.449  1.00  0.00     0.122 C 
BRANCH  16  17
HETATM   17  C5  UNL     1      62.246  47.079  29.462  1.00  0.00     0.032 C 
BRANCH  17  18
HETATM   18  C4  UNL     1      60.940  47.520  28.864  1.00  0.00     0.006 C 
BRANCH  18  19
HETATM   19  C2  UNL     1      59.863  46.468  29.057  1.00  0.00    -0.023 C 
HETATM   20  C1  UNL     1      58.547  46.875  28.450  1.00  0.00     0.009 C 
HETATM   21  C3  UNL     1      59.658  46.124  30.497  1.00  0.00     0.009 C 
ENDBRANCH  18  19
ENDBRANCH  17  18
ENDBRANCH  16  17
BRANCH  16  22
HETATM   22  O1  UNL     1      63.106  47.430  27.322  1.00  0.00    -0.395 OA
ATOM     23  H1  UNL     1      62.474  47.027  26.739  1.00  0.00     0.210 HD
ENDBRANCH  16  22
ENDBRANCH   1  16
TORSDOF 5
ENDMDL
MODEL 2
REMARK VINA RESULT: -10.100241628      1.776      2.295
REMARK  5 active torsions:
REMARK  status: ('A' for Active; 'I' for Inactive)
REMARK    1  A    between atoms: C2_2  and  C4_4 
REMARK    2  A    between atoms: C4_4  and  C5_5 
REMARK    3  A    between atoms: C5_5  and  C6_6 
REMARK    4  A    between atoms: C6_6  and  O1_7 
REMARK    5  A    between atoms: C6_6  and  C7_9 
ROOT
HETATM    1  C7  UNL     1      65.516  45.589  29.446  1.00  0.00     0.015 C 
HETATM    2  C8  UNL     1      65.766  47.004  29.826  1.00  0.00     0.007 C 
HETATM    3  C9  UNL     1      65.391  47.336  31.257  1.00  0.00     0.006 C 
HETATM    4  C10 UNL     1      65.909  46.405  32.265  1.00  0.00    -0.002 C 
HETATM    5  C11 UNL     1      66.631  45.230  31.583  1.00  0.00    -0.009 C 
HETATM    6  C12 UNL     1      67.115  44.220  32.560  1.00  0.00     0.005 C 
HETATM    7  C13 UNL     1      66.840  44.501  33.980  1.00  0.00     0.006 C 
HETATM    8  C14 UNL     1      66.931  45.939  34.410  1.00  0.00    -0.006 C 
HETATM    9  C15 UNL     1      65.922  46.102  35.498  1.00  0.00     0.005 C 
HETATM   10  C16 UNL     1      65.664  47.487  35.960  1.00  0.00     0.000 C 
HETATM   11  C17 UNL     1      65.237  48.272  34.708  1.00  0.00     0.001 C 
HETATM   12  C18 UNL     1      66.471  48.292  33.845  1.00  0.00     0.010 C 
HETATM   13  C19 UNL     1      66.831  46.932  33.295  1.00  0.00    -0.036 C 
HETATM   14  C20 UNL     1      68.219  47.166  32.672  1.00  0.00     0.016 C 
HETATM   15  C21 UNL     1      65.643  44.628  30.607  1.00  0.00     0.012 C 
ENDROOT
BRANCH   1  16
HETATM   16  C6  UNL     1      64.181  45.347  28.805  1.00  0.00     0.122 C 
BRANCH  16  17
HETATM   17  C5  UNL     1      63.315  46.556  28.694  1.00  0.00     0.032 C 
BRANCH  17  18
HETATM   18  C4  UNL     1      63.370  47.202  27.339  1.00  0.00     0.006 C 
BRANCH  18  19
HETATM   19  C2  UNL     1      63.022  48.678  27.419  1.00  0.00    -0.023 C 
HETATM   20  C1  UNL     1      64.234  49.541  27.642  1.00  0.00     0.009 C 
HETATM   21  C3  UNL     1      62.009  48.966  28.479  1.00  0.00     0.009 C 
ENDBRANCH  18  19
ENDBRANCH  17  18
ENDBRANCH  16  17
BRANCH  16  22
HETATM   22  O1  UNL     1      64.453  44.920  27.482  1.00  0.00    -0.395 OA
ATOM     23  H1  UNL     1      63.809  44.253  27.274  1.00  0.00     0.210 HD
ENDBRANCH  16  22
ENDBRANCH   1  16
TORSDOF 5
ENDMDL
MODEL 3
REMARK VINA RESULT: -9.923546200      1.269      1.764
REMARK  5 active torsions:
REMARK  status: ('A' for Active; 'I' for Inactive)
REMARK    1  A    between atoms: C2_2  and  C4_4 
REMARK    2  A    between atoms: C4_4  and  C5_5 
REMARK    3  A    between atoms: C5_5  and  C6_6 
REMARK    4  A    between atoms: C6_6  and  O1_7 
REMARK    5  A    between atoms: C6_6  and  C7_9 
ROOT
HETATM    1  C7  UNL     1      65.496  46.013  29.299  1.00  0.00     0.015 C 
HETATM    2  C8  UNL     1      65.695  47.381  29.845  1.00  0.00     0.007 C 
HETATM    3  C9  UNL     1      65.325  47.523  31.308  1.00  0.00     0.006 C 
HETATM    4  C10 UNL     1      65.891  46.500  32.193  1.00  0.00    -0.002 C 
HETATM    5  C11 UNL     1      66.650  45.446  31.369  1.00  0.00    -0.009 C 
HETATM    6  C12 UNL     1      67.185  44.346  32.214  1.00  0.00     0.005 C 
HETATM    7  C13 UNL     1      66.917  44.444  33.660  1.00  0.00     0.006 C 
HETATM    8  C14 UNL     1      66.956  45.823  34.258  1.00  0.00    -0.006 C 
HETATM    9  C15 UNL     1      65.955  45.813  35.366  1.00  0.00     0.005 C 
HETATM   10  C16 UNL     1      65.648  47.121  35.992  1.00  0.00     0.000 C 
HETATM   11  C17 UNL     1      65.175  48.032  34.848  1.00  0.00     0.001 C 
HETATM   12  C18 UNL     1      66.397  48.206  33.984  1.00  0.00     0.010 C 
HETATM   13  C19 UNL     1      66.804  46.937  33.272  1.00  0.00    -0.036 C 
HETATM   14  C20 UNL     1      68.175  47.300  32.672  1.00  0.00     0.016 C 
HETATM   15  C21 UNL     1      65.674  44.926  30.335  1.00  0.00     0.012 C 
ENDROOT
BRANCH   1  16
HETATM   16  C6  UNL     1      64.164  45.795  28.644  1.00  0.00     0.122 C 
BRANCH  16  17
HETATM   17  C5  UNL     1      63.988  46.504  27.344  1.00  0.00     0.032 C 
BRANCH  17  18
HETATM   18  C4  UNL     1      62.765  47.377  27.305  1.00  0.00     0.006 C 
BRANCH  18  19
HETATM   19  C2  UNL     1      62.196  47.590  28.696  1.00  0.00    -0.023 C 
HETATM   20  C1  UNL     1      60.717  47.320  28.758  1.00  0.00     0.009 C 
HETATM   21  C3  UNL     1      62.471  48.963  29.217  1.00  0.00     0.009 C 
ENDBRANCH  18  19
ENDBRANCH  17  18
ENDBRANCH  16  17
BRANCH  16  22
HETATM   22  O1  UNL     1      64.087  44.409  28.364  1.00  0.00    -0.395 OA
ATOM     23  H1  UNL     1      63.668  44.003  29.114  1.00  0.00     0.210 HD
ENDBRANCH  16  22
ENDBRANCH   1  16
TORSDOF 5
ENDMDL
MODEL 4
REMARK VINA RESULT: -9.685404702      0.947      1.019
REMARK  5 active torsions:
REMARK  status: ('A' for Active; 'I' for Inactive)
REMARK    1  A    between atoms: C2_2  and  C4_4 
REMARK    2  A    between atoms: C4_4  and  C5_5 
REMARK    3  A    between atoms: C5_5  and  C6_6 
REMARK    4  A    between atoms: C6_6  and  O1_7 
REMARK    5  A    between atoms: C6_6  and  C7_9 
ROOT
HETATM    1  C7  UNL     1      63.994  47.311  28.667  1.00  0.00     0.015 C 
HETATM    2  C8  UNL     1      64.629  48.352  29.515  1.00  0.00     0.007 C 
HETATM    3  C9  UNL     1      64.722  47.984  30.983  1.00  0.00     0.006 C 
HETATM    4  C10 UNL     1      65.276  46.654  31.254  1.00  0.00    -0.002 C 
HETATM    5  C11 UNL     1      65.527  45.903  29.935  1.00  0.00    -0.009 C 
HETATM    6  C12 UNL     1      66.025  44.520  30.156  1.00  0.00     0.005 C 
HETATM    7  C13 UNL     1      66.198  44.106  31.560  1.00  0.00     0.006 C 
HETATM    8  C14 UNL     1      66.701  45.156  32.512  1.00  0.00    -0.006 C 
HETATM    9  C15 UNL     1      66.072  44.843  33.830  1.00  0.00     0.005 C 
HETATM   10  C16 UNL     1      66.244  45.853  34.901  1.00  0.00     0.000 C 
HETATM   11  C17 UNL     1      65.680  47.166  34.333  1.00  0.00     0.001 C 
HETATM   12  C18 UNL     1      66.620  47.517  33.209  1.00  0.00     0.010 C 
HETATM   13  C19 UNL     1      66.526  46.564  32.040  1.00  0.00    -0.036 C 
HETATM   14  C20 UNL     1      67.720  46.977  31.159  1.00  0.00     0.016 C 
HETATM   15  C21 UNL     1      64.213  45.906  29.183  1.00  0.00     0.012 C 
ENDROOT
BRANCH   1  16
HETATM   16  C6  UNL     1      62.518  47.491  28.467  1.00  0.00     0.122 C 
BRANCH  16  17
HETATM   17  C5  UNL     1      61.663  46.724  29.419  1.00  0.00     0.032 C 
BRANCH  17  18
HETATM   18  C4  UNL     1      60.212  46.704  29.029  1.00  0.00     0.006 C 
BRANCH  18  19
HETATM   19  C2  UNL     1      59.396  45.855  29.987  1.00  0.00    -0.023 C 
HETATM   20  C1  UNL     1      57.915  46.052  29.809  1.00  0.00     0.009 C 
HETATM   21  C3  UNL     1      59.760  46.103  31.415  1.00  0.00     0.009 C 
ENDBRANCH  18  19
ENDBRANCH  17  18
ENDBRANCH  16  17
BRANCH  16  22
HETATM   22  O1  UNL     1      62.255  48.863  28.700  1.00  0.00    -0.395 OA
ATOM     23  H1  UNL     1      62.691  49.345  28.007  1.00  0.00     0.210 HD
ENDBRANCH  16  22
ENDBRANCH   1  16
TORSDOF 5
ENDMDL
MODEL 5
REMARK VINA RESULT: -8.602976681      1.490      2.542
REMARK  5 active torsions:
REMARK  status: ('A' for Active; 'I' for Inactive)
REMARK    1  A    between atoms: C2_2  and  C4_4 
REMARK    2  A    between atoms: C4_4  and  C5_5 
REMARK    3  A    between atoms: C5_5  and  C6_6 
REMARK    4  A    between atoms: C6_6  and  O1_7 
REMARK    5  A    between atoms: C6_6  and  C7_9 
ROOT
HETATM    1  C7  UNL     1      62.118  47.233  28.981  1.00  0.00     0.015 C 
HETATM    2  C8  UNL     1      62.879  48.246  29.758  1.00  0.00     0.007 C 
HETATM    3  C9  UNL     1      63.596  47.686  30.970  1.00  0.00     0.006 C 
HETATM    4  C10 UNL     1      64.398  46.485  30.715  1.00  0.00    -0.002 C 
HETATM    5  C11 UNL     1      64.213  46.020  29.260  1.00  0.00    -0.009 C 
HETATM    6  C12 UNL     1      64.952  44.764  28.969  1.00  0.00     0.005 C 
HETATM    7  C13 UNL     1      65.724  44.187  30.084  1.00  0.00     0.006 C 
HETATM    8  C14 UNL     1      66.405  45.163  31.004  1.00  0.00    -0.006 C 
HETATM    9  C15 UNL     1      66.400  44.520  32.352  1.00  0.00     0.005 C 
HETATM   10  C16 UNL     1      66.833  45.366  33.489  1.00  0.00     0.000 C 
HETATM   11  C17 UNL     1      65.908  46.593  33.475  1.00  0.00     0.001 C 
HETATM   12  C18 UNL     1      66.266  47.311  32.200  1.00  0.00     0.010 C 
HETATM   13  C19 UNL     1      65.856  46.553  30.959  1.00  0.00    -0.036 C 
HETATM   14  C20 UNL     1      66.531  47.350  29.827  1.00  0.00     0.016 C 
HETATM   15  C21 UNL     1      62.724  45.849  29.051  1.00  0.00     0.012 C 
ENDROOT
BRANCH   1  16
HETATM   16  C6  UNL     1      60.674  47.111  29.370  1.00  0.00     0.122 C 
BRANCH  16  17
HETATM   17  C5  UNL     1      59.708  47.546  28.320  1.00  0.00     0.032 C 
BRANCH  17  18
HETATM   18  C4  UNL     1      58.440  46.741  28.309  1.00  0.00     0.006 C 
BRANCH  18  19
HETATM   19  C2  UNL     1      57.414  47.317  29.268  1.00  0.00    -0.023 C 
HETATM   20  C1  UNL     1      56.585  46.250  29.931  1.00  0.00     0.009 C 
HETATM   21  C3  UNL     1      56.510  48.305  28.604  1.00  0.00     0.009 C 
ENDBRANCH  18  19
ENDBRANCH  17  18
ENDBRANCH  16  17
BRANCH  16  22
HETATM   22  O1  UNL     1      60.441  45.731  29.588  1.00  0.00    -0.395 OA
ATOM     23  H1  UNL     1      61.251  45.282  29.375  1.00  0.00     0.210 HD
ENDBRANCH  16  22
ENDBRANCH   1  16
TORSDOF 5
ENDMDL
