MODEL 1
REMARK VINA RESULT: -8.933821695      0.000      0.000
REMARK  8 active torsions:
REMARK  status: ('A' for Active; 'I' for Inactive)
REMARK    1  A    between atoms: C7_7  and  N1_8 
REMARK    2  A    between atoms: C12_14  and  N2_15 
REMARK    3  A    between atoms: C15_18  and  C16_19 
REMARK    4  A    between atoms: C16_19  and  N3_20 
REMARK    5  A    between atoms: N3_20  and  C17_23 
REMARK    6  A    between atoms: C17_23  and  C18_24 
REMARK    7  A    between atoms: C18_24  and  N4_25 
REMARK    8  A    between atoms: C20_30  and  C22_32 
ROOT
HETATM    1  N2  UNL     1      12.764  21.626   6.167  1.00  0.00    -0.391 N 
HETATM    2  C13 UNL     1      13.138  20.324   5.747  1.00  0.00     0.119 C 
HETATM    3  C14 UNL     1      14.526  19.878   6.027  1.00  0.00     0.026 C 
HETATM    4  C15 UNL     1      15.174  20.473   7.235  1.00  0.00     0.023 C 
HETATM    5  C20 UNL     1      14.861  21.952   7.239  1.00  0.00    -0.010 C 
HETATM    6  C21 UNL     1      15.338  22.525   5.928  1.00  0.00     0.018 C 
HETATM    7  C23 UNL     1      13.330  22.027   7.362  1.00  0.00     0.129 C 
ENDROOT
BRANCH   1   8
HETATM    8  C12 UNL     1      11.529  22.082   5.704  1.00  0.00     0.184 C 
HETATM    9  N1  UNL     1      11.351  23.491   5.489  1.00  0.00    -0.326 N 
HETATM   10  C8  UNL     1      11.958  24.032   4.337  1.00  0.00     0.221 C 
HETATM   11  O1  UNL     1      12.385  25.189   4.294  1.00  0.00    -0.273 OA
HETATM   12  C9  UNL     1      12.090  23.163   3.098  1.00  0.00     0.103 C 
HETATM   13  C10 UNL     1      11.168  21.998   3.193  1.00  0.00     0.013 C 
HETATM   14  C11 UNL     1      11.037  21.331   4.512  1.00  0.00     0.047 C 
BRANCH   9  15
HETATM   15  C7  UNL     1      10.583  24.326   6.370  1.00  0.00     0.090 C 
HETATM   16  C6  UNL     1       9.403  23.607   6.924  1.00  0.00     0.030 C 
HETATM   17  C5  UNL     1       8.722  24.383   8.038  1.00  0.00    -0.011 C 
HETATM   18  C4  UNL     1       8.206  25.715   7.595  1.00  0.00     0.013 C 
HETATM   19  C27 UNL     1       9.776  24.488   9.126  1.00  0.00     0.014 C 
HETATM   20  C2  UNL     1       8.747  26.877   8.387  1.00  0.00    -0.047 C 
HETATM   21  C1  UNL     1       8.369  28.147   7.620  1.00  0.00     0.015 C 
HETATM   22  C3  UNL     1       8.086  26.999   9.739  1.00  0.00     0.015 C 
HETATM   23  C28 UNL     1      10.242  26.860   8.485  1.00  0.00     0.018 C 
HETATM   24  C25 UNL     1      10.795  25.460   8.628  1.00  0.00    -0.041 C 
HETATM   25  C24 UNL     1      11.432  25.045   7.363  1.00  0.00     0.034 C 
HETATM   26  C26 UNL     1      11.885  25.534   9.708  1.00  0.00     0.015 C 
ENDBRANCH   9  15
ENDBRANCH   1   8
BRANCH   5  27
HETATM   27  C22 UNL     1      15.525  22.706   8.353  1.00  0.00     0.126 C 
HETATM   28 CL1  UNL     1      15.639  21.797   9.853  1.00  0.00    -0.130 Cl
ENDBRANCH   5  27
BRANCH   4  29
HETATM   29  C16 UNL     1      16.646  20.235   7.253  1.00  0.00     0.237 C 
BRANCH  29  30
HETATM   30  N3  UNL     1      17.017  18.963   6.659  1.00  0.00    -0.073 N 
ATOM     31  H32 UNL     1      17.222  18.244   7.353  1.00  0.00     0.277 HD
ATOM     32  H31 UNL     1      16.234  18.492   6.207  1.00  0.00     0.277 HD
BRANCH  30  33
HETATM   33  C17 UNL     1      18.128  19.210   5.755  1.00  0.00     0.251 C 
BRANCH  33  34
HETATM   34  C18 UNL     1      17.984  18.446   4.466  1.00  0.00     0.149 C 
BRANCH  34  35
HETATM   35  N4  UNL     1      16.897  18.927   3.639  1.00  0.00    -0.365 N 
HETATM   36  C19 UNL     1      16.728  18.487   2.425  1.00  0.00     0.197 C 
HETATM   37  N5  UNL     1      17.641  17.520   1.927  1.00  0.00    -0.067 NA
HETATM   38  N6  UNL     1      15.671  18.942   1.599  1.00  0.00    -0.067 NA
ATOM     39  H4  UNL     1      16.252  19.622   4.014  1.00  0.00     0.161 HD
ENDBRANCH  34  35
ENDBRANCH  33  34
ENDBRANCH  30  33
ENDBRANCH  29  30
ENDBRANCH   4  29
TORSDOF 8
ENDMDL
MODEL 2
REMARK VINA RESULT: -8.804461361      2.719      4.550
REMARK  8 active torsions:
REMARK  status: ('A' for Active; 'I' for Inactive)
REMARK    1  A    between atoms: C7_7  and  N1_8 
REMARK    2  A    between atoms: C12_14  and  N2_15 
REMARK    3  A    between atoms: C15_18  and  C16_19 
REMARK    4  A    between atoms: C16_19  and  N3_20 
REMARK    5  A    between atoms: N3_20  and  C17_23 
REMARK    6  A    between atoms: C17_23  and  C18_24 
REMARK    7  A    between atoms: C18_24  and  N4_25 
REMARK    8  A    between atoms: C20_30  and  C22_32 
ROOT
HETATM    1  N2  UNL     1      12.598  23.856   6.628  1.00  0.00    -0.391 N 
HETATM    2  C13 UNL     1      13.488  23.971   7.726  1.00  0.00     0.119 C 
HETATM    3  C14 UNL     1      14.453  22.866   7.955  1.00  0.00     0.026 C 
HETATM    4  C15 UNL     1      14.881  22.108   6.740  1.00  0.00     0.023 C 
HETATM    5  C20 UNL     1      13.647  21.848   5.906  1.00  0.00    -0.010 C 
HETATM    6  C21 UNL     1      12.651  21.124   6.775  1.00  0.00     0.018 C 
HETATM    7  C23 UNL     1      13.140  23.245   5.513  1.00  0.00     0.129 C 
ENDROOT
BRANCH   1   8
HETATM    8  C12 UNL     1      11.577  24.805   6.571  1.00  0.00     0.184 C 
HETATM    9  N1  UNL     1      10.217  24.365   6.704  1.00  0.00    -0.326 N 
HETATM   10  C8  UNL     1       9.793  24.020   8.004  1.00  0.00     0.221 C 
HETATM   11  O1  UNL     1       8.948  23.145   8.216  1.00  0.00    -0.273 OA
HETATM   12  C9  UNL     1      10.394  24.752   9.192  1.00  0.00     0.103 C 
HETATM   13  C10 UNL     1      11.041  26.012   8.739  1.00  0.00     0.013 C 
HETATM   14  C11 UNL     1      11.812  25.972   7.471  1.00  0.00     0.047 C 
BRANCH   9  15
HETATM   15  C7  UNL     1       9.306  24.291   5.596  1.00  0.00     0.090 C 
HETATM   16  C6  UNL     1       8.960  25.640   5.073  1.00  0.00     0.030 C 
HETATM   17  C5  UNL     1       8.201  25.577   3.759  1.00  0.00    -0.011 C 
HETATM   18  C4  UNL     1       6.901  24.845   3.867  1.00  0.00     0.013 C 
HETATM   19  C27 UNL     1       9.173  24.922   2.793  1.00  0.00     0.014 C 
HETATM   20  C2  UNL     1       6.773  23.679   2.920  1.00  0.00    -0.047 C 
HETATM   21  C1  UNL     1       5.550  22.878   3.370  1.00  0.00     0.015 C 
HETATM   22  C3  UNL     1       6.479  24.124   1.508  1.00  0.00     0.015 C 
HETATM   23  C28 UNL     1       7.947  22.750   2.990  1.00  0.00     0.018 C 
HETATM   24  C25 UNL     1       9.254  23.485   3.192  1.00  0.00    -0.041 C 
HETATM   25  C24 UNL     1       9.727  23.287   4.575  1.00  0.00     0.034 C 
HETATM   26  C26 UNL     1      10.269  22.830   2.243  1.00  0.00     0.015 C 
ENDBRANCH   9  15
ENDBRANCH   1   8
BRANCH   5  27
HETATM   27  C22 UNL     1      13.908  21.011   4.689  1.00  0.00     0.126 C 
HETATM   28 CL1  UNL     1      12.459  20.618   3.776  1.00  0.00    -0.130 Cl
ENDBRANCH   5  27
BRANCH   4  29
HETATM   29  C16 UNL     1      15.571  20.833   7.092  1.00  0.00     0.237 C 
BRANCH  29  30
HETATM   30  N3  UNL     1      16.954  20.804   6.652  1.00  0.00    -0.073 N 
ATOM     31  H32 UNL     1      17.122  21.382   5.828  1.00  0.00     0.277 HD
ATOM     32  H31 UNL     1      17.584  21.292   7.288  1.00  0.00     0.277 HD
BRANCH  30  33
HETATM   33  C17 UNL     1      17.319  19.412   6.450  1.00  0.00     0.251 C 
BRANCH  33  34
HETATM   34  C18 UNL     1      17.859  19.167   5.066  1.00  0.00     0.149 C 
BRANCH  34  35
HETATM   35  N4  UNL     1      16.827  19.130   4.052  1.00  0.00    -0.365 N 
HETATM   36  C19 UNL     1      17.046  18.592   2.887  1.00  0.00     0.197 C 
HETATM   37  N5  UNL     1      18.328  18.039   2.632  1.00  0.00    -0.067 NA
HETATM   38  N6  UNL     1      16.050  18.544   1.880  1.00  0.00    -0.067 NA
ATOM     39  H4  UNL     1      15.912  19.534   4.254  1.00  0.00     0.161 HD
ENDBRANCH  34  35
ENDBRANCH  33  34
ENDBRANCH  30  33
ENDBRANCH  29  30
ENDBRANCH   4  29
TORSDOF 8
ENDMDL
MODEL 3
REMARK VINA RESULT: -8.741755444      2.525      4.334
REMARK  8 active torsions:
REMARK  status: ('A' for Active; 'I' for Inactive)
REMARK    1  A    between atoms: C7_7  and  N1_8 
REMARK    2  A    between atoms: C12_14  and  N2_15 
REMARK    3  A    between atoms: C15_18  and  C16_19 
REMARK    4  A    between atoms: C16_19  and  N3_20 
REMARK    5  A    between atoms: N3_20  and  C17_23 
REMARK    6  A    between atoms: C17_23  and  C18_24 
REMARK    7  A    between atoms: C18_24  and  N4_25 
REMARK    8  A    between atoms: C20_30  and  C22_32 
ROOT
HETATM    1  N2  UNL     1      12.556  23.369   6.588  1.00  0.00    -0.391 N 
HETATM    2  C13 UNL     1      12.022  22.093   6.274  1.00  0.00     0.119 C 
HETATM    3  C14 UNL     1      12.967  20.952   6.174  1.00  0.00     0.026 C 
HETATM    4  C15 UNL     1      14.198  21.045   7.017  1.00  0.00     0.023 C 
HETATM    5  C20 UNL     1      14.730  22.455   6.895  1.00  0.00    -0.010 C 
HETATM    6  C21 UNL     1      14.953  22.735   5.431  1.00  0.00     0.018 C 
HETATM    7  C23 UNL     1      13.616  23.344   7.474  1.00  0.00     0.129 C 
ENDROOT
BRANCH   1   8
HETATM    8  C12 UNL     1      11.673  24.442   6.468  1.00  0.00     0.184 C 
HETATM    9  N1  UNL     1      10.269  24.204   6.649  1.00  0.00    -0.326 N 
HETATM   10  C8  UNL     1       9.829  24.020   7.976  1.00  0.00     0.221 C 
HETATM   11  O1  UNL     1       8.877  23.288   8.264  1.00  0.00    -0.273 OA
HETATM   12  C9  UNL     1      10.548  24.750   9.098  1.00  0.00     0.103 C 
HETATM   13  C10 UNL     1      11.351  25.872   8.541  1.00  0.00     0.013 C 
HETATM   14  C11 UNL     1      12.083  25.631   7.272  1.00  0.00     0.047 C 
BRANCH   9  15
HETATM   15  C7  UNL     1       9.334  24.172   5.559  1.00  0.00     0.090 C 
HETATM   16  C6  UNL     1       9.027  25.538   5.053  1.00  0.00     0.030 C 
HETATM   17  C5  UNL     1       8.239  25.512   3.754  1.00  0.00    -0.011 C 
HETATM   18  C4  UNL     1       6.916  24.828   3.884  1.00  0.00     0.013 C 
HETATM   19  C27 UNL     1       9.166  24.829   2.764  1.00  0.00     0.014 C 
HETATM   20  C2  UNL     1       6.726  23.675   2.932  1.00  0.00    -0.047 C 
HETATM   21  C1  UNL     1       5.482  22.916   3.402  1.00  0.00     0.015 C 
HETATM   22  C3  UNL     1       6.420  24.141   1.529  1.00  0.00     0.015 C 
HETATM   23  C28 UNL     1       7.866  22.702   2.971  1.00  0.00     0.018 C 
HETATM   24  C25 UNL     1       9.202  23.387   3.152  1.00  0.00    -0.041 C 
HETATM   25  C24 UNL     1       9.695  23.161   4.523  1.00  0.00     0.034 C 
HETATM   26  C26 UNL     1      10.173  22.703   2.178  1.00  0.00     0.015 C 
ENDBRANCH   9  15
ENDBRANCH   1   8
BRANCH   5  27
HETATM   27  C22 UNL     1      16.023  22.676   7.621  1.00  0.00     0.126 C 
HETATM   28 CL1  UNL     1      16.027  22.056   9.266  1.00  0.00    -0.130 Cl
ENDBRANCH   5  27
BRANCH   4  29
HETATM   29  C16 UNL     1      15.228  20.045   6.613  1.00  0.00     0.237 C 
BRANCH  29  30
HETATM   30  N3  UNL     1      14.729  19.084   5.647  1.00  0.00    -0.073 N 
ATOM     31  H32 UNL     1      14.699  18.131   6.011  1.00  0.00     0.277 HD
ATOM     32  H31 UNL     1      13.731  19.187   5.463  1.00  0.00     0.277 HD
BRANCH  30  33
HETATM   33  C17 UNL     1      15.541  19.206   4.448  1.00  0.00     0.251 C 
BRANCH  33  34
HETATM   34  C18 UNL     1      17.006  19.335   4.773  1.00  0.00     0.149 C 
BRANCH  34  35
HETATM   35  N4  UNL     1      17.661  18.059   4.965  1.00  0.00    -0.365 N 
HETATM   36  C19 UNL     1      18.295  17.473   3.990  1.00  0.00     0.197 C 
HETATM   37  N5  UNL     1      18.330  18.120   2.726  1.00  0.00    -0.067 NA
HETATM   38  N6  UNL     1      18.944  16.225   4.155  1.00  0.00    -0.067 NA
ATOM     39  H4  UNL     1      17.624  17.610   5.880  1.00  0.00     0.161 HD
ENDBRANCH  34  35
ENDBRANCH  33  34
ENDBRANCH  30  33
ENDBRANCH  29  30
ENDBRANCH   4  29
TORSDOF 8
ENDMDL
MODEL 4
REMARK VINA RESULT: -8.609582775      1.332      1.680
REMARK  8 active torsions:
REMARK  status: ('A' for Active; 'I' for Inactive)
REMARK    1  A    between atoms: C7_7  and  N1_8 
REMARK    2  A    between atoms: C12_14  and  N2_15 
REMARK    3  A    between atoms: C15_18  and  C16_19 
REMARK    4  A    between atoms: C16_19  and  N3_20 
REMARK    5  A    between atoms: N3_20  and  C17_23 
REMARK    6  A    between atoms: C17_23  and  C18_24 
REMARK    7  A    between atoms: C18_24  and  N4_25 
REMARK    8  A    between atoms: C20_30  and  C22_32 
ROOT
HETATM    1  N2  UNL     1      12.815  21.646   6.162  1.00  0.00    -0.391 N 
HETATM    2  C13 UNL     1      13.231  20.371   5.700  1.00  0.00     0.119 C 
HETATM    3  C14 UNL     1      14.634  19.961   5.964  1.00  0.00     0.026 C 
HETATM    4  C15 UNL     1      15.264  20.539   7.190  1.00  0.00     0.023 C 
HETATM    5  C20 UNL     1      14.903  22.006   7.241  1.00  0.00    -0.010 C 
HETATM    6  C21 UNL     1      15.357  22.636   5.949  1.00  0.00     0.018 C 
HETATM    7  C23 UNL     1      13.370  22.027   7.369  1.00  0.00     0.129 C 
ENDROOT
BRANCH   1   8
HETATM    8  C12 UNL     1      11.565  22.075   5.716  1.00  0.00     0.184 C 
HETATM    9  N1  UNL     1      11.360  23.478   5.486  1.00  0.00    -0.326 N 
HETATM   10  C8  UNL     1      11.937  24.014   4.317  1.00  0.00     0.221 C 
HETATM   11  O1  UNL     1      12.344  25.178   4.252  1.00  0.00    -0.273 OA
HETATM   12  C9  UNL     1      12.061  23.132   3.087  1.00  0.00     0.103 C 
HETATM   13  C10 UNL     1      11.161  21.953   3.213  1.00  0.00     0.013 C 
HETATM   14  C11 UNL     1      11.064  21.301   4.543  1.00  0.00     0.047 C 
BRANCH   9  15
HETATM   15  C7  UNL     1      10.593  24.312   6.370  1.00  0.00     0.090 C 
HETATM   16  C6  UNL     1       9.421  23.589   6.934  1.00  0.00     0.030 C 
HETATM   17  C5  UNL     1       8.743  24.364   8.051  1.00  0.00    -0.011 C 
HETATM   18  C4  UNL     1       8.218  25.692   7.608  1.00  0.00     0.013 C 
HETATM   19  C27 UNL     1       9.805  24.477   9.131  1.00  0.00     0.014 C 
HETATM   20  C2  UNL     1       8.758  26.859   8.394  1.00  0.00    -0.047 C 
HETATM   21  C1  UNL     1       8.370  28.125   7.626  1.00  0.00     0.015 C 
HETATM   22  C3  UNL     1       8.107  26.982   9.750  1.00  0.00     0.015 C 
HETATM   23  C28 UNL     1      10.255  26.850   8.481  1.00  0.00     0.018 C 
HETATM   24  C25 UNL     1      10.816  25.452   8.624  1.00  0.00    -0.041 C 
HETATM   25  C24 UNL     1      11.446  25.037   7.356  1.00  0.00     0.034 C 
HETATM   26  C26 UNL     1      11.912  25.534   9.696  1.00  0.00     0.015 C 
ENDBRANCH   9  15
ENDBRANCH   1   8
BRANCH   5  27
HETATM   27  C22 UNL     1      15.544  22.745   8.378  1.00  0.00     0.126 C 
HETATM   28 CL1  UNL     1      15.621  21.819   9.871  1.00  0.00    -0.130 Cl
ENDBRANCH   5  27
BRANCH   4  29
HETATM   29  C16 UNL     1      16.744  20.349   7.198  1.00  0.00     0.237 C 
BRANCH  29  30
HETATM   30  N3  UNL     1      17.136  18.979   6.918  1.00  0.00    -0.073 N 
ATOM     31  H32 UNL     1      17.575  18.520   7.715  1.00  0.00     0.277 HD
ATOM     32  H31 UNL     1      16.340  18.349   6.823  1.00  0.00     0.277 HD
BRANCH  30  33
HETATM   33  C17 UNL     1      17.984  19.001   5.738  1.00  0.00     0.251 C 
BRANCH  33  34
HETATM   34  C18 UNL     1      18.024  17.662   5.050  1.00  0.00     0.149 C 
BRANCH  34  35
HETATM   35  N4  UNL     1      17.978  16.547   5.972  1.00  0.00    -0.365 N 
HETATM   36  C19 UNL     1      18.360  15.357   5.610  1.00  0.00     0.197 C 
HETATM   37  N5  UNL     1      18.826  15.175   4.281  1.00  0.00    -0.067 NA
HETATM   38  N6  UNL     1      18.325  14.252   6.497  1.00  0.00    -0.067 NA
ATOM     39  H4  UNL     1      17.640  16.698   6.923  1.00  0.00     0.161 HD
ENDBRANCH  34  35
ENDBRANCH  33  34
ENDBRANCH  30  33
ENDBRANCH  29  30
ENDBRANCH   4  29
TORSDOF 8
ENDMDL
MODEL 5
REMARK VINA RESULT: -8.508922668      2.879      4.745
REMARK  8 active torsions:
REMARK  status: ('A' for Active; 'I' for Inactive)
REMARK    1  A    between atoms: C7_7  and  N1_8 
REMARK    2  A    between atoms: C12_14  and  N2_15 
REMARK    3  A    between atoms: C15_18  and  C16_19 
REMARK    4  A    between atoms: C16_19  and  N3_20 
REMARK    5  A    between atoms: N3_20  and  C17_23 
REMARK    6  A    between atoms: C17_23  and  C18_24 
REMARK    7  A    between atoms: C18_24  and  N4_25 
REMARK    8  A    between atoms: C20_30  and  C22_32 
ROOT
HETATM    1  N2  UNL     1      12.783  23.080   5.550  1.00  0.00    -0.391 N 
HETATM    2  C13 UNL     1      13.885  23.181   6.438  1.00  0.00     0.119 C 
HETATM    3  C14 UNL     1      14.742  21.982   6.618  1.00  0.00     0.026 C 
HETATM    4  C15 UNL     1      14.824  21.054   5.450  1.00  0.00     0.023 C 
HETATM    5  C20 UNL     1      13.424  20.884   4.903  1.00  0.00    -0.010 C 
HETATM    6  C21 UNL     1      12.548  20.396   6.028  1.00  0.00     0.018 C 
HETATM    7  C23 UNL     1      13.013  22.291   4.439  1.00  0.00     0.129 C 
ENDROOT
BRANCH   1   8
HETATM    8  C12 UNL     1      11.889  24.151   5.567  1.00  0.00     0.184 C 
HETATM    9  N1  UNL     1      10.522  23.903   5.930  1.00  0.00    -0.326 N 
HETATM   10  C8  UNL     1      10.264  23.694   7.301  1.00  0.00     0.221 C 
HETATM   11  O1  UNL     1       9.361  22.953   7.700  1.00  0.00    -0.273 OA
HETATM   12  C9  UNL     1      11.124  24.410   8.328  1.00  0.00     0.103 C 
HETATM   13  C10 UNL     1      11.843  25.545   7.688  1.00  0.00     0.013 C 
HETATM   14  C11 UNL     1      12.400  25.328   6.330  1.00  0.00     0.047 C 
BRANCH   9  15
HETATM   15  C7  UNL     1       9.450  23.884   4.974  1.00  0.00     0.090 C 
HETATM   16  C6  UNL     1       9.470  25.086   4.097  1.00  0.00     0.030 C 
HETATM   17  C5  UNL     1       8.504  24.969   2.930  1.00  0.00    -0.011 C 
HETATM   18  C4  UNL     1       7.081  24.812   3.360  1.00  0.00     0.013 C 
HETATM   19  C27 UNL     1       9.017  23.783   2.132  1.00  0.00     0.014 C 
HETATM   20  C2  UNL     1       6.411  23.573   2.825  1.00  0.00    -0.047 C 
HETATM   21  C1  UNL     1       5.098  23.414   3.595  1.00  0.00     0.015 C 
HETATM   22  C3  UNL     1       6.024  23.718   1.373  1.00  0.00     0.015 C 
HETATM   23  C28 UNL     1       7.213  22.332   3.077  1.00  0.00     0.018 C 
HETATM   24  C25 UNL     1       8.701  22.568   2.940  1.00  0.00    -0.041 C 
HETATM   25  C24 UNL     1       9.328  22.572   4.275  1.00  0.00     0.034 C 
HETATM   26  C26 UNL     1       9.258  21.371   2.155  1.00  0.00     0.015 C 
ENDBRANCH   9  15
ENDBRANCH   1   8
BRANCH   5  27
HETATM   27  C22 UNL     1      13.334  19.901   3.774  1.00  0.00     0.126 C 
HETATM   28 CL1  UNL     1      14.533  20.158   2.514  1.00  0.00    -0.130 Cl
ENDBRANCH   5  27
BRANCH   4  29
HETATM   29  C16 UNL     1      15.418  19.738   5.823  1.00  0.00     0.237 C 
BRANCH  29  30
HETATM   30  N3  UNL     1      16.023  19.749   7.144  1.00  0.00    -0.073 N 
ATOM     31  H32 UNL     1      15.833  20.608   7.661  1.00  0.00     0.277 HD
ATOM     32  H31 UNL     1      15.575  19.102   7.792  1.00  0.00     0.277 HD
BRANCH  30  33
HETATM   33  C17 UNL     1      17.443  19.491   6.976  1.00  0.00     0.251 C 
BRANCH  33  34
HETATM   34  C18 UNL     1      17.810  19.281   5.531  1.00  0.00     0.149 C 
BRANCH  34  35
HETATM   35  N4  UNL     1      18.260  17.935   5.249  1.00  0.00    -0.365 N 
HETATM   36  C19 UNL     1      18.360  17.500   4.026  1.00  0.00     0.197 C 
HETATM   37  N5  UNL     1      18.015  18.382   2.968  1.00  0.00    -0.067 NA
HETATM   38  N6  UNL     1      18.800  16.187   3.726  1.00  0.00    -0.067 NA
ATOM     39  H4  UNL     1      18.502  17.316   6.022  1.00  0.00     0.161 HD
ENDBRANCH  34  35
ENDBRANCH  33  34
ENDBRANCH  30  33
ENDBRANCH  29  30
ENDBRANCH   4  29
TORSDOF 8
ENDMDL
