MODEL 1
REMARK VINA RESULT: -9.522836688      0.000      0.000
REMARK  9 active torsions:
REMARK  status: ('A' for Active; 'I' for Inactive)
REMARK    1  A    between atoms: C5_7  and  N2_8 
REMARK    2  A    between atoms: N2_8  and  C6_10 
REMARK    3  A    between atoms: C6_10  and  C7_11 
REMARK    4  A    between atoms: C7_11  and  C8_12 
REMARK    5  A    between atoms: C8_12  and  N3_13 
REMARK    6  A    between atoms: N3_13  and  C9_14 
REMARK       I    between atoms: N3_13  and  C13_19 
REMARK    7  A    between atoms: C9_14  and  C10_15 
REMARK    8  A    between atoms: C10_15  and  N4_16 
REMARK    9  A    between atoms: C13_19  and  C14_21 
ROOT
HETATM    1  N3  UNL     1      12.421  23.577   7.121  1.00  0.00    -0.346 N 
HETATM    2  C13 UNL     1      12.768  22.226   7.247  1.00  0.00     0.260 C 
HETATM    3  O1  UNL     1      12.526  21.676   8.378  1.00  0.00    -0.267 OA
ENDROOT
BRANCH   1   4
HETATM    4  C8  UNL     1      11.861  24.329   8.216  1.00  0.00     0.127 C 
BRANCH   4   5
HETATM    5  C7  UNL     1      10.405  24.571   8.221  1.00  0.00     0.040 C 
BRANCH   5   6
HETATM    6  C6  UNL     1       9.944  25.906   8.736  1.00  0.00     0.139 C 
BRANCH   6   7
HETATM    7  N2  UNL     1       8.491  25.987   8.725  1.00  0.00    -0.226 N 
ATOM      8  H2  UNL     1       8.003  25.727   9.582  1.00  0.00     0.177 HD
BRANCH   7   9
HETATM    9  C5  UNL     1       7.775  26.357   7.735  1.00  0.00     0.678 A 
HETATM   10  N1  UNL     1       8.254  26.748   6.544  1.00  0.00    -0.202 N 
HETATM   11  C4  UNL     1       7.434  27.125   5.538  1.00  0.00     0.108 A 
ATOM     12  H1  UNL     1       9.262  26.761   6.394  1.00  0.00     0.183 HD
HETATM   13  C3  UNL     1       6.085  27.098   5.773  1.00  0.00     0.042 A 
HETATM   14  C2  UNL     1       5.588  26.697   6.994  1.00  0.00     0.024 A 
HETATM   15  C1  UNL     1       4.095  26.690   7.187  1.00  0.00     0.068 C 
HETATM   16  N6  UNL     1       6.429  26.334   7.953  1.00  0.00    -0.196 N 
ATOM     17  H6  UNL     1       6.068  26.037   8.859  1.00  0.00     0.184 HD
ENDBRANCH   7   9
ENDBRANCH   6   7
ENDBRANCH   5   6
ENDBRANCH   4   5
ENDBRANCH   1   4
BRANCH   1  18
HETATM   18  C9  UNL     1      12.640  24.230   5.825  1.00  0.00     0.156 C 
BRANCH  18  19
HETATM   19  C10 UNL     1      11.452  24.900   5.251  1.00  0.00     0.291 C 
BRANCH  19  20
HETATM   20  N4  UNL     1      10.747  23.917   4.430  1.00  0.00     0.081 N 
HETATM   21  C11 UNL     1       9.326  24.037   4.478  1.00  0.00     0.309 C 
HETATM   22  C12 UNL     1      11.272  23.878   3.098  1.00  0.00     0.309 C 
ENDBRANCH  19  20
ENDBRANCH  18  19
ENDBRANCH   1  18
BRANCH   2  23
HETATM   23  C14 UNL     1      13.370  21.356   6.264  1.00  0.00     0.118 A 
HETATM   24  C15 UNL     1      14.692  21.002   6.169  1.00  0.00     0.044 A 
HETATM   25 BR1  UNL     1      15.924  21.659   7.451  1.00  0.00    -0.049 Br
HETATM   26  C16 UNL     1      15.173  20.170   5.146  1.00  0.00     0.012 A 
HETATM   27  C17 UNL     1      16.525  19.845   5.103  1.00  0.00     0.053 A 
HETATM   28  C24 UNL     1      14.318  19.677   4.192  1.00  0.00     0.047 A 
HETATM   29  C18 UNL     1      16.973  19.023   4.087  1.00  0.00     0.086 A 
HETATM   30  O2  UNL     1      18.160  18.560   3.802  1.00  0.00    -0.321 OA
HETATM   31  C22 UNL     1      16.094  18.528   3.125  1.00  0.00     0.008 A 
HETATM   32  C19 UNL     1      18.135  17.801   2.729  1.00  0.00     0.150 A 
HETATM   33  C20 UNL     1      16.831  17.753   2.263  1.00  0.00    -0.027 A 
HETATM   34  C21 UNL     1      16.329  17.007   1.062  1.00  0.00     0.051 C 
HETATM   35  C23 UNL     1      14.756  18.855   3.173  1.00  0.00     0.045 A 
HETATM   36  N5  UNL     1      13.029  20.023   4.284  1.00  0.00    -0.322 N 
HETATM   37  C25 UNL     1      12.558  20.815   5.254  1.00  0.00     0.263 A 
ATOM     38  H5  UNL     1      12.376  19.666   3.585  1.00  0.00     0.169 HD
HETATM   39  O3  UNL     1      11.338  21.088   5.259  1.00  0.00    -0.267 OA
ENDBRANCH   2  23
TORSDOF 9
ENDMDL
MODEL 2
REMARK VINA RESULT: -9.305048922      2.823     10.272
REMARK  9 active torsions:
REMARK  status: ('A' for Active; 'I' for Inactive)
REMARK    1  A    between atoms: C5_7  and  N2_8 
REMARK    2  A    between atoms: N2_8  and  C6_10 
REMARK    3  A    between atoms: C6_10  and  C7_11 
REMARK    4  A    between atoms: C7_11  and  C8_12 
REMARK    5  A    between atoms: C8_12  and  N3_13 
REMARK    6  A    between atoms: N3_13  and  C9_14 
REMARK       I    between atoms: N3_13  and  C13_19 
REMARK    7  A    between atoms: C9_14  and  C10_15 
REMARK    8  A    between atoms: C10_15  and  N4_16 
REMARK    9  A    between atoms: C13_19  and  C14_21 
ROOT
HETATM    1  N3  UNL     1      13.271  21.496   4.016  1.00  0.00    -0.346 N 
HETATM    2  C13 UNL     1      11.902  21.561   4.312  1.00  0.00     0.260 C 
HETATM    3  O1  UNL     1      11.159  20.666   3.777  1.00  0.00    -0.267 OA
ENDROOT
BRANCH   1   4
HETATM    4  C8  UNL     1      13.814  20.504   3.122  1.00  0.00     0.127 C 
BRANCH   4   5
HETATM    5  C7  UNL     1      14.146  19.177   3.676  1.00  0.00     0.040 C 
BRANCH   5   6
HETATM    6  C6  UNL     1      14.875  18.229   2.765  1.00  0.00     0.139 C 
BRANCH   6   7
HETATM    7  N2  UNL     1      16.313  18.443   2.843  1.00  0.00    -0.226 N 
ATOM      8  H2  UNL     1      16.778  18.794   2.007  1.00  0.00     0.177 HD
BRANCH   7   9
HETATM    9  C5  UNL     1      17.041  18.230   3.870  1.00  0.00     0.678 A 
HETATM   10  N1  UNL     1      17.464  19.175   4.723  1.00  0.00    -0.202 N 
HETATM   11  C4  UNL     1      18.233  18.875   5.792  1.00  0.00     0.108 A 
ATOM     12  H1  UNL     1      17.197  20.147   4.560  1.00  0.00     0.183 HD
HETATM   13  C3  UNL     1      18.574  17.562   5.982  1.00  0.00     0.042 A 
HETATM   14  C2  UNL     1      18.143  16.587   5.109  1.00  0.00     0.024 A 
HETATM   15  C1  UNL     1      18.554  15.163   5.374  1.00  0.00     0.068 C 
HETATM   16  N6  UNL     1      17.389  16.927   4.072  1.00  0.00    -0.196 N 
ATOM     17  H6  UNL     1      17.067  16.210   3.423  1.00  0.00     0.184 HD
ENDBRANCH   7   9
ENDBRANCH   6   7
ENDBRANCH   5   6
ENDBRANCH   4   5
ENDBRANCH   1   4
BRANCH   1  18
HETATM   18  C9  UNL     1      14.162  22.475   4.647  1.00  0.00     0.156 C 
BRANCH  18  19
HETATM   19  C10 UNL     1      15.323  21.898   5.361  1.00  0.00     0.291 C 
BRANCH  19  20
HETATM   20  N4  UNL     1      14.954  21.774   6.770  1.00  0.00     0.081 N 
HETATM   21  C11 UNL     1      15.298  20.516   7.348  1.00  0.00     0.309 C 
HETATM   22  C12 UNL     1      15.415  22.897   7.532  1.00  0.00     0.309 C 
ENDBRANCH  19  20
ENDBRANCH  18  19
ENDBRANCH   1  18
BRANCH   2  23
HETATM   23  C14 UNL     1      11.207  22.511   5.148  1.00  0.00     0.118 A 
HETATM   24  C15 UNL     1      10.536  23.636   4.742  1.00  0.00     0.044 A 
HETATM   25 BR1  UNL     1      10.436  24.042   2.893  1.00  0.00    -0.049 Br
HETATM   26  C16 UNL     1       9.921  24.510   5.652  1.00  0.00     0.012 A 
HETATM   27  C17 UNL     1       9.253  25.635   5.179  1.00  0.00     0.053 A 
HETATM   28  C24 UNL     1       9.974  24.260   7.000  1.00  0.00     0.047 A 
HETATM   29  C18 UNL     1       8.654  26.479   6.095  1.00  0.00     0.086 A 
HETATM   30  O2  UNL     1       7.973  27.583   5.945  1.00  0.00    -0.321 OA
HETATM   31  C22 UNL     1       8.714  26.212   7.462  1.00  0.00     0.008 A 
HETATM   32  C19 UNL     1       7.581  28.067   7.103  1.00  0.00     0.150 A 
HETATM   33  C20 UNL     1       8.034  27.219   8.102  1.00  0.00    -0.027 A 
HETATM   34  C21 UNL     1       7.824  27.374   9.579  1.00  0.00     0.051 C 
HETATM   35  C23 UNL     1       9.378  25.096   7.923  1.00  0.00     0.045 A 
HETATM   36  N5  UNL     1      10.629  23.163   7.396  1.00  0.00    -0.322 N 
HETATM   37  C25 UNL     1      11.220  22.322   6.539  1.00  0.00     0.263 A 
ATOM     38  H5  UNL     1      10.679  22.957   8.395  1.00  0.00     0.169 HD
HETATM   39  O3  UNL     1      11.813  21.322   7.001  1.00  0.00    -0.267 OA
ENDBRANCH   2  23
TORSDOF 9
ENDMDL
MODEL 3
REMARK VINA RESULT: -9.271750240      0.939      1.416
REMARK  9 active torsions:
REMARK  status: ('A' for Active; 'I' for Inactive)
REMARK    1  A    between atoms: C5_7  and  N2_8 
REMARK    2  A    between atoms: N2_8  and  C6_10 
REMARK    3  A    between atoms: C6_10  and  C7_11 
REMARK    4  A    between atoms: C7_11  and  C8_12 
REMARK    5  A    between atoms: C8_12  and  N3_13 
REMARK    6  A    between atoms: N3_13  and  C9_14 
REMARK       I    between atoms: N3_13  and  C13_19 
REMARK    7  A    between atoms: C9_14  and  C10_15 
REMARK    8  A    between atoms: C10_15  and  N4_16 
REMARK    9  A    between atoms: C13_19  and  C14_21 
ROOT
HETATM    1  N3  UNL     1      11.584  23.543   6.633  1.00  0.00    -0.346 N 
HETATM    2  C13 UNL     1      12.076  22.249   6.850  1.00  0.00     0.260 C 
HETATM    3  O1  UNL     1      11.831  21.730   7.995  1.00  0.00    -0.267 OA
ENDROOT
BRANCH   1   4
HETATM    4  C8  UNL     1      10.877  24.275   7.655  1.00  0.00     0.127 C 
BRANCH   4   5
HETATM    5  C7  UNL     1      11.439  25.565   8.101  1.00  0.00     0.040 C 
BRANCH   5   6
HETATM    6  C6  UNL     1      10.741  26.246   9.245  1.00  0.00     0.139 C 
BRANCH   6   7
HETATM    7  N2  UNL     1       9.950  27.371   8.768  1.00  0.00    -0.226 N 
ATOM      8  H2  UNL     1      10.327  28.306   8.923  1.00  0.00     0.177 HD
BRANCH   7   9
HETATM    9  C5  UNL     1       8.824  27.288   8.171  1.00  0.00     0.678 A 
HETATM   10  N1  UNL     1       7.629  27.297   8.781  1.00  0.00    -0.202 N 
HETATM   11  C4  UNL     1       6.475  27.206   8.083  1.00  0.00     0.108 A 
ATOM     12  H1  UNL     1       7.590  27.374   9.797  1.00  0.00     0.183 HD
HETATM   13  C3  UNL     1       6.563  27.102   6.720  1.00  0.00     0.042 A 
HETATM   14  C2  UNL     1       7.787  27.092   6.089  1.00  0.00     0.024 A 
HETATM   15  C1  UNL     1       7.814  26.975   4.588  1.00  0.00     0.068 C 
HETATM   16  N6  UNL     1       8.895  27.184   6.814  1.00  0.00    -0.196 N 
ATOM     17  H6  UNL     1       9.804  27.177   6.352  1.00  0.00     0.184 HD
ENDBRANCH   7   9
ENDBRANCH   6   7
ENDBRANCH   5   6
ENDBRANCH   4   5
ENDBRANCH   1   4
BRANCH   1  18
HETATM   18  C9  UNL     1      11.803  24.155   5.318  1.00  0.00     0.156 C 
BRANCH  18  19
HETATM   19  C10 UNL     1      10.586  24.681   4.660  1.00  0.00     0.291 C 
BRANCH  19  20
HETATM   20  N4  UNL     1      10.194  23.721   3.630  1.00  0.00     0.081 N 
HETATM   21  C11 UNL     1       8.783  23.622   3.439  1.00  0.00     0.309 C 
HETATM   22  C12 UNL     1      10.921  23.934   2.414  1.00  0.00     0.309 C 
ENDBRANCH  19  20
ENDBRANCH  18  19
ENDBRANCH   1  18
BRANCH   2  23
HETATM   23  C14 UNL     1      12.830  21.411   5.950  1.00  0.00     0.118 A 
HETATM   24  C15 UNL     1      14.164  21.099   6.029  1.00  0.00     0.044 A 
HETATM   25 BR1  UNL     1      15.192  21.776   7.471  1.00  0.00    -0.049 Br
HETATM   26  C16 UNL     1      14.803  20.295   5.072  1.00  0.00     0.012 A 
HETATM   27  C17 UNL     1      16.158  20.011   5.209  1.00  0.00     0.053 A 
HETATM   28  C24 UNL     1      14.099  19.788   4.008  1.00  0.00     0.047 A 
HETATM   29  C18 UNL     1      16.764  19.216   4.254  1.00  0.00     0.086 A 
HETATM   30  O2  UNL     1      17.992  18.793   4.127  1.00  0.00    -0.321 OA
HETATM   31  C22 UNL     1      16.037  18.707   3.179  1.00  0.00     0.008 A 
HETATM   32  C19 UNL     1      18.135  18.047   3.054  1.00  0.00     0.150 A 
HETATM   33  C20 UNL     1      16.906  17.966   2.417  1.00  0.00    -0.027 A 
HETATM   34  C21 UNL     1      16.594  17.221   1.153  1.00  0.00     0.051 C 
HETATM   35  C23 UNL     1      14.695  18.993   3.050  1.00  0.00     0.045 A 
HETATM   36  N5  UNL     1      12.799  20.093   3.930  1.00  0.00    -0.322 N 
HETATM   37  C25 UNL     1      12.178  20.859   4.836  1.00  0.00     0.263 A 
ATOM     38  H5  UNL     1      12.257  19.726   3.148  1.00  0.00     0.169 HD
HETATM   39  O3  UNL     1      10.960  21.094   4.679  1.00  0.00    -0.267 OA
ENDBRANCH   2  23
TORSDOF 9
ENDMDL
MODEL 4
REMARK VINA RESULT: -9.239814998      0.806      1.025
REMARK  9 active torsions:
REMARK  status: ('A' for Active; 'I' for Inactive)
REMARK    1  A    between atoms: C5_7  and  N2_8 
REMARK    2  A    between atoms: N2_8  and  C6_10 
REMARK    3  A    between atoms: C6_10  and  C7_11 
REMARK    4  A    between atoms: C7_11  and  C8_12 
REMARK    5  A    between atoms: C8_12  and  N3_13 
REMARK    6  A    between atoms: N3_13  and  C9_14 
REMARK       I    between atoms: N3_13  and  C13_19 
REMARK    7  A    between atoms: C9_14  and  C10_15 
REMARK    8  A    between atoms: C10_15  and  N4_16 
REMARK    9  A    between atoms: C13_19  and  C14_21 
ROOT
HETATM    1  N3  UNL     1      12.057  23.689   6.781  1.00  0.00    -0.346 N 
HETATM    2  C13 UNL     1      12.356  22.328   6.923  1.00  0.00     0.260 C 
HETATM    3  O1  UNL     1      11.974  21.770   8.011  1.00  0.00    -0.267 OA
ENDROOT
BRANCH   1   4
HETATM    4  C8  UNL     1      11.394  24.440   7.818  1.00  0.00     0.127 C 
BRANCH   4   5
HETATM    5  C7  UNL     1       9.929  24.592   7.739  1.00  0.00     0.040 C 
BRANCH   5   6
HETATM    6  C6  UNL     1       9.371  25.947   8.076  1.00  0.00     0.139 C 
BRANCH   6   7
HETATM    7  N2  UNL     1       8.814  26.583   6.891  1.00  0.00    -0.226 N 
ATOM      8  H2  UNL     1       9.454  26.780   6.122  1.00  0.00     0.177 HD
BRANCH   7   9
HETATM    9  C5  UNL     1       7.592  26.915   6.731  1.00  0.00     0.678 A 
HETATM   10  N1  UNL     1       6.991  27.951   7.337  1.00  0.00    -0.202 N 
HETATM   11  C4  UNL     1       5.691  28.245   7.119  1.00  0.00     0.108 A 
ATOM     12  H1  UNL     1       7.531  28.532   7.980  1.00  0.00     0.183 HD
HETATM   13  C3  UNL     1       4.995  27.445   6.252  1.00  0.00     0.042 A 
HETATM   14  C2  UNL     1       5.605  26.381   5.627  1.00  0.00     0.024 A 
HETATM   15  C1  UNL     1       4.784  25.541   4.686  1.00  0.00     0.068 C 
HETATM   16  N6  UNL     1       6.885  26.129   5.870  1.00  0.00    -0.196 N 
ATOM     17  H6  UNL     1       7.343  25.342   5.411  1.00  0.00     0.184 HD
ENDBRANCH   7   9
ENDBRANCH   6   7
ENDBRANCH   5   6
ENDBRANCH   4   5
ENDBRANCH   1   4
BRANCH   1  18
HETATM   18  C9  UNL     1      12.436  24.354   5.529  1.00  0.00     0.156 C 
BRANCH  18  19
HETATM   19  C10 UNL     1      11.326  25.019   4.810  1.00  0.00     0.291 C 
BRANCH  19  20
HETATM   20  N4  UNL     1      10.632  23.995   4.031  1.00  0.00     0.081 N 
HETATM   21  C11 UNL     1       9.210  24.059   4.131  1.00  0.00     0.309 C 
HETATM   22  C12 UNL     1      11.108  23.953   2.681  1.00  0.00     0.309 C 
ENDBRANCH  19  20
ENDBRANCH  18  19
ENDBRANCH   1  18
BRANCH   2  23
HETATM   23  C14 UNL     1      13.044  21.457   6.001  1.00  0.00     0.118 A 
HETATM   24  C15 UNL     1      14.372  21.114   6.017  1.00  0.00     0.044 A 
HETATM   25 BR1  UNL     1      15.488  21.792   7.392  1.00  0.00    -0.049 Br
HETATM   26  C16 UNL     1      14.943  20.280   5.044  1.00  0.00     0.012 A 
HETATM   27  C17 UNL     1      16.296  19.966   5.116  1.00  0.00     0.053 A 
HETATM   28  C24 UNL     1      14.174  19.772   4.026  1.00  0.00     0.047 A 
HETATM   29  C18 UNL     1      16.834  19.141   4.146  1.00  0.00     0.086 A 
HETATM   30  O2  UNL     1      18.044  18.687   3.964  1.00  0.00    -0.321 OA
HETATM   31  C22 UNL     1      16.041  18.632   3.119  1.00  0.00     0.008 A 
HETATM   32  C19 UNL     1      18.115  17.920   2.899  1.00  0.00     0.150 A 
HETATM   33  C20 UNL     1      16.854  17.857   2.327  1.00  0.00    -0.027 A 
HETATM   34  C21 UNL     1      16.460  17.099   1.095  1.00  0.00     0.051 C 
HETATM   35  C23 UNL     1      14.701  18.947   3.054  1.00  0.00     0.045 A 
HETATM   36  N5  UNL     1      12.879  20.106   4.009  1.00  0.00    -0.322 N 
HETATM   37  C25 UNL     1      12.323  20.902   4.931  1.00  0.00     0.263 A 
ATOM     38  H5  UNL     1      12.289  19.739   3.262  1.00  0.00     0.169 HD
HETATM   39  O3  UNL     1      11.104  21.163   4.832  1.00  0.00    -0.267 OA
ENDBRANCH   2  23
TORSDOF 9
ENDMDL
MODEL 5
REMARK VINA RESULT: -9.064824779      2.178      3.085
REMARK  9 active torsions:
REMARK  status: ('A' for Active; 'I' for Inactive)
REMARK    1  A    between atoms: C5_7  and  N2_8 
REMARK    2  A    between atoms: N2_8  and  C6_10 
REMARK    3  A    between atoms: C6_10  and  C7_11 
REMARK    4  A    between atoms: C7_11  and  C8_12 
REMARK    5  A    between atoms: C8_12  and  N3_13 
REMARK    6  A    between atoms: N3_13  and  C9_14 
REMARK       I    between atoms: N3_13  and  C13_19 
REMARK    7  A    between atoms: C9_14  and  C10_15 
REMARK    8  A    between atoms: C10_15  and  N4_16 
REMARK    9  A    between atoms: C13_19  and  C14_21 
ROOT
HETATM    1  N3  UNL     1      11.495  23.184   7.097  1.00  0.00    -0.346 N 
HETATM    2  C13 UNL     1      11.617  21.823   6.787  1.00  0.00     0.260 C 
HETATM    3  O1  UNL     1      10.605  21.084   7.049  1.00  0.00    -0.267 OA
ENDROOT
BRANCH   1   4
HETATM    4  C8  UNL     1      10.311  23.724   7.719  1.00  0.00     0.127 C 
BRANCH   4   5
HETATM    5  C7  UNL     1      10.261  25.176   7.975  1.00  0.00     0.040 C 
BRANCH   5   6
HETATM    6  C6  UNL     1       9.441  26.002   7.024  1.00  0.00     0.139 C 
BRANCH   6   7
HETATM    7  N2  UNL     1       8.531  25.158   6.264  1.00  0.00    -0.226 N 
ATOM      8  H2  UNL     1       7.856  24.605   6.792  1.00  0.00     0.177 HD
BRANCH   7   9
HETATM    9  C5  UNL     1       8.504  25.050   4.992  1.00  0.00     0.678 A 
HETATM   10  N1  UNL     1       8.641  26.070   4.131  1.00  0.00    -0.202 N 
HETATM   11  C4  UNL     1       8.604  25.880   2.793  1.00  0.00     0.108 A 
ATOM     12  H1  UNL     1       8.777  27.013   4.495  1.00  0.00     0.183 HD
HETATM   13  C3  UNL     1       8.419  24.602   2.337  1.00  0.00     0.042 A 
HETATM   14  C2  UNL     1       8.277  23.551   3.216  1.00  0.00     0.024 A 
HETATM   15  C1  UNL     1       8.076  22.171   2.650  1.00  0.00     0.068 C 
HETATM   16  N6  UNL     1       8.321  23.783   4.522  1.00  0.00    -0.196 N 
ATOM     17  H6  UNL     1       8.216  23.010   5.178  1.00  0.00     0.184 HD
ENDBRANCH   7   9
ENDBRANCH   6   7
ENDBRANCH   5   6
ENDBRANCH   4   5
ENDBRANCH   1   4
BRANCH   1  18
HETATM   18  C9  UNL     1      12.615  24.072   6.769  1.00  0.00     0.156 C 
BRANCH  18  19
HETATM   19  C10 UNL     1      12.329  25.086   5.729  1.00  0.00     0.291 C 
BRANCH  19  20
HETATM   20  N4  UNL     1      13.024  24.673   4.511  1.00  0.00     0.081 N 
HETATM   21  C11 UNL     1      14.158  23.840   4.748  1.00  0.00     0.309 C 
HETATM   22  C12 UNL     1      12.112  24.135   3.546  1.00  0.00     0.309 C 
ENDBRANCH  19  20
ENDBRANCH  18  19
ENDBRANCH   1  18
BRANCH   2  23
HETATM   23  C14 UNL     1      12.743  21.131   6.206  1.00  0.00     0.118 A 
HETATM   24  C15 UNL     1      12.871  20.696   4.912  1.00  0.00     0.044 A 
HETATM   25 BR1  UNL     1      11.473  21.033   3.676  1.00  0.00    -0.049 Br
HETATM   26  C16 UNL     1      14.005  20.000   4.464  1.00  0.00     0.012 A 
HETATM   27  C17 UNL     1      14.078  19.588   3.137  1.00  0.00     0.053 A 
HETATM   28  C24 UNL     1      15.039  19.729   5.325  1.00  0.00     0.047 A 
HETATM   29  C18 UNL     1      15.205  18.906   2.720  1.00  0.00     0.086 A 
HETATM   30  O2  UNL     1      15.542  18.409   1.561  1.00  0.00    -0.321 OA
HETATM   31  C22 UNL     1      16.248  18.637   3.605  1.00  0.00     0.008 A 
HETATM   32  C19 UNL     1      16.723  17.833   1.610  1.00  0.00     0.150 A 
HETATM   33  C20 UNL     1      17.211  17.956   2.901  1.00  0.00    -0.027 A 
HETATM   34  C21 UNL     1      18.523  17.448   3.421  1.00  0.00     0.051 C 
HETATM   35  C23 UNL     1      16.169  19.049   4.918  1.00  0.00     0.045 A 
HETATM   36  N5  UNL     1      14.914  20.152   6.588  1.00  0.00    -0.322 N 
HETATM   37  C25 UNL     1      13.838  20.815   7.027  1.00  0.00     0.263 A 
ATOM     38  H5  UNL     1      15.671  19.961   7.244  1.00  0.00     0.169 HD
HETATM   39  O3  UNL     1      13.807  21.169   8.226  1.00  0.00    -0.267 OA
ENDBRANCH   2  23
TORSDOF 9
ENDMDL
