MODEL 1
REMARK VINA RESULT: -8.030297282      0.000      0.000
REMARK  8 active torsions:
REMARK  status: ('A' for Active; 'I' for Inactive)
REMARK    1  A    between atoms: C2_2  and  C3_3 
REMARK    2  A    between atoms: C4_4  and  C5_5 
REMARK    3  A    between atoms: C10_10  and  O1_11 
REMARK    4  A    between atoms: C12_14  and  C13_15 
REMARK    5  A    between atoms: C13_15  and  C14_17 
REMARK    6  A    between atoms: C16_19  and  C17_20 
REMARK    7  A    between atoms: C17_20  and  O3_21 
REMARK    8  A    between atoms: C18_24  and  O5_25 
ROOT
HETATM    1  C1  UNL     1      -2.677  35.493   0.605  1.00  0.00     0.048 C 
HETATM    2  C2  UNL     1      -2.541  34.429   1.600  1.00  0.00    -0.059 C 
HETATM    3  C12 UNL     1      -2.513  33.175   1.246  1.00  0.00     0.057 C 
ENDROOT
BRANCH   2   4
HETATM    4  C3  UNL     1      -2.438  34.745   3.015  1.00  0.00     0.003 C 
HETATM    5  C4  UNL     1      -1.442  34.974   3.759  1.00  0.00    -0.021 C 
BRANCH   5   6
HETATM    6  C5  UNL     1      -0.020  35.013   3.514  1.00  0.00     0.014 C 
HETATM    7  C6  UNL     1       0.772  34.809   4.831  1.00  0.00     0.036 C 
HETATM    8  C7  UNL     1       2.201  34.837   4.425  1.00  0.00    -0.021 C 
HETATM    9  C8  UNL     1       2.640  35.641   3.479  1.00  0.00    -0.059 C 
HETATM   10  C9  UNL     1       4.084  35.627   3.112  1.00  0.00     0.046 C 
HETATM   11  C10 UNL     1       1.764  36.587   2.732  1.00  0.00     0.147 C 
HETATM   12  C11 UNL     1       0.324  36.485   3.151  1.00  0.00     0.045 C 
BRANCH  11  13
HETATM   13  O1  UNL     1       2.265  37.870   2.874  1.00  0.00    -0.391 OA
ATOM     14  H1  UNL     1       2.819  37.900   3.645  1.00  0.00     0.210 HD
ENDBRANCH  11  13
ENDBRANCH   5   6
ENDBRANCH   2   4
BRANCH   3  15
HETATM   15  C13 UNL     1      -2.592  32.548  -0.014  1.00  0.00     0.158 C 
HETATM   16  O2  UNL     1      -2.269  33.074  -1.104  1.00  0.00    -0.293 OA
BRANCH  15  17
HETATM   17  C14 UNL     1      -3.085  31.142  -0.194  1.00  0.00     0.117 C 
HETATM   18  C15 UNL     1      -3.550  30.934  -1.607  1.00  0.00     0.051 C 
HETATM   19  C16 UNL     1      -3.219  29.480  -1.831  1.00  0.00     0.149 C 
HETATM   20  O4  UNL     1      -2.376  29.063  -0.846  1.00  0.00    -0.353 OA
HETATM   21  C18 UNL     1      -2.042  30.111  -0.026  1.00  0.00     0.269 C 
BRANCH  19  22
HETATM   22  C17 UNL     1      -2.693  29.329  -3.224  1.00  0.00     0.196 C 
BRANCH  22  23
HETATM   23  O3  UNL     1      -1.300  29.396  -3.285  1.00  0.00    -0.398 OA
ATOM     24  H3  UNL     1      -0.912  29.719  -2.480  1.00  0.00     0.209 HD
ENDBRANCH  22  23
ENDBRANCH  19  22
BRANCH  21  25
HETATM   25  O5  UNL     1      -0.758  30.509  -0.312  1.00  0.00    -0.370 OA
ATOM     26  H5  UNL     1      -0.145  29.812  -0.514  1.00  0.00     0.212 HD
ENDBRANCH  21  25
ENDBRANCH  15  17
ENDBRANCH   3  15
TORSDOF 8
ENDMDL
MODEL 2
REMARK VINA RESULT: -7.979568403      4.457      6.234
REMARK  8 active torsions:
REMARK  status: ('A' for Active; 'I' for Inactive)
REMARK    1  A    between atoms: C2_2  and  C3_3 
REMARK    2  A    between atoms: C4_4  and  C5_5 
REMARK    3  A    between atoms: C10_10  and  O1_11 
REMARK    4  A    between atoms: C12_14  and  C13_15 
REMARK    5  A    between atoms: C13_15  and  C14_17 
REMARK    6  A    between atoms: C16_19  and  C17_20 
REMARK    7  A    between atoms: C17_20  and  O3_21 
REMARK    8  A    between atoms: C18_24  and  O5_25 
ROOT
HETATM    1  C1  UNL     1      -1.786  35.854   0.793  1.00  0.00     0.048 C 
HETATM    2  C2  UNL     1      -0.639  36.695   1.136  1.00  0.00    -0.059 C 
HETATM    3  C12 UNL     1      -0.293  36.889   2.377  1.00  0.00     0.057 C 
ENDROOT
BRANCH   2   4
HETATM    4  C3  UNL     1       0.143  37.342   0.096  1.00  0.00     0.003 C 
HETATM    5  C4  UNL     1       1.366  37.263  -0.214  1.00  0.00    -0.021 C 
BRANCH   5   6
HETATM    6  C5  UNL     1       2.472  36.510   0.330  1.00  0.00     0.014 C 
HETATM    7  C6  UNL     1       3.078  37.233   1.560  1.00  0.00     0.036 C 
HETATM    8  C7  UNL     1       4.167  36.339   2.030  1.00  0.00    -0.021 C 
HETATM    9  C8  UNL     1       4.924  35.663   1.190  1.00  0.00    -0.059 C 
HETATM   10  C9  UNL     1       6.002  34.781   1.718  1.00  0.00     0.046 C 
HETATM   11  C10 UNL     1       4.768  35.726  -0.290  1.00  0.00     0.147 C 
HETATM   12  C11 UNL     1       3.624  36.609  -0.708  1.00  0.00     0.045 C 
BRANCH  11  13
HETATM   13  O1  UNL     1       5.970  36.119  -0.852  1.00  0.00    -0.391 OA
ATOM     14  H1  UNL     1       5.873  36.151  -1.796  1.00  0.00     0.210 HD
ENDBRANCH  11  13
ENDBRANCH   5   6
ENDBRANCH   2   4
BRANCH   3  15
HETATM   15  C13 UNL     1      -0.833  36.420   3.592  1.00  0.00     0.158 C 
HETATM   16  O2  UNL     1      -1.632  37.052   4.319  1.00  0.00    -0.293 OA
BRANCH  15  17
HETATM   17  C14 UNL     1      -0.498  35.073   4.164  1.00  0.00     0.117 C 
HETATM   18  C15 UNL     1      -0.428  35.151   5.663  1.00  0.00     0.051 C 
HETATM   19  C16 UNL     1      -0.903  33.778   6.067  1.00  0.00     0.149 C 
HETATM   20  O4  UNL     1      -1.489  33.180   4.992  1.00  0.00    -0.353 OA
HETATM   21  C18 UNL     1      -1.529  34.044   3.927  1.00  0.00     0.269 C 
BRANCH  19  22
HETATM   22  C17 UNL     1      -1.779  33.922   7.271  1.00  0.00     0.196 C 
BRANCH  22  23
HETATM   23  O3  UNL     1      -3.081  34.308   6.949  1.00  0.00    -0.398 OA
ATOM     24  H3  UNL     1      -3.151  34.666   6.071  1.00  0.00     0.209 HD
ENDBRANCH  22  23
ENDBRANCH  19  22
BRANCH  21  25
HETATM   25  O5  UNL     1      -2.814  34.510   3.778  1.00  0.00    -0.370 OA
ATOM     26  H5  UNL     1      -3.038  34.835   2.915  1.00  0.00     0.212 HD
ENDBRANCH  21  25
ENDBRANCH  15  17
ENDBRANCH   3  15
TORSDOF 8
ENDMDL
MODEL 3
REMARK VINA RESULT: -7.943048833      4.516      6.885
REMARK  8 active torsions:
REMARK  status: ('A' for Active; 'I' for Inactive)
REMARK    1  A    between atoms: C2_2  and  C3_3 
REMARK    2  A    between atoms: C4_4  and  C5_5 
REMARK    3  A    between atoms: C10_10  and  O1_11 
REMARK    4  A    between atoms: C12_14  and  C13_15 
REMARK    5  A    between atoms: C13_15  and  C14_17 
REMARK    6  A    between atoms: C16_19  and  C17_20 
REMARK    7  A    between atoms: C17_20  and  O3_21 
REMARK    8  A    between atoms: C18_24  and  O5_25 
ROOT
HETATM    1  C1  UNL     1      -2.046  35.568   1.607  1.00  0.00     0.048 C 
HETATM    2  C2  UNL     1      -0.831  36.264   2.029  1.00  0.00    -0.059 C 
HETATM    3  C12 UNL     1      -0.310  36.058   3.206  1.00  0.00     0.057 C 
ENDROOT
BRANCH   2   4
HETATM    4  C3  UNL     1      -0.173  37.210   1.144  1.00  0.00     0.003 C 
HETATM    5  C4  UNL     1       1.027  37.311   0.755  1.00  0.00    -0.021 C 
BRANCH   5   6
HETATM    6  C5  UNL     1       2.216  36.539   1.027  1.00  0.00     0.014 C 
HETATM    7  C6  UNL     1       3.069  37.213   2.132  1.00  0.00     0.036 C 
HETATM    8  C7  UNL     1       4.227  36.303   2.329  1.00  0.00    -0.021 C 
HETATM    9  C8  UNL     1       4.788  35.663   1.324  1.00  0.00    -0.059 C 
HETATM   10  C9  UNL     1       5.947  34.762   1.581  1.00  0.00     0.046 C 
HETATM   11  C10 UNL     1       4.328  35.785  -0.087  1.00  0.00     0.147 C 
HETATM   12  C11 UNL     1       3.128  36.681  -0.223  1.00  0.00     0.045 C 
BRANCH  11  13
HETATM   13  O1  UNL     1       5.390  36.202  -0.871  1.00  0.00    -0.391 OA
ATOM     14  H1  UNL     1       6.158  35.690  -0.648  1.00  0.00     0.210 HD
ENDBRANCH  11  13
ENDBRANCH   5   6
ENDBRANCH   2   4
BRANCH   3  15
HETATM   15  C13 UNL     1      -0.697  35.226   4.276  1.00  0.00     0.158 C 
HETATM   16  O2  UNL     1      -0.795  33.979   4.223  1.00  0.00    -0.293 OA
BRANCH  15  17
HETATM   17  C14 UNL     1      -1.044  35.759   5.636  1.00  0.00     0.117 C 
HETATM   18  C15 UNL     1      -1.334  37.231   5.555  1.00  0.00     0.051 C 
HETATM   19  C16 UNL     1      -2.372  37.401   6.637  1.00  0.00     0.149 C 
HETATM   20  O4  UNL     1      -2.843  36.174   6.993  1.00  0.00    -0.353 OA
HETATM   21  C18 UNL     1      -2.286  35.199   6.203  1.00  0.00     0.269 C 
BRANCH  19  22
HETATM   22  C17 UNL     1      -3.407  38.362   6.145  1.00  0.00     0.196 C 
BRANCH  22  23
HETATM   23  O3  UNL     1      -3.186  38.766   4.827  1.00  0.00    -0.398 OA
ATOM     24  H3  UNL     1      -3.475  39.656   4.662  1.00  0.00     0.209 HD
ENDBRANCH  22  23
ENDBRANCH  19  22
BRANCH  21  25
HETATM   25  O5  UNL     1      -3.223  34.778   5.290  1.00  0.00    -0.370 OA
ATOM     26  H5  UNL     1      -4.123  35.013   5.483  1.00  0.00     0.212 HD
ENDBRANCH  21  25
ENDBRANCH  15  17
ENDBRANCH   3  15
TORSDOF 8
ENDMDL
MODEL 4
REMARK VINA RESULT: -7.903293008      1.602      2.043
REMARK  8 active torsions:
REMARK  status: ('A' for Active; 'I' for Inactive)
REMARK    1  A    between atoms: C2_2  and  C3_3 
REMARK    2  A    between atoms: C4_4  and  C5_5 
REMARK    3  A    between atoms: C10_10  and  O1_11 
REMARK    4  A    between atoms: C12_14  and  C13_15 
REMARK    5  A    between atoms: C13_15  and  C14_17 
REMARK    6  A    between atoms: C16_19  and  C17_20 
REMARK    7  A    between atoms: C17_20  and  O3_21 
REMARK    8  A    between atoms: C18_24  and  O5_25 
ROOT
HETATM    1  C1  UNL     1      -2.512  31.988   2.668  1.00  0.00     0.048 C 
HETATM    2  C2  UNL     1      -2.523  33.331   2.090  1.00  0.00    -0.059 C 
HETATM    3  C12 UNL     1      -2.551  33.509   0.799  1.00  0.00     0.057 C 
ENDROOT
BRANCH   2   4
HETATM    4  C3  UNL     1      -2.498  34.506   2.944  1.00  0.00     0.003 C 
HETATM    5  C4  UNL     1      -1.693  35.478   3.020  1.00  0.00    -0.021 C 
BRANCH   5   6
HETATM    6  C5  UNL     1      -0.486  35.814   2.302  1.00  0.00     0.014 C 
HETATM    7  C6  UNL     1       0.354  36.850   3.091  1.00  0.00     0.036 C 
HETATM    8  C7  UNL     1       1.566  37.071   2.259  1.00  0.00    -0.021 C 
HETATM    9  C8  UNL     1       1.512  37.091   0.944  1.00  0.00    -0.059 C 
HETATM   10  C9  UNL     1       2.760  37.316   0.161  1.00  0.00     0.046 C 
HETATM   11  C10 UNL     1       0.256  36.896   0.169  1.00  0.00     0.147 C 
HETATM   12  C11 UNL     1      -0.929  36.632   1.056  1.00  0.00     0.045 C 
BRANCH  11  13
HETATM   13  O1  UNL     1       0.063  37.991  -0.656  1.00  0.00    -0.391 OA
ATOM     14  H1  UNL     1      -0.680  38.490  -0.338  1.00  0.00     0.210 HD
ENDBRANCH  11  13
ENDBRANCH   5   6
ENDBRANCH   2   4
BRANCH   3  15
HETATM   15  C13 UNL     1      -2.577  32.600  -0.278  1.00  0.00     0.158 C 
HETATM   16  O2  UNL     1      -2.268  32.872  -1.460  1.00  0.00    -0.293 OA
BRANCH  15  17
HETATM   17  C14 UNL     1      -2.990  31.165  -0.122  1.00  0.00     0.117 C 
HETATM   18  C15 UNL     1      -3.622  30.669  -1.392  1.00  0.00     0.051 C 
HETATM   19  C16 UNL     1      -3.222  29.214  -1.389  1.00  0.00     0.149 C 
HETATM   20  O4  UNL     1      -2.229  29.032  -0.475  1.00  0.00    -0.353 OA
HETATM   21  C18 UNL     1      -1.864  30.233   0.081  1.00  0.00     0.269 C 
BRANCH  19  22
HETATM   22  C17 UNL     1      -2.876  28.822  -2.791  1.00  0.00     0.196 C 
BRANCH  22  23
HETATM   23  O3  UNL     1      -1.729  29.462  -3.263  1.00  0.00    -0.398 OA
ATOM     24  H3  UNL     1      -1.298  28.979  -3.958  1.00  0.00     0.209 HD
ENDBRANCH  22  23
ENDBRANCH  19  22
BRANCH  21  25
HETATM   25  O5  UNL     1      -0.660  30.624  -0.454  1.00  0.00    -0.370 OA
ATOM     26  H5  UNL     1       0.064  30.682   0.157  1.00  0.00     0.212 HD
ENDBRANCH  21  25
ENDBRANCH  15  17
ENDBRANCH   3  15
TORSDOF 8
ENDMDL
MODEL 5
REMARK VINA RESULT: -7.669667937      5.373      7.419
REMARK  8 active torsions:
REMARK  status: ('A' for Active; 'I' for Inactive)
REMARK    1  A    between atoms: C2_2  and  C3_3 
REMARK    2  A    between atoms: C4_4  and  C5_5 
REMARK    3  A    between atoms: C10_10  and  O1_11 
REMARK    4  A    between atoms: C12_14  and  C13_15 
REMARK    5  A    between atoms: C13_15  and  C14_17 
REMARK    6  A    between atoms: C16_19  and  C17_20 
REMARK    7  A    between atoms: C17_20  and  O3_21 
REMARK    8  A    between atoms: C18_24  and  O5_25 
ROOT
HETATM    1  C1  UNL     1       1.600  35.427   3.884  1.00  0.00     0.048 C 
HETATM    2  C2  UNL     1       0.452  36.011   3.191  1.00  0.00    -0.059 C 
HETATM    3  C12 UNL     1      -0.755  35.892   3.668  1.00  0.00     0.057 C 
ENDROOT
BRANCH   2   4
HETATM    4  C3  UNL     1       0.629  36.738   1.946  1.00  0.00     0.003 C 
HETATM    5  C4  UNL     1       1.617  36.848   1.164  1.00  0.00    -0.021 C 
BRANCH   5   6
HETATM    6  C5  UNL     1       2.955  36.306   1.188  1.00  0.00     0.014 C 
HETATM    7  C6  UNL     1       3.910  37.231   1.986  1.00  0.00     0.036 C 
HETATM    8  C7  UNL     1       5.224  36.539   1.956  1.00  0.00    -0.021 C 
HETATM    9  C8  UNL     1       5.638  35.876   0.896  1.00  0.00    -0.059 C 
HETATM   10  C9  UNL     1       6.966  35.200   0.924  1.00  0.00     0.046 C 
HETATM   11  C10 UNL     1       4.846  35.755  -0.359  1.00  0.00     0.147 C 
HETATM   12  C11 UNL     1       3.508  36.435  -0.259  1.00  0.00     0.045 C 
BRANCH  11  13
HETATM   13  O1  UNL     1       5.602  36.232  -1.415  1.00  0.00    -0.391 OA
ATOM     14  H1  UNL     1       5.067  36.818  -1.937  1.00  0.00     0.210 HD
ENDBRANCH  11  13
ENDBRANCH   5   6
ENDBRANCH   2   4
BRANCH   3  15
HETATM   15  C13 UNL     1      -1.254  35.259   4.825  1.00  0.00     0.158 C 
HETATM   16  O2  UNL     1      -1.557  34.048   4.912  1.00  0.00    -0.293 OA
BRANCH  15  17
HETATM   17  C14 UNL     1      -1.485  35.990   6.116  1.00  0.00     0.117 C 
HETATM   18  C15 UNL     1      -1.615  37.465   5.858  1.00  0.00     0.051 C 
HETATM   19  C16 UNL     1      -2.583  37.882   6.938  1.00  0.00     0.149 C 
HETATM   20  O4  UNL     1      -3.170  36.769   7.458  1.00  0.00    -0.353 OA
HETATM   21  C18 UNL     1      -2.756  35.649   6.782  1.00  0.00     0.269 C 
BRANCH  19  22
HETATM   22  C17 UNL     1      -3.526  38.888   6.357  1.00  0.00     0.196 C 
BRANCH  22  23
HETATM   23  O3  UNL     1      -3.404  39.005   4.971  1.00  0.00    -0.398 OA
ATOM     24  H3  UNL     1      -3.174  39.885   4.696  1.00  0.00     0.209 HD
ENDBRANCH  22  23
ENDBRANCH  19  22
BRANCH  21  25
HETATM   25  O5  UNL     1      -3.770  35.228   5.955  1.00  0.00    -0.370 OA
ATOM     26  H5  UNL     1      -4.097  34.351   6.116  1.00  0.00     0.212 HD
ENDBRANCH  21  25
ENDBRANCH  15  17
ENDBRANCH   3  15
TORSDOF 8
ENDMDL
