MODEL 1
REMARK VINA RESULT: -8.630827439      0.000      0.000
REMARK  5 active torsions:
REMARK  status: ('A' for Active; 'I' for Inactive)
REMARK    1  A    between atoms: N1_1  and  C1_4 
REMARK    2  A    between atoms: C4_13  and  C5_14 
REMARK    3  A    between atoms: C5_14  and  C6_15 
REMARK    4  A    between atoms: C11_20  and  N5_21 
REMARK    5  A    between atoms: N5_21  and  C12_23 
ROOT
HETATM    1  C1  UNL     1      -1.932  37.799   5.813  1.00  0.00     0.690 A 
HETATM    2  N2  UNL     1      -2.771  38.323   4.891  1.00  0.00    -0.132 N 
ATOM      3  H2  UNL     1      -3.646  38.761   5.175  1.00  0.00     0.205 HD
HETATM    4  N3  UNL     1      -2.440  38.258   3.626  1.00  0.00    -0.289 N 
ATOM      5  H3  UNL     1      -3.067  38.652   2.925  1.00  0.00     0.187 HD
HETATM    6  C2  UNL     1      -1.263  37.669   3.224  1.00  0.00     0.051 A 
HETATM    7  C3  UNL     1      -0.408  37.136   4.142  1.00  0.00     0.057 A 
HETATM    8  N4  UNL     1      -0.784  37.223   5.427  1.00  0.00    -0.192 N 
ATOM      9  H4  UNL     1      -0.170  36.834   6.143  1.00  0.00     0.184 HD
HETATM   10  C4  UNL     1       0.774  36.571   3.445  1.00  0.00     0.061 A 
HETATM   11  C11 UNL     1       0.533  36.722   2.003  1.00  0.00     0.092 A 
HETATM   12  C17 UNL     1      -0.736  37.513   1.874  1.00  0.00     0.086 A 
ENDROOT
BRANCH  11  13
HETATM   13  N5  UNL     1       1.676  37.363   1.402  1.00  0.00    -0.412 N 
ATOM     14  H5  UNL     1       1.683  38.368   1.230  1.00  0.00     0.154 HD
BRANCH  13  15
HETATM   15  C12 UNL     1       2.778  36.562   1.059  1.00  0.00     0.081 C 
HETATM   16  C13 UNL     1       3.006  36.737  -0.454  1.00  0.00     0.051 C 
HETATM   17  C14 UNL     1       4.404  36.188  -0.697  1.00  0.00     0.169 C 
HETATM   18  O1  UNL     1       4.738  35.211   0.240  1.00  0.00    -0.391 OA
HETATM   19  C15 UNL     1       5.089  35.827   1.441  1.00  0.00     0.169 C 
HETATM   20  C16 UNL     1       4.077  36.954   1.689  1.00  0.00     0.051 C 
ENDBRANCH  13  15
ENDBRANCH  11  13
BRANCH  10  21
HETATM   21  C5  UNL     1       1.251  35.307   4.028  1.00  0.00     0.017 C 
BRANCH  21  22
HETATM   22  C6  UNL     1       0.358  34.430   4.792  1.00  0.00    -0.014 C 
HETATM   23  C7  UNL     1      -0.812  33.941   4.025  1.00  0.00     0.005 C 
HETATM   24  C8  UNL     1      -1.167  32.577   4.618  1.00  0.00     0.000 C 
HETATM   25  C9  UNL     1       0.090  32.064   5.244  1.00  0.00     0.000 C 
HETATM   26  C10 UNL     1       1.096  33.195   5.281  1.00  0.00     0.005 C 
ENDBRANCH  21  22
ENDBRANCH  10  21
BRANCH   1  27
HETATM   27  N1  UNL     1      -2.286  37.877   7.047  1.00  0.00    -0.233 N 
ATOM     28  H12 UNL     1      -3.141  37.449   7.400  1.00  0.00     0.174 HD
ATOM     29  H11 UNL     1      -1.674  38.395   7.679  1.00  0.00     0.174 HD
ENDBRANCH   1  27
TORSDOF 5
ENDMDL
MODEL 2
REMARK VINA RESULT: -8.577841387      2.304      5.616
REMARK  5 active torsions:
REMARK  status: ('A' for Active; 'I' for Inactive)
REMARK    1  A    between atoms: N1_1  and  C1_4 
REMARK    2  A    between atoms: C4_13  and  C5_14 
REMARK    3  A    between atoms: C5_14  and  C6_15 
REMARK    4  A    between atoms: C11_20  and  N5_21 
REMARK    5  A    between atoms: N5_21  and  C12_23 
ROOT
HETATM    1  C1  UNL     1      -1.479  36.615   0.013  1.00  0.00     0.690 A 
HETATM    2  N2  UNL     1      -2.649  36.940   0.608  1.00  0.00    -0.132 N 
ATOM      3  H2  UNL     1      -3.488  37.099   0.050  1.00  0.00     0.205 HD
HETATM    4  N3  UNL     1      -2.687  37.048   1.911  1.00  0.00    -0.289 N 
ATOM      5  H3  UNL     1      -3.566  37.293   2.367  1.00  0.00     0.187 HD
HETATM    6  C2  UNL     1      -1.564  36.839   2.679  1.00  0.00     0.051 A 
HETATM    7  C3  UNL     1      -0.378  36.511   2.094  1.00  0.00     0.057 A 
HETATM    8  N4  UNL     1      -0.382  36.410   0.756  1.00  0.00    -0.192 N 
ATOM      9  H4  UNL     1       0.489  36.168   0.283  1.00  0.00     0.184 HD
HETATM   10  C4  UNL     1       0.659  36.343   3.143  1.00  0.00     0.061 A 
HETATM   11  C11 UNL     1       0.029  36.684   4.426  1.00  0.00     0.092 A 
HETATM   12  C17 UNL     1      -1.425  36.911   4.129  1.00  0.00     0.086 A 
ENDROOT
BRANCH  11  13
HETATM   13  N5  UNL     1       0.266  35.614   5.363  1.00  0.00    -0.412 N 
ATOM     14  H5  UNL     1       0.749  35.786   6.244  1.00  0.00     0.154 HD
BRANCH  13  15
HETATM   15  C12 UNL     1      -0.189  34.328   5.025  1.00  0.00     0.081 C 
HETATM   16  C13 UNL     1       1.016  33.377   5.160  1.00  0.00     0.051 C 
HETATM   17  C14 UNL     1       0.405  31.985   5.176  1.00  0.00     0.169 C 
HETATM   18  O1  UNL     1      -0.801  31.949   4.476  1.00  0.00    -0.391 OA
HETATM   19  C15 UNL     1      -1.808  32.499   5.268  1.00  0.00     0.169 C 
HETATM   20  C16 UNL     1      -1.230  33.756   5.933  1.00  0.00     0.051 C 
ENDBRANCH  13  15
ENDBRANCH  11  13
BRANCH  10  21
HETATM   21  C5  UNL     1       1.977  36.871   2.755  1.00  0.00     0.017 C 
BRANCH  21  22
HETATM   22  C6  UNL     1       2.943  36.053   2.013  1.00  0.00    -0.014 C 
HETATM   23  C7  UNL     1       3.343  36.626   0.706  1.00  0.00     0.005 C 
HETATM   24  C8  UNL     1       4.769  36.138   0.450  1.00  0.00     0.000 C 
HETATM   25  C9  UNL     1       5.346  35.836   1.796  1.00  0.00     0.000 C 
HETATM   26  C10 UNL     1       4.222  35.868   2.811  1.00  0.00     0.005 C 
ENDBRANCH  21  22
ENDBRANCH  10  21
BRANCH   1  27
HETATM   27  N1  UNL     1      -1.474  36.517  -1.270  1.00  0.00    -0.233 N 
ATOM     28  H12 UNL     1      -1.717  35.654  -1.755  1.00  0.00     0.174 HD
ATOM     29  H11 UNL     1      -1.211  37.347  -1.802  1.00  0.00     0.174 HD
ENDBRANCH   1  27
TORSDOF 5
ENDMDL
MODEL 3
REMARK VINA RESULT: -8.416602081      3.336      6.511
REMARK  5 active torsions:
REMARK  status: ('A' for Active; 'I' for Inactive)
REMARK    1  A    between atoms: N1_1  and  C1_4 
REMARK    2  A    between atoms: C4_13  and  C5_14 
REMARK    3  A    between atoms: C5_14  and  C6_15 
REMARK    4  A    between atoms: C11_20  and  N5_21 
REMARK    5  A    between atoms: N5_21  and  C12_23 
ROOT
HETATM    1  C1  UNL     1      -2.441  34.993   0.563  1.00  0.00     0.690 A 
HETATM    2  N2  UNL     1      -3.246  36.071   0.425  1.00  0.00    -0.132 N 
ATOM      3  H2  UNL     1      -3.946  36.103  -0.316  1.00  0.00     0.205 HD
HETATM    4  N3  UNL     1      -3.112  37.070   1.259  1.00  0.00    -0.289 N 
ATOM      5  H3  UNL     1      -3.717  37.886   1.162  1.00  0.00     0.187 HD
HETATM    6  C2  UNL     1      -2.172  37.043   2.263  1.00  0.00     0.051 A 
HETATM    7  C3  UNL     1      -1.353  35.964   2.414  1.00  0.00     0.057 A 
HETATM    8  N4  UNL     1      -1.522  34.961   1.539  1.00  0.00    -0.192 N 
ATOM      9  H4  UNL     1      -0.926  34.138   1.621  1.00  0.00     0.184 HD
HETATM   10  C4  UNL     1      -0.442  36.194   3.564  1.00  0.00     0.061 A 
HETATM   11  C11 UNL     1      -0.711  37.552   4.058  1.00  0.00     0.092 A 
HETATM   12  C17 UNL     1      -1.889  38.054   3.275  1.00  0.00     0.086 A 
ENDROOT
BRANCH  11  13
HETATM   13  N5  UNL     1      -0.945  37.495   5.479  1.00  0.00    -0.412 N 
ATOM     14  H5  UNL     1      -0.187  37.288   6.128  1.00  0.00     0.154 HD
BRANCH  13  15
HETATM   15  C12 UNL     1      -2.250  37.735   5.944  1.00  0.00     0.081 C 
HETATM   16  C13 UNL     1      -2.767  36.408   6.531  1.00  0.00     0.051 C 
HETATM   17  C14 UNL     1      -3.984  36.803   7.354  1.00  0.00     0.169 C 
HETATM   18  O1  UNL     1      -4.586  37.956   6.854  1.00  0.00    -0.391 OA
HETATM   19  C15 UNL     1      -3.845  39.070   7.248  1.00  0.00     0.169 C 
HETATM   20  C16 UNL     1      -2.361  38.719   7.064  1.00  0.00     0.051 C 
ENDBRANCH  13  15
ENDBRANCH  11  13
BRANCH  10  21
HETATM   21  C5  UNL     1       0.926  35.703   3.337  1.00  0.00     0.017 C 
BRANCH  21  22
HETATM   22  C6  UNL     1       1.982  36.583   2.825  1.00  0.00    -0.014 C 
HETATM   23  C7  UNL     1       3.347  36.016   2.932  1.00  0.00     0.005 C 
HETATM   24  C8  UNL     1       4.147  36.619   1.777  1.00  0.00     0.000 C 
HETATM   25  C9  UNL     1       3.141  37.002   0.739  1.00  0.00     0.000 C 
HETATM   26  C10 UNL     1       1.762  36.897   1.355  1.00  0.00     0.005 C 
ENDBRANCH  21  22
ENDBRANCH  10  21
BRANCH   1  27
HETATM   27  N1  UNL     1      -2.596  34.027  -0.272  1.00  0.00    -0.233 N 
ATOM     28  H12 UNL     1      -2.701  34.181  -1.275  1.00  0.00     0.174 HD
ATOM     29  H11 UNL     1      -2.614  33.080   0.104  1.00  0.00     0.174 HD
ENDBRANCH   1  27
TORSDOF 5
ENDMDL
MODEL 4
REMARK VINA RESULT: -8.315428442      2.975      6.179
REMARK  5 active torsions:
REMARK  status: ('A' for Active; 'I' for Inactive)
REMARK    1  A    between atoms: N1_1  and  C1_4 
REMARK    2  A    between atoms: C4_13  and  C5_14 
REMARK    3  A    between atoms: C5_14  and  C6_15 
REMARK    4  A    between atoms: C11_20  and  N5_21 
REMARK    5  A    between atoms: N5_21  and  C12_23 
ROOT
HETATM    1  C1  UNL     1      -1.454  36.622  -0.026  1.00  0.00     0.690 A 
HETATM    2  N2  UNL     1      -2.631  36.950   0.555  1.00  0.00    -0.132 N 
ATOM      3  H2  UNL     1      -3.464  37.105  -0.012  1.00  0.00     0.205 HD
HETATM    4  N3  UNL     1      -2.682  37.065   1.858  1.00  0.00    -0.289 N 
ATOM      5  H3  UNL     1      -3.565  37.311   2.304  1.00  0.00     0.187 HD
HETATM    6  C2  UNL     1      -1.566  36.861   2.638  1.00  0.00     0.051 A 
HETATM    7  C3  UNL     1      -0.374  36.531   2.066  1.00  0.00     0.057 A 
HETATM    8  N4  UNL     1      -0.364  36.424   0.729  1.00  0.00    -0.192 N 
ATOM      9  H4  UNL     1       0.512  36.179   0.266  1.00  0.00     0.184 HD
HETATM   10  C4  UNL     1       0.653  36.370   3.127  1.00  0.00     0.061 A 
HETATM   11  C11 UNL     1       0.009  36.718   4.402  1.00  0.00     0.092 A 
HETATM   12  C17 UNL     1      -1.442  36.941   4.088  1.00  0.00     0.086 A 
ENDROOT
BRANCH  11  13
HETATM   13  N5  UNL     1       0.238  35.653   5.347  1.00  0.00    -0.412 N 
ATOM     14  H5  UNL     1       1.163  35.240   5.458  1.00  0.00     0.154 HD
BRANCH  13  15
HETATM   15  C12 UNL     1      -0.853  35.202   6.110  1.00  0.00     0.081 C 
HETATM   16  C13 UNL     1      -0.849  33.663   6.030  1.00  0.00     0.051 C 
HETATM   17  C14 UNL     1      -1.770  33.220   7.156  1.00  0.00     0.169 C 
HETATM   18  O1  UNL     1      -2.736  34.186   7.436  1.00  0.00    -0.391 OA
HETATM   19  C15 UNL     1      -2.158  35.207   8.189  1.00  0.00     0.169 C 
HETATM   20  C16 UNL     1      -0.785  35.509   7.571  1.00  0.00     0.051 C 
ENDBRANCH  13  15
ENDBRANCH  11  13
BRANCH  10  21
HETATM   21  C5  UNL     1       1.974  36.898   2.750  1.00  0.00     0.017 C 
BRANCH  21  22
HETATM   22  C6  UNL     1       2.938  36.085   1.999  1.00  0.00    -0.014 C 
HETATM   23  C7  UNL     1       3.334  36.668   0.696  1.00  0.00     0.005 C 
HETATM   24  C8  UNL     1       4.760  36.182   0.432  1.00  0.00     0.000 C 
HETATM   25  C9  UNL     1       5.341  35.871   1.774  1.00  0.00     0.000 C 
HETATM   26  C10 UNL     1       4.220  35.895   2.792  1.00  0.00     0.005 C 
ENDBRANCH  21  22
ENDBRANCH  10  21
BRANCH   1  27
HETATM   27  N1  UNL     1      -1.436  36.518  -1.308  1.00  0.00    -0.233 N 
ATOM     28  H12 UNL     1      -1.215  37.304  -1.919  1.00  0.00     0.174 HD
ATOM     29  H11 UNL     1      -1.657  35.606  -1.707  1.00  0.00     0.174 HD
ENDBRANCH   1  27
TORSDOF 5
ENDMDL
MODEL 5
REMARK VINA RESULT: -8.160624981      1.074      1.449
REMARK  5 active torsions:
REMARK  status: ('A' for Active; 'I' for Inactive)
REMARK    1  A    between atoms: N1_1  and  C1_4 
REMARK    2  A    between atoms: C4_13  and  C5_14 
REMARK    3  A    between atoms: C5_14  and  C6_15 
REMARK    4  A    between atoms: C11_20  and  N5_21 
REMARK    5  A    between atoms: N5_21  and  C12_23 
ROOT
HETATM    1  C1  UNL     1      -2.062  37.952   4.332  1.00  0.00     0.690 A 
HETATM    2  N2  UNL     1      -2.512  38.122   3.068  1.00  0.00    -0.132 N 
ATOM      3  H2  UNL     1      -3.446  38.492   2.895  1.00  0.00     0.205 HD
HETATM    4  N3  UNL     1      -1.727  37.802   2.071  1.00  0.00    -0.289 N 
ATOM      5  H3  UNL     1      -2.058  37.928   1.114  1.00  0.00     0.187 HD
HETATM    6  C2  UNL     1      -0.464  37.300   2.286  1.00  0.00     0.051 A 
HETATM    7  C3  UNL     1       0.002  37.124   3.555  1.00  0.00     0.057 A 
HETATM    8  N4  UNL     1      -0.833  37.463   4.549  1.00  0.00    -0.192 N 
ATOM      9  H4  UNL     1      -0.518  37.343   5.512  1.00  0.00     0.184 HD
HETATM   10  C4  UNL     1       1.380  36.574   3.502  1.00  0.00     0.061 A 
HETATM   11  C11 UNL     1       1.694  36.342   2.084  1.00  0.00     0.092 A 
HETATM   12  C17 UNL     1       0.538  36.900   1.306  1.00  0.00     0.086 A 
ENDROOT
BRANCH  11  13
HETATM   13  N5  UNL     1       2.954  36.971   1.775  1.00  0.00    -0.412 N 
ATOM     14  H5  UNL     1       3.119  37.953   1.996  1.00  0.00     0.154 HD
BRANCH  13  15
HETATM   15  C12 UNL     1       3.948  36.191   1.160  1.00  0.00     0.081 C 
HETATM   16  C13 UNL     1       3.824  36.423  -0.358  1.00  0.00     0.051 C 
HETATM   17  C14 UNL     1       5.128  35.893  -0.934  1.00  0.00     0.169 C 
HETATM   18  O1  UNL     1       5.666  34.884  -0.136  1.00  0.00    -0.391 OA
HETATM   19  C15 UNL     1       6.283  35.458   0.975  1.00  0.00     0.169 C 
HETATM   20  C16 UNL     1       5.356  36.568   1.490  1.00  0.00     0.051 C 
ENDBRANCH  13  15
ENDBRANCH  11  13
BRANCH  10  21
HETATM   21  C5  UNL     1       1.650  35.563   4.536  1.00  0.00     0.017 C 
BRANCH  21  22
HETATM   22  C6  UNL     1       0.874  34.321   4.615  1.00  0.00    -0.014 C 
HETATM   23  C7  UNL     1       1.675  33.130   4.985  1.00  0.00     0.005 C 
HETATM   24  C8  UNL     1       0.720  32.190   5.721  1.00  0.00     0.000 C 
HETATM   25  C9  UNL     1      -0.365  33.059   6.271  1.00  0.00     0.000 C 
HETATM   26  C10 UNL     1      -0.229  34.435   5.653  1.00  0.00     0.005 C 
ENDBRANCH  21  22
ENDBRANCH  10  21
BRANCH   1  27
HETATM   27  N1  UNL     1      -2.857  38.274   5.291  1.00  0.00    -0.233 N 
ATOM     28  H12 UNL     1      -2.520  38.592   6.200  1.00  0.00     0.174 HD
ATOM     29  H11 UNL     1      -3.859  38.198   5.115  1.00  0.00     0.174 HD
ENDBRANCH   1  27
TORSDOF 5
ENDMDL
