MODEL 1
REMARK VINA RESULT: -7.579355766      0.000      0.000
REMARK  3 active torsions:
REMARK  status: ('A' for Active; 'I' for Inactive)
REMARK    1  A    between atoms: C2_2  and  C3_5 
REMARK    2  A    between atoms: C6_9  and  N1_10 
REMARK       I    between atoms: N1_10  and  C7_12 
REMARK       I    between atoms: C7_12  and  N2_14 
REMARK    3  A    between atoms: N2_14  and  C8_16 
ROOT
HETATM    1  N1  UNL     1      -4.059  -3.121  20.584  1.00  0.00    -0.302 N 
ATOM      2  H1  UNL     1      -4.060  -2.568  19.728  1.00  0.00     0.171 HD
HETATM    3  C7  UNL     1      -4.786  -4.327  20.648  1.00  0.00     0.321 C 
HETATM    4  O1  UNL     1      -4.767  -4.989  21.714  1.00  0.00    -0.247 OA
HETATM    5  N2  UNL     1      -5.541  -4.831  19.559  1.00  0.00    -0.338 N 
ATOM      6  H2  UNL     1      -5.568  -4.306  18.684  1.00  0.00     0.164 HD
ENDROOT
BRANCH   1   7
HETATM    7  C6  UNL     1      -3.319  -2.673  21.726  1.00  0.00     0.090 A 
HETATM    8  C3  UNL     1      -1.961  -2.608  21.888  1.00  0.00     0.047 A 
HETATM    9  C4  UNL     1      -1.510  -2.137  23.065  1.00  0.00     0.023 A 
HETATM   10  C5  UNL     1      -2.436  -1.765  23.996  1.00  0.00     0.053 A 
HETATM   11  S1  UNL     1      -3.915  -2.080  23.213  1.00  0.00    -0.083 SA
BRANCH   8  12
HETATM   12  C2  UNL     1      -1.038  -3.069  20.770  1.00  0.00     0.270 C 
HETATM   13  C1  UNL     1       0.383  -2.655  21.012  1.00  0.00     0.096 C 
HETATM   14  F1  UNL     1      -1.143  -4.461  20.658  1.00  0.00    -0.201 F 
HETATM   15  F2  UNL     1      -1.441  -2.560  19.555  1.00  0.00    -0.201 F 
ENDBRANCH   8  12
ENDBRANCH   1   7
BRANCH   5  16
HETATM   16  C8  UNL     1      -6.276  -6.075  19.663  1.00  0.00     0.086 C 
HETATM   17  C9  UNL     1      -5.315  -7.146  20.065  1.00  0.00     0.025 C 
HETATM   18  C10 UNL     1      -5.839  -8.068  21.125  1.00  0.00     0.002 C 
HETATM   19  C11 UNL     1      -6.960  -8.948  20.662  1.00  0.00     0.000 C 
HETATM   20  C12 UNL     1      -8.038  -8.179  19.936  1.00  0.00     0.000 C 
HETATM   21  C13 UNL     1      -8.425  -6.921  20.654  1.00  0.00     0.002 C 
HETATM   22  C14 UNL     1      -7.391  -5.860  20.651  1.00  0.00     0.025 C 
ENDBRANCH   5  16
TORSDOF 3
ENDMDL
MODEL 2
REMARK VINA RESULT: -7.147379524      2.018      2.734
REMARK  3 active torsions:
REMARK  status: ('A' for Active; 'I' for Inactive)
REMARK    1  A    between atoms: C2_2  and  C3_5 
REMARK    2  A    between atoms: C6_9  and  N1_10 
REMARK       I    between atoms: N1_10  and  C7_12 
REMARK       I    between atoms: C7_12  and  N2_14 
REMARK    3  A    between atoms: N2_14  and  C8_16 
ROOT
HETATM    1  N1  UNL     1      -3.978  -3.246  20.494  1.00  0.00    -0.302 N 
ATOM      2  H1  UNL     1      -3.957  -2.729  19.616  1.00  0.00     0.171 HD
HETATM    3  C7  UNL     1      -4.717  -4.443  20.593  1.00  0.00     0.321 C 
HETATM    4  O1  UNL     1      -4.724  -5.062  21.685  1.00  0.00    -0.247 OA
HETATM    5  N2  UNL     1      -5.457  -4.983  19.511  1.00  0.00    -0.338 N 
ATOM      6  H2  UNL     1      -5.463  -4.494  18.615  1.00  0.00     0.164 HD
ENDROOT
BRANCH   1   7
HETATM    7  C6  UNL     1      -3.254  -2.760  21.631  1.00  0.00     0.090 A 
HETATM    8  C3  UNL     1      -3.718  -2.008  22.676  1.00  0.00     0.047 A 
HETATM    9  C4  UNL     1      -2.832  -1.684  23.635  1.00  0.00     0.023 A 
HETATM   10  C5  UNL     1      -1.549  -2.128  23.487  1.00  0.00     0.053 A 
HETATM   11  S1  UNL     1      -1.606  -2.985  22.017  1.00  0.00    -0.083 SA
BRANCH   8  12
HETATM   12  C2  UNL     1      -5.175  -1.568  22.711  1.00  0.00     0.270 C 
HETATM   13  C1  UNL     1      -5.987  -2.399  23.660  1.00  0.00     0.096 C 
HETATM   14  F1  UNL     1      -5.216  -0.214  23.067  1.00  0.00    -0.201 F 
HETATM   15  F2  UNL     1      -5.745  -1.649  21.460  1.00  0.00    -0.201 F 
ENDBRANCH   8  12
ENDBRANCH   1   7
BRANCH   5  16
HETATM   16  C8  UNL     1      -6.205  -6.216  19.651  1.00  0.00     0.086 C 
HETATM   17  C9  UNL     1      -5.259  -7.281  20.102  1.00  0.00     0.025 C 
HETATM   18  C10 UNL     1      -5.805  -8.159  21.188  1.00  0.00     0.002 C 
HETATM   19  C11 UNL     1      -6.929  -9.045  20.744  1.00  0.00     0.000 C 
HETATM   20  C12 UNL     1      -7.991  -8.292  19.979  1.00  0.00     0.000 C 
HETATM   21  C13 UNL     1      -8.374  -7.006  20.647  1.00  0.00     0.002 C 
HETATM   22  C14 UNL     1      -7.329  -5.955  20.617  1.00  0.00     0.025 C 
ENDBRANCH   5  16
TORSDOF 3
ENDMDL
MODEL 3
REMARK VINA RESULT: -7.026051508      2.218      3.045
REMARK  3 active torsions:
REMARK  status: ('A' for Active; 'I' for Inactive)
REMARK    1  A    between atoms: C2_2  and  C3_5 
REMARK    2  A    between atoms: C6_9  and  N1_10 
REMARK       I    between atoms: N1_10  and  C7_12 
REMARK       I    between atoms: C7_12  and  N2_14 
REMARK    3  A    between atoms: N2_14  and  C8_16 
ROOT
HETATM    1  N1  UNL     1      -2.683  -5.042  22.249  1.00  0.00    -0.302 N 
ATOM      2  H1  UNL     1      -2.275  -5.617  22.985  1.00  0.00     0.171 HD
HETATM    3  C7  UNL     1      -3.959  -5.352  21.733  1.00  0.00     0.321 C 
HETATM    4  O1  UNL     1      -4.438  -4.626  20.829  1.00  0.00    -0.247 OA
HETATM    5  N2  UNL     1      -4.729  -6.450  22.192  1.00  0.00    -0.338 N 
ATOM      6  H2  UNL     1      -4.355  -7.051  22.927  1.00  0.00     0.164 HD
ENDROOT
BRANCH   1   7
HETATM    7  C6  UNL     1      -1.961  -3.916  21.735  1.00  0.00     0.090 A 
HETATM    8  C3  UNL     1      -1.978  -2.621  22.178  1.00  0.00     0.047 A 
HETATM    9  C4  UNL     1      -1.195  -1.743  21.525  1.00  0.00     0.023 A 
HETATM   10  C5  UNL     1      -0.453  -2.212  20.480  1.00  0.00     0.053 A 
HETATM   11  S1  UNL     1      -0.862  -3.864  20.430  1.00  0.00    -0.083 SA
BRANCH   8  12
HETATM   12  C2  UNL     1      -2.865  -2.228  23.351  1.00  0.00     0.270 C 
HETATM   13  C1  UNL     1      -4.193  -1.700  22.896  1.00  0.00     0.096 C 
HETATM   14  F1  UNL     1      -3.026  -3.349  24.176  1.00  0.00    -0.201 F 
HETATM   15  F2  UNL     1      -2.256  -1.269  24.130  1.00  0.00    -0.201 F 
ENDBRANCH   8  12
ENDBRANCH   1   7
BRANCH   5  16
HETATM   16  C8  UNL     1      -6.037  -6.736  21.637  1.00  0.00     0.086 C 
HETATM   17  C9  UNL     1      -6.800  -5.454  21.570  1.00  0.00     0.025 C 
HETATM   18  C10 UNL     1      -7.556  -5.263  20.289  1.00  0.00     0.002 C 
HETATM   19  C11 UNL     1      -8.706  -6.207  20.117  1.00  0.00     0.000 C 
HETATM   20  C12 UNL     1      -8.323  -7.642  20.388  1.00  0.00     0.000 C 
HETATM   21  C13 UNL     1      -7.035  -8.026  19.724  1.00  0.00     0.002 C 
HETATM   22  C14 UNL     1      -5.826  -7.387  20.297  1.00  0.00     0.025 C 
ENDBRANCH   5  16
TORSDOF 3
ENDMDL
MODEL 4
REMARK VINA RESULT: -6.964637345      2.660      6.723
REMARK  3 active torsions:
REMARK  status: ('A' for Active; 'I' for Inactive)
REMARK    1  A    between atoms: C2_2  and  C3_5 
REMARK    2  A    between atoms: C6_9  and  N1_10 
REMARK       I    between atoms: N1_10  and  C7_12 
REMARK       I    between atoms: C7_12  and  N2_14 
REMARK    3  A    between atoms: N2_14  and  C8_16 
ROOT
HETATM    1  N1  UNL     1      -5.172  -5.844  22.097  1.00  0.00    -0.302 N 
ATOM      2  H1  UNL     1      -4.938  -6.511  22.832  1.00  0.00     0.171 HD
HETATM    3  C7  UNL     1      -4.175  -5.001  21.564  1.00  0.00     0.321 C 
HETATM    4  O1  UNL     1      -4.490  -4.190  20.658  1.00  0.00    -0.247 OA
HETATM    5  N2  UNL     1      -2.828  -5.025  22.003  1.00  0.00    -0.338 N 
ATOM      6  H2  UNL     1      -2.554  -5.678  22.738  1.00  0.00     0.164 HD
ENDROOT
BRANCH   1   7
HETATM    7  C6  UNL     1      -6.514  -5.762  21.603  1.00  0.00     0.090 A 
HETATM    8  C3  UNL     1      -7.205  -6.681  20.860  1.00  0.00     0.047 A 
HETATM    9  C4  UNL     1      -8.470  -6.368  20.527  1.00  0.00     0.023 A 
HETATM   10  C5  UNL     1      -8.959  -5.166  20.953  1.00  0.00     0.053 A 
HETATM   11  S1  UNL     1      -7.646  -4.500  21.808  1.00  0.00    -0.083 SA
BRANCH   8  12
HETATM   12  C2  UNL     1      -6.534  -7.980  20.439  1.00  0.00     0.270 C 
HETATM   13  C1  UNL     1      -7.515  -9.111  20.345  1.00  0.00     0.096 C 
HETATM   14  F1  UNL     1      -5.894  -7.767  19.212  1.00  0.00    -0.201 F 
HETATM   15  F2  UNL     1      -5.543  -8.335  21.328  1.00  0.00    -0.201 F 
ENDBRANCH   8  12
ENDBRANCH   1   7
BRANCH   5  16
HETATM   16  C8  UNL     1      -1.832  -4.143  21.430  1.00  0.00     0.086 C 
HETATM   17  C9  UNL     1      -1.975  -4.189  19.944  1.00  0.00     0.025 C 
HETATM   18  C10 UNL     1      -1.896  -2.845  19.283  1.00  0.00     0.002 C 
HETATM   19  C11 UNL     1      -0.538  -2.216  19.349  1.00  0.00     0.000 C 
HETATM   20  C12 UNL     1       0.047  -2.245  20.741  1.00  0.00     0.000 C 
HETATM   21  C13 UNL     1      -0.941  -1.819  21.785  1.00  0.00     0.002 C 
HETATM   22  C14 UNL     1      -2.051  -2.775  22.018  1.00  0.00     0.025 C 
ENDBRANCH   5  16
TORSDOF 3
ENDMDL
MODEL 5
REMARK VINA RESULT: -6.926168845      2.643      6.667
REMARK  3 active torsions:
REMARK  status: ('A' for Active; 'I' for Inactive)
REMARK    1  A    between atoms: C2_2  and  C3_5 
REMARK    2  A    between atoms: C6_9  and  N1_10 
REMARK       I    between atoms: N1_10  and  C7_12 
REMARK       I    between atoms: C7_12  and  N2_14 
REMARK    3  A    between atoms: N2_14  and  C8_16 
ROOT
HETATM    1  N1  UNL     1      -5.337  -5.371  21.979  1.00  0.00    -0.302 N 
ATOM      2  H1  UNL     1      -4.991  -5.914  22.769  1.00  0.00     0.171 HD
HETATM    3  C7  UNL     1      -4.493  -4.444  21.333  1.00  0.00     0.321 C 
HETATM    4  O1  UNL     1      -4.944  -3.790  20.361  1.00  0.00    -0.247 OA
HETATM    5  N2  UNL     1      -3.152  -4.216  21.731  1.00  0.00    -0.338 N 
ATOM      6  H2  UNL     1      -2.768  -4.739  22.519  1.00  0.00     0.164 HD
ENDROOT
BRANCH   1   7
HETATM    7  C6  UNL     1      -6.683  -5.549  21.521  1.00  0.00     0.090 A 
HETATM    8  C3  UNL     1      -7.184  -6.533  20.714  1.00  0.00     0.047 A 
HETATM    9  C4  UNL     1      -8.500  -6.482  20.435  1.00  0.00     0.023 A 
HETATM   10  C5  UNL     1      -9.223  -5.458  20.976  1.00  0.00     0.053 A 
HETATM   11  S1  UNL     1      -8.055  -4.590  21.860  1.00  0.00    -0.083 SA
BRANCH   8  12
HETATM   12  C2  UNL     1      -6.262  -7.612  20.165  1.00  0.00     0.270 C 
HETATM   13  C1  UNL     1      -5.454  -8.261  21.249  1.00  0.00     0.096 C 
HETATM   14  F1  UNL     1      -7.044  -8.556  19.488  1.00  0.00    -0.201 F 
HETATM   15  F2  UNL     1      -5.398  -7.093  19.227  1.00  0.00    -0.201 F 
ENDBRANCH   8  12
ENDBRANCH   1   7
BRANCH   5  16
HETATM   16  C8  UNL     1      -2.315  -3.255  21.042  1.00  0.00     0.086 C 
HETATM   17  C9  UNL     1      -1.137  -2.961  21.911  1.00  0.00     0.025 C 
HETATM   18  C10 UNL     1       0.168  -2.916  21.174  1.00  0.00     0.002 C 
HETATM   19  C11 UNL     1       0.296  -1.752  20.238  1.00  0.00     0.000 C 
HETATM   20  C12 UNL     1      -0.913  -1.590  19.347  1.00  0.00     0.000 C 
HETATM   21  C13 UNL     1      -1.358  -2.889  18.746  1.00  0.00     0.002 C 
HETATM   22  C14 UNL     1      -1.950  -3.849  19.708  1.00  0.00     0.025 C 
ENDBRANCH   5  16
TORSDOF 3
ENDMDL
