MODEL 1
REMARK VINA RESULT: -8.244205727      0.000      0.000
REMARK  9 active torsions:
REMARK  status: ('A' for Active; 'I' for Inactive)
REMARK    1  A    between atoms: C2_2  and  N1_3 
REMARK    2  A    between atoms: C8_10  and  C9_11 
REMARK    3  A    between atoms: C9_11  and  C10_12 
REMARK    4  A    between atoms: C10_12  and  C11_13 
REMARK    5  A    between atoms: C11_13  and  C12_14 
REMARK    6  A    between atoms: C12_14  and  C13_15 
REMARK    7  A    between atoms: C13_15  and  C14_16 
REMARK    8  A    between atoms: C14_16  and  O2_17 
REMARK    9  A    between atoms: N2_19  and  O3_21 
ROOT
HETATM    1  N1  UNL     1     -22.041  23.606  -4.752  1.00  0.00     0.119 N 
HETATM    2  C3  UNL     1     -21.952  23.196  -6.108  1.00  0.00     0.290 C 
HETATM    3  C4  UNL     1     -20.664  22.581  -6.519  1.00  0.00     0.079 C 
HETATM    4  C5  UNL     1     -19.468  23.427  -6.466  1.00  0.00     0.129 C 
HETATM    5  O1  UNL     1     -19.705  24.800  -6.407  1.00  0.00    -0.377 OA
HETATM    6  C6  UNL     1     -20.114  25.057  -5.094  1.00  0.00     0.166 C 
HETATM    7  C7  UNL     1     -19.466  24.005  -4.223  1.00  0.00     0.042 C 
HETATM    8  C8  UNL     1     -18.613  23.265  -5.236  1.00  0.00     0.017 C 
HETATM    9  C15 UNL     1     -21.618  24.957  -5.077  1.00  0.00     0.316 C 
HETATM   10  S1  UNL     1     -22.290  24.806  -6.763  1.00  0.00    -0.095 SA
ENDROOT
BRANCH   8  11
HETATM   11  C9  UNL     1     -18.308  21.879  -4.862  1.00  0.00     0.007 C 
BRANCH  11  12
HETATM   12  C10 UNL     1     -16.915  21.496  -5.268  1.00  0.00     0.000 C 
BRANCH  12  13
HETATM   13  C11 UNL     1     -16.984  20.839  -6.643  1.00  0.00     0.000 C 
BRANCH  13  14
HETATM   14  C12 UNL     1     -17.947  19.660  -6.607  1.00  0.00     0.008 C 
BRANCH  14  15
HETATM   15  C13 UNL     1     -17.297  18.341  -6.817  1.00  0.00     0.086 C 
BRANCH  15  16
HETATM   16  C14 UNL     1     -15.918  18.205  -6.357  1.00  0.00     0.135 C 
HETATM   17  N2  UNL     1     -14.956  18.136  -7.223  1.00  0.00    -0.251 N 
ATOM     18  H2  UNL     1     -15.185  18.179  -8.217  1.00  0.00     0.196 HD
BRANCH  16  19
HETATM   19  O2  UNL     1     -15.538  18.140  -5.020  1.00  0.00    -0.348 OA
ATOM     20  H2  UNL     1     -14.638  18.120  -4.719  1.00  0.00     0.219 HD
ENDBRANCH  16  19
BRANCH  17  21
HETATM   21  O3  UNL     1     -13.647  18.008  -6.855  1.00  0.00    -0.288 OA
ATOM     22  H3  UNL     1     -13.100  17.292  -7.158  1.00  0.00     0.244 HD
ENDBRANCH  17  21
ENDBRANCH  15  16
ENDBRANCH  14  15
ENDBRANCH  13  14
ENDBRANCH  12  13
ENDBRANCH  11  12
ENDBRANCH   8  11
BRANCH   1  23
HETATM   23  C2  UNL     1     -23.435  23.668  -4.286  1.00  0.00     0.271 C 
HETATM   24  C1  UNL     1     -24.123  22.346  -4.377  1.00  0.00     0.037 C 
ENDBRANCH   1  23
TORSDOF 9
ENDMDL
MODEL 2
REMARK VINA RESULT: -8.222181395      1.236      1.478
REMARK  9 active torsions:
REMARK  status: ('A' for Active; 'I' for Inactive)
REMARK    1  A    between atoms: C2_2  and  N1_3 
REMARK    2  A    between atoms: C8_10  and  C9_11 
REMARK    3  A    between atoms: C9_11  and  C10_12 
REMARK    4  A    between atoms: C10_12  and  C11_13 
REMARK    5  A    between atoms: C11_13  and  C12_14 
REMARK    6  A    between atoms: C12_14  and  C13_15 
REMARK    7  A    between atoms: C13_15  and  C14_16 
REMARK    8  A    between atoms: C14_16  and  O2_17 
REMARK    9  A    between atoms: N2_19  and  O3_21 
ROOT
HETATM    1  N1  UNL     1     -21.634  22.140  -5.674  1.00  0.00     0.119 N 
HETATM    2  C3  UNL     1     -21.313  23.297  -6.431  1.00  0.00     0.290 C 
HETATM    3  C4  UNL     1     -19.893  23.729  -6.388  1.00  0.00     0.079 C 
HETATM    4  C5  UNL     1     -19.359  24.160  -5.092  1.00  0.00     0.129 C 
HETATM    5  O1  UNL     1     -20.313  24.481  -4.127  1.00  0.00    -0.377 OA
HETATM    6  C6  UNL     1     -20.816  23.259  -3.670  1.00  0.00     0.166 C 
HETATM    7  C7  UNL     1     -19.711  22.242  -3.841  1.00  0.00     0.042 C 
HETATM    8  C8  UNL     1     -18.575  23.118  -4.336  1.00  0.00     0.017 C 
HETATM    9  C15 UNL     1     -22.018  22.936  -4.521  1.00  0.00     0.316 C 
HETATM   10  S1  UNL     1     -22.470  24.340  -5.589  1.00  0.00    -0.095 SA
ENDROOT
BRANCH   8  11
HETATM   11  C9  UNL     1     -17.564  22.400  -5.122  1.00  0.00     0.007 C 
BRANCH  11  12
HETATM   12  C10 UNL     1     -18.028  21.020  -5.479  1.00  0.00     0.000 C 
BRANCH  12  13
HETATM   13  C11 UNL     1     -17.256  20.563  -6.713  1.00  0.00     0.000 C 
BRANCH  13  14
HETATM   14  C12 UNL     1     -17.888  19.299  -7.281  1.00  0.00     0.008 C 
BRANCH  14  15
HETATM   15  C13 UNL     1     -17.325  18.041  -6.729  1.00  0.00     0.086 C 
BRANCH  15  16
HETATM   16  C14 UNL     1     -15.922  18.067  -6.323  1.00  0.00     0.135 C 
HETATM   17  N2  UNL     1     -14.992  17.980  -7.223  1.00  0.00    -0.251 N 
ATOM     18  H2  UNL     1     -15.263  17.893  -8.203  1.00  0.00     0.196 HD
BRANCH  16  19
HETATM   19  O2  UNL     1     -15.487  18.183  -5.008  1.00  0.00    -0.348 OA
ATOM     20  H2  UNL     1     -14.716  17.751  -4.658  1.00  0.00     0.219 HD
ENDBRANCH  16  19
BRANCH  17  21
HETATM   21  O3  UNL     1     -13.663  17.999  -6.906  1.00  0.00    -0.288 OA
ATOM     22  H3  UNL     1     -12.988  18.163  -7.553  1.00  0.00     0.244 HD
ENDBRANCH  17  21
ENDBRANCH  15  16
ENDBRANCH  14  15
ENDBRANCH  13  14
ENDBRANCH  12  13
ENDBRANCH  11  12
ENDBRANCH   8  11
BRANCH   1  23
HETATM   23  C2  UNL     1     -22.840  21.467  -6.182  1.00  0.00     0.271 C 
HETATM   24  C1  UNL     1     -23.490  20.612  -5.146  1.00  0.00     0.037 C 
ENDBRANCH   1  23
TORSDOF 9
ENDMDL
MODEL 3
REMARK VINA RESULT: -8.051451468      1.990      3.022
REMARK  9 active torsions:
REMARK  status: ('A' for Active; 'I' for Inactive)
REMARK    1  A    between atoms: C2_2  and  N1_3 
REMARK    2  A    between atoms: C8_10  and  C9_11 
REMARK    3  A    between atoms: C9_11  and  C10_12 
REMARK    4  A    between atoms: C10_12  and  C11_13 
REMARK    5  A    between atoms: C11_13  and  C12_14 
REMARK    6  A    between atoms: C12_14  and  C13_15 
REMARK    7  A    between atoms: C13_15  and  C14_16 
REMARK    8  A    between atoms: C14_16  and  O2_17 
REMARK    9  A    between atoms: N2_19  and  O3_21 
ROOT
HETATM    1  N1  UNL     1     -18.709  23.663  -2.971  1.00  0.00     0.119 N 
HETATM    2  C3  UNL     1     -19.934  23.035  -2.621  1.00  0.00     0.290 C 
HETATM    3  C4  UNL     1     -20.507  22.117  -3.638  1.00  0.00     0.079 C 
HETATM    4  C5  UNL     1     -20.918  22.702  -4.918  1.00  0.00     0.129 C 
HETATM    5  O1  UNL     1     -21.086  24.086  -4.919  1.00  0.00    -0.377 OA
HETATM    6  C6  UNL     1     -19.795  24.624  -4.929  1.00  0.00     0.166 C 
HETATM    7  C7  UNL     1     -18.908  23.614  -5.621  1.00  0.00     0.042 C 
HETATM    8  C8  UNL     1     -19.923  22.567  -6.041  1.00  0.00     0.017 C 
HETATM    9  C15 UNL     1     -19.397  24.833  -3.489  1.00  0.00     0.316 C 
HETATM   10  S1  UNL     1     -20.804  24.556  -2.367  1.00  0.00    -0.095 SA
ENDROOT
BRANCH   8  11
HETATM   11  C9  UNL     1     -19.358  21.224  -6.221  1.00  0.00     0.007 C 
BRANCH  11  12
HETATM   12  C10 UNL     1     -17.929  21.167  -5.768  1.00  0.00     0.000 C 
BRANCH  12  13
HETATM   13  C11 UNL     1     -17.094  20.579  -6.901  1.00  0.00     0.000 C 
BRANCH  13  14
HETATM   14  C12 UNL     1     -17.765  19.325  -7.443  1.00  0.00     0.008 C 
BRANCH  14  15
HETATM   15  C13 UNL     1     -17.265  18.062  -6.841  1.00  0.00     0.086 C 
BRANCH  15  16
HETATM   16  C14 UNL     1     -15.880  18.055  -6.378  1.00  0.00     0.135 C 
HETATM   17  N2  UNL     1     -14.915  17.999  -7.242  1.00  0.00    -0.251 N 
ATOM     18  H2  UNL     1     -15.146  17.960  -8.235  1.00  0.00     0.196 HD
BRANCH  16  19
HETATM   19  O2  UNL     1     -15.498  18.106  -5.042  1.00  0.00    -0.348 OA
ATOM     20  H2  UNL     1     -15.376  17.343  -4.490  1.00  0.00     0.219 HD
ENDBRANCH  16  19
BRANCH  17  21
HETATM   21  O3  UNL     1     -13.600  17.989  -6.871  1.00  0.00    -0.288 OA
ATOM     22  H3  UNL     1     -13.064  17.206  -6.919  1.00  0.00     0.244 HD
ENDBRANCH  17  21
ENDBRANCH  15  16
ENDBRANCH  14  15
ENDBRANCH  13  14
ENDBRANCH  12  13
ENDBRANCH  11  12
ENDBRANCH   8  11
BRANCH   1  23
HETATM   23  C2  UNL     1     -17.945  24.077  -1.783  1.00  0.00     0.271 C 
HETATM   24  C1  UNL     1     -16.512  23.665  -1.860  1.00  0.00     0.037 C 
ENDBRANCH   1  23
TORSDOF 9
ENDMDL
MODEL 4
REMARK VINA RESULT: -8.041384253      1.261      1.589
REMARK  9 active torsions:
REMARK  status: ('A' for Active; 'I' for Inactive)
REMARK    1  A    between atoms: C2_2  and  N1_3 
REMARK    2  A    between atoms: C8_10  and  C9_11 
REMARK    3  A    between atoms: C9_11  and  C10_12 
REMARK    4  A    between atoms: C10_12  and  C11_13 
REMARK    5  A    between atoms: C11_13  and  C12_14 
REMARK    6  A    between atoms: C12_14  and  C13_15 
REMARK    7  A    between atoms: C13_15  and  C14_16 
REMARK    8  A    between atoms: C14_16  and  O2_17 
REMARK    9  A    between atoms: N2_19  and  O3_21 
ROOT
HETATM    1  N1  UNL     1     -21.804  24.091  -3.981  1.00  0.00     0.119 N 
HETATM    2  C3  UNL     1     -22.171  22.783  -4.395  1.00  0.00     0.290 C 
HETATM    3  C4  UNL     1     -21.104  21.986  -5.051  1.00  0.00     0.079 C 
HETATM    4  C5  UNL     1     -20.582  22.482  -6.328  1.00  0.00     0.129 C 
HETATM    5  O1  UNL     1     -21.381  23.421  -6.980  1.00  0.00    -0.377 OA
HETATM    6  C6  UNL     1     -21.203  24.620  -6.282  1.00  0.00     0.166 C 
HETATM    7  C7  UNL     1     -19.817  24.570  -5.680  1.00  0.00     0.042 C 
HETATM    8  C8  UNL     1     -19.295  23.261  -6.243  1.00  0.00     0.017 C 
HETATM    9  C15 UNL     1     -22.277  24.674  -5.225  1.00  0.00     0.316 C 
HETATM   10  S1  UNL     1     -23.489  23.332  -5.443  1.00  0.00    -0.095 SA
ENDROOT
BRANCH   8  11
HETATM   11  C9  UNL     1     -18.238  22.642  -5.436  1.00  0.00     0.007 C 
BRANCH  11  12
HETATM   12  C10 UNL     1     -17.434  21.666  -6.242  1.00  0.00     0.000 C 
BRANCH  12  13
HETATM   13  C11 UNL     1     -17.867  20.256  -5.852  1.00  0.00     0.000 C 
BRANCH  13  14
HETATM   14  C12 UNL     1     -17.900  19.364  -7.085  1.00  0.00     0.008 C 
BRANCH  14  15
HETATM   15  C13 UNL     1     -17.241  18.046  -6.897  1.00  0.00     0.086 C 
BRANCH  15  16
HETATM   16  C14 UNL     1     -15.863  18.061  -6.412  1.00  0.00     0.135 C 
HETATM   17  N2  UNL     1     -14.884  18.008  -7.259  1.00  0.00    -0.251 N 
ATOM     18  H2  UNL     1     -15.097  17.956  -8.255  1.00  0.00     0.196 HD
BRANCH  16  19
HETATM   19  O2  UNL     1     -15.504  18.130  -5.070  1.00  0.00    -0.348 OA
ATOM     20  H2  UNL     1     -15.281  18.933  -4.615  1.00  0.00     0.219 HD
ENDBRANCH  16  19
BRANCH  17  21
HETATM   21  O3  UNL     1     -13.575  18.018  -6.866  1.00  0.00    -0.288 OA
ATOM     22  H3  UNL     1     -12.864  17.810  -7.460  1.00  0.00     0.244 HD
ENDBRANCH  17  21
ENDBRANCH  15  16
ENDBRANCH  14  15
ENDBRANCH  13  14
ENDBRANCH  12  13
ENDBRANCH  11  12
ENDBRANCH   8  11
BRANCH   1  23
HETATM   23  C2  UNL     1     -22.665  24.585  -2.894  1.00  0.00     0.271 C 
HETATM   24  C1  UNL     1     -22.646  26.074  -2.790  1.00  0.00     0.037 C 
ENDBRANCH   1  23
TORSDOF 9
ENDMDL
MODEL 5
REMARK VINA RESULT: -8.016048211      1.828      2.204
REMARK  9 active torsions:
REMARK  status: ('A' for Active; 'I' for Inactive)
REMARK    1  A    between atoms: C2_2  and  N1_3 
REMARK    2  A    between atoms: C8_10  and  C9_11 
REMARK    3  A    between atoms: C9_11  and  C10_12 
REMARK    4  A    between atoms: C10_12  and  C11_13 
REMARK    5  A    between atoms: C11_13  and  C12_14 
REMARK    6  A    between atoms: C12_14  and  C13_15 
REMARK    7  A    between atoms: C13_15  and  C14_16 
REMARK    8  A    between atoms: C14_16  and  O2_17 
REMARK    9  A    between atoms: N2_19  and  O3_21 
ROOT
HETATM    1  N1  UNL     1     -23.027  20.733  -4.779  1.00  0.00     0.119 N 
HETATM    2  C3  UNL     1     -22.940  21.504  -5.968  1.00  0.00     0.290 C 
HETATM    3  C4  UNL     1     -21.572  21.899  -6.389  1.00  0.00     0.079 C 
HETATM    4  C5  UNL     1     -20.823  22.788  -5.495  1.00  0.00     0.129 C 
HETATM    5  O1  UNL     1     -21.586  23.471  -4.549  1.00  0.00    -0.377 OA
HETATM    6  C6  UNL     1     -21.907  22.527  -3.568  1.00  0.00     0.166 C 
HETATM    7  C7  UNL     1     -20.792  21.506  -3.566  1.00  0.00     0.042 C 
HETATM    8  C8  UNL     1     -19.837  22.107  -4.581  1.00  0.00     0.017 C 
HETATM    9  C15 UNL     1     -23.229  21.918  -3.963  1.00  0.00     0.316 C 
HETATM   10  S1  UNL     1     -23.975  22.809  -5.365  1.00  0.00    -0.095 SA
ENDROOT
BRANCH   8  11
HETATM   11  C9  UNL     1     -18.955  21.127  -5.226  1.00  0.00     0.007 C 
BRANCH  11  12
HETATM   12  C10 UNL     1     -17.740  21.785  -5.809  1.00  0.00     0.000 C 
BRANCH  12  13
HETATM   13  C11 UNL     1     -16.984  20.745  -6.630  1.00  0.00     0.000 C 
BRANCH  13  14
HETATM   14  C12 UNL     1     -17.914  19.597  -6.996  1.00  0.00     0.008 C 
BRANCH  14  15
HETATM   15  C13 UNL     1     -17.313  18.251  -6.822  1.00  0.00     0.086 C 
BRANCH  15  16
HETATM   16  C14 UNL     1     -15.927  18.202  -6.363  1.00  0.00     0.135 C 
HETATM   17  N2  UNL     1     -14.968  18.081  -7.227  1.00  0.00    -0.251 N 
ATOM     18  H2  UNL     1     -15.204  18.022  -8.218  1.00  0.00     0.196 HD
BRANCH  16  19
HETATM   19  O2  UNL     1     -15.539  18.277  -5.030  1.00  0.00    -0.348 OA
ATOM     20  H2  UNL     1     -15.325  17.525  -4.490  1.00  0.00     0.219 HD
ENDBRANCH  16  19
BRANCH  17  21
HETATM   21  O3  UNL     1     -13.654  18.030  -6.858  1.00  0.00    -0.288 OA
ATOM     22  H3  UNL     1     -13.123  17.251  -6.974  1.00  0.00     0.244 HD
ENDBRANCH  17  21
ENDBRANCH  15  16
ENDBRANCH  14  15
ENDBRANCH  13  14
ENDBRANCH  12  13
ENDBRANCH  11  12
ENDBRANCH   8  11
BRANCH   1  23
HETATM   23  C2  UNL     1     -24.262  19.935  -4.730  1.00  0.00     0.271 C 
HETATM   24  C1  UNL     1     -24.161  18.792  -3.776  1.00  0.00     0.037 C 
ENDBRANCH   1  23
TORSDOF 9
ENDMDL
