MODEL 1
REMARK VINA RESULT: -6.168013999      0.000      0.000
REMARK  3 active torsions:
REMARK  status: ('A' for Active; 'I' for Inactive)
REMARK    1  A    between atoms: C2_2  and  C3_3 
REMARK    2  A    between atoms: C3_3  and  C4_4 
REMARK    3  A    between atoms: C16_16  and  N1_17 
ROOT
HETATM    1  C4  UNL     1     -16.069 -15.079  44.950  1.00  0.00     0.017 C 
HETATM    2  C5  UNL     1     -15.094 -16.165  44.466  1.00  0.00     0.014 C 
HETATM    3  C6  UNL     1     -15.222 -17.343  45.338  1.00  0.00    -0.012 C 
HETATM    4  C7  UNL     1     -13.832 -17.898  45.536  1.00  0.00     0.010 C 
HETATM    5  C8  UNL     1     -16.274 -18.347  45.102  1.00  0.00     0.011 C 
HETATM    6  C9  UNL     1     -17.643 -17.806  45.456  1.00  0.00    -0.021 C 
HETATM    7  C10 UNL     1     -17.690 -17.418  46.942  1.00  0.00     0.020 C 
HETATM    8  C11 UNL     1     -18.046 -16.611  44.668  1.00  0.00    -0.014 C 
HETATM    9  C12 UNL     1     -17.391 -15.490  44.465  1.00  0.00    -0.082 C 
HETATM   10  C13 UNL     1     -18.083 -14.492  43.624  1.00  0.00     0.043 C 
HETATM   11  C14 UNL     1     -18.745 -18.824  45.292  1.00  0.00     0.015 C 
HETATM   12  C15 UNL     1     -18.700 -19.500  43.950  1.00  0.00     0.035 C 
HETATM   13  C16 UNL     1     -17.384 -20.191  43.897  1.00  0.00     0.193 C 
HETATM   14  C18 UNL     1     -16.202 -19.228  43.928  1.00  0.00    -0.014 C 
HETATM   15  C19 UNL     1     -15.032 -20.226  44.005  1.00  0.00     0.017 C 
HETATM   16  C20 UNL     1     -16.134 -18.611  42.575  1.00  0.00     0.017 C 
ENDROOT
BRANCH  13  17
HETATM   17  N1  UNL     1     -17.170 -21.192  44.876  1.00  0.00    -0.074 N 
HETATM   18  C17 UNL     1     -17.959 -22.391  44.682  1.00  0.00     0.267 C 
ATOM     19  H12 UNL     1     -16.179 -21.424  44.940  1.00  0.00     0.277 HD
ATOM     20  H11 UNL     1     -17.321 -20.814  45.811  1.00  0.00     0.277 HD
ENDBRANCH  13  17
BRANCH   1  21
HETATM   21  C3  UNL     1     -15.646 -13.707  44.539  1.00  0.00     0.035 C 
BRANCH  21  22
HETATM   22  C2  UNL     1     -14.162 -13.701  44.397  1.00  0.00    -0.036 C 
HETATM   23  C1  UNL     1     -13.385 -12.939  45.155  1.00  0.00     0.007 C 
ENDBRANCH  21  22
ENDBRANCH   1  21
TORSDOF 3
ENDMDL
MODEL 2
REMARK VINA RESULT: -5.856278684      1.291      1.546
REMARK  3 active torsions:
REMARK  status: ('A' for Active; 'I' for Inactive)
REMARK    1  A    between atoms: C2_2  and  C3_3 
REMARK    2  A    between atoms: C3_3  and  C4_4 
REMARK    3  A    between atoms: C16_16  and  N1_17 
ROOT
HETATM    1  C4  UNL     1     -16.252 -15.789  45.033  1.00  0.00     0.017 C 
HETATM    2  C5  UNL     1     -15.744 -17.182  44.625  1.00  0.00     0.014 C 
HETATM    3  C6  UNL     1     -16.058 -18.137  45.699  1.00  0.00    -0.012 C 
HETATM    4  C7  UNL     1     -14.882 -19.078  45.809  1.00  0.00     0.010 C 
HETATM    5  C8  UNL     1     -17.384 -18.773  45.782  1.00  0.00     0.011 C 
HETATM    6  C9  UNL     1     -18.446 -17.782  46.209  1.00  0.00    -0.021 C 
HETATM    7  C10 UNL     1     -18.111 -17.215  47.597  1.00  0.00     0.020 C 
HETATM    8  C11 UNL     1     -18.611 -16.630  45.282  1.00  0.00    -0.014 C 
HETATM    9  C12 UNL     1     -17.700 -15.814  44.803  1.00  0.00    -0.082 C 
HETATM   10  C13 UNL     1     -18.204 -14.760  43.897  1.00  0.00     0.043 C 
HETATM   11  C14 UNL     1     -19.811 -18.406  46.370  1.00  0.00     0.015 C 
HETATM   12  C15 UNL     1     -20.207 -19.225  45.173  1.00  0.00     0.035 C 
HETATM   13  C16 UNL     1     -19.186 -20.302  45.072  1.00  0.00     0.193 C 
HETATM   14  C18 UNL     1     -17.787 -19.771  44.781  1.00  0.00    -0.014 C 
HETATM   15  C19 UNL     1     -16.970 -21.073  44.880  1.00  0.00     0.017 C 
HETATM   16  C20 UNL     1     -17.780 -19.384  43.343  1.00  0.00     0.017 C 
ENDROOT
BRANCH  13  17
HETATM   17  N1  UNL     1     -19.108 -21.186  46.176  1.00  0.00    -0.074 N 
HETATM   18  C17 UNL     1     -20.239 -22.082  46.300  1.00  0.00     0.267 C 
ATOM     19  H12 UNL     1     -18.236 -21.715  46.149  1.00  0.00     0.277 HD
ATOM     20  H11 UNL     1     -18.969 -20.665  47.041  1.00  0.00     0.277 HD
ENDBRANCH  13  17
BRANCH   1  21
HETATM   21  C3  UNL     1     -15.521 -14.688  44.336  1.00  0.00     0.035 C 
BRANCH  21  22
HETATM   22  C2  UNL     1     -14.209 -14.498  45.017  1.00  0.00    -0.036 C 
HETATM   23  C1  UNL     1     -13.560 -13.342  44.987  1.00  0.00     0.007 C 
ENDBRANCH  21  22
ENDBRANCH   1  21
TORSDOF 3
ENDMDL
MODEL 3
REMARK VINA RESULT: -5.768836055      1.308      3.391
REMARK  3 active torsions:
REMARK  status: ('A' for Active; 'I' for Inactive)
REMARK    1  A    between atoms: C2_2  and  C3_3 
REMARK    2  A    between atoms: C3_3  and  C4_4 
REMARK    3  A    between atoms: C16_16  and  N1_17 
ROOT
HETATM    1  C4  UNL     1     -14.645 -16.569  44.234  1.00  0.00     0.017 C 
HETATM    2  C5  UNL     1     -15.913 -16.203  45.022  1.00  0.00     0.014 C 
HETATM    3  C6  UNL     1     -17.093 -16.601  44.237  1.00  0.00    -0.012 C 
HETATM    4  C7  UNL     1     -18.132 -15.523  44.426  1.00  0.00     0.010 C 
HETATM    5  C8  UNL     1     -17.602 -17.983  44.286  1.00  0.00     0.011 C 
HETATM    6  C9  UNL     1     -16.672 -18.939  43.570  1.00  0.00    -0.021 C 
HETATM    7  C10 UNL     1     -16.539 -18.541  42.093  1.00  0.00     0.020 C 
HETATM    8  C11 UNL     1     -15.300 -18.997  44.144  1.00  0.00    -0.014 C 
HETATM    9  C12 UNL     1     -14.472 -18.014  44.413  1.00  0.00    -0.082 C 
HETATM   10  C13 UNL     1     -13.169 -18.418  44.982  1.00  0.00     0.043 C 
HETATM   11  C14 UNL     1     -17.187 -20.358  43.539  1.00  0.00     0.015 C 
HETATM   12  C15 UNL     1     -17.607 -20.840  44.900  1.00  0.00     0.035 C 
HETATM   13  C16 UNL     1     -18.705 -19.931  45.323  1.00  0.00     0.193 C 
HETATM   14  C18 UNL     1     -18.247 -18.488  45.506  1.00  0.00    -0.014 C 
HETATM   15  C19 UNL     1     -19.596 -17.803  45.792  1.00  0.00     0.017 C 
HETATM   16  C20 UNL     1     -17.484 -18.454  46.784  1.00  0.00     0.017 C 
ENDROOT
BRANCH  13  17
HETATM   17  N1  UNL     1     -19.861 -19.932  44.504  1.00  0.00    -0.074 N 
HETATM   18  C17 UNL     1     -20.665 -21.132  44.614  1.00  0.00     0.267 C 
ATOM     19  H12 UNL     1     -20.428 -19.104  44.686  1.00  0.00     0.277 HD
ATOM     20  H11 UNL     1     -19.608 -19.759  43.531  1.00  0.00     0.277 HD
ENDBRANCH  13  17
BRANCH   1  21
HETATM   21  C3  UNL     1     -13.467 -15.739  44.630  1.00  0.00     0.035 C 
BRANCH  21  22
HETATM   22  C2  UNL     1     -13.970 -14.526  45.334  1.00  0.00    -0.036 C 
HETATM   23  C1  UNL     1     -13.596 -13.302  44.984  1.00  0.00     0.007 C 
ENDBRANCH  21  22
ENDBRANCH   1  21
TORSDOF 3
ENDMDL
MODEL 4
REMARK VINA RESULT: -5.729375141      0.988      1.054
REMARK  3 active torsions:
REMARK  status: ('A' for Active; 'I' for Inactive)
REMARK    1  A    between atoms: C2_2  and  C3_3 
REMARK    2  A    between atoms: C3_3  and  C4_4 
REMARK    3  A    between atoms: C16_16  and  N1_17 
ROOT
HETATM    1  C4  UNL     1     -15.859 -15.984  44.684  1.00  0.00     0.017 C 
HETATM    2  C5  UNL     1     -15.286 -17.145  43.855  1.00  0.00     0.014 C 
HETATM    3  C6  UNL     1     -15.378 -18.385  44.642  1.00  0.00    -0.012 C 
HETATM    4  C7  UNL     1     -14.120 -19.174  44.371  1.00  0.00     0.010 C 
HETATM    5  C8  UNL     1     -16.622 -19.173  44.669  1.00  0.00     0.011 C 
HETATM    6  C9  UNL     1     -17.706 -18.467  45.457  1.00  0.00    -0.021 C 
HETATM    7  C10 UNL     1     -17.252 -18.259  46.909  1.00  0.00     0.020 C 
HETATM    8  C11 UNL     1     -18.086 -17.136  44.911  1.00  0.00    -0.014 C 
HETATM    9  C12 UNL     1     -17.317 -16.118  44.596  1.00  0.00    -0.082 C 
HETATM   10  C13 UNL     1     -18.020 -14.928  44.074  1.00  0.00     0.043 C 
HETATM   11  C14 UNL     1     -18.980 -19.268  45.566  1.00  0.00     0.015 C 
HETATM   12  C15 UNL     1     -19.448 -19.776  44.230  1.00  0.00     0.035 C 
HETATM   13  C16 UNL     1     -18.358 -20.657  43.734  1.00  0.00     0.193 C 
HETATM   14  C18 UNL     1     -17.057 -19.905  43.471  1.00  0.00    -0.014 C 
HETATM   15  C19 UNL     1     -16.124 -21.079  43.122  1.00  0.00     0.017 C 
HETATM   16  C20 UNL     1     -17.264 -19.148  42.207  1.00  0.00     0.017 C 
ENDROOT
BRANCH  13  17
HETATM   17  N1  UNL     1     -18.065 -21.790  44.532  1.00  0.00    -0.074 N 
HETATM   18  C17 UNL     1     -19.096 -22.807  44.520  1.00  0.00     0.267 C 
ATOM     19  H12 UNL     1     -17.165 -22.191  44.267  1.00  0.00     0.277 HD
ATOM     20  H11 UNL     1     -17.854 -21.507  45.489  1.00  0.00     0.277 HD
ENDBRANCH  13  17
BRANCH   1  21
HETATM   21  C3  UNL     1     -15.321 -14.658  44.258  1.00  0.00     0.035 C 
BRANCH  21  22
HETATM   22  C2  UNL     1     -14.062 -14.404  45.014  1.00  0.00    -0.036 C 
HETATM   23  C1  UNL     1     -13.492 -13.206  45.053  1.00  0.00     0.007 C 
ENDBRANCH  21  22
ENDBRANCH   1  21
TORSDOF 3
ENDMDL
MODEL 5
REMARK VINA RESULT: -5.684114824      2.030      5.830
REMARK  3 active torsions:
REMARK  status: ('A' for Active; 'I' for Inactive)
REMARK    1  A    between atoms: C2_2  and  C3_3 
REMARK    2  A    between atoms: C3_3  and  C4_4 
REMARK    3  A    between atoms: C16_16  and  N1_17 
ROOT
HETATM    1  C4  UNL     1     -17.405 -19.845  44.626  1.00  0.00     0.017 C 
HETATM    2  C5  UNL     1     -18.041 -18.482  44.311  1.00  0.00     0.014 C 
HETATM    3  C6  UNL     1     -17.584 -17.500  45.308  1.00  0.00    -0.012 C 
HETATM    4  C7  UNL     1     -18.763 -16.613  45.625  1.00  0.00     0.010 C 
HETATM    5  C8  UNL     1     -16.296 -16.805  45.148  1.00  0.00     0.011 C 
HETATM    6  C9  UNL     1     -15.130 -17.742  45.380  1.00  0.00    -0.021 C 
HETATM    7  C10 UNL     1     -15.183 -18.307  46.808  1.00  0.00     0.020 C 
HETATM    8  C11 UNL     1     -15.081 -18.896  44.443  1.00  0.00    -0.014 C 
HETATM    9  C12 UNL     1     -16.024 -19.758  44.139  1.00  0.00    -0.082 C 
HETATM   10  C13 UNL     1     -15.643 -20.799  43.160  1.00  0.00     0.043 C 
HETATM   11  C14 UNL     1     -13.789 -17.056  45.291  1.00  0.00     0.015 C 
HETATM   12  C15 UNL     1     -13.653 -16.234  44.039  1.00  0.00     0.035 C 
HETATM   13  C16 UNL     1     -14.724 -15.205  44.120  1.00  0.00     0.193 C 
HETATM   14  C18 UNL     1     -16.127 -15.801  44.088  1.00  0.00    -0.014 C 
HETATM   15  C19 UNL     1     -16.971 -14.536  44.327  1.00  0.00     0.017 C 
HETATM   16  C20 UNL     1     -16.373 -16.205  42.676  1.00  0.00     0.017 C 
ENDROOT
BRANCH  13  17
HETATM   17  N1  UNL     1     -14.643 -14.312  45.216  1.00  0.00    -0.074 N 
HETATM   18  C17 UNL     1     -13.567 -13.348  45.119  1.00  0.00     0.267 C 
ATOM     19  H12 UNL     1     -15.536 -13.838  45.357  1.00  0.00     0.277 HD
ATOM     20  H11 UNL     1     -14.580 -14.829  46.094  1.00  0.00     0.277 HD
ENDBRANCH  13  17
BRANCH   1  21
HETATM   21  C3  UNL     1     -18.196 -20.987  44.076  1.00  0.00     0.035 C 
BRANCH  21  22
HETATM   22  C2  UNL     1     -19.310 -20.427  43.258  1.00  0.00    -0.036 C 
HETATM   23  C1  UNL     1     -19.539 -20.825  42.014  1.00  0.00     0.007 C 
ENDBRANCH  21  22
ENDBRANCH   1  21
TORSDOF 3
ENDMDL
