MODEL 1
REMARK VINA RESULT: -8.234981572      0.000      0.000
REMARK  7 active torsions:
REMARK  status: ('A' for Active; 'I' for Inactive)
REMARK    1  A    between atoms: C2_7  and  N3_8 
REMARK    2  A    between atoms: C4_13  and  C5_14 
REMARK    3  A    between atoms: C7_16  and  C8_17 
REMARK    4  A    between atoms: C9_25  and  S1_26 
REMARK    5  A    between atoms: S1_26  and  C10_27 
REMARK    6  A    between atoms: C10_27  and  N10_28 
REMARK    7  A    between atoms: C12_40  and  N16_41 
ROOT
HETATM    1  C5  UNL     1      -6.531 -44.667  32.118  1.00  0.00     0.067 A 
HETATM    2  C6  UNL     1      -6.932 -43.966  33.235  1.00  0.00     0.050 A 
HETATM    3  C7  UNL     1      -8.214 -43.475  33.423  1.00  0.00     0.047 A 
HETATM    4  C9  UNL     1      -9.122 -43.723  32.403  1.00  0.00     0.100 A 
HETATM    5  N14 UNL     1      -8.701 -44.408  31.328  1.00  0.00    -0.293 N 
ATOM      6  H14 UNL     1      -9.374 -44.586  30.582  1.00  0.00     0.187 HD
HETATM    7  N15 UNL     1      -7.463 -44.869  31.172  1.00  0.00    -0.299 N 
ATOM      8  H15 UNL     1      -7.218 -45.380  30.324  1.00  0.00     0.187 HD
ENDROOT
BRANCH   1   9
HETATM    9  C4  UNL     1      -5.156 -45.127  32.019  1.00  0.00     0.081 A 
HETATM   10  C2  UNL     1      -4.218 -44.394  31.330  1.00  0.00     0.139 A 
HETATM   11  N2  UNL     1      -2.931 -44.841  31.237  1.00  0.00    -0.176 N 
HETATM   12  C1  UNL     1      -2.536 -45.991  31.803  1.00  0.00     0.679 A 
ATOM     13  H2  UNL     1      -2.250 -44.283  30.721  1.00  0.00     0.186 HD
HETATM   14  N1  UNL     1      -1.304 -46.420  31.714  1.00  0.00    -0.234 N 
HETATM   15  N17 UNL     1      -3.444 -46.713  32.476  1.00  0.00    -0.176 N 
ATOM     16  H12 UNL     1      -0.613 -45.871  31.202  1.00  0.00     0.174 HD
ATOM     17  H11 UNL     1      -1.003 -47.295  32.145  1.00  0.00     0.174 HD
HETATM   18  C12 UNL     1      -4.722 -46.316  32.596  1.00  0.00     0.131 A 
ATOM     19  H17 UNL     1      -3.155 -47.589  32.911  1.00  0.00     0.186 HD
BRANCH  10  20
HETATM   20  N3  UNL     1      -4.652 -43.184  30.743  1.00  0.00    -0.318 N 
HETATM   21  C3  UNL     1      -4.372 -42.072  31.310  1.00  0.00     0.202 C 
HETATM   22  N4  UNL     1      -3.631 -42.081  32.518  1.00  0.00    -0.066 NA
HETATM   23  N5  UNL     1      -4.778 -40.832  30.774  1.00  0.00    -0.066 NA
ATOM     24  H3  UNL     1      -5.186 -43.197  29.874  1.00  0.00     0.169 HD
ENDBRANCH  10  20
BRANCH  18  25
HETATM   25  N16 UNL     1      -5.619 -47.018  33.251  1.00  0.00    -0.384 N 
ATOM     26 2H16 UNL     1      -5.363 -47.739  33.925  1.00  0.00     0.157 HD
ATOM     27 1H16 UNL     1      -6.599 -46.811  33.054  1.00  0.00     0.157 HD
ENDBRANCH  18  25
ENDBRANCH   1   9
BRANCH   3  28
HETATM   28  C8  UNL     1      -8.586 -42.734  34.622  1.00  0.00     0.147 A 
HETATM   29  N6  UNL     1      -8.793 -41.409  34.643  1.00  0.00    -0.271 N 
HETATM   30  N7  UNL     1      -9.117 -41.010  35.850  1.00  0.00    -0.225 N 
ATOM     31  H6  UNL     1      -8.710 -40.796  33.832  1.00  0.00     0.190 HD
HETATM   32  N8  UNL     1      -9.120 -42.087  36.618  1.00  0.00    -0.005 NA
ATOM     33  H7  UNL     1      -9.326 -40.055  36.140  1.00  0.00     0.205 HD
HETATM   34  N9  UNL     1      -8.799 -43.135  35.880  1.00  0.00    -0.266 N 
ATOM     35  H9  UNL     1      -8.725 -44.095  36.216  1.00  0.00     0.186 HD
ENDBRANCH   3  28
BRANCH   4  36
HETATM   36  S1  UNL     1     -10.809 -43.129  32.559  1.00  0.00    -0.088 SA
BRANCH  36  37
HETATM   37  C10 UNL     1     -11.879 -43.888  31.309  1.00  0.00     0.232 C 
BRANCH  37  38
HETATM   38  N10 UNL     1     -13.264 -43.729  31.708  1.00  0.00    -0.261 N 
HETATM   39  C11 UNL     1     -13.676 -43.691  32.993  1.00  0.00     0.220 A 
HETATM   40  N11 UNL     1     -15.000 -43.537  32.948  1.00  0.00    -0.279 N 
HETATM   41  N12 UNL     1     -15.386 -43.482  31.683  1.00  0.00    -0.227 N 
ATOM     42  H11 UNL     1     -15.615 -43.472  33.759  1.00  0.00     0.189 HD
HETATM   43  N13 UNL     1     -14.331 -43.599  30.913  1.00  0.00    -0.224 N 
ATOM     44  H12 UNL     1     -16.348 -43.367  31.360  1.00  0.00     0.210 HD
ATOM     45  H13 UNL     1     -14.326 -43.593  29.893  1.00  0.00     0.210 HD
ENDBRANCH  37  38
ENDBRANCH  36  37
ENDBRANCH   4  36
TORSDOF 7
ENDMDL
MODEL 2
REMARK VINA RESULT: -7.988772950      2.458      8.317
REMARK  7 active torsions:
REMARK  status: ('A' for Active; 'I' for Inactive)
REMARK    1  A    between atoms: C2_7  and  N3_8 
REMARK    2  A    between atoms: C4_13  and  C5_14 
REMARK    3  A    between atoms: C7_16  and  C8_17 
REMARK    4  A    between atoms: C9_25  and  S1_26 
REMARK    5  A    between atoms: S1_26  and  C10_27 
REMARK    6  A    between atoms: C10_27  and  N10_28 
REMARK    7  A    between atoms: C12_40  and  N16_41 
ROOT
HETATM    1  C5  UNL     1      -7.192 -43.400  32.789  1.00  0.00     0.067 A 
HETATM    2  C6  UNL     1      -6.753 -44.707  32.783  1.00  0.00     0.050 A 
HETATM    3  C7  UNL     1      -5.538 -45.114  32.256  1.00  0.00     0.047 A 
HETATM    4  C9  UNL     1      -4.741 -44.116  31.711  1.00  0.00     0.100 A 
HETATM    5  N14 UNL     1      -5.196 -42.853  31.732  1.00  0.00    -0.293 N 
ATOM      6  H14 UNL     1      -4.604 -42.126  31.330  1.00  0.00     0.187 HD
HETATM    7  N15 UNL     1      -6.368 -42.489  32.244  1.00  0.00    -0.299 N 
ATOM      8  H15 UNL     1      -6.646 -41.508  32.223  1.00  0.00     0.187 HD
ENDROOT
BRANCH   1   9
HETATM    9  C4  UNL     1      -8.491 -43.086  33.359  1.00  0.00     0.081 A 
HETATM   10  C2  UNL     1      -9.593 -42.934  32.551  1.00  0.00     0.139 A 
HETATM   11  N2  UNL     1     -10.808 -42.630  33.097  1.00  0.00    -0.176 N 
HETATM   12  C1  UNL     1     -10.973 -42.472  34.419  1.00  0.00     0.679 A 
ATOM     13  H2  UNL     1     -11.614 -42.521  32.481  1.00  0.00     0.186 HD
HETATM   14  N1  UNL     1     -12.135 -42.181  34.943  1.00  0.00    -0.234 N 
HETATM   15  N17 UNL     1      -9.903 -42.618  35.215  1.00  0.00    -0.176 N 
ATOM     16  H12 UNL     1     -12.949 -42.070  34.338  1.00  0.00     0.174 HD
ATOM     17  H11 UNL     1     -12.261 -42.061  35.948  1.00  0.00     0.174 HD
HETATM   18  C12 UNL     1      -8.687 -42.916  34.726  1.00  0.00     0.131 A 
ATOM     19  H17 UNL     1     -10.016 -42.500  36.221  1.00  0.00     0.186 HD
BRANCH  10  20
HETATM   20  N3  UNL     1      -9.401 -43.107  31.162  1.00  0.00    -0.318 N 
HETATM   21  C3  UNL     1     -10.313 -43.671  30.465  1.00  0.00     0.202 C 
HETATM   22  N4  UNL     1     -11.498 -44.112  31.106  1.00  0.00    -0.066 NA
HETATM   23  N5  UNL     1     -10.181 -43.874  29.075  1.00  0.00    -0.066 NA
ATOM     24  H3  UNL     1      -8.542 -42.784  30.718  1.00  0.00     0.169 HD
ENDBRANCH  10  20
BRANCH  18  25
HETATM   25  N16 UNL     1      -7.633 -43.058  35.497  1.00  0.00    -0.384 N 
ATOM     26 2H16 UNL     1      -6.939 -42.321  35.615  1.00  0.00     0.157 HD
ATOM     27 1H16 UNL     1      -7.534 -43.951  35.980  1.00  0.00     0.157 HD
ENDBRANCH  18  25
ENDBRANCH   1   9
BRANCH   3  28
HETATM   28  C8  UNL     1      -5.123 -46.511  32.268  1.00  0.00     0.147 A 
HETATM   29  N6  UNL     1      -4.615 -47.126  33.346  1.00  0.00    -0.271 N 
HETATM   30  N7  UNL     1      -4.332 -48.378  33.074  1.00  0.00    -0.225 N 
ATOM     31  H6  UNL     1      -4.470 -46.682  34.253  1.00  0.00     0.190 HD
HETATM   32  N8  UNL     1      -4.659 -48.574  31.808  1.00  0.00    -0.005 NA
ATOM     33  H7  UNL     1      -3.936 -49.066  33.715  1.00  0.00     0.205 HD
HETATM   34  N9  UNL     1      -5.139 -47.447  31.313  1.00  0.00    -0.266 N 
ATOM     35  H9  UNL     1      -5.469 -47.313  30.358  1.00  0.00     0.186 HD
ENDBRANCH   3  28
BRANCH   4  36
HETATM   36  S1  UNL     1      -3.146 -44.547  31.007  1.00  0.00    -0.088 SA
BRANCH  36  37
HETATM   37  C10 UNL     1      -1.804 -43.697  31.881  1.00  0.00     0.232 C 
BRANCH  37  38
HETATM   38  N10 UNL     1      -1.508 -44.411  33.108  1.00  0.00    -0.261 N 
HETATM   39  C11 UNL     1      -1.381 -45.752  33.185  1.00  0.00     0.220 A 
HETATM   40  N11 UNL     1      -1.113 -46.021  34.463  1.00  0.00    -0.279 N 
HETATM   41  N12 UNL     1      -1.078 -44.888  35.146  1.00  0.00    -0.227 N 
ATOM     42  H11 UNL     1      -0.961 -46.951  34.852  1.00  0.00     0.189 HD
HETATM   43  N13 UNL     1      -1.319 -43.893  34.326  1.00  0.00    -0.224 N 
ATOM     44  H12 UNL     1      -0.894 -44.802  36.146  1.00  0.00     0.210 HD
ATOM     45  H13 UNL     1      -1.356 -42.904  34.573  1.00  0.00     0.210 HD
ENDBRANCH  37  38
ENDBRANCH  36  37
ENDBRANCH   4  36
TORSDOF 7
ENDMDL
MODEL 3
REMARK VINA RESULT: -7.941127080     10.331     12.448
REMARK  7 active torsions:
REMARK  status: ('A' for Active; 'I' for Inactive)
REMARK    1  A    between atoms: C2_7  and  N3_8 
REMARK    2  A    between atoms: C4_13  and  C5_14 
REMARK    3  A    between atoms: C7_16  and  C8_17 
REMARK    4  A    between atoms: C9_25  and  S1_26 
REMARK    5  A    between atoms: S1_26  and  C10_27 
REMARK    6  A    between atoms: C10_27  and  N10_28 
REMARK    7  A    between atoms: C12_40  and  N16_41 
ROOT
HETATM    1  C5  UNL     1       0.282 -41.098  23.898  1.00  0.00     0.067 A 
HETATM    2  C6  UNL     1      -0.361 -40.671  25.040  1.00  0.00     0.050 A 
HETATM    3  C7  UNL     1       0.017 -39.558  25.772  1.00  0.00     0.047 A 
HETATM    4  C9  UNL     1       1.114 -38.853  25.295  1.00  0.00     0.100 A 
HETATM    5  N14 UNL     1       1.719 -39.294  24.180  1.00  0.00    -0.293 N 
ATOM      6  H14 UNL     1       2.524 -38.771  23.836  1.00  0.00     0.187 HD
HETATM    7  N15 UNL     1       1.335 -40.369  23.496  1.00  0.00    -0.299 N 
ATOM      8  H15 UNL     1       1.847 -40.642  22.658  1.00  0.00     0.187 HD
ENDROOT
BRANCH   1   9
HETATM    9  C4  UNL     1      -0.193 -42.289  23.214  1.00  0.00     0.081 A 
HETATM   10  C2  UNL     1      -1.400 -42.285  22.554  1.00  0.00     0.139 A 
HETATM   11  N2  UNL     1      -1.841 -43.412  21.922  1.00  0.00    -0.176 N 
HETATM   12  C1  UNL     1      -1.128 -44.549  21.919  1.00  0.00     0.679 A 
ATOM     13  H2  UNL     1      -2.738 -43.389  21.438  1.00  0.00     0.186 HD
HETATM   14  N1  UNL     1      -1.549 -45.630  21.314  1.00  0.00    -0.234 N 
HETATM   15  N17 UNL     1       0.049 -44.563  22.560  1.00  0.00    -0.176 N 
ATOM     16  H12 UNL     1      -2.445 -45.620  20.826  1.00  0.00     0.174 HD
ATOM     17  H11 UNL     1      -1.007 -46.494  21.311  1.00  0.00     0.174 HD
HETATM   18  C12 UNL     1       0.526 -43.480  23.197  1.00  0.00     0.131 A 
ATOM     19  H17 UNL     1       0.600 -45.421  22.565  1.00  0.00     0.186 HD
BRANCH  10  20
HETATM   20  N3  UNL     1      -2.135 -41.078  22.566  1.00  0.00    -0.318 N 
HETATM   21  C3  UNL     1      -3.251 -41.026  23.189  1.00  0.00     0.202 C 
HETATM   22  N4  UNL     1      -3.726 -42.186  23.852  1.00  0.00    -0.066 NA
HETATM   23  N5  UNL     1      -4.032 -39.852  23.236  1.00  0.00    -0.066 NA
ATOM     24  H3  UNL     1      -1.779 -40.254  22.082  1.00  0.00     0.169 HD
ENDBRANCH  10  20
BRANCH  18  25
HETATM   25  N16 UNL     1       1.677 -43.484  23.831  1.00  0.00    -0.384 N 
ATOM     26 2H16 UNL     1       2.236 -42.641  23.956  1.00  0.00     0.157 HD
ATOM     27 1H16 UNL     1       1.996 -44.382  24.197  1.00  0.00     0.157 HD
ENDBRANCH  18  25
ENDBRANCH   1   9
BRANCH   3  28
HETATM   28  C8  UNL     1      -0.694 -39.152  26.978  1.00  0.00     0.147 A 
HETATM   29  N6  UNL     1      -1.630 -38.191  27.002  1.00  0.00    -0.271 N 
HETATM   30  N7  UNL     1      -2.104 -38.036  28.216  1.00  0.00    -0.225 N 
ATOM     31  H6  UNL     1      -1.933 -37.656  26.188  1.00  0.00     0.190 HD
HETATM   32  N8  UNL     1      -1.467 -38.904  28.985  1.00  0.00    -0.005 NA
ATOM     33  H7  UNL     1      -2.822 -37.374  28.509  1.00  0.00     0.205 HD
HETATM   34  N9  UNL     1      -0.612 -39.583  28.242  1.00  0.00    -0.266 N 
ATOM     35  H9  UNL     1       0.010 -40.318  28.577  1.00  0.00     0.186 HD
ENDBRANCH   3  28
BRANCH   4  36
HETATM   36  S1  UNL     1       1.675 -37.392  26.175  1.00  0.00    -0.088 SA
BRANCH  36  37
HETATM   37  C10 UNL     1       2.536 -37.851  27.703  1.00  0.00     0.232 C 
BRANCH  37  38
HETATM   38  N10 UNL     1       1.755 -37.407  28.841  1.00  0.00    -0.261 N 
HETATM   39  C11 UNL     1       1.845 -37.950  30.073  1.00  0.00     0.220 A 
HETATM   40  N11 UNL     1       0.979 -37.278  30.833  1.00  0.00    -0.279 N 
HETATM   41  N12 UNL     1       0.379 -36.357  30.095  1.00  0.00    -0.227 N 
ATOM     42  H11 UNL     1       0.806 -37.448  31.823  1.00  0.00     0.189 HD
HETATM   43  N13 UNL     1       0.846 -36.426  28.871  1.00  0.00    -0.224 N 
ATOM     44  H12 UNL     1      -0.330 -35.702  30.424  1.00  0.00     0.210 HD
ATOM     45  H13 UNL     1       0.566 -35.838  28.086  1.00  0.00     0.210 HD
ENDBRANCH  37  38
ENDBRANCH  36  37
ENDBRANCH   4  36
TORSDOF 7
ENDMDL
MODEL 4
REMARK VINA RESULT: -7.868146226      9.168     11.355
REMARK  7 active torsions:
REMARK  status: ('A' for Active; 'I' for Inactive)
REMARK    1  A    between atoms: C2_7  and  N3_8 
REMARK    2  A    between atoms: C4_13  and  C5_14 
REMARK    3  A    between atoms: C7_16  and  C8_17 
REMARK    4  A    between atoms: C9_25  and  S1_26 
REMARK    5  A    between atoms: S1_26  and  C10_27 
REMARK    6  A    between atoms: C10_27  and  N10_28 
REMARK    7  A    between atoms: C12_40  and  N16_41 
ROOT
HETATM    1  C5  UNL     1      -1.958 -40.494  25.505  1.00  0.00     0.067 A 
HETATM    2  C6  UNL     1      -1.244 -41.238  24.590  1.00  0.00     0.050 A 
HETATM    3  C7  UNL     1      -1.651 -42.470  24.106  1.00  0.00     0.047 A 
HETATM    4  C9  UNL     1      -2.858 -42.953  24.594  1.00  0.00     0.100 A 
HETATM    5  N14 UNL     1      -3.530 -42.205  25.483  1.00  0.00    -0.293 N 
ATOM      6  H14 UNL     1      -4.416 -42.566  25.837  1.00  0.00     0.187 HD
HETATM    7  N15 UNL     1      -3.116 -41.024  25.933  1.00  0.00    -0.299 N 
ATOM      8  H15 UNL     1      -3.682 -40.515  26.611  1.00  0.00     0.187 HD
ENDROOT
BRANCH   1   9
HETATM    9  C4  UNL     1      -1.431 -39.217  25.954  1.00  0.00     0.081 A 
HETATM   10  C2  UNL     1      -1.820 -38.045  25.349  1.00  0.00     0.139 A 
HETATM   11  N2  UNL     1      -1.311 -36.851  25.774  1.00  0.00    -0.176 N 
HETATM   12  C1  UNL     1      -0.427 -36.774  26.780  1.00  0.00     0.679 A 
ATOM     13  H2  UNL     1      -1.611 -35.993  25.312  1.00  0.00     0.186 HD
HETATM   14  N1  UNL     1       0.061 -35.631  27.188  1.00  0.00    -0.234 N 
HETATM   15  N17 UNL     1      -0.042 -37.911  27.376  1.00  0.00    -0.176 N 
ATOM     16  H12 UNL     1      -0.232 -34.765  26.735  1.00  0.00     0.174 HD
ATOM     17  H11 UNL     1       0.733 -35.572  27.954  1.00  0.00     0.174 HD
HETATM   18  C12 UNL     1      -0.513 -39.111  26.994  1.00  0.00     0.131 A 
ATOM     19  H17 UNL     1       0.630 -37.866  28.143  1.00  0.00     0.186 HD
BRANCH  10  20
HETATM   20  N3  UNL     1      -2.753 -38.146  24.292  1.00  0.00    -0.318 N 
HETATM   21  C3  UNL     1      -3.898 -37.588  24.408  1.00  0.00     0.202 C 
HETATM   22  N4  UNL     1      -4.205 -36.882  25.598  1.00  0.00    -0.066 NA
HETATM   23  N5  UNL     1      -4.873 -37.654  23.390  1.00  0.00    -0.066 NA
ATOM     24  H3  UNL     1      -2.515 -38.659  23.444  1.00  0.00     0.169 HD
ENDBRANCH  10  20
BRANCH  18  25
HETATM   25  N16 UNL     1      -0.139 -40.231  27.570  1.00  0.00    -0.384 N 
ATOM     26 2H16 UNL     1       0.319 -40.983  27.056  1.00  0.00     0.157 HD
ATOM     27 1H16 UNL     1      -0.330 -40.321  28.568  1.00  0.00     0.157 HD
ENDBRANCH  18  25
ENDBRANCH   1   9
BRANCH   3  28
HETATM   28  C8  UNL     1      -0.855 -43.220  23.142  1.00  0.00     0.147 A 
HETATM   29  N6  UNL     1       0.089 -44.108  23.489  1.00  0.00    -0.271 N 
HETATM   30  N7  UNL     1       0.644 -44.634  22.422  1.00  0.00    -0.225 N 
ATOM     31  H6  UNL     1       0.340 -44.343  24.449  1.00  0.00     0.190 HD
HETATM   32  N8  UNL     1       0.053 -44.081  21.376  1.00  0.00    -0.005 NA
ATOM     33  H7  UNL     1       1.386 -45.334  22.404  1.00  0.00     0.205 HD
HETATM   34  N9  UNL     1      -0.855 -43.223  21.805  1.00  0.00    -0.266 N 
ATOM     35  H9  UNL     1      -1.460 -42.655  21.212  1.00  0.00     0.186 HD
ENDBRANCH   3  28
BRANCH   4  36
HETATM   36  S1  UNL     1      -3.470 -44.540  24.020  1.00  0.00    -0.088 SA
BRANCH  36  37
HETATM   37  C10 UNL     1      -5.199 -44.780  24.509  1.00  0.00     0.232 C 
BRANCH  37  38
HETATM   38  N10 UNL     1      -6.046 -43.934  23.691  1.00  0.00    -0.261 N 
HETATM   39  C11 UNL     1      -7.349 -43.699  23.951  1.00  0.00     0.220 A 
HETATM   40  N11 UNL     1      -7.774 -42.885  22.984  1.00  0.00    -0.279 N 
HETATM   41  N12 UNL     1      -6.770 -42.629  22.161  1.00  0.00    -0.227 N 
ATOM     42  H11 UNL     1      -8.722 -42.518  22.894  1.00  0.00     0.189 HD
HETATM   43  N13 UNL     1      -5.704 -43.267  22.583  1.00  0.00    -0.224 N 
ATOM     44  H12 UNL     1      -6.816 -42.034  21.334  1.00  0.00     0.210 HD
ATOM     45  H13 UNL     1      -4.783 -43.257  22.146  1.00  0.00     0.210 HD
ENDBRANCH  37  38
ENDBRANCH  36  37
ENDBRANCH   4  36
TORSDOF 7
ENDMDL
MODEL 5
REMARK VINA RESULT: -7.862148414      8.574     12.156
REMARK  7 active torsions:
REMARK  status: ('A' for Active; 'I' for Inactive)
REMARK    1  A    between atoms: C2_7  and  N3_8 
REMARK    2  A    between atoms: C4_13  and  C5_14 
REMARK    3  A    between atoms: C7_16  and  C8_17 
REMARK    4  A    between atoms: C9_25  and  S1_26 
REMARK    5  A    between atoms: S1_26  and  C10_27 
REMARK    6  A    between atoms: C10_27  and  N10_28 
REMARK    7  A    between atoms: C12_40  and  N16_41 
ROOT
HETATM    1  C5  UNL     1      -1.268 -39.308  25.352  1.00  0.00     0.067 A 
HETATM    2  C6  UNL     1      -2.511 -39.844  25.614  1.00  0.00     0.050 A 
HETATM    3  C7  UNL     1      -2.902 -41.117  25.233  1.00  0.00     0.047 A 
HETATM    4  C9  UNL     1      -1.957 -41.870  24.549  1.00  0.00     0.100 A 
HETATM    5  N14 UNL     1      -0.756 -41.321  24.310  1.00  0.00    -0.293 N 
ATOM      6  H14 UNL     1      -0.067 -41.881  23.807  1.00  0.00     0.187 HD
HETATM    7  N15 UNL     1      -0.406 -40.094  24.686  1.00  0.00    -0.299 N 
ATOM      8  H15 UNL     1       0.527 -39.746  24.465  1.00  0.00     0.187 HD
ENDROOT
BRANCH   1   9
HETATM    9  C4  UNL     1      -0.967 -37.955  25.787  1.00  0.00     0.081 A 
HETATM   10  C2  UNL     1      -1.568 -36.874  25.186  1.00  0.00     0.139 A 
HETATM   11  N2  UNL     1      -1.272 -35.606  25.598  1.00  0.00    -0.176 N 
HETATM   12  C1  UNL     1      -0.398 -35.368  26.588  1.00  0.00     0.679 A 
ATOM     13  H2  UNL     1      -1.728 -34.818  25.139  1.00  0.00     0.186 HD
HETATM   14  N1  UNL     1      -0.113 -34.154  26.983  1.00  0.00    -0.234 N 
HETATM   15  N17 UNL     1       0.193 -36.415  27.180  1.00  0.00    -0.176 N 
ATOM     16  H12 UNL     1      -0.563 -33.357  26.533  1.00  0.00     0.174 HD
ATOM     17  H11 UNL     1       0.550 -33.972  27.737  1.00  0.00     0.174 HD
HETATM   18  C12 UNL     1      -0.065 -37.681  26.811  1.00  0.00     0.131 A 
ATOM     19  H17 UNL     1       0.858 -36.246  27.934  1.00  0.00     0.186 HD
BRANCH  10  20
HETATM   20  N3  UNL     1      -2.487 -37.145  24.147  1.00  0.00    -0.318 N 
HETATM   21  C3  UNL     1      -3.742 -37.050  24.374  1.00  0.00     0.202 C 
HETATM   22  N4  UNL     1      -4.182 -36.675  25.668  1.00  0.00    -0.066 NA
HETATM   23  N5  UNL     1      -4.708 -37.309  23.379  1.00  0.00    -0.066 NA
ATOM     24  H3  UNL     1      -2.152 -37.415  23.222  1.00  0.00     0.169 HD
ENDBRANCH  10  20
BRANCH  18  25
HETATM   25  N16 UNL     1       0.512 -38.714  27.383  1.00  0.00    -0.384 N 
ATOM     26 2H16 UNL     1       1.211 -39.282  26.907  1.00  0.00     0.157 HD
ATOM     27 1H16 UNL     1       0.225 -38.929  28.338  1.00  0.00     0.157 HD
ENDBRANCH  18  25
ENDBRANCH   1   9
BRANCH   3  28
HETATM   28  C8  UNL     1      -4.232 -41.634  25.530  1.00  0.00     0.147 A 
HETATM   29  N6  UNL     1      -5.310 -41.393  24.769  1.00  0.00    -0.271 N 
HETATM   30  N7  UNL     1      -6.370 -41.982  25.269  1.00  0.00    -0.225 N 
ATOM     31  H6  UNL     1      -5.306 -40.830  23.919  1.00  0.00     0.190 HD
HETATM   32  N8  UNL     1      -5.974 -42.611  26.364  1.00  0.00    -0.005 NA
ATOM     33  H7  UNL     1      -7.316 -41.960  24.887  1.00  0.00     0.205 HD
HETATM   34  N9  UNL     1      -4.680 -42.404  26.528  1.00  0.00    -0.266 N 
ATOM     35  H9  UNL     1      -4.114 -42.772  27.292  1.00  0.00     0.186 HD
ENDBRANCH   3  28
BRANCH   4  36
HETATM   36  S1  UNL     1      -2.372 -43.535  24.020  1.00  0.00    -0.088 SA
BRANCH  36  37
HETATM   37  C10 UNL     1      -0.975 -44.305  23.158  1.00  0.00     0.232 C 
BRANCH  37  38
HETATM   38  N10 UNL     1      -1.082 -44.031  21.739  1.00  0.00    -0.261 N 
HETATM   39  C11 UNL     1      -0.683 -42.877  21.164  1.00  0.00     0.220 A 
HETATM   40  N11 UNL     1      -0.945 -43.007  19.863  1.00  0.00    -0.279 N 
HETATM   41  N12 UNL     1      -1.485 -44.196  19.646  1.00  0.00    -0.227 N 
ATOM     42  H11 UNL     1      -0.758 -42.303  19.149  1.00  0.00     0.189 HD
HETATM   43  N13 UNL     1      -1.575 -44.833  20.789  1.00  0.00    -0.224 N 
ATOM     44  H12 UNL     1      -1.782 -44.557  18.740  1.00  0.00     0.210 HD
ATOM     45  H13 UNL     1      -1.953 -45.770  20.928  1.00  0.00     0.210 HD
ENDBRANCH  37  38
ENDBRANCH  36  37
ENDBRANCH   4  36
TORSDOF 7
ENDMDL
