MODEL 1
REMARK VINA RESULT: -7.672316381      0.000      0.000
REMARK  11 active torsions:
REMARK  status: ('A' for Active; 'I' for Inactive)
REMARK    1  A    between atoms: O1_1  and  C1_3 
REMARK    2  A    between atoms: C1_3  and  N1_4 
REMARK    3  A    between atoms: C1_3  and  O7_25 
REMARK    4  A    between atoms: N1_4  and  C2_6 
REMARK    5  A    between atoms: C2_6  and  O2_7 
REMARK    6  A    between atoms: C2_6  and  C3_9 
REMARK    7  A    between atoms: C5_15  and  S1_16 
REMARK    8  A    between atoms: C6_22  and  O6_23 
REMARK    9  A    between atoms: O7_25  and  C7_26 
REMARK   10  A    between atoms: C7_26  and  C8_27 
REMARK   11  A    between atoms: C10_34  and  O9_35 
ROOT
HETATM    1  C2  UNL     1      -4.383 -41.933  30.770  1.00  0.00     0.277 C 
ENDROOT
BRANCH   1   2
HETATM    2  N1  UNL     1      -5.663 -42.305  31.324  1.00  0.00    -0.319 N 
ATOM      3  H1  UNL     1      -6.526 -42.159  30.799  1.00  0.00     0.166 HD
BRANCH   2   4
HETATM    4  C1  UNL     1      -5.685 -42.878  32.616  1.00  0.00     0.260 C 
BRANCH   4   5
HETATM    5  O1  UNL     1      -4.514 -43.356  33.057  1.00  0.00    -0.327 OA
ATOM      6  H1  UNL     1      -4.358 -44.278  32.890  1.00  0.00     0.221 HD
ENDBRANCH   4   5
BRANCH   4   7
HETATM    7  O7  UNL     1      -6.690 -43.039  33.495  1.00  0.00    -0.311 OA
BRANCH   7   8
HETATM    8  C7  UNL     1      -8.038 -42.689  33.127  1.00  0.00     0.241 C 
BRANCH   8   9
HETATM    9  C8  UNL     1      -8.993 -42.607  34.205  1.00  0.00     0.089 A 
HETATM   10  N5  UNL     1     -10.342 -42.418  34.039  1.00  0.00    -0.306 N 
HETATM   11  C9  UNL     1     -10.959 -42.472  35.216  1.00  0.00     0.326 A 
ATOM     12  H5  UNL     1     -10.804 -42.258  33.144  1.00  0.00     0.170 HD
HETATM   13  O8  UNL     1     -12.206 -42.333  35.369  1.00  0.00    -0.247 OA
HETATM   14  N6  UNL     1      -9.999 -42.694  36.141  1.00  0.00    -0.287 N 
HETATM   15  C10 UNL     1      -8.806 -42.784  35.567  1.00  0.00     0.169 A 
ATOM     16  H6  UNL     1     -10.168 -42.781  37.143  1.00  0.00     0.172 HD
BRANCH  15  17
HETATM   17  O9  UNL     1      -7.542 -43.008  36.125  1.00  0.00    -0.344 OA
ATOM     18  H9  UNL     1      -7.146 -42.403  36.741  1.00  0.00     0.219 HD
ENDBRANCH  15  17
ENDBRANCH   8   9
ENDBRANCH   7   8
ENDBRANCH   4   7
ENDBRANCH   2   4
ENDBRANCH   1   2
BRANCH   1  19
HETATM   19  O2  UNL     1      -3.950 -43.284  30.253  1.00  0.00    -0.371 OA
ATOM     20  H2  UNL     1      -3.331 -42.997  29.592  1.00  0.00     0.212 HD
ENDBRANCH   1  19
BRANCH   1  21
HETATM   21  C3  UNL     1      -4.453 -41.174  29.510  1.00  0.00     0.127 A 
HETATM   22  N2  UNL     1      -3.796 -40.072  29.136  1.00  0.00    -0.185 N 
HETATM   23  C4  UNL     1      -4.228 -39.632  27.919  1.00  0.00     0.699 A 
ATOM     24  H2  UNL     1      -3.068 -39.620  29.688  1.00  0.00     0.184 HD
HETATM   25  N3  UNL     1      -3.940 -38.629  27.137  1.00  0.00    -0.169 N 
HETATM   26  N4  UNL     1      -5.156 -40.490  27.552  1.00  0.00    -0.089 N 
HETATM   27  C5  UNL     1      -4.574 -38.482  25.994  1.00  0.00     0.224 A 
ATOM     28  H3  UNL     1      -3.223 -37.958  27.413  1.00  0.00     0.185 HD
HETATM   29  S2  UNL     1      -5.620 -39.822  26.031  1.00  0.00     0.046 SA
HETATM   30  C6  UNL     1      -5.336 -41.450  28.479  1.00  0.00     0.198 A 
BRANCH  27  31
HETATM   31  S1  UNL     1      -4.303 -37.232  24.820  1.00  0.00     0.163 S 
HETATM   32  O3  UNL     1      -4.819 -35.907  25.406  1.00  0.00    -0.590 OA
HETATM   33  O4  UNL     1      -5.042 -37.491  23.576  1.00  0.00    -0.590 OA
HETATM   34  O5  UNL     1      -2.643 -37.033  24.631  1.00  0.00    -0.590 OA
ENDBRANCH  27  31
BRANCH  30  35
HETATM   35  O6  UNL     1      -6.266 -42.460  28.301  1.00  0.00    -0.343 OA
ATOM     36  H6  UNL     1      -6.177 -43.405  28.254  1.00  0.00     0.219 HD
ENDBRANCH  30  35
ENDBRANCH   1  21
TORSDOF 11
ENDMDL
MODEL 2
REMARK VINA RESULT: -7.596041608      1.750      2.725
REMARK  11 active torsions:
REMARK  status: ('A' for Active; 'I' for Inactive)
REMARK    1  A    between atoms: O1_1  and  C1_3 
REMARK    2  A    between atoms: C1_3  and  N1_4 
REMARK    3  A    between atoms: C1_3  and  O7_25 
REMARK    4  A    between atoms: N1_4  and  C2_6 
REMARK    5  A    between atoms: C2_6  and  O2_7 
REMARK    6  A    between atoms: C2_6  and  C3_9 
REMARK    7  A    between atoms: C5_15  and  S1_16 
REMARK    8  A    between atoms: C6_22  and  O6_23 
REMARK    9  A    between atoms: O7_25  and  C7_26 
REMARK   10  A    between atoms: C7_26  and  C8_27 
REMARK   11  A    between atoms: C10_34  and  O9_35 
ROOT
HETATM    1  C2  UNL     1      -7.300 -43.098  28.710  1.00  0.00     0.277 C 
ENDROOT
BRANCH   1   2
HETATM    2  N1  UNL     1      -6.996 -43.348  30.100  1.00  0.00    -0.319 N 
ATOM      3  H1  UNL     1      -6.036 -43.314  30.442  1.00  0.00     0.166 HD
BRANCH   2   4
HETATM    4  C1  UNL     1      -8.070 -43.640  30.971  1.00  0.00     0.260 C 
BRANCH   4   5
HETATM    5  O1  UNL     1      -8.699 -44.802  30.745  1.00  0.00    -0.327 OA
ATOM      6  H1  UNL     1      -9.620 -44.822  30.979  1.00  0.00     0.221 HD
ENDBRANCH   4   5
BRANCH   4   7
HETATM    7  O7  UNL     1      -8.588 -42.948  32.001  1.00  0.00    -0.311 OA
BRANCH   7   8
HETATM    8  C7  UNL     1      -7.799 -42.710  33.183  1.00  0.00     0.241 C 
BRANCH   8   9
HETATM    9  C8  UNL     1      -8.504 -42.756  34.440  1.00  0.00     0.089 A 
HETATM   10  N5  UNL     1      -7.921 -43.034  35.652  1.00  0.00    -0.306 N 
HETATM   11  C9  UNL     1      -8.817 -42.919  36.627  1.00  0.00     0.326 A 
ATOM     12  H5  UNL     1      -6.943 -43.292  35.784  1.00  0.00     0.170 HD
HETATM   13  O8  UNL     1      -8.563 -43.115  37.850  1.00  0.00    -0.247 OA
HETATM   14  N6  UNL     1      -9.982 -42.568  36.036  1.00  0.00    -0.287 N 
HETATM   15  C10 UNL     1      -9.828 -42.459  34.724  1.00  0.00     0.169 A 
ATOM     16  H6  UNL     1     -10.859 -42.410  36.533  1.00  0.00     0.172 HD
BRANCH  15  17
HETATM   17  O9  UNL     1     -10.747 -42.119  33.725  1.00  0.00    -0.344 OA
ATOM     18  H9  UNL     1     -11.516 -42.647  33.543  1.00  0.00     0.219 HD
ENDBRANCH  15  17
ENDBRANCH   8   9
ENDBRANCH   7   8
ENDBRANCH   4   7
ENDBRANCH   2   4
ENDBRANCH   1   2
BRANCH   1  19
HETATM   19  O2  UNL     1      -8.702 -42.561  28.870  1.00  0.00    -0.371 OA
ATOM     20  H2  UNL     1      -9.168 -43.212  28.358  1.00  0.00     0.212 HD
ENDBRANCH   1  19
BRANCH   1  21
HETATM   21  C3  UNL     1      -6.627 -41.922  28.134  1.00  0.00     0.127 A 
HETATM   22  N2  UNL     1      -7.020 -41.109  27.149  1.00  0.00    -0.185 N 
HETATM   23  C4  UNL     1      -6.053 -40.193  26.853  1.00  0.00     0.699 A 
ATOM     24  H2  UNL     1      -7.923 -41.165  26.680  1.00  0.00     0.184 HD
HETATM   25  N3  UNL     1      -5.924 -39.220  25.995  1.00  0.00    -0.169 N 
HETATM   26  N4  UNL     1      -5.064 -40.456  27.682  1.00  0.00    -0.089 N 
HETATM   27  C5  UNL     1      -4.816 -38.511  25.963  1.00  0.00     0.224 A 
ATOM     28  H3  UNL     1      -6.683 -39.008  25.348  1.00  0.00     0.185 HD
HETATM   29  S2  UNL     1      -3.921 -39.258  27.201  1.00  0.00     0.046 SA
HETATM   30  C6  UNL     1      -5.357 -41.497  28.484  1.00  0.00     0.198 A 
BRANCH  27  31
HETATM   31  S1  UNL     1      -4.483 -37.168  24.915  1.00  0.00     0.163 S 
HETATM   32  O3  UNL     1      -5.207 -37.412  23.581  1.00  0.00    -0.590 OA
HETATM   33  O4  UNL     1      -3.046 -37.048  24.633  1.00  0.00    -0.590 OA
HETATM   34  O5  UNL     1      -5.193 -35.793  25.575  1.00  0.00    -0.590 OA
ENDBRANCH  27  31
BRANCH  30  35
HETATM   35  O6  UNL     1      -4.459 -41.949  29.436  1.00  0.00    -0.343 OA
ATOM     36  H6  UNL     1      -3.578 -41.673  29.662  1.00  0.00     0.219 HD
ENDBRANCH  30  35
ENDBRANCH   1  21
TORSDOF 11
ENDMDL
MODEL 3
REMARK VINA RESULT: -7.514965981      1.507      2.013
REMARK  11 active torsions:
REMARK  status: ('A' for Active; 'I' for Inactive)
REMARK    1  A    between atoms: O1_1  and  C1_3 
REMARK    2  A    between atoms: C1_3  and  N1_4 
REMARK    3  A    between atoms: C1_3  and  O7_25 
REMARK    4  A    between atoms: N1_4  and  C2_6 
REMARK    5  A    between atoms: C2_6  and  O2_7 
REMARK    6  A    between atoms: C2_6  and  C3_9 
REMARK    7  A    between atoms: C5_15  and  S1_16 
REMARK    8  A    between atoms: C6_22  and  O6_23 
REMARK    9  A    between atoms: O7_25  and  C7_26 
REMARK   10  A    between atoms: C7_26  and  C8_27 
REMARK   11  A    between atoms: C10_34  and  O9_35 
ROOT
HETATM    1  C2  UNL     1      -6.907 -43.124  28.845  1.00  0.00     0.277 C 
ENDROOT
BRANCH   1   2
HETATM    2  N1  UNL     1      -6.662 -43.243  30.264  1.00  0.00    -0.319 N 
ATOM      3  H1  UNL     1      -5.735 -43.068  30.653  1.00  0.00     0.166 HD
BRANCH   2   4
HETATM    4  C1  UNL     1      -7.745 -43.608  31.096  1.00  0.00     0.260 C 
BRANCH   4   5
HETATM    5  O1  UNL     1      -8.127 -44.890  31.019  1.00  0.00    -0.327 OA
ATOM      6  H1  UNL     1      -8.135 -45.264  30.146  1.00  0.00     0.221 HD
ENDBRANCH   4   5
BRANCH   4   7
HETATM    7  O7  UNL     1      -8.476 -42.886  31.963  1.00  0.00    -0.311 OA
BRANCH   7   8
HETATM    8  C7  UNL     1      -8.005 -42.672  33.307  1.00  0.00     0.241 C 
BRANCH   8   9
HETATM    9  C8  UNL     1      -9.016 -42.593  34.333  1.00  0.00     0.089 A 
HETATM   10  N5  UNL     1     -10.355 -42.404  34.096  1.00  0.00    -0.306 N 
HETATM   11  C9  UNL     1     -11.033 -42.460  35.239  1.00  0.00     0.326 A 
ATOM     12  H5  UNL     1     -10.769 -42.244  33.178  1.00  0.00     0.170 HD
HETATM   13  O8  UNL     1     -12.286 -42.322  35.327  1.00  0.00    -0.247 OA
HETATM   14  N6  UNL     1     -10.122 -42.682  36.213  1.00  0.00    -0.287 N 
HETATM   15  C10 UNL     1      -8.901 -42.770  35.703  1.00  0.00     0.169 A 
ATOM     16  H6  UNL     1     -10.343 -42.770  37.205  1.00  0.00     0.172 HD
BRANCH  15  17
HETATM   17  O9  UNL     1      -7.668 -42.993  36.326  1.00  0.00    -0.344 OA
ATOM     18  H9  UNL     1      -7.440 -43.830  36.713  1.00  0.00     0.219 HD
ENDBRANCH  15  17
ENDBRANCH   8   9
ENDBRANCH   7   8
ENDBRANCH   4   7
ENDBRANCH   2   4
ENDBRANCH   1   2
BRANCH   1  19
HETATM   19  O2  UNL     1      -8.359 -42.711  28.893  1.00  0.00    -0.371 OA
ATOM     20  H2  UNL     1      -8.676 -43.359  29.512  1.00  0.00     0.212 HD
ENDBRANCH   1  19
BRANCH   1  21
HETATM   21  C3  UNL     1      -6.311 -41.935  28.214  1.00  0.00     0.127 A 
HETATM   22  N2  UNL     1      -6.726 -41.228  27.159  1.00  0.00    -0.185 N 
HETATM   23  C4  UNL     1      -5.827 -40.254  26.837  1.00  0.00     0.699 A 
ATOM     24  H2  UNL     1      -7.600 -41.393  26.661  1.00  0.00     0.184 HD
HETATM   25  N3  UNL     1      -5.743 -39.333  25.918  1.00  0.00    -0.169 N 
HETATM   26  N4  UNL     1      -4.858 -40.374  27.719  1.00  0.00    -0.089 N 
HETATM   27  C5  UNL     1      -4.698 -38.534  25.878  1.00  0.00     0.224 A 
ATOM     28  H3  UNL     1      -6.488 -39.231  25.229  1.00  0.00     0.185 HD
HETATM   29  S2  UNL     1      -3.799 -39.115  27.200  1.00  0.00     0.046 SA
HETATM   30  C6  UNL     1      -5.097 -41.379  28.582  1.00  0.00     0.198 A 
BRANCH  27  31
HETATM   31  S1  UNL     1      -4.433 -37.240  24.752  1.00  0.00     0.163 S 
HETATM   32  O3  UNL     1      -4.938 -35.937  25.393  1.00  0.00    -0.590 OA
HETATM   33  O4  UNL     1      -5.182 -37.449  23.505  1.00  0.00    -0.590 OA
HETATM   34  O5  UNL     1      -2.774 -37.040  24.557  1.00  0.00    -0.590 OA
ENDBRANCH  27  31
BRANCH  30  35
HETATM   35  O6  UNL     1      -4.208 -41.687  29.597  1.00  0.00    -0.343 OA
ATOM     36  H6  UNL     1      -4.210 -42.368  30.260  1.00  0.00     0.219 HD
ENDBRANCH  30  35
ENDBRANCH   1  21
TORSDOF 11
ENDMDL
MODEL 4
REMARK VINA RESULT: -7.494656902      0.809      1.689
REMARK  11 active torsions:
REMARK  status: ('A' for Active; 'I' for Inactive)
REMARK    1  A    between atoms: O1_1  and  C1_3 
REMARK    2  A    between atoms: C1_3  and  N1_4 
REMARK    3  A    between atoms: C1_3  and  O7_25 
REMARK    4  A    between atoms: N1_4  and  C2_6 
REMARK    5  A    between atoms: C2_6  and  O2_7 
REMARK    6  A    between atoms: C2_6  and  C3_9 
REMARK    7  A    between atoms: C5_15  and  S1_16 
REMARK    8  A    between atoms: C6_22  and  O6_23 
REMARK    9  A    between atoms: O7_25  and  C7_26 
REMARK   10  A    between atoms: C7_26  and  C8_27 
REMARK   11  A    between atoms: C10_34  and  O9_35 
ROOT
HETATM    1  C2  UNL     1      -4.286 -41.955  30.679  1.00  0.00     0.277 C 
ENDROOT
BRANCH   1   2
HETATM    2  N1  UNL     1      -5.547 -42.214  31.333  1.00  0.00    -0.319 N 
ATOM      3  H1  UNL     1      -6.424 -41.870  30.940  1.00  0.00     0.166 HD
BRANCH   2   4
HETATM    4  C1  UNL     1      -5.531 -42.960  32.534  1.00  0.00     0.260 C 
BRANCH   4   5
HETATM    5  O1  UNL     1      -4.317 -43.292  32.993  1.00  0.00    -0.327 OA
ATOM      6  H1  UNL     1      -3.937 -44.078  32.618  1.00  0.00     0.221 HD
ENDBRANCH   4   5
BRANCH   4   7
HETATM    7  O7  UNL     1      -6.533 -43.409  33.310  1.00  0.00    -0.311 OA
BRANCH   7   8
HETATM    8  C7  UNL     1      -7.773 -42.680  33.386  1.00  0.00     0.241 C 
BRANCH   8   9
HETATM    9  C8  UNL     1      -8.475 -42.743  34.644  1.00  0.00     0.089 A 
HETATM   10  N5  UNL     1      -7.887 -43.026  35.852  1.00  0.00    -0.306 N 
HETATM   11  C9  UNL     1      -8.783 -42.926  36.830  1.00  0.00     0.326 A 
ATOM     12  H5  UNL     1      -6.907 -43.276  35.981  1.00  0.00     0.170 HD
HETATM   13  O8  UNL     1      -8.525 -43.129  38.051  1.00  0.00    -0.247 OA
HETATM   14  N6  UNL     1      -9.951 -42.580  36.245  1.00  0.00    -0.287 N 
HETATM   15  C10 UNL     1      -9.801 -42.459  34.933  1.00  0.00     0.169 A 
ATOM     16  H6  UNL     1     -10.829 -42.433  36.744  1.00  0.00     0.172 HD
BRANCH  15  17
HETATM   17  O9  UNL     1     -10.725 -42.120  33.938  1.00  0.00    -0.344 OA
ATOM     18  H9  UNL     1     -11.109 -41.253  33.877  1.00  0.00     0.219 HD
ENDBRANCH  15  17
ENDBRANCH   8   9
ENDBRANCH   7   8
ENDBRANCH   4   7
ENDBRANCH   2   4
ENDBRANCH   1   2
BRANCH   1  19
HETATM   19  O2  UNL     1      -4.028 -43.331  30.114  1.00  0.00    -0.371 OA
ATOM     20  H2  UNL     1      -3.279 -43.128  29.566  1.00  0.00     0.212 HD
ENDBRANCH   1  19
BRANCH   1  21
HETATM   21  C3  UNL     1      -4.384 -41.169  29.438  1.00  0.00     0.127 A 
HETATM   22  N2  UNL     1      -3.688 -40.098  29.046  1.00  0.00    -0.185 N 
HETATM   23  C4  UNL     1      -4.162 -39.611  27.864  1.00  0.00     0.699 A 
ATOM     24  H2  UNL     1      -2.905 -39.699  29.562  1.00  0.00     0.184 HD
HETATM   25  N3  UNL     1      -3.863 -38.610  27.083  1.00  0.00    -0.169 N 
HETATM   26  N4  UNL     1      -5.157 -40.408  27.536  1.00  0.00    -0.089 N 
HETATM   27  C5  UNL     1      -4.551 -38.405  25.981  1.00  0.00     0.224 A 
ATOM     28  H3  UNL     1      -3.095 -37.985  27.327  1.00  0.00     0.185 HD
HETATM   29  S2  UNL     1      -5.668 -39.685  26.056  1.00  0.00     0.046 SA
HETATM   30  C6  UNL     1      -5.339 -41.375  28.456  1.00  0.00     0.198 A 
BRANCH  27  31
HETATM   31  S1  UNL     1      -4.277 -37.149  24.814  1.00  0.00     0.163 S 
HETATM   32  O3  UNL     1      -2.774 -37.113  24.495  1.00  0.00    -0.590 OA
HETATM   33  O4  UNL     1      -4.657 -35.831  25.342  1.00  0.00    -0.590 OA
HETATM   34  O5  UNL     1      -5.039 -37.585  23.379  1.00  0.00    -0.590 OA
ENDBRANCH  27  31
BRANCH  30  35
HETATM   35  O6  UNL     1      -6.333 -42.328  28.315  1.00  0.00    -0.343 OA
ATOM     36  H6  UNL     1      -7.086 -42.381  27.738  1.00  0.00     0.219 HD
ENDBRANCH  30  35
ENDBRANCH   1  21
TORSDOF 11
ENDMDL
MODEL 5
REMARK VINA RESULT: -7.352438198      4.726      9.072
REMARK  11 active torsions:
REMARK  status: ('A' for Active; 'I' for Inactive)
REMARK    1  A    between atoms: O1_1  and  C1_3 
REMARK    2  A    between atoms: C1_3  and  N1_4 
REMARK    3  A    between atoms: C1_3  and  O7_25 
REMARK    4  A    between atoms: N1_4  and  C2_6 
REMARK    5  A    between atoms: C2_6  and  O2_7 
REMARK    6  A    between atoms: C2_6  and  C3_9 
REMARK    7  A    between atoms: C5_15  and  S1_16 
REMARK    8  A    between atoms: C6_22  and  O6_23 
REMARK    9  A    between atoms: O7_25  and  C7_26 
REMARK   10  A    between atoms: C7_26  and  C8_27 
REMARK   11  A    between atoms: C10_34  and  O9_35 
ROOT
HETATM    1  C2  UNL     1      -9.155 -41.959  35.490  1.00  0.00     0.277 C 
ENDROOT
BRANCH   1   2
HETATM    2  N1  UNL     1      -7.978 -42.797  35.489  1.00  0.00    -0.319 N 
ATOM      3  H1  UNL     1      -7.604 -43.179  36.358  1.00  0.00     0.166 HD
BRANCH   2   4
HETATM    4  C1  UNL     1      -7.362 -43.073  34.247  1.00  0.00     0.260 C 
BRANCH   4   5
HETATM    5  O1  UNL     1      -6.729 -44.251  34.163  1.00  0.00    -0.327 OA
ATOM      6  H1  UNL     1      -5.790 -44.204  34.024  1.00  0.00     0.221 HD
ENDBRANCH   4   5
BRANCH   4   7
HETATM    7  O7  UNL     1      -7.290 -42.350  33.115  1.00  0.00    -0.311 OA
BRANCH   7   8
HETATM    8  C7  UNL     1      -6.628 -42.886  31.954  1.00  0.00     0.241 C 
BRANCH   8   9
HETATM    9  C8  UNL     1      -5.213 -42.624  31.847  1.00  0.00     0.089 A 
HETATM   10  N5  UNL     1      -4.258 -43.139  32.689  1.00  0.00    -0.306 N 
HETATM   11  C9  UNL     1      -3.046 -42.779  32.278  1.00  0.00     0.326 A 
ATOM     12  H5  UNL     1      -4.451 -43.714  33.509  1.00  0.00     0.170 HD
HETATM   13  O8  UNL     1      -1.974 -43.110  32.859  1.00  0.00    -0.247 OA
HETATM   14  N6  UNL     1      -3.226 -42.026  31.170  1.00  0.00    -0.287 N 
HETATM   15  C10 UNL     1      -4.516 -41.915  30.882  1.00  0.00     0.169 A 
ATOM     16  H6  UNL     1      -2.472 -41.601  30.629  1.00  0.00     0.172 HD
BRANCH  15  17
HETATM   17  O9  UNL     1      -5.161 -41.242  29.838  1.00  0.00    -0.344 OA
ATOM     18  H9  UNL     1      -4.681 -40.788  29.155  1.00  0.00     0.219 HD
ENDBRANCH  15  17
ENDBRANCH   8   9
ENDBRANCH   7   8
ENDBRANCH   4   7
ENDBRANCH   2   4
ENDBRANCH   1   2
BRANCH   1  19
HETATM   19  O2  UNL     1      -8.645 -40.841  34.613  1.00  0.00    -0.371 OA
ATOM     20  H2  UNL     1      -9.327 -40.851  33.950  1.00  0.00     0.212 HD
ENDBRANCH   1  19
BRANCH   1  21
HETATM   21  C3  UNL     1     -10.268 -42.459  34.667  1.00  0.00     0.127 A 
HETATM   22  N2  UNL     1     -10.285 -42.829  33.383  1.00  0.00    -0.185 N 
HETATM   23  C4  UNL     1     -11.550 -43.139  32.977  1.00  0.00     0.699 A 
ATOM     24  H2  UNL     1      -9.460 -42.874  32.785  1.00  0.00     0.184 HD
HETATM   25  N3  UNL     1     -12.100 -43.526  31.860  1.00  0.00    -0.169 N 
HETATM   26  N4  UNL     1     -12.306 -42.959  34.039  1.00  0.00    -0.089 N 
HETATM   27  C5  UNL     1     -13.397 -43.733  31.801  1.00  0.00     0.224 A 
ATOM     28  H3  UNL     1     -11.523 -43.667  31.031  1.00  0.00     0.185 HD
HETATM   29  S2  UNL     1     -13.854 -43.364  33.397  1.00  0.00     0.046 SA
HETATM   30  C6  UNL     1     -11.582 -42.546  35.097  1.00  0.00     0.198 A 
BRANCH  27  31
HETATM   31  S1  UNL     1     -14.292 -44.276  30.416  1.00  0.00     0.163 S 
HETATM   32  O3  UNL     1     -13.815 -45.695  30.065  1.00  0.00    -0.590 OA
HETATM   33  O4  UNL     1     -14.050 -43.418  29.248  1.00  0.00    -0.590 OA
HETATM   34  O5  UNL     1     -15.908 -44.434  30.858  1.00  0.00    -0.590 OA
ENDBRANCH  27  31
BRANCH  30  35
HETATM   35  O6  UNL     1     -12.173 -42.294  36.323  1.00  0.00    -0.343 OA
ATOM     36  H6  UNL     1     -11.874 -41.814  37.086  1.00  0.00     0.219 HD
ENDBRANCH  30  35
ENDBRANCH   1  21
TORSDOF 11
ENDMDL
