MODEL 1
REMARK VINA RESULT: -6.361022015      0.000      0.000
REMARK  8 active torsions:
REMARK  status: ('A' for Active; 'I' for Inactive)
REMARK    1  A    between atoms: O1_2  and  C2_3 
REMARK    2  A    between atoms: C2_3  and  C3_4 
REMARK    3  A    between atoms: C3_4  and  C4_5 
REMARK    4  A    between atoms: C4_5  and  C5_6 
REMARK    5  A    between atoms: C6_8  and  O3_9 
REMARK    6  A    between atoms: O3_9  and  C7_10 
REMARK    7  A    between atoms: C10_14  and  O5_15 
REMARK    8  A    between atoms: C11_17  and  O6_18 
ROOT
HETATM    1  C5  UNL     1      -3.241   2.667  12.310  1.00  0.00     0.156 C 
HETATM    2  O2  UNL     1      -3.735   2.224  13.507  1.00  0.00    -0.353 OA
HETATM    3  C6  UNL     1      -4.482   1.058  13.371  1.00  0.00     0.272 C 
HETATM    4  C9  UNL     1      -3.985   0.213  12.210  1.00  0.00     0.095 C 
HETATM    5  C10 UNL     1      -4.349   0.962  10.923  1.00  0.00     0.154 C 
HETATM    6  C11 UNL     1      -4.365   2.429  11.284  1.00  0.00     0.176 C 
ENDROOT
BRANCH   1   7
HETATM    7  C4  UNL     1      -2.911   4.116  12.225  1.00  0.00     0.037 C 
BRANCH   7   8
HETATM    8  C3  UNL     1      -3.482   5.022  13.267  1.00  0.00     0.029 C 
BRANCH   8   9
HETATM    9  C2  UNL     1      -4.575   5.864  12.738  1.00  0.00     0.167 C 
BRANCH   9  10
HETATM   10  O1  UNL     1      -5.827   5.243  12.778  1.00  0.00    -0.396 OA
HETATM   11  C1  UNL     1      -6.178   4.784  14.016  1.00  0.00     0.201 C 
ENDBRANCH   9  10
ENDBRANCH   8   9
ENDBRANCH   7   8
ENDBRANCH   1   7
BRANCH   6  12
HETATM   12  O6  UNL     1      -4.106   3.237  10.177  1.00  0.00    -0.390 OA
ATOM     13  H6  UNL     1      -3.379   2.852   9.703  1.00  0.00     0.210 HD
ENDBRANCH   6  12
BRANCH   3  14
HETATM   14  O3  UNL     1      -4.451   0.270  14.538  1.00  0.00    -0.290 OA
BRANCH  14  15
HETATM   15  C7  UNL     1      -4.462   0.902  15.769  1.00  0.00     0.257 C 
HETATM   16  C8  UNL     1      -5.653   1.641  16.273  1.00  0.00     0.126 C 
HETATM   17  O4  UNL     1      -3.444   0.872  16.518  1.00  0.00    -0.266 OA
ENDBRANCH  14  15
ENDBRANCH   3  14
BRANCH   5  18
HETATM   18  O5  UNL     1      -5.634   0.611  10.505  1.00  0.00    -0.393 OA
ATOM     19  H5  UNL     1      -5.591  -0.058   9.832  1.00  0.00     0.210 HD
ENDBRANCH   5  18
TORSDOF 8
ENDMDL
MODEL 2
REMARK VINA RESULT: -6.196180740      1.687      2.833
REMARK  8 active torsions:
REMARK  status: ('A' for Active; 'I' for Inactive)
REMARK    1  A    between atoms: O1_2  and  C2_3 
REMARK    2  A    between atoms: C2_3  and  C3_4 
REMARK    3  A    between atoms: C3_4  and  C4_5 
REMARK    4  A    between atoms: C4_5  and  C5_6 
REMARK    5  A    between atoms: C6_8  and  O3_9 
REMARK    6  A    between atoms: O3_9  and  C7_10 
REMARK    7  A    between atoms: C10_14  and  O5_15 
REMARK    8  A    between atoms: C11_17  and  O6_18 
ROOT
HETATM    1  C5  UNL     1      -2.895   2.468  12.098  1.00  0.00     0.156 C 
HETATM    2  O2  UNL     1      -3.325   2.137  13.354  1.00  0.00    -0.353 OA
HETATM    3  C6  UNL     1      -4.392   1.244  13.330  1.00  0.00     0.272 C 
HETATM    4  C9  UNL     1      -4.332   0.341  12.109  1.00  0.00     0.095 C 
HETATM    5  C10 UNL     1      -4.637   1.218  10.889  1.00  0.00     0.154 C 
HETATM    6  C11 UNL     1      -4.171   2.610  11.248  1.00  0.00     0.176 C 
ENDROOT
BRANCH   1   7
HETATM    7  C4  UNL     1      -2.169   3.761  11.965  1.00  0.00     0.037 C 
BRANCH   7   8
HETATM    8  C3  UNL     1      -0.712   3.710  11.639  1.00  0.00     0.029 C 
BRANCH   8   9
HETATM    9  C2  UNL     1      -0.397   4.416  10.379  1.00  0.00     0.167 C 
BRANCH   9  10
HETATM   10  O1  UNL     1      -1.282   4.121   9.338  1.00  0.00    -0.396 OA
HETATM   11  C1  UNL     1      -0.863   4.559   8.113  1.00  0.00     0.201 C 
ENDBRANCH   9  10
ENDBRANCH   8   9
ENDBRANCH   7   8
ENDBRANCH   1   7
BRANCH   6  12
HETATM   12  O6  UNL     1      -3.844   3.353  10.114  1.00  0.00    -0.390 OA
ATOM     13  H6  UNL     1      -3.117   2.919   9.684  1.00  0.00     0.210 HD
ENDBRANCH   6  12
BRANCH   3  14
HETATM   14  O3  UNL     1      -4.432   0.433  14.480  1.00  0.00    -0.290 OA
BRANCH  14  15
HETATM   15  C7  UNL     1      -4.415   1.040  15.724  1.00  0.00     0.257 C 
HETATM   16  C8  UNL     1      -5.505   1.947  16.181  1.00  0.00     0.126 C 
HETATM   17  O4  UNL     1      -3.458   0.840  16.526  1.00  0.00    -0.266 OA
ENDBRANCH  14  15
ENDBRANCH   3  14
BRANCH   5  18
HETATM   18  O5  UNL     1      -6.014   1.273  10.663  1.00  0.00    -0.393 OA
ATOM     19  H5  UNL     1      -6.411   1.940  11.211  1.00  0.00     0.210 HD
ENDBRANCH   5  18
TORSDOF 8
ENDMDL
MODEL 3
REMARK VINA RESULT: -6.189213948      1.035      1.083
REMARK  8 active torsions:
REMARK  status: ('A' for Active; 'I' for Inactive)
REMARK    1  A    between atoms: O1_2  and  C2_3 
REMARK    2  A    between atoms: C2_3  and  C3_4 
REMARK    3  A    between atoms: C3_4  and  C4_5 
REMARK    4  A    between atoms: C4_5  and  C5_6 
REMARK    5  A    between atoms: C6_8  and  O3_9 
REMARK    6  A    between atoms: O3_9  and  C7_10 
REMARK    7  A    between atoms: C10_14  and  O5_15 
REMARK    8  A    between atoms: C11_17  and  O6_18 
ROOT
HETATM    1  C5  UNL     1      -2.931   2.534  12.130  1.00  0.00     0.156 C 
HETATM    2  O2  UNL     1      -3.361   2.175  13.378  1.00  0.00    -0.353 OA
HETATM    3  C6  UNL     1      -4.393   1.243  13.335  1.00  0.00     0.272 C 
HETATM    4  C9  UNL     1      -4.286   0.354  12.106  1.00  0.00     0.095 C 
HETATM    5  C10 UNL     1      -4.611   1.230  10.891  1.00  0.00     0.154 C 
HETATM    6  C11 UNL     1      -4.203   2.635  11.267  1.00  0.00     0.176 C 
ENDROOT
BRANCH   1   7
HETATM    7  C4  UNL     1      -2.254   3.855  12.016  1.00  0.00     0.037 C 
BRANCH   7   8
HETATM    8  C3  UNL     1      -2.228   4.729  13.227  1.00  0.00     0.029 C 
BRANCH   8   9
HETATM    9  C2  UNL     1      -3.171   5.863  13.119  1.00  0.00     0.167 C 
BRANCH   9  10
HETATM   10  O1  UNL     1      -3.740   5.994  11.849  1.00  0.00    -0.396 OA
HETATM   11  C1  UNL     1      -5.053   6.375  11.867  1.00  0.00     0.201 C 
ENDBRANCH   9  10
ENDBRANCH   8   9
ENDBRANCH   7   8
ENDBRANCH   1   7
BRANCH   6  12
HETATM   12  O6  UNL     1      -3.892   3.401  10.144  1.00  0.00    -0.390 OA
ATOM     13  H6  UNL     1      -4.350   3.024   9.402  1.00  0.00     0.210 HD
ENDBRANCH   6  12
BRANCH   3  14
HETATM   14  O3  UNL     1      -4.413   0.420  14.477  1.00  0.00    -0.290 OA
BRANCH  14  15
HETATM   15  C7  UNL     1      -4.423   1.015  15.726  1.00  0.00     0.257 C 
HETATM   16  C8  UNL     1      -5.547   1.878  16.186  1.00  0.00     0.126 C 
HETATM   17  O4  UNL     1      -3.464   0.842  16.531  1.00  0.00    -0.266 OA
ENDBRANCH  14  15
ENDBRANCH   3  14
BRANCH   5  18
HETATM   18  O5  UNL     1      -5.986   1.235  10.650  1.00  0.00    -0.393 OA
ATOM     19  H5  UNL     1      -6.309   0.345  10.565  1.00  0.00     0.210 HD
ENDBRANCH   5  18
TORSDOF 8
ENDMDL
MODEL 4
REMARK VINA RESULT: -6.082824684      1.281      1.606
REMARK  8 active torsions:
REMARK  status: ('A' for Active; 'I' for Inactive)
REMARK    1  A    between atoms: O1_2  and  C2_3 
REMARK    2  A    between atoms: C2_3  and  C3_4 
REMARK    3  A    between atoms: C3_4  and  C4_5 
REMARK    4  A    between atoms: C4_5  and  C5_6 
REMARK    5  A    between atoms: C6_8  and  O3_9 
REMARK    6  A    between atoms: O3_9  and  C7_10 
REMARK    7  A    between atoms: C10_14  and  O5_15 
REMARK    8  A    between atoms: C11_17  and  O6_18 
ROOT
HETATM    1  C5  UNL     1      -2.956   2.565  12.163  1.00  0.00     0.156 C 
HETATM    2  O2  UNL     1      -3.403   2.199  13.403  1.00  0.00    -0.353 OA
HETATM    3  C6  UNL     1      -4.414   1.246  13.341  1.00  0.00     0.272 C 
HETATM    4  C9  UNL     1      -4.266   0.358  12.116  1.00  0.00     0.095 C 
HETATM    5  C10 UNL     1      -4.586   1.226  10.893  1.00  0.00     0.154 C 
HETATM    6  C11 UNL     1      -4.213   2.640  11.276  1.00  0.00     0.176 C 
ENDROOT
BRANCH   1   7
HETATM    7  C4  UNL     1      -2.304   3.900  12.060  1.00  0.00     0.037 C 
BRANCH   7   8
HETATM    8  C3  UNL     1      -2.180   4.711  13.309  1.00  0.00     0.029 C 
BRANCH   8   9
HETATM    9  C2  UNL     1      -3.175   5.802  13.368  1.00  0.00     0.167 C 
BRANCH   9  10
HETATM   10  O1  UNL     1      -3.029   6.629  14.486  1.00  0.00    -0.396 OA
HETATM   11  C1  UNL     1      -1.898   7.396  14.463  1.00  0.00     0.201 C 
ENDBRANCH   9  10
ENDBRANCH   8   9
ENDBRANCH   7   8
ENDBRANCH   1   7
BRANCH   6  12
HETATM   12  O6  UNL     1      -3.898   3.411  10.158  1.00  0.00    -0.390 OA
ATOM     13  H6  UNL     1      -4.058   2.881   9.387  1.00  0.00     0.210 HD
ENDBRANCH   6  12
BRANCH   3  14
HETATM   14  O3  UNL     1      -4.439   0.423  14.484  1.00  0.00    -0.290 OA
BRANCH  14  15
HETATM   15  C7  UNL     1      -4.428   1.019  15.733  1.00  0.00     0.257 C 
HETATM   16  C8  UNL     1      -5.528   1.907  16.200  1.00  0.00     0.126 C 
HETATM   17  O4  UNL     1      -3.467   0.823  16.531  1.00  0.00    -0.266 OA
ENDBRANCH  14  15
ENDBRANCH   3  14
BRANCH   5  18
HETATM   18  O5  UNL     1      -5.956   1.203  10.627  1.00  0.00    -0.393 OA
ATOM     19  H5  UNL     1      -6.418   0.741  11.317  1.00  0.00     0.210 HD
ENDBRANCH   5  18
TORSDOF 8
ENDMDL
MODEL 5
REMARK VINA RESULT: -6.072509354      2.045      3.175
REMARK  8 active torsions:
REMARK  status: ('A' for Active; 'I' for Inactive)
REMARK    1  A    between atoms: O1_2  and  C2_3 
REMARK    2  A    between atoms: C2_3  and  C3_4 
REMARK    3  A    between atoms: C3_4  and  C4_5 
REMARK    4  A    between atoms: C4_5  and  C5_6 
REMARK    5  A    between atoms: C6_8  and  O3_9 
REMARK    6  A    between atoms: O3_9  and  C7_10 
REMARK    7  A    between atoms: C10_14  and  O5_15 
REMARK    8  A    between atoms: C11_17  and  O6_18 
ROOT
HETATM    1  C5  UNL     1      -2.877   2.430  12.088  1.00  0.00     0.156 C 
HETATM    2  O2  UNL     1      -3.311   2.122  13.348  1.00  0.00    -0.353 OA
HETATM    3  C6  UNL     1      -4.391   1.246  13.336  1.00  0.00     0.272 C 
HETATM    4  C9  UNL     1      -4.346   0.326  12.126  1.00  0.00     0.095 C 
HETATM    5  C10 UNL     1      -4.638   1.192  10.895  1.00  0.00     0.154 C 
HETATM    6  C11 UNL     1      -4.151   2.581  11.236  1.00  0.00     0.176 C 
ENDROOT
BRANCH   1   7
HETATM    7  C4  UNL     1      -2.132   3.710  11.937  1.00  0.00     0.037 C 
BRANCH   7   8
HETATM    8  C3  UNL     1      -0.659   3.633  11.700  1.00  0.00     0.029 C 
BRANCH   8   9
HETATM    9  C2  UNL     1      -0.256   4.329  10.459  1.00  0.00     0.167 C 
BRANCH   9  10
HETATM   10  O1  UNL     1       1.095   4.162  10.140  1.00  0.00    -0.396 OA
HETATM   11  C1  UNL     1       1.944   4.389  11.187  1.00  0.00     0.201 C 
ENDBRANCH   9  10
ENDBRANCH   8   9
ENDBRANCH   7   8
ENDBRANCH   1   7
BRANCH   6  12
HETATM   12  O6  UNL     1      -3.814   3.305  10.093  1.00  0.00    -0.390 OA
ATOM     13  H6  UNL     1      -3.876   4.228  10.308  1.00  0.00     0.210 HD
ENDBRANCH   6  12
BRANCH   3  14
HETATM   14  O3  UNL     1      -4.442   0.450  14.496  1.00  0.00    -0.290 OA
BRANCH  14  15
HETATM   15  C7  UNL     1      -4.397   1.071  15.732  1.00  0.00     0.257 C 
HETATM   16  C8  UNL     1      -5.460   2.009  16.190  1.00  0.00     0.126 C 
HETATM   17  O4  UNL     1      -3.436   0.858  16.526  1.00  0.00    -0.266 OA
ENDBRANCH  14  15
ENDBRANCH   3  14
BRANCH   5  18
HETATM   18  O5  UNL     1      -6.015   1.266  10.670  1.00  0.00    -0.393 OA
ATOM     19  H5  UNL     1      -6.197   1.817   9.918  1.00  0.00     0.210 HD
ENDBRANCH   5  18
TORSDOF 8
ENDMDL
