MODEL 1
REMARK VINA RESULT: -5.858996766      0.000      0.000
REMARK  7 active torsions:
REMARK  status: ('A' for Active; 'I' for Inactive)
REMARK    1  A    between atoms: C3_4  and  S1_5 
REMARK    2  A    between atoms: S1_5  and  C4_6 
REMARK    3  A    between atoms: C4_6  and  C5_7 
REMARK    4  A    between atoms: C5_7  and  O1_8 
REMARK    5  A    between atoms: O1_8  and  C6_9 
REMARK    6  A    between atoms: C8_12  and  O3_13 
REMARK    7  A    between atoms: C9_15  and  O4_16 
ROOT
HETATM    1  C6  UNL     1      -4.374   2.265  14.975  1.00  0.00     0.290 C 
HETATM    2  O2  UNL     1      -5.187   3.222  15.601  1.00  0.00    -0.356 OA
HETATM    3  C7  UNL     1      -6.324   2.535  16.009  1.00  0.00     0.205 C 
HETATM    4  C8  UNL     1      -5.732   1.306  16.657  1.00  0.00     0.175 C 
HETATM    5  C9  UNL     1      -4.586   0.980  15.733  1.00  0.00     0.204 C 
ENDROOT
BRANCH   1   6
HETATM    6  O1  UNL     1      -4.844   2.188  13.668  1.00  0.00    -0.358 OA
BRANCH   6   7
HETATM    7  C5  UNL     1      -4.340   1.042  13.099  1.00  0.00     0.181 C 
BRANCH   7   8
HETATM    8  C4  UNL     1      -4.248   1.079  11.614  1.00  0.00     0.100 C 
BRANCH   8   9
HETATM    9  S1  UNL     1      -4.191   2.635  10.819  1.00  0.00    -0.159 SA
BRANCH   9  10
HETATM   10  C3  UNL     1      -2.786   3.664  10.921  1.00  0.00     0.104 C 
HETATM   11  C2  UNL     1      -3.067   4.972  11.676  1.00  0.00     0.288 C 
HETATM   12  N1  UNL     1      -1.831   4.874  12.407  1.00  0.00     0.086 N 
HETATM   13  C1  UNL     1      -1.971   4.898  13.864  1.00  0.00     0.310 C 
HETATM   14  C10 UNL     1      -1.702   3.497  11.893  1.00  0.00     0.288 C 
ENDBRANCH   9  10
ENDBRANCH   8   9
ENDBRANCH   7   8
ENDBRANCH   6   7
ENDBRANCH   1   6
BRANCH   5  15
HETATM   15  O4  UNL     1      -3.452   0.745  16.502  1.00  0.00    -0.388 OA
ATOM     16  H4  UNL     1      -3.736   0.463  17.363  1.00  0.00     0.210 HD
ENDBRANCH   5  15
BRANCH   4  17
HETATM   17  O3  UNL     1      -6.680   0.284  16.701  1.00  0.00    -0.391 OA
ATOM     18  H3  UNL     1      -6.272  -0.529  16.979  1.00  0.00     0.210 HD
ENDBRANCH   4  17
TORSDOF 7
ENDMDL
MODEL 2
REMARK VINA RESULT: -5.766206754      1.806      2.614
REMARK  7 active torsions:
REMARK  status: ('A' for Active; 'I' for Inactive)
REMARK    1  A    between atoms: C3_4  and  S1_5 
REMARK    2  A    between atoms: S1_5  and  C4_6 
REMARK    3  A    between atoms: C4_6  and  C5_7 
REMARK    4  A    between atoms: C5_7  and  O1_8 
REMARK    5  A    between atoms: O1_8  and  C6_9 
REMARK    6  A    between atoms: C8_12  and  O3_13 
REMARK    7  A    between atoms: C9_15  and  O4_16 
ROOT
HETATM    1  C6  UNL     1      -5.209   2.586  15.682  1.00  0.00     0.290 C 
HETATM    2  O2  UNL     1      -6.146   2.878  16.683  1.00  0.00    -0.356 OA
HETATM    3  C7  UNL     1      -6.710   1.657  17.034  1.00  0.00     0.205 C 
HETATM    4  C8  UNL     1      -5.489   0.781  17.183  1.00  0.00     0.175 C 
HETATM    5  C9  UNL     1      -4.622   1.245  16.040  1.00  0.00     0.204 C 
ENDROOT
BRANCH   1   6
HETATM    6  O1  UNL     1      -5.942   2.540  14.500  1.00  0.00    -0.358 OA
BRANCH   6   7
HETATM    7  C5  UNL     1      -6.150   3.832  14.076  1.00  0.00     0.181 C 
BRANCH   7   8
HETATM    8  C4  UNL     1      -4.906   4.621  13.867  1.00  0.00     0.100 C 
BRANCH   8   9
HETATM    9  S1  UNL     1      -4.311   4.829  12.236  1.00  0.00    -0.159 SA
BRANCH   9  10
HETATM   10  C3  UNL     1      -3.766   3.475  11.281  1.00  0.00     0.104 C 
HETATM   11  C2  UNL     1      -2.954   2.463  12.105  1.00  0.00     0.288 C 
HETATM   12  N1  UNL     1      -3.639   1.349  11.502  1.00  0.00     0.086 N 
HETATM   13  C1  UNL     1      -4.289   0.438  12.446  1.00  0.00     0.310 C 
HETATM   14  C10 UNL     1      -4.594   2.318  10.931  1.00  0.00     0.288 C 
ENDBRANCH   9  10
ENDBRANCH   8   9
ENDBRANCH   7   8
ENDBRANCH   6   7
ENDBRANCH   1   6
BRANCH   5  15
HETATM   15  O4  UNL     1      -3.334   1.456  16.519  1.00  0.00    -0.388 OA
ATOM     16  H4  UNL     1      -3.395   2.012  17.286  1.00  0.00     0.210 HD
ENDBRANCH   5  15
BRANCH   4  17
HETATM   17  O3  UNL     1      -5.846  -0.563  17.062  1.00  0.00    -0.391 OA
ATOM     18  H3  UNL     1      -5.082  -1.085  16.844  1.00  0.00     0.210 HD
ENDBRANCH   4  17
TORSDOF 7
ENDMDL
MODEL 3
REMARK VINA RESULT: -5.718353133      1.447      1.740
REMARK  7 active torsions:
REMARK  status: ('A' for Active; 'I' for Inactive)
REMARK    1  A    between atoms: C3_4  and  S1_5 
REMARK    2  A    between atoms: S1_5  and  C4_6 
REMARK    3  A    between atoms: C4_6  and  C5_7 
REMARK    4  A    between atoms: C5_7  and  O1_8 
REMARK    5  A    between atoms: O1_8  and  C6_9 
REMARK    6  A    between atoms: C8_12  and  O3_13 
REMARK    7  A    between atoms: C9_15  and  O4_16 
ROOT
HETATM    1  C6  UNL     1      -4.488   2.189  14.995  1.00  0.00     0.290 C 
HETATM    2  O2  UNL     1      -5.235   3.146  15.697  1.00  0.00    -0.356 OA
HETATM    3  C7  UNL     1      -6.365   2.478  16.151  1.00  0.00     0.205 C 
HETATM    4  C8  UNL     1      -5.772   1.212  16.724  1.00  0.00     0.175 C 
HETATM    5  C9  UNL     1      -4.691   0.886  15.723  1.00  0.00     0.204 C 
ENDROOT
BRANCH   1   6
HETATM    6  O1  UNL     1      -5.035   2.168  13.716  1.00  0.00    -0.358 OA
BRANCH   6   7
HETATM    7  C5  UNL     1      -4.239   1.375  12.923  1.00  0.00     0.181 C 
BRANCH   7   8
HETATM    8  C4  UNL     1      -3.734   2.042  11.693  1.00  0.00     0.100 C 
BRANCH   8   9
HETATM    9  S1  UNL     1      -2.556   3.324  11.860  1.00  0.00    -0.159 SA
BRANCH   9  10
HETATM   10  C3  UNL     1      -3.037   4.978  12.132  1.00  0.00     0.104 C 
HETATM   11  C2  UNL     1      -4.415   5.298  11.533  1.00  0.00     0.288 C 
HETATM   12  N1  UNL     1      -4.815   6.022  12.712  1.00  0.00     0.086 N 
HETATM   13  C1  UNL     1      -6.049   5.546  13.340  1.00  0.00     0.310 C 
HETATM   14  C10 UNL     1      -3.617   5.481  13.381  1.00  0.00     0.288 C 
ENDBRANCH   9  10
ENDBRANCH   8   9
ENDBRANCH   7   8
ENDBRANCH   6   7
ENDBRANCH   1   6
BRANCH   5  15
HETATM   15  O4  UNL     1      -3.521   0.596  16.416  1.00  0.00    -0.388 OA
ATOM     16  H4  UNL     1      -3.267  -0.294  16.199  1.00  0.00     0.210 HD
ENDBRANCH   5  15
BRANCH   4  17
HETATM   17  O3  UNL     1      -6.744   0.215  16.793  1.00  0.00    -0.391 OA
ATOM     18  H3  UNL     1      -6.919  -0.132  15.925  1.00  0.00     0.210 HD
ENDBRANCH   4  17
TORSDOF 7
ENDMDL
MODEL 4
REMARK VINA RESULT: -5.679102654      1.132      1.273
REMARK  7 active torsions:
REMARK  status: ('A' for Active; 'I' for Inactive)
REMARK    1  A    between atoms: C3_4  and  S1_5 
REMARK    2  A    between atoms: S1_5  and  C4_6 
REMARK    3  A    between atoms: C4_6  and  C5_7 
REMARK    4  A    between atoms: C5_7  and  O1_8 
REMARK    5  A    between atoms: O1_8  and  C6_9 
REMARK    6  A    between atoms: C8_12  and  O3_13 
REMARK    7  A    between atoms: C9_15  and  O4_16 
ROOT
HETATM    1  C6  UNL     1      -4.529   2.192  14.962  1.00  0.00     0.290 C 
HETATM    2  O2  UNL     1      -5.286   3.139  15.666  1.00  0.00    -0.356 OA
HETATM    3  C7  UNL     1      -6.394   2.451  16.146  1.00  0.00     0.205 C 
HETATM    4  C8  UNL     1      -5.762   1.205  16.722  1.00  0.00     0.175 C 
HETATM    5  C9  UNL     1      -4.691   0.893  15.707  1.00  0.00     0.204 C 
ENDROOT
BRANCH   1   6
HETATM    6  O1  UNL     1      -5.098   2.144  13.693  1.00  0.00    -0.358 OA
BRANCH   6   7
HETATM    7  C5  UNL     1      -4.289   1.372  12.891  1.00  0.00     0.181 C 
BRANCH   7   8
HETATM    8  C4  UNL     1      -3.273   2.138  12.120  1.00  0.00     0.100 C 
BRANCH   8   9
HETATM    9  S1  UNL     1      -3.824   3.303  10.938  1.00  0.00    -0.159 SA
BRANCH   9  10
HETATM   10  C3  UNL     1      -3.862   5.011  11.286  1.00  0.00     0.104 C 
HETATM   11  C2  UNL     1      -4.766   5.348  12.483  1.00  0.00     0.288 C 
HETATM   12  N1  UNL     1      -3.792   6.261  13.024  1.00  0.00     0.086 N 
HETATM   13  C1  UNL     1      -3.375   5.976  14.399  1.00  0.00     0.310 C 
HETATM   14  C10 UNL     1      -2.830   5.730  12.040  1.00  0.00     0.288 C 
ENDBRANCH   9  10
ENDBRANCH   8   9
ENDBRANCH   7   8
ENDBRANCH   6   7
ENDBRANCH   1   6
BRANCH   5  15
HETATM   15  O4  UNL     1      -3.503   0.636  16.383  1.00  0.00    -0.388 OA
ATOM     16  H4  UNL     1      -2.814   0.541  15.736  1.00  0.00     0.210 HD
ENDBRANCH   5  15
BRANCH   4  17
HETATM   17  O3  UNL     1      -6.710   0.187  16.818  1.00  0.00    -0.391 OA
ATOM     18  H3  UNL     1      -6.395  -0.595  16.379  1.00  0.00     0.210 HD
ENDBRANCH   4  17
TORSDOF 7
ENDMDL
MODEL 5
REMARK VINA RESULT: -5.636999554      0.952      1.170
REMARK  7 active torsions:
REMARK  status: ('A' for Active; 'I' for Inactive)
REMARK    1  A    between atoms: C3_4  and  S1_5 
REMARK    2  A    between atoms: S1_5  and  C4_6 
REMARK    3  A    between atoms: C4_6  and  C5_7 
REMARK    4  A    between atoms: C5_7  and  O1_8 
REMARK    5  A    between atoms: O1_8  and  C6_9 
REMARK    6  A    between atoms: C8_12  and  O3_13 
REMARK    7  A    between atoms: C9_15  and  O4_16 
ROOT
HETATM    1  C6  UNL     1      -4.707   2.135  15.050  1.00  0.00     0.290 C 
HETATM    2  O2  UNL     1      -5.815   2.729  15.673  1.00  0.00    -0.356 OA
HETATM    3  C7  UNL     1      -6.505   1.686  16.279  1.00  0.00     0.205 C 
HETATM    4  C8  UNL     1      -5.392   0.932  16.967  1.00  0.00     0.175 C 
HETATM    5  C9  UNL     1      -4.283   1.003  15.948  1.00  0.00     0.204 C 
ENDROOT
BRANCH   1   6
HETATM    6  O1  UNL     1      -5.180   1.684  13.822  1.00  0.00    -0.358 OA
BRANCH   6   7
HETATM    7  C5  UNL     1      -4.351   0.675  13.389  1.00  0.00     0.181 C 
BRANCH   7   8
HETATM    8  C4  UNL     1      -3.970   0.764  11.953  1.00  0.00     0.100 C 
BRANCH   8   9
HETATM    9  S1  UNL     1      -4.458   2.176  11.044  1.00  0.00    -0.159 SA
BRANCH   9  10
HETATM   10  C3  UNL     1      -3.557   3.668  11.119  1.00  0.00     0.104 C 
HETATM   11  C2  UNL     1      -2.640   3.742  12.349  1.00  0.00     0.288 C 
HETATM   12  N1  UNL     1      -1.552   4.271  11.567  1.00  0.00     0.086 N 
HETATM   13  C1  UNL     1      -0.308   3.502  11.638  1.00  0.00     0.310 C 
HETATM   14  C10 UNL     1      -2.333   3.939  10.360  1.00  0.00     0.288 C 
ENDBRANCH   9  10
ENDBRANCH   8   9
ENDBRANCH   7   8
ENDBRANCH   6   7
ENDBRANCH   1   6
BRANCH   5  15
HETATM   15  O4  UNL     1      -3.112   1.384  16.595  1.00  0.00    -0.388 OA
ATOM     16  H4  UNL     1      -3.317   1.523  17.512  1.00  0.00     0.210 HD
ENDBRANCH   5  15
BRANCH   4  17
HETATM   17  O3  UNL     1      -5.789  -0.381  17.223  1.00  0.00    -0.391 OA
ATOM     18  H3  UNL     1      -5.028  -0.929  17.376  1.00  0.00     0.210 HD
ENDBRANCH   4  17
TORSDOF 7
ENDMDL
