MODEL 1
REMARK VINA RESULT: -5.514690804      0.000      0.000
REMARK  7 active torsions:
REMARK  status: ('A' for Active; 'I' for Inactive)
REMARK    1  A    between atoms: C2_2  and  C3_3 
REMARK    2  A    between atoms: C3_3  and  O1_4 
REMARK    3  A    between atoms: O1_4  and  C4_5 
REMARK    4  A    between atoms: C5_6  and  O2_7 
REMARK    5  A    between atoms: C8_11  and  O4_12 
REMARK    6  A    between atoms: C10_14  and  O5_15 
REMARK    7  A    between atoms: C11_17  and  O6_18 
ROOT
HETATM    1  C4  UNL     1      -4.327   2.262  13.981  1.00  0.00     0.184 C 
HETATM    2  C5  UNL     1      -3.899   1.420  12.809  1.00  0.00     0.176 C 
HETATM    3  C7  UNL     1      -3.641   2.259  11.563  1.00  0.00     0.205 C 
HETATM    4  O3  UNL     1      -4.712   3.025  11.198  1.00  0.00    -0.356 OA
HETATM    5  C8  UNL     1      -4.666   4.350  11.598  1.00  0.00     0.290 C 
HETATM    6  C10 UNL     1      -4.716   4.514  13.094  1.00  0.00     0.204 C 
HETATM    7  C11 UNL     1      -3.756   3.651  13.837  1.00  0.00     0.183 C 
ENDROOT
BRANCH   1   8
HETATM    8  O1  UNL     1      -3.979   1.678  15.194  1.00  0.00    -0.377 OA
BRANCH   8   9
HETATM    9  C3  UNL     1      -5.041   0.972  15.756  1.00  0.00     0.195 C 
BRANCH   9  10
HETATM   10  C2  UNL     1      -6.003   1.900  16.410  1.00  0.00    -0.011 C 
HETATM   11  C1  UNL     1      -7.094   1.454  16.994  1.00  0.00     0.009 C 
ENDBRANCH   9  10
ENDBRANCH   8   9
ENDBRANCH   1   8
BRANCH   2  12
HETATM   12  O2  UNL     1      -4.701   0.344  12.573  1.00  0.00    -0.386 OA
HETATM   13  C6  UNL     1      -4.082  -0.735  11.974  1.00  0.00     0.202 C 
ENDBRANCH   2  12
BRANCH   7  14
HETATM   14  O6  UNL     1      -3.660   4.172  15.149  1.00  0.00    -0.390 OA
ATOM     15  H6  UNL     1      -2.859   3.815  15.516  1.00  0.00     0.210 HD
ENDBRANCH   7  14
BRANCH   6  16
HETATM   16  O5  UNL     1      -6.006   4.228  13.554  1.00  0.00    -0.388 OA
ATOM     17  H5  UNL     1      -6.115   3.287  13.629  1.00  0.00     0.210 HD
ENDBRANCH   6  16
BRANCH   5  18
HETATM   18  O4  UNL     1      -3.744   5.109  10.958  1.00  0.00    -0.363 OA
HETATM   19  C9  UNL     1      -3.613   6.411  11.315  1.00  0.00     0.204 C 
ENDBRANCH   5  18
TORSDOF 7
ENDMDL
MODEL 2
REMARK VINA RESULT: -5.432294077      1.535      3.806
REMARK  7 active torsions:
REMARK  status: ('A' for Active; 'I' for Inactive)
REMARK    1  A    between atoms: C2_2  and  C3_3 
REMARK    2  A    between atoms: C3_3  and  O1_4 
REMARK    3  A    between atoms: O1_4  and  C4_5 
REMARK    4  A    between atoms: C5_6  and  O2_7 
REMARK    5  A    between atoms: C8_11  and  O4_12 
REMARK    6  A    between atoms: C10_14  and  O5_15 
REMARK    7  A    between atoms: C11_17  and  O6_18 
ROOT
HETATM    1  C4  UNL     1      -4.645   2.522  12.809  1.00  0.00     0.184 C 
HETATM    2  C5  UNL     1      -5.134   2.455  14.230  1.00  0.00     0.176 C 
HETATM    3  C7  UNL     1      -4.622   3.620  15.069  1.00  0.00     0.205 C 
HETATM    4  O3  UNL     1      -3.259   3.728  15.068  1.00  0.00    -0.356 OA
HETATM    5  C8  UNL     1      -2.732   4.663  14.193  1.00  0.00     0.290 C 
HETATM    6  C10 UNL     1      -2.977   4.318  12.748  1.00  0.00     0.204 C 
HETATM    7  C11 UNL     1      -4.388   3.961  12.433  1.00  0.00     0.183 C 
ENDROOT
BRANCH   1   8
HETATM    8  O1  UNL     1      -5.524   1.902  11.927  1.00  0.00    -0.377 OA
BRANCH   8   9
HETATM    9  C3  UNL     1      -4.882   0.957  11.129  1.00  0.00     0.195 C 
BRANCH   9  10
HETATM   10  C2  UNL     1      -4.094   0.010  11.965  1.00  0.00    -0.011 C 
HETATM   11  C1  UNL     1      -4.145  -1.288  11.758  1.00  0.00     0.009 C 
ENDBRANCH   9  10
ENDBRANCH   8   9
ENDBRANCH   1   8
BRANCH   2  12
HETATM   12  O2  UNL     1      -4.948   1.244  14.827  1.00  0.00    -0.386 OA
HETATM   13  C6  UNL     1      -5.344   1.169  16.148  1.00  0.00     0.202 C 
ENDBRANCH   2  12
BRANCH   7  14
HETATM   14  O6  UNL     1      -4.530   4.029  11.026  1.00  0.00    -0.390 OA
ATOM     15  H6  UNL     1      -5.131   3.333  10.789  1.00  0.00     0.210 HD
ENDBRANCH   7  14
BRANCH   6  16
HETATM   16  O5  UNL     1      -2.162   3.241  12.378  1.00  0.00    -0.388 OA
ATOM     17  H5  UNL     1      -2.701   2.476  12.217  1.00  0.00     0.210 HD
ENDBRANCH   6  16
BRANCH   5  18
HETATM   18  O4  UNL     1      -2.961   5.955  14.531  1.00  0.00    -0.363 OA
HETATM   19  C9  UNL     1      -2.300   6.930  13.858  1.00  0.00     0.204 C 
ENDBRANCH   5  18
TORSDOF 7
ENDMDL
MODEL 3
REMARK VINA RESULT: -5.362701150      1.500      4.731
REMARK  7 active torsions:
REMARK  status: ('A' for Active; 'I' for Inactive)
REMARK    1  A    between atoms: C2_2  and  C3_3 
REMARK    2  A    between atoms: C3_3  and  O1_4 
REMARK    3  A    between atoms: O1_4  and  C4_5 
REMARK    4  A    between atoms: C5_6  and  O2_7 
REMARK    5  A    between atoms: C8_11  and  O4_12 
REMARK    6  A    between atoms: C10_14  and  O5_15 
REMARK    7  A    between atoms: C11_17  and  O6_18 
ROOT
HETATM    1  C4  UNL     1      -4.697   3.710  12.612  1.00  0.00     0.184 C 
HETATM    2  C5  UNL     1      -4.257   2.463  11.893  1.00  0.00     0.176 C 
HETATM    3  C7  UNL     1      -4.391   1.221  12.765  1.00  0.00     0.205 C 
HETATM    4  O3  UNL     1      -3.716   1.318  13.950  1.00  0.00    -0.356 OA
HETATM    5  C8  UNL     1      -4.480   1.668  15.049  1.00  0.00     0.290 C 
HETATM    6  C10 UNL     1      -5.050   3.059  14.949  1.00  0.00     0.204 C 
HETATM    7  C11 UNL     1      -5.727   3.352  13.655  1.00  0.00     0.183 C 
ENDROOT
BRANCH   1   8
HETATM    8  O1  UNL     1      -5.163   4.680  11.731  1.00  0.00    -0.377 OA
BRANCH   8   9
HETATM    9  C3  UNL     1      -4.528   5.906  11.923  1.00  0.00     0.195 C 
BRANCH   9  10
HETATM   10  C2  UNL     1      -5.321   7.010  11.316  1.00  0.00    -0.011 C 
HETATM   11  C1  UNL     1      -6.583   7.202  11.637  1.00  0.00     0.009 C 
ENDBRANCH   9  10
ENDBRANCH   8   9
ENDBRANCH   1   8
BRANCH   2  12
HETATM   12  O2  UNL     1      -3.039   2.567  11.292  1.00  0.00    -0.386 OA
HETATM   13  C6  UNL     1      -2.104   3.320  11.975  1.00  0.00     0.202 C 
ENDBRANCH   2  12
BRANCH   7  14
HETATM   14  O6  UNL     1      -6.508   4.516  13.850  1.00  0.00    -0.390 OA
ATOM     15  H6  UNL     1      -7.399   4.216  13.984  1.00  0.00     0.210 HD
ENDBRANCH   7  14
BRANCH   6  16
HETATM   16  O5  UNL     1      -4.028   3.998  15.129  1.00  0.00    -0.388 OA
ATOM     17  H5  UNL     1      -4.107   4.682  14.475  1.00  0.00     0.210 HD
ENDBRANCH   6  16
BRANCH   5  18
HETATM   18  O4  UNL     1      -5.343   0.713  15.474  1.00  0.00    -0.363 OA
HETATM   19  C9  UNL     1      -5.759   0.741  16.764  1.00  0.00     0.204 C 
ENDBRANCH   5  18
TORSDOF 7
ENDMDL
MODEL 4
REMARK VINA RESULT: -5.334438366      1.459      3.082
REMARK  7 active torsions:
REMARK  status: ('A' for Active; 'I' for Inactive)
REMARK    1  A    between atoms: C2_2  and  C3_3 
REMARK    2  A    between atoms: C3_3  and  O1_4 
REMARK    3  A    between atoms: O1_4  and  C4_5 
REMARK    4  A    between atoms: C5_6  and  O2_7 
REMARK    5  A    between atoms: C8_11  and  O4_12 
REMARK    6  A    between atoms: C10_14  and  O5_15 
REMARK    7  A    between atoms: C11_17  and  O6_18 
ROOT
HETATM    1  C4  UNL     1      -4.605   2.001  13.806  1.00  0.00     0.184 C 
HETATM    2  C5  UNL     1      -5.343   3.289  14.057  1.00  0.00     0.176 C 
HETATM    3  C7  UNL     1      -5.371   4.184  12.824  1.00  0.00     0.205 C 
HETATM    4  O3  UNL     1      -4.126   4.468  12.336  1.00  0.00    -0.356 OA
HETATM    5  C8  UNL     1      -3.712   3.699  11.262  1.00  0.00     0.290 C 
HETATM    6  C10 UNL     1      -3.538   2.245  11.612  1.00  0.00     0.204 C 
HETATM    7  C11 UNL     1      -4.692   1.649  12.342  1.00  0.00     0.183 C 
ENDROOT
BRANCH   1   8
HETATM    8  O1  UNL     1      -5.067   0.971  14.619  1.00  0.00    -0.377 OA
BRANCH   8   9
HETATM    9  C3  UNL     1      -4.436   0.966  15.862  1.00  0.00     0.195 C 
BRANCH   9  10
HETATM   10  C2  UNL     1      -5.412   0.669  16.946  1.00  0.00    -0.011 C 
HETATM   11  C1  UNL     1      -6.601   1.234  16.969  1.00  0.00     0.009 C 
ENDBRANCH   9  10
ENDBRANCH   8   9
ENDBRANCH   1   8
BRANCH   2  12
HETATM   12  O2  UNL     1      -4.954   3.944  15.186  1.00  0.00    -0.386 OA
HETATM   13  C6  UNL     1      -5.664   5.092  15.478  1.00  0.00     0.202 C 
ENDBRANCH   2  12
BRANCH   7  14
HETATM   14  O6  UNL     1      -4.546   0.243  12.269  1.00  0.00    -0.390 OA
ATOM     15  H6  UNL     1      -4.459   0.035  11.346  1.00  0.00     0.210 HD
ENDBRANCH   7  14
BRANCH   6  16
HETATM   16  O5  UNL     1      -2.394   2.087  12.403  1.00  0.00    -0.388 OA
ATOM     17  H5  UNL     1      -2.268   1.167  12.599  1.00  0.00     0.210 HD
ENDBRANCH   6  16
BRANCH   5  18
HETATM   18  O4  UNL     1      -4.362   3.945  10.099  1.00  0.00    -0.363 OA
HETATM   19  C9  UNL     1      -4.086   5.093   9.430  1.00  0.00     0.204 C 
ENDBRANCH   5  18
TORSDOF 7
ENDMDL
MODEL 5
REMARK VINA RESULT: -5.334243365      2.144      4.199
REMARK  7 active torsions:
REMARK  status: ('A' for Active; 'I' for Inactive)
REMARK    1  A    between atoms: C2_2  and  C3_3 
REMARK    2  A    between atoms: C3_3  and  O1_4 
REMARK    3  A    between atoms: O1_4  and  C4_5 
REMARK    4  A    between atoms: C5_6  and  O2_7 
REMARK    5  A    between atoms: C8_11  and  O4_12 
REMARK    6  A    between atoms: C10_14  and  O5_15 
REMARK    7  A    between atoms: C11_17  and  O6_18 
ROOT
HETATM    1  C4  UNL     1      -3.970   2.923  11.865  1.00  0.00     0.184 C 
HETATM    2  C5  UNL     1      -4.584   3.696  13.002  1.00  0.00     0.176 C 
HETATM    3  C7  UNL     1      -3.648   4.773  13.535  1.00  0.00     0.205 C 
HETATM    4  O3  UNL     1      -2.433   4.285  13.929  1.00  0.00    -0.356 OA
HETATM    5  C8  UNL     1      -1.405   4.426  13.012  1.00  0.00     0.290 C 
HETATM    6  C10 UNL     1      -1.623   3.624  11.756  1.00  0.00     0.204 C 
HETATM    7  C11 UNL     1      -2.971   3.796  11.146  1.00  0.00     0.183 C 
ENDROOT
BRANCH   1   8
HETATM    8  O1  UNL     1      -4.935   2.416  11.001  1.00  0.00    -0.377 OA
BRANCH   8   9
HETATM    9  C3  UNL     1      -4.737   1.061  10.738  1.00  0.00     0.195 C 
BRANCH   9  10
HETATM   10  C2  UNL     1      -4.353   0.335  11.979  1.00  0.00    -0.011 C 
HETATM   11  C1  UNL     1      -4.096  -0.956  11.963  1.00  0.00     0.009 C 
ENDBRANCH   9  10
ENDBRANCH   8   9
ENDBRANCH   1   8
BRANCH   2  12
HETATM   12  O2  UNL     1      -5.116   2.915  13.983  1.00  0.00    -0.386 OA
HETATM   13  C6  UNL     1      -5.904   3.577  14.904  1.00  0.00     0.202 C 
ENDBRANCH   2  12
BRANCH   7  14
HETATM   14  O6  UNL     1      -2.895   3.296   9.824  1.00  0.00    -0.390 OA
ATOM     15  H6  UNL     1      -3.720   2.854   9.663  1.00  0.00     0.210 HD
ENDBRANCH   7  14
BRANCH   6  16
HETATM   16  O5  UNL     1      -1.440   2.264  12.031  1.00  0.00    -0.388 OA
ATOM     17  H5  UNL     1      -1.797   1.745  11.321  1.00  0.00     0.210 HD
ENDBRANCH   6  16
BRANCH   5  18
HETATM   18  O4  UNL     1      -0.975   5.698  12.825  1.00  0.00    -0.363 OA
HETATM   19  C9  UNL     1       0.159   5.902  12.110  1.00  0.00     0.204 C 
ENDBRANCH   5  18
TORSDOF 7
ENDMDL
