MODEL 1
REMARK VINA RESULT: -8.263491077      0.000      0.000
REMARK  7 active torsions:
REMARK  status: ('A' for Active; 'I' for Inactive)
REMARK    1  A    between atoms: N1_4  and  C4_5 
REMARK    2  A    between atoms: C9_10  and  N2_11 
REMARK    3  A    between atoms: N2_11  and  C10_13 
REMARK    4  A    between atoms: C13_16  and  C14_17 
REMARK    5  A    between atoms: C14_17  and  C15_18 
REMARK    6  A    between atoms: C15_18  and  N3_19 
REMARK    7  A    between atoms: N3_19  and  C16_22 
ROOT
HETATM    1  C10 UNL     1      18.448  10.661   1.603  1.00  0.00     0.237 C 
HETATM    2  C11 UNL     1      18.795   9.638   2.640  1.00  0.00     0.055 C 
HETATM    3  C12 UNL     1      20.034  10.048   3.418  1.00  0.00     0.011 C 
HETATM    4  C13 UNL     1      21.119  10.518   2.480  1.00  0.00     0.011 C 
HETATM    5  C21 UNL     1      20.513  11.542   1.552  1.00  0.00     0.175 C 
HETATM    6  O2  UNL     1      19.182  11.829   1.910  1.00  0.00    -0.366 OA
ENDROOT
BRANCH   1   7
HETATM    7  N2  UNL     1      17.033  10.984   1.622  1.00  0.00    -0.199 N 
ATOM      8  H2  UNL     1      16.643  11.443   2.445  1.00  0.00     0.180 HD
BRANCH   7   9
HETATM    9  C9  UNL     1      16.258  10.712   0.642  1.00  0.00     0.685 A 
HETATM   10  N1  UNL     1      14.971  10.409   0.889  1.00  0.00    -0.188 N 
HETATM   11  C3  UNL     1      14.146  10.121  -0.138  1.00  0.00     0.121 A 
HETATM   12  C2  UNL     1      14.598  10.132  -1.455  1.00  0.00     0.023 A 
HETATM   13  C1  UNL     1      13.694   9.816  -2.593  1.00  0.00     0.056 C 
HETATM   14  C22 UNL     1      15.922  10.446  -1.691  1.00  0.00     0.266 A 
HETATM   15  N4  UNL     1      16.704  10.725  -0.628  1.00  0.00    -0.155 N 
HETATM   16  O3  UNL     1      16.368  10.467  -2.865  1.00  0.00    -0.267 OA
ATOM     17  H4  UNL     1      17.684  10.958  -0.795  1.00  0.00     0.187 HD
BRANCH  10  18
HETATM   18  C4  UNL     1      14.403  10.370   2.228  1.00  0.00     0.107 C 
HETATM   19  C5  UNL     1      14.577   9.049   2.901  1.00  0.00     0.026 C 
HETATM   20  C6  UNL     1      13.216   8.462   3.150  1.00  0.00     0.002 C 
HETATM   21  C7  UNL     1      12.204   9.414   2.606  1.00  0.00     0.002 C 
HETATM   22  C8  UNL     1      12.909  10.657   2.178  1.00  0.00     0.026 C 
ENDBRANCH  10  18
ENDBRANCH   7   9
ENDBRANCH   1   7
BRANCH   4  23
HETATM   23  C14 UNL     1      21.758   9.388   1.753  1.00  0.00     0.034 C 
BRANCH  23  24
HETATM   24  C15 UNL     1      22.363   8.351   2.637  1.00  0.00     0.233 C 
BRANCH  24  25
HETATM   25  N3  UNL     1      21.807   7.031   2.426  1.00  0.00    -0.071 N 
ATOM     26  H32 UNL     1      20.823   7.074   2.163  1.00  0.00     0.277 HD
ATOM     27  H31 UNL     1      22.176   6.598   1.579  1.00  0.00     0.277 HD
BRANCH  25  28
HETATM   28  C16 UNL     1      22.013   6.189   3.589  1.00  0.00     0.190 C 
HETATM   29  C17 UNL     1      22.164   4.758   3.161  1.00  0.00     0.059 C 
HETATM   30  C18 UNL     1      21.850   3.770   4.237  1.00  0.00     0.169 C 
HETATM   31  O1  UNL     1      20.641   3.975   4.855  1.00  0.00    -0.391 OA
HETATM   32  C19 UNL     1      19.950   5.071   4.388  1.00  0.00     0.169 C 
HETATM   33  C20 UNL     1      20.776   6.329   4.456  1.00  0.00     0.059 C 
ENDBRANCH  25  28
ENDBRANCH  24  25
ENDBRANCH  23  24
ENDBRANCH   4  23
TORSDOF 7
ENDMDL
MODEL 2
REMARK VINA RESULT: -8.261375171      2.710      8.110
REMARK  7 active torsions:
REMARK  status: ('A' for Active; 'I' for Inactive)
REMARK    1  A    between atoms: N1_4  and  C4_5 
REMARK    2  A    between atoms: C9_10  and  N2_11 
REMARK    3  A    between atoms: N2_11  and  C10_13 
REMARK    4  A    between atoms: C13_16  and  C14_17 
REMARK    5  A    between atoms: C14_17  and  C15_18 
REMARK    6  A    between atoms: C15_18  and  N3_19 
REMARK    7  A    between atoms: N3_19  and  C16_22 
ROOT
HETATM    1  C10 UNL     1      17.984   8.657   5.251  1.00  0.00     0.237 C 
HETATM    2  C11 UNL     1      16.927   9.302   6.094  1.00  0.00     0.055 C 
HETATM    3  C12 UNL     1      15.573   9.250   5.406  1.00  0.00     0.011 C 
HETATM    4  C13 UNL     1      15.695   9.668   3.961  1.00  0.00     0.011 C 
HETATM    5  C21 UNL     1      16.817   8.869   3.343  1.00  0.00     0.175 C 
HETATM    6  O2  UNL     1      17.319   7.915   4.248  1.00  0.00    -0.366 OA
ENDROOT
BRANCH   1   7
HETATM    7  N2  UNL     1      18.809   7.751   6.028  1.00  0.00    -0.199 N 
ATOM      8  H2  UNL     1      18.642   7.669   7.031  1.00  0.00     0.180 HD
BRANCH   7   9
HETATM    9  C9  UNL     1      19.741   7.052   5.498  1.00  0.00     0.685 A 
HETATM   10  N1  UNL     1      21.001   7.523   5.513  1.00  0.00    -0.188 N 
HETATM   11  C3  UNL     1      21.990   6.794   4.957  1.00  0.00     0.121 A 
HETATM   12  C2  UNL     1      21.735   5.558   4.366  1.00  0.00     0.023 A 
HETATM   13  C1  UNL     1      22.819   4.748   3.751  1.00  0.00     0.056 C 
HETATM   14  C22 UNL     1      20.435   5.091   4.360  1.00  0.00     0.266 A 
HETATM   15  N4  UNL     1      19.484   5.860   4.929  1.00  0.00    -0.155 N 
HETATM   16  O3  UNL     1      20.163   3.981   3.837  1.00  0.00    -0.267 OA
ATOM     17  H4  UNL     1      18.521   5.521   4.929  1.00  0.00     0.187 HD
BRANCH  10  18
HETATM   18  C4  UNL     1      21.370   8.800   6.105  1.00  0.00     0.107 C 
HETATM   19  C5  UNL     1      21.889   9.780   5.106  1.00  0.00     0.026 C 
HETATM   20  C6  UNL     1      23.319  10.093   5.449  1.00  0.00     0.002 C 
HETATM   21  C7  UNL     1      23.686   9.283   6.646  1.00  0.00     0.002 C 
HETATM   22  C8  UNL     1      22.458   8.604   7.150  1.00  0.00     0.026 C 
ENDBRANCH  10  18
ENDBRANCH   7   9
ENDBRANCH   1   7
BRANCH   4  23
HETATM   23  C14 UNL     1      15.887  11.137   3.818  1.00  0.00     0.034 C 
BRANCH  23  24
HETATM   24  C15 UNL     1      16.310  11.573   2.457  1.00  0.00     0.233 C 
BRANCH  24  25
HETATM   25  N3  UNL     1      17.601  12.229   2.447  1.00  0.00    -0.071 N 
ATOM     26  H32 UNL     1      17.556  13.154   2.875  1.00  0.00     0.277 HD
ATOM     27  H31 UNL     1      18.252  11.789   3.097  1.00  0.00     0.277 HD
BRANCH  25  28
HETATM   28  C16 UNL     1      18.143  12.287   1.103  1.00  0.00     0.190 C 
HETATM   29  C17 UNL     1      17.549  11.190   0.268  1.00  0.00     0.059 C 
HETATM   30  C18 UNL     1      18.382  10.814  -0.914  1.00  0.00     0.169 C 
HETATM   31  O1  UNL     1      19.696  10.549  -0.617  1.00  0.00    -0.391 OA
HETATM   32  C19 UNL     1      20.012  10.705   0.714  1.00  0.00     0.169 C 
HETATM   33  C20 UNL     1      19.640  12.073   1.225  1.00  0.00     0.059 C 
ENDBRANCH  25  28
ENDBRANCH  24  25
ENDBRANCH  23  24
ENDBRANCH   4  23
TORSDOF 7
ENDMDL
MODEL 3
REMARK VINA RESULT: -8.229712388      3.213      7.364
REMARK  7 active torsions:
REMARK  status: ('A' for Active; 'I' for Inactive)
REMARK    1  A    between atoms: N1_4  and  C4_5 
REMARK    2  A    between atoms: C9_10  and  N2_11 
REMARK    3  A    between atoms: N2_11  and  C10_13 
REMARK    4  A    between atoms: C13_16  and  C14_17 
REMARK    5  A    between atoms: C14_17  and  C15_18 
REMARK    6  A    between atoms: C15_18  and  N3_19 
REMARK    7  A    between atoms: N3_19  and  C16_22 
ROOT
HETATM    1  C10 UNL     1      17.915  10.358   4.226  1.00  0.00     0.237 C 
HETATM    2  C11 UNL     1      17.540   9.387   3.150  1.00  0.00     0.055 C 
HETATM    3  C12 UNL     1      16.512   9.988   2.206  1.00  0.00     0.011 C 
HETATM    4  C13 UNL     1      15.408  10.663   2.984  1.00  0.00     0.011 C 
HETATM    5  C21 UNL     1      16.050  11.587   3.988  1.00  0.00     0.175 C 
HETATM    6  O2  UNL     1      17.447  11.629   3.820  1.00  0.00    -0.366 OA
ENDROOT
BRANCH   1   7
HETATM    7  N2  UNL     1      19.354  10.429   4.405  1.00  0.00    -0.199 N 
ATOM      8  H2  UNL     1      19.725  10.640   5.332  1.00  0.00     0.180 HD
BRANCH   7   9
HETATM    9  C9  UNL     1      20.171  10.236   3.441  1.00  0.00     0.685 A 
HETATM   10  N1  UNL     1      20.999   9.176   3.487  1.00  0.00    -0.188 N 
HETATM   11  C3  UNL     1      21.865   8.964   2.476  1.00  0.00     0.121 A 
HETATM   12  C2  UNL     1      21.921   9.820   1.378  1.00  0.00     0.023 A 
HETATM   13  C1  UNL     1      22.873   9.593   0.258  1.00  0.00     0.056 C 
HETATM   14  C22 UNL     1      21.064  10.902   1.348  1.00  0.00     0.266 A 
HETATM   15  N4  UNL     1      20.218  11.069   2.386  1.00  0.00    -0.155 N 
HETATM   16  O3  UNL     1      21.084  11.698   0.376  1.00  0.00    -0.267 OA
ATOM     17  H4  UNL     1      19.582  11.867   2.370  1.00  0.00     0.187 HD
BRANCH  10  18
HETATM   18  C4  UNL     1      21.018   8.224   4.588  1.00  0.00     0.107 C 
HETATM   19  C5  UNL     1      22.393   7.766   4.943  1.00  0.00     0.026 C 
HETATM   20  C6  UNL     1      22.479   6.287   4.690  1.00  0.00     0.002 C 
HETATM   21  C7  UNL     1      21.161   5.841   4.153  1.00  0.00     0.002 C 
HETATM   22  C8  UNL     1      20.209   6.986   4.230  1.00  0.00     0.026 C 
ENDBRANCH  10  18
ENDBRANCH   7   9
ENDBRANCH   1   7
BRANCH   4  23
HETATM   23  C14 UNL     1      14.485   9.679   3.613  1.00  0.00     0.034 C 
BRANCH  23  24
HETATM   24  C15 UNL     1      14.276   9.879   5.075  1.00  0.00     0.233 C 
BRANCH  24  25
HETATM   25  N3  UNL     1      13.157   9.122   5.598  1.00  0.00    -0.071 N 
ATOM     26  H32 UNL     1      12.265   9.514   5.297  1.00  0.00     0.277 HD
ATOM     27  H31 UNL     1      13.083   8.207   5.155  1.00  0.00     0.277 HD
BRANCH  25  28
HETATM   28  C16 UNL     1      13.234   9.013   7.042  1.00  0.00     0.190 C 
HETATM   29  C17 UNL     1      14.046  10.149   7.595  1.00  0.00     0.059 C 
HETATM   30  C18 UNL     1      14.632   9.870   8.941  1.00  0.00     0.169 C 
HETATM   31  O1  UNL     1      15.322   8.686   9.021  1.00  0.00    -0.391 OA
HETATM   32  C19 UNL     1      15.325   7.958   7.853  1.00  0.00     0.169 C 
HETATM   33  C20 UNL     1      13.929   7.700   7.346  1.00  0.00     0.059 C 
ENDBRANCH  25  28
ENDBRANCH  24  25
ENDBRANCH  23  24
ENDBRANCH   4  23
TORSDOF 7
ENDMDL
MODEL 4
REMARK VINA RESULT: -8.167498412      1.674      3.350
REMARK  7 active torsions:
REMARK  status: ('A' for Active; 'I' for Inactive)
REMARK    1  A    between atoms: N1_4  and  C4_5 
REMARK    2  A    between atoms: C9_10  and  N2_11 
REMARK    3  A    between atoms: N2_11  and  C10_13 
REMARK    4  A    between atoms: C13_16  and  C14_17 
REMARK    5  A    between atoms: C14_17  and  C15_18 
REMARK    6  A    between atoms: C15_18  and  N3_19 
REMARK    7  A    between atoms: N3_19  and  C16_22 
ROOT
HETATM    1  C10 UNL     1      18.879  10.545   0.893  1.00  0.00     0.237 C 
HETATM    2  C11 UNL     1      19.188  11.853   1.554  1.00  0.00     0.055 C 
HETATM    3  C12 UNL     1      20.602  12.307   1.231  1.00  0.00     0.011 C 
HETATM    4  C13 UNL     1      21.577  11.167   1.397  1.00  0.00     0.011 C 
HETATM    5  C21 UNL     1      21.038   9.984   0.633  1.00  0.00     0.175 C 
HETATM    6  O2  UNL     1      19.877  10.328  -0.084  1.00  0.00    -0.366 OA
ENDROOT
BRANCH   1   7
HETATM    7  N2  UNL     1      17.585  10.571   0.237  1.00  0.00    -0.199 N 
ATOM      8  H2  UNL     1      17.492  11.064  -0.651  1.00  0.00     0.180 HD
BRANCH   7   9
HETATM    9  C9  UNL     1      16.556   9.996   0.734  1.00  0.00     0.685 A 
HETATM   10  N1  UNL     1      15.404   9.997   0.039  1.00  0.00    -0.188 N 
HETATM   11  C3  UNL     1      14.315   9.394   0.555  1.00  0.00     0.121 A 
HETATM   12  C2  UNL     1      14.355   8.764   1.797  1.00  0.00     0.023 A 
HETATM   13  C1  UNL     1      13.158   8.096   2.373  1.00  0.00     0.056 C 
HETATM   14  C22 UNL     1      15.546   8.772   2.496  1.00  0.00     0.266 A 
HETATM   15  N4  UNL     1      16.605   9.391   1.935  1.00  0.00    -0.155 N 
HETATM   16  O3  UNL     1      15.623   8.216   3.621  1.00  0.00    -0.267 OA
ATOM     17  H4  UNL     1      17.488   9.400   2.447  1.00  0.00     0.187 HD
BRANCH  10  18
HETATM   18  C4  UNL     1      15.260  10.626  -1.266  1.00  0.00     0.107 C 
HETATM   19  C5  UNL     1      13.888  11.162  -1.509  1.00  0.00     0.026 C 
HETATM   20  C6  UNL     1      13.288  10.417  -2.668  1.00  0.00     0.002 C 
HETATM   21  C7  UNL     1      14.285   9.403  -3.121  1.00  0.00     0.002 C 
HETATM   22  C8  UNL     1      15.555   9.624  -2.372  1.00  0.00     0.026 C 
ENDBRANCH  10  18
ENDBRANCH   7   9
ENDBRANCH   1   7
BRANCH   4  23
HETATM   23  C14 UNL     1      21.837  10.859   2.830  1.00  0.00     0.034 C 
BRANCH  23  24
HETATM   24  C15 UNL     1      21.822   9.405   3.159  1.00  0.00     0.233 C 
BRANCH  24  25
HETATM   25  N3  UNL     1      20.928   9.079   4.251  1.00  0.00    -0.071 N 
ATOM     26  H32 UNL     1      20.771   9.881   4.861  1.00  0.00     0.277 HD
ATOM     27  H31 UNL     1      19.971   8.942   3.925  1.00  0.00     0.277 HD
BRANCH  25  28
HETATM   28  C16 UNL     1      21.411   7.930   4.992  1.00  0.00     0.190 C 
HETATM   29  C17 UNL     1      22.315   7.107   4.121  1.00  0.00     0.059 C 
HETATM   30  C18 UNL     1      22.439   5.683   4.556  1.00  0.00     0.169 C 
HETATM   31  O1  UNL     1      21.238   5.049   4.758  1.00  0.00    -0.391 OA
HETATM   32  C19 UNL     1      20.138   5.850   4.548  1.00  0.00     0.169 C 
HETATM   33  C20 UNL     1      20.193   7.110   5.373  1.00  0.00     0.059 C 
ENDBRANCH  25  28
ENDBRANCH  24  25
ENDBRANCH  23  24
ENDBRANCH   4  23
TORSDOF 7
ENDMDL
MODEL 5
REMARK VINA RESULT: -8.160695860      3.074      6.522
REMARK  7 active torsions:
REMARK  status: ('A' for Active; 'I' for Inactive)
REMARK    1  A    between atoms: N1_4  and  C4_5 
REMARK    2  A    between atoms: C9_10  and  N2_11 
REMARK    3  A    between atoms: N2_11  and  C10_13 
REMARK    4  A    between atoms: C13_16  and  C14_17 
REMARK    5  A    between atoms: C14_17  and  C15_18 
REMARK    6  A    between atoms: C15_18  and  N3_19 
REMARK    7  A    between atoms: N3_19  and  C16_22 
ROOT
HETATM    1  C10 UNL     1      15.000   9.177   1.128  1.00  0.00     0.237 C 
HETATM    2  C11 UNL     1      14.299  10.380   0.577  1.00  0.00     0.055 C 
HETATM    3  C12 UNL     1      13.571  10.045  -0.714  1.00  0.00     0.011 C 
HETATM    4  C13 UNL     1      14.462   9.246  -1.634  1.00  0.00     0.011 C 
HETATM    5  C21 UNL     1      15.032   8.096  -0.841  1.00  0.00     0.175 C 
HETATM    6  O2  UNL     1      14.480   8.049   0.453  1.00  0.00    -0.366 OA
ENDROOT
BRANCH   1   7
HETATM    7  N2  UNL     1      14.756   9.020   2.550  1.00  0.00    -0.199 N 
ATOM      8  H2  UNL     1      13.794   9.030   2.889  1.00  0.00     0.180 HD
BRANCH   7   9
HETATM    9  C9  UNL     1      15.706   8.870   3.393  1.00  0.00     0.685 A 
HETATM   10  N1  UNL     1      15.484   9.158   4.688  1.00  0.00    -0.188 N 
HETATM   11  C3  UNL     1      16.480   9.002   5.584  1.00  0.00     0.121 A 
HETATM   12  C2  UNL     1      17.739   8.547   5.197  1.00  0.00     0.023 A 
HETATM   13  C1  UNL     1      18.842   8.373   6.179  1.00  0.00     0.056 C 
HETATM   14  C22 UNL     1      17.948   8.256   3.864  1.00  0.00     0.266 A 
HETATM   15  N4  UNL     1      16.918   8.429   3.009  1.00  0.00    -0.155 N 
HETATM   16  O3  UNL     1      19.069   7.843   3.474  1.00  0.00    -0.267 OA
ATOM     17  H4  UNL     1      17.066   8.216   2.022  1.00  0.00     0.187 HD
BRANCH  10  18
HETATM   18  C4  UNL     1      14.207   9.639   5.192  1.00  0.00     0.107 C 
HETATM   19  C5  UNL     1      14.348  10.592   6.332  1.00  0.00     0.026 C 
HETATM   20  C6  UNL     1      13.710   9.976   7.545  1.00  0.00     0.002 C 
HETATM   21  C7  UNL     1      13.199   8.630   7.156  1.00  0.00     0.002 C 
HETATM   22  C8  UNL     1      13.359   8.474   5.681  1.00  0.00     0.026 C 
ENDBRANCH  10  18
ENDBRANCH   7   9
ENDBRANCH   1   7
BRANCH   4  23
HETATM   23  C14 UNL     1      15.515  10.090  -2.264  1.00  0.00     0.034 C 
BRANCH  23  24
HETATM   24  C15 UNL     1      16.906   9.603  -2.045  1.00  0.00     0.233 C 
BRANCH  24  25
HETATM   25  N3  UNL     1      17.809  10.643  -1.598  1.00  0.00    -0.071 N 
ATOM     26  H32 UNL     1      18.705  10.599  -2.083  1.00  0.00     0.277 HD
ATOM     27  H31 UNL     1      17.507  11.565  -1.913  1.00  0.00     0.277 HD
BRANCH  25  28
HETATM   28  C16 UNL     1      17.979  10.599  -0.158  1.00  0.00     0.190 C 
HETATM   29  C17 UNL     1      17.446  11.862   0.455  1.00  0.00     0.059 C 
HETATM   30  C18 UNL     1      18.024  12.170   1.798  1.00  0.00     0.169 C 
HETATM   31  O1  UNL     1      19.396  12.141   1.842  1.00  0.00    -0.391 OA
HETATM   32  C19 UNL     1      19.989  11.807   0.645  1.00  0.00     0.169 C 
HETATM   33  C20 UNL     1      19.469  10.500   0.105  1.00  0.00     0.059 C 
ENDBRANCH  25  28
ENDBRANCH  24  25
ENDBRANCH  23  24
ENDBRANCH   4  23
TORSDOF 7
ENDMDL
