MODEL 1
REMARK VINA RESULT: -6.977566440      0.000      0.000
REMARK  7 active torsions:
REMARK  status: ('A' for Active; 'I' for Inactive)
REMARK    1  A    between atoms: C7_7  and  N1_8 
REMARK    2  A    between atoms: N1_8  and  C8_10 
REMARK    3  A    between atoms: C8_10  and  C9_12 
REMARK    4  A    between atoms: C9_12  and  C10_13 
REMARK       I    between atoms: C10_13  and  N2_15 
REMARK    5  A    between atoms: N2_15  and  N3_17 
REMARK    6  A    between atoms: C11_19  and  C12_20 
REMARK    7  A    between atoms: C15_23  and  N4_24 
ROOT
HETATM    1  C10 UNL     1      -7.149  47.272  38.838  1.00  0.00     0.242 C 
HETATM    2  O1  UNL     1      -5.999  47.359  39.321  1.00  0.00    -0.271 OA
HETATM    3  N2  UNL     1      -7.718  45.986  38.648  1.00  0.00    -0.270 N 
ATOM      4  H2  UNL     1      -8.654  45.883  38.257  1.00  0.00     0.190 HD
ENDROOT
BRANCH   1   5
HETATM    5  C9  UNL     1      -7.967  48.435  38.446  1.00  0.00     0.173 C 
BRANCH   5   6
HETATM    6  C8  UNL     1      -7.237  49.515  37.786  1.00  0.00     0.082 C 
HETATM    7  S1  UNL     1      -7.378  51.046  38.279  1.00  0.00    -0.065 SA
BRANCH   6   8
HETATM    8  N1  UNL     1      -6.387  49.204  36.697  1.00  0.00    -0.379 N 
ATOM      9  H1  UNL     1      -5.391  49.421  36.760  1.00  0.00     0.160 HD
BRANCH   8  10
HETATM   10  C7  UNL     1      -6.907  48.581  35.492  1.00  0.00     0.085 C 
HETATM   11  C2  UNL     1      -7.609  49.625  34.645  1.00  0.00     0.004 C 
HETATM   12  C1  UNL     1      -6.788  50.840  34.377  1.00  0.00     0.012 C 
HETATM   13  C3  UNL     1      -8.098  49.032  33.368  1.00  0.00     0.006 C 
HETATM   14  C4  UNL     1      -7.055  48.264  32.623  1.00  0.00     0.001 C 
HETATM   15  C5  UNL     1      -5.723  48.253  33.299  1.00  0.00     0.002 C 
HETATM   16  C6  UNL     1      -5.809  47.875  34.771  1.00  0.00     0.025 C 
ENDBRANCH   8  10
ENDBRANCH   6   8
ENDBRANCH   5   6
ENDBRANCH   1   5
BRANCH   3  17
HETATM   17  N3  UNL     1      -6.970  44.865  39.009  1.00  0.00    -0.308 N 
HETATM   18  C11 UNL     1      -7.465  44.032  39.852  1.00  0.00     0.126 C 
ATOM     19  H3  UNL     1      -6.045  44.710  38.609  1.00  0.00     0.186 HD
BRANCH  18  20
HETATM   20  C12 UNL     1      -6.626  42.862  40.197  1.00  0.00     0.024 A 
HETATM   21  C13 UNL     1      -6.077  41.920  39.372  1.00  0.00     0.023 A 
HETATM   22  C14 UNL     1      -5.350  40.951  39.934  1.00  0.00     0.045 A 
HETATM   23  C15 UNL     1      -5.211  40.975  41.293  1.00  0.00     0.144 A 
HETATM   24  S2  UNL     1      -6.100  42.354  41.746  1.00  0.00    -0.065 SA
BRANCH  23  25
HETATM   25  N4  UNL     1      -4.489  40.062  42.141  1.00  0.00    -0.108 N 
HETATM   26  O2  UNL     1      -4.823  39.912  43.333  1.00  0.00    -0.531 OA
HETATM   27  O3  UNL     1      -3.436  39.342  41.679  1.00  0.00    -0.531 OA
ENDBRANCH  23  25
ENDBRANCH  18  20
ENDBRANCH   3  17
TORSDOF 7
ENDMDL
MODEL 2
REMARK VINA RESULT: -6.955647875      1.058      1.240
REMARK  7 active torsions:
REMARK  status: ('A' for Active; 'I' for Inactive)
REMARK    1  A    between atoms: C7_7  and  N1_8 
REMARK    2  A    between atoms: N1_8  and  C8_10 
REMARK    3  A    between atoms: C8_10  and  C9_12 
REMARK    4  A    between atoms: C9_12  and  C10_13 
REMARK       I    between atoms: C10_13  and  N2_15 
REMARK    5  A    between atoms: N2_15  and  N3_17 
REMARK    6  A    between atoms: C11_19  and  C12_20 
REMARK    7  A    between atoms: C15_23  and  N4_24 
ROOT
HETATM    1  C10 UNL     1      -7.947  47.074  39.299  1.00  0.00     0.242 C 
HETATM    2  O1  UNL     1      -6.740  47.273  39.561  1.00  0.00    -0.271 OA
HETATM    3  N2  UNL     1      -8.421  45.739  39.225  1.00  0.00    -0.270 N 
ATOM      4  H2  UNL     1      -9.400  45.545  39.013  1.00  0.00     0.190 HD
ENDROOT
BRANCH   1   5
HETATM    5  C9  UNL     1      -8.925  48.151  39.057  1.00  0.00     0.173 C 
BRANCH   5   6
HETATM    6  C8  UNL     1      -8.531  49.136  38.052  1.00  0.00     0.082 C 
HETATM    7  S1  UNL     1      -9.504  50.362  37.654  1.00  0.00    -0.065 SA
BRANCH   6   8
HETATM    8  N1  UNL     1      -7.268  49.010  37.425  1.00  0.00    -0.379 N 
ATOM      9  H1  UNL     1      -6.419  49.152  37.974  1.00  0.00     0.160 HD
BRANCH   8  10
HETATM   10  C7  UNL     1      -7.160  48.684  36.013  1.00  0.00     0.085 C 
HETATM   11  C2  UNL     1      -6.276  49.706  35.324  1.00  0.00     0.004 C 
HETATM   12  C1  UNL     1      -4.957  49.913  35.987  1.00  0.00     0.012 C 
HETATM   13  C3  UNL     1      -6.091  49.363  33.885  1.00  0.00     0.006 C 
HETATM   14  C4  UNL     1      -5.659  47.951  33.654  1.00  0.00     0.001 C 
HETATM   15  C5  UNL     1      -5.487  47.165  34.913  1.00  0.00     0.002 C 
HETATM   16  C6  UNL     1      -6.678  47.282  35.852  1.00  0.00     0.025 C 
ENDBRANCH   8  10
ENDBRANCH   6   8
ENDBRANCH   5   6
ENDBRANCH   1   5
BRANCH   3  17
HETATM   17  N3  UNL     1      -7.520  44.697  39.447  1.00  0.00    -0.308 N 
HETATM   18  C11 UNL     1      -7.829  43.778  40.290  1.00  0.00     0.126 C 
ATOM     19  H3  UNL     1      -6.631  44.666  38.949  1.00  0.00     0.186 HD
BRANCH  18  20
HETATM   20  C12 UNL     1      -6.835  42.699  40.486  1.00  0.00     0.024 A 
HETATM   21  C13 UNL     1      -6.177  41.951  39.549  1.00  0.00     0.023 A 
HETATM   22  C14 UNL     1      -5.318  41.026  39.985  1.00  0.00     0.045 A 
HETATM   23  C15 UNL     1      -5.163  40.898  41.337  1.00  0.00     0.144 A 
HETATM   24  S2  UNL     1      -6.223  42.075  41.959  1.00  0.00    -0.065 SA
BRANCH  23  25
HETATM   25  N4  UNL     1      -4.312  39.991  42.064  1.00  0.00    -0.108 N 
HETATM   26  O2  UNL     1      -4.518  39.767  43.273  1.00  0.00    -0.531 OA
HETATM   27  O3  UNL     1      -3.272  39.357  41.467  1.00  0.00    -0.531 OA
ENDBRANCH  23  25
ENDBRANCH  18  20
ENDBRANCH   3  17
TORSDOF 7
ENDMDL
MODEL 3
REMARK VINA RESULT: -6.818573640      0.932      1.169
REMARK  7 active torsions:
REMARK  status: ('A' for Active; 'I' for Inactive)
REMARK    1  A    between atoms: C7_7  and  N1_8 
REMARK    2  A    between atoms: N1_8  and  C8_10 
REMARK    3  A    between atoms: C8_10  and  C9_12 
REMARK    4  A    between atoms: C9_12  and  C10_13 
REMARK       I    between atoms: C10_13  and  N2_15 
REMARK    5  A    between atoms: N2_15  and  N3_17 
REMARK    6  A    between atoms: C11_19  and  C12_20 
REMARK    7  A    between atoms: C15_23  and  N4_24 
ROOT
HETATM    1  C10 UNL     1      -7.194  46.947  38.844  1.00  0.00     0.242 C 
HETATM    2  O1  UNL     1      -6.016  47.107  39.231  1.00  0.00    -0.271 OA
HETATM    3  N2  UNL     1      -7.738  45.636  38.825  1.00  0.00    -0.270 N 
ATOM      4  H2  UNL     1      -8.696  45.474  38.514  1.00  0.00     0.190 HD
ENDROOT
BRANCH   1   5
HETATM    5  C9  UNL     1      -8.070  48.046  38.399  1.00  0.00     0.173 C 
BRANCH   5   6
HETATM    6  C8  UNL     1      -7.379  49.210  37.848  1.00  0.00     0.082 C 
HETATM    7  S1  UNL     1      -7.600  50.686  38.466  1.00  0.00    -0.065 SA
BRANCH   6   8
HETATM    8  N1  UNL     1      -6.494  49.031  36.757  1.00  0.00    -0.379 N 
ATOM      9  H1  UNL     1      -5.519  49.315  36.850  1.00  0.00     0.160 HD
BRANCH   8  10
HETATM   10  C7  UNL     1      -6.953  48.449  35.507  1.00  0.00     0.085 C 
HETATM   11  C2  UNL     1      -7.624  49.519  34.667  1.00  0.00     0.004 C 
HETATM   12  C1  UNL     1      -6.803  50.748  34.482  1.00  0.00     0.012 C 
HETATM   13  C3  UNL     1      -8.048  48.969  33.348  1.00  0.00     0.006 C 
HETATM   14  C4  UNL     1      -6.964  48.237  32.624  1.00  0.00     0.001 C 
HETATM   15  C5  UNL     1      -5.665  48.212  33.361  1.00  0.00     0.002 C 
HETATM   16  C6  UNL     1      -5.816  47.779  34.813  1.00  0.00     0.025 C 
ENDBRANCH   8  10
ENDBRANCH   6   8
ENDBRANCH   5   6
ENDBRANCH   1   5
BRANCH   3  17
HETATM   17  N3  UNL     1      -6.934  44.574  39.239  1.00  0.00    -0.308 N 
HETATM   18  C11 UNL     1      -7.447  43.659  39.981  1.00  0.00     0.126 C 
ATOM     19  H3  UNL     1      -5.955  44.525  38.958  1.00  0.00     0.186 HD
BRANCH  18  20
HETATM   20  C12 UNL     1      -6.547  42.558  40.391  1.00  0.00     0.024 A 
HETATM   21  C13 UNL     1      -6.444  41.932  41.602  1.00  0.00     0.023 A 
HETATM   22  C14 UNL     1      -5.542  40.954  41.720  1.00  0.00     0.045 A 
HETATM   23  C15 UNL     1      -4.790  40.653  40.619  1.00  0.00     0.144 A 
HETATM   24  S2  UNL     1      -5.367  41.748  39.450  1.00  0.00    -0.065 SA
BRANCH  23  25
HETATM   25  N4  UNL     1      -3.761  39.656  40.476  1.00  0.00    -0.108 N 
HETATM   26  O2  UNL     1      -3.100  39.286  41.467  1.00  0.00    -0.531 OA
HETATM   27  O3  UNL     1      -3.478  39.092  39.275  1.00  0.00    -0.531 OA
ENDBRANCH  23  25
ENDBRANCH  18  20
ENDBRANCH   3  17
TORSDOF 7
ENDMDL
MODEL 4
REMARK VINA RESULT: -6.775881773      5.619      6.459
REMARK  7 active torsions:
REMARK  status: ('A' for Active; 'I' for Inactive)
REMARK    1  A    between atoms: C7_7  and  N1_8 
REMARK    2  A    between atoms: N1_8  and  C8_10 
REMARK    3  A    between atoms: C8_10  and  C9_12 
REMARK    4  A    between atoms: C9_12  and  C10_13 
REMARK       I    between atoms: C10_13  and  N2_15 
REMARK    5  A    between atoms: N2_15  and  N3_17 
REMARK    6  A    between atoms: C11_19  and  C12_20 
REMARK    7  A    between atoms: C15_23  and  N4_24 
ROOT
HETATM    1  C10 UNL     1      -8.897  44.296  44.065  1.00  0.00     0.242 C 
HETATM    2  O1  UNL     1      -8.155  44.978  43.325  1.00  0.00    -0.271 OA
HETATM    3  N2  UNL     1      -8.681  42.896  44.151  1.00  0.00    -0.270 N 
ATOM      4  H2  UNL     1      -9.269  42.314  44.747  1.00  0.00     0.190 HD
ENDROOT
BRANCH   1   5
HETATM    5  C9  UNL     1      -9.999  44.857  44.868  1.00  0.00     0.173 C 
BRANCH   5   6
HETATM    6  C8  UNL     1     -11.010  45.592  44.110  1.00  0.00     0.082 C 
HETATM    7  S1  UNL     1     -12.313  46.214  44.834  1.00  0.00    -0.065 SA
BRANCH   6   8
HETATM    8  N1  UNL     1     -10.833  45.764  42.715  1.00  0.00    -0.379 N 
ATOM      9  H1  UNL     1     -10.096  46.384  42.376  1.00  0.00     0.160 HD
BRANCH   8  10
HETATM   10  C7  UNL     1     -11.682  45.073  41.760  1.00  0.00     0.085 C 
HETATM   11  C2  UNL     1     -12.236  46.071  40.761  1.00  0.00     0.004 C 
HETATM   12  C1  UNL     1     -11.197  46.927  40.120  1.00  0.00     0.012 C 
HETATM   13  C3  UNL     1     -13.059  45.384  39.726  1.00  0.00     0.006 C 
HETATM   14  C4  UNL     1     -12.374  44.219  39.086  1.00  0.00     0.001 C 
HETATM   15  C5  UNL     1     -10.993  43.982  39.603  1.00  0.00     0.002 C 
HETATM   16  C6  UNL     1     -10.925  43.957  41.123  1.00  0.00     0.025 C 
ENDBRANCH   8  10
ENDBRANCH   6   8
ENDBRANCH   5   6
ENDBRANCH   1   5
BRANCH   3  17
HETATM   17  N3  UNL     1      -7.646  42.333  43.403  1.00  0.00    -0.308 N 
HETATM   18  C11 UNL     1      -7.688  42.417  42.122  1.00  0.00     0.126 C 
ATOM     19  H3  UNL     1      -6.869  41.863  43.866  1.00  0.00     0.186 HD
BRANCH  18  20
HETATM   20  C12 UNL     1      -6.564  41.802  41.382  1.00  0.00     0.024 A 
HETATM   21  C13 UNL     1      -6.268  41.870  40.049  1.00  0.00     0.023 A 
HETATM   22  C14 UNL     1      -5.183  41.219  39.620  1.00  0.00     0.045 A 
HETATM   23  C15 UNL     1      -4.453  40.532  40.548  1.00  0.00     0.144 A 
HETATM   24  S2  UNL     1      -5.303  40.818  41.995  1.00  0.00    -0.065 SA
BRANCH  23  25
HETATM   25  N4  UNL     1      -3.256  39.755  40.356  1.00  0.00    -0.108 N 
HETATM   26  O2  UNL     1      -2.736  39.151  41.316  1.00  0.00    -0.531 OA
HETATM   27  O3  UNL     1      -2.659  39.653  39.142  1.00  0.00    -0.531 OA
ENDBRANCH  23  25
ENDBRANCH  18  20
ENDBRANCH   3  17
TORSDOF 7
ENDMDL
MODEL 5
REMARK VINA RESULT: -6.728747695      0.520      1.350
REMARK  7 active torsions:
REMARK  status: ('A' for Active; 'I' for Inactive)
REMARK    1  A    between atoms: C7_7  and  N1_8 
REMARK    2  A    between atoms: N1_8  and  C8_10 
REMARK    3  A    between atoms: C8_10  and  C9_12 
REMARK    4  A    between atoms: C9_12  and  C10_13 
REMARK       I    between atoms: C10_13  and  N2_15 
REMARK    5  A    between atoms: N2_15  and  N3_17 
REMARK    6  A    between atoms: C11_19  and  C12_20 
REMARK    7  A    between atoms: C15_23  and  N4_24 
ROOT
HETATM    1  C10 UNL     1      -7.057  47.331  38.723  1.00  0.00     0.242 C 
HETATM    2  O1  UNL     1      -5.903  47.429  39.195  1.00  0.00    -0.271 OA
HETATM    3  N2  UNL     1      -7.643  46.043  38.608  1.00  0.00    -0.270 N 
ATOM      4  H2  UNL     1      -8.582  45.931  38.227  1.00  0.00     0.190 HD
ENDROOT
BRANCH   1   5
HETATM    5  C9  UNL     1      -7.861  48.480  38.270  1.00  0.00     0.173 C 
BRANCH   5   6
HETATM    6  C8  UNL     1      -7.094  49.649  37.847  1.00  0.00     0.082 C 
HETATM    7  S1  UNL     1      -7.481  51.134  38.352  1.00  0.00    -0.065 SA
BRANCH   6   8
HETATM    8  N1  UNL     1      -5.987  49.469  36.983  1.00  0.00    -0.379 N 
ATOM      9  H1  UNL     1      -5.079  49.219  37.376  1.00  0.00     0.160 HD
BRANCH   8  10
HETATM   10  C7  UNL     1      -6.122  49.633  35.545  1.00  0.00     0.085 C 
HETATM   11  C2  UNL     1      -5.499  48.443  34.840  1.00  0.00     0.004 C 
HETATM   12  C1  UNL     1      -5.985  47.123  35.333  1.00  0.00     0.012 C 
HETATM   13  C3  UNL     1      -5.680  48.547  33.363  1.00  0.00     0.006 C 
HETATM   14  C4  UNL     1      -7.090  48.816  32.947  1.00  0.00     0.001 C 
HETATM   15  C5  UNL     1      -8.044  48.913  34.093  1.00  0.00     0.002 C 
HETATM   16  C6  UNL     1      -7.555  49.846  35.192  1.00  0.00     0.025 C 
ENDBRANCH   8  10
ENDBRANCH   6   8
ENDBRANCH   5   6
ENDBRANCH   1   5
BRANCH   3  17
HETATM   17  N3  UNL     1      -6.907  44.935  39.027  1.00  0.00    -0.308 N 
HETATM   18  C11 UNL     1      -7.488  44.036  39.738  1.00  0.00     0.126 C 
ATOM     19  H3  UNL     1      -5.924  44.840  38.774  1.00  0.00     0.186 HD
BRANCH  18  20
HETATM   20  C12 UNL     1      -6.658  42.883  40.154  1.00  0.00     0.024 A 
HETATM   21  C13 UNL     1      -6.080  41.912  39.383  1.00  0.00     0.023 A 
HETATM   22  C14 UNL     1      -5.369  40.968  40.006  1.00  0.00     0.045 A 
HETATM   23  C15 UNL     1      -5.275  41.044  41.367  1.00  0.00     0.144 A 
HETATM   24  S2  UNL     1      -6.182  42.436  41.738  1.00  0.00    -0.065 SA
BRANCH  23  25
HETATM   25  N4  UNL     1      -4.579  40.166  42.272  1.00  0.00    -0.108 N 
HETATM   26  O2  UNL     1      -4.995  40.004  43.436  1.00  0.00    -0.531 OA
HETATM   27  O3  UNL     1      -3.463  39.492  41.894  1.00  0.00    -0.531 OA
ENDBRANCH  23  25
ENDBRANCH  18  20
ENDBRANCH   3  17
TORSDOF 7
ENDMDL
