MODEL 1
REMARK VINA RESULT: -4.834242230      0.000      0.000
REMARK  2 active torsions:
REMARK  status: ('A' for Active; 'I' for Inactive)
REMARK    1  A    between atoms: C1_4  and  O1_5 
REMARK    2  A    between atoms: C1_4  and  C2_7 
ROOT
HETATM    1  C2  UNL     1      10.114  -4.689  -1.816  1.00  0.00     0.064 C 
HETATM    2  C3  UNL     1      10.436  -4.734  -0.313  1.00  0.00     0.017 C 
HETATM    3  C4  UNL     1       9.059  -5.002   0.214  1.00  0.00    -0.013 C 
HETATM    4  C5  UNL     1       8.133  -4.097  -0.600  1.00  0.00     0.010 C 
HETATM    5  C6  UNL     1       8.648  -4.929  -1.759  1.00  0.00    -0.002 C 
HETATM    6  C7  UNL     1       8.562  -6.089  -0.754  1.00  0.00     0.010 C 
ENDROOT
BRANCH   1   7
HETATM    7  C1  UNL     1      10.522  -3.456  -2.468  1.00  0.00     0.113 C 
HETATM    8  N1  UNL     1      11.760  -3.100  -2.447  1.00  0.00    -0.383 N 
ATOM      9  H12 UNL     1      12.047  -2.234  -2.905  1.00  0.00     0.157 HD
ATOM     10  H11 UNL     1      12.390  -3.733  -1.954  1.00  0.00     0.157 HD
BRANCH   7  11
HETATM   11  O1  UNL     1       9.665  -2.592  -3.138  1.00  0.00    -0.349 OA
ATOM     12  H1  UNL     1       9.530  -2.784  -4.059  1.00  0.00     0.219 HD
ENDBRANCH   7  11
ENDBRANCH   1   7
TORSDOF 2
ENDMDL
MODEL 2
REMARK VINA RESULT: -4.304006923      0.874      1.757
REMARK  2 active torsions:
REMARK  status: ('A' for Active; 'I' for Inactive)
REMARK    1  A    between atoms: C1_4  and  O1_5 
REMARK    2  A    between atoms: C1_4  and  C2_7 
ROOT
HETATM    1  C2  UNL     1       8.889  -4.291  -1.414  1.00  0.00     0.064 C 
HETATM    2  C3  UNL     1       8.366  -5.590  -2.048  1.00  0.00     0.017 C 
HETATM    3  C4  UNL     1       8.629  -6.528  -0.909  1.00  0.00    -0.013 C 
HETATM    4  C5  UNL     1      10.011  -6.141  -0.378  1.00  0.00     0.010 C 
HETATM    5  C6  UNL     1       9.322  -4.819  -0.094  1.00  0.00    -0.002 C 
HETATM    6  C7  UNL     1       8.128  -5.708   0.291  1.00  0.00     0.010 C 
ENDROOT
BRANCH   1   7
HETATM    7  C1  UNL     1       9.922  -3.630  -2.194  1.00  0.00     0.113 C 
HETATM    8  N1  UNL     1      11.159  -3.948  -2.018  1.00  0.00    -0.383 N 
ATOM      9  H12 UNL     1      11.884  -3.485  -2.566  1.00  0.00     0.157 HD
ATOM     10  H11 UNL     1      11.330  -4.668  -1.317  1.00  0.00     0.157 HD
BRANCH   7  11
HETATM   11  O1  UNL     1       9.689  -2.649  -3.150  1.00  0.00    -0.349 OA
ATOM     12  H1  UNL     1       9.760  -1.754  -2.841  1.00  0.00     0.219 HD
ENDBRANCH   7  11
ENDBRANCH   1   7
TORSDOF 2
ENDMDL
MODEL 3
REMARK VINA RESULT: -4.216524300      3.320      4.104
REMARK  2 active torsions:
REMARK  status: ('A' for Active; 'I' for Inactive)
REMARK    1  A    between atoms: C1_4  and  O1_5 
REMARK    2  A    between atoms: C1_4  and  C2_7 
ROOT
HETATM    1  C2  UNL     1       8.936  -6.399  -0.026  1.00  0.00     0.064 C 
HETATM    2  C3  UNL     1       8.365  -6.370  -1.453  1.00  0.00     0.017 C 
HETATM    3  C4  UNL     1       8.589  -4.921  -1.764  1.00  0.00    -0.013 C 
HETATM    4  C5  UNL     1       8.189  -4.169  -0.494  1.00  0.00     0.010 C 
HETATM    5  C6  UNL     1       9.325  -4.971   0.112  1.00  0.00    -0.002 C 
HETATM    6  C7  UNL     1      10.017  -4.707  -1.235  1.00  0.00     0.010 C 
ENDROOT
BRANCH   1   7
HETATM    7  C1  UNL     1       8.002  -6.894   0.972  1.00  0.00     0.113 C 
HETATM    8  N1  UNL     1       8.436  -7.261   2.129  1.00  0.00    -0.383 N 
ATOM      9  H12 UNL     1       7.780  -7.608   2.829  1.00  0.00     0.157 HD
ATOM     10  H11 UNL     1       9.442  -7.177   2.266  1.00  0.00     0.157 HD
BRANCH   7  11
HETATM   11  O1  UNL     1       6.630  -7.009   0.785  1.00  0.00    -0.349 OA
ATOM     12  H1  UNL     1       6.093  -6.510   1.388  1.00  0.00     0.219 HD
ENDBRANCH   7  11
ENDBRANCH   1   7
TORSDOF 2
ENDMDL
MODEL 4
REMARK VINA RESULT: -4.073681769      1.949      2.114
REMARK  2 active torsions:
REMARK  status: ('A' for Active; 'I' for Inactive)
REMARK    1  A    between atoms: C1_4  and  O1_5 
REMARK    2  A    between atoms: C1_4  and  C2_7 
ROOT
HETATM    1  C2  UNL     1      10.460  -5.371  -0.775  1.00  0.00     0.064 C 
HETATM    2  C3  UNL     1       9.610  -5.985   0.350  1.00  0.00     0.017 C 
HETATM    3  C4  UNL     1       8.252  -5.577  -0.134  1.00  0.00    -0.013 C 
HETATM    4  C5  UNL     1       8.411  -4.133  -0.615  1.00  0.00     0.010 C 
HETATM    5  C6  UNL     1       9.379  -4.767  -1.597  1.00  0.00    -0.002 C 
HETATM    6  C7  UNL     1       8.345  -5.904  -1.634  1.00  0.00     0.010 C 
ENDROOT
BRANCH   1   7
HETATM    7  C1  UNL     1      11.480  -4.448  -0.305  1.00  0.00     0.113 C 
HETATM    8  N1  UNL     1      12.197  -3.799  -1.157  1.00  0.00    -0.383 N 
ATOM      9  H12 UNL     1      12.913  -3.151  -0.828  1.00  0.00     0.157 HD
ATOM     10  H11 UNL     1      11.991  -3.988  -2.138  1.00  0.00     0.157 HD
BRANCH   7  11
HETATM   11  O1  UNL     1      11.762  -4.191   1.030  1.00  0.00    -0.349 OA
ATOM     12  H1  UNL     1      11.044  -4.338   1.634  1.00  0.00     0.219 HD
ENDBRANCH   7  11
ENDBRANCH   1   7
TORSDOF 2
ENDMDL
MODEL 5
REMARK VINA RESULT: -4.070139416      2.454      3.119
REMARK  2 active torsions:
REMARK  status: ('A' for Active; 'I' for Inactive)
REMARK    1  A    between atoms: C1_4  and  O1_5 
REMARK    2  A    between atoms: C1_4  and  C2_7 
ROOT
HETATM    1  C2  UNL     1       8.752  -5.598   0.181  1.00  0.00     0.064 C 
HETATM    2  C3  UNL     1       7.709  -6.540   0.805  1.00  0.00     0.017 C 
HETATM    3  C4  UNL     1       7.954  -7.753  -0.041  1.00  0.00    -0.013 C 
HETATM    4  C5  UNL     1       8.121  -7.223  -1.467  1.00  0.00     0.010 C 
HETATM    5  C6  UNL     1       9.309  -6.504  -0.858  1.00  0.00    -0.002 C 
HETATM    6  C7  UNL     1       9.490  -7.809  -0.067  1.00  0.00     0.010 C 
ENDROOT
BRANCH   1   7
HETATM    7  C1  UNL     1       8.197  -4.348  -0.311  1.00  0.00     0.113 C 
HETATM    8  N1  UNL     1       8.594  -3.871  -1.441  1.00  0.00    -0.383 N 
ATOM      9  H12 UNL     1       8.204  -2.994  -1.786  1.00  0.00     0.157 HD
ATOM     10  H11 UNL     1       9.297  -4.427  -1.927  1.00  0.00     0.157 HD
BRANCH   7  11
HETATM   11  O1  UNL     1       7.239  -3.591   0.352  1.00  0.00    -0.349 OA
ATOM     12  H1  UNL     1       7.080  -3.835   1.256  1.00  0.00     0.219 HD
ENDBRANCH   7  11
ENDBRANCH   1   7
TORSDOF 2
ENDMDL
