MODEL 1
REMARK VINA RESULT: -4.291533115      0.000      0.000
REMARK  0 active torsions:
REMARK  status: ('A' for Active; 'I' for Inactive)
REMARK       I    between atoms: N1_2  and  C2_4 
REMARK       I    between atoms: C2_4  and  N4_10 
REMARK       I    between atoms: N2_5  and  C3_7 
ROOT
HETATM    1  C1  UNL     1      10.789  -3.199  -2.303  1.00  0.00     0.165 C 
HETATM    2  N1  UNL     1      10.537  -4.484  -1.712  1.00  0.00    -0.230 N 
ATOM      3  H1  UNL     1      10.495  -5.293  -2.331  1.00  0.00     0.177 HD
HETATM    4  C2  UNL     1      10.344  -4.698  -0.330  1.00  0.00     0.678 C 
HETATM    5  N2  UNL     1      11.248  -4.654   0.563  1.00  0.00    -0.144 N 
ATOM      6  H2  UNL     1      10.948  -4.832   1.522  1.00  0.00     0.188 HD
HETATM    7  C3  UNL     1      12.606  -4.387   0.375  1.00  0.00     0.346 C 
HETATM    8  N3  UNL     1      13.324  -3.596   1.299  1.00  0.00    -0.039 NA
HETATM    9  O1  UNL     1      13.210  -4.847  -0.617  1.00  0.00    -0.250 OA
HETATM   10  N4  UNL     1       9.005  -4.994   0.106  1.00  0.00    -0.227 N 
HETATM   11  C4  UNL     1       8.657  -6.323   0.527  1.00  0.00     0.168 C 
HETATM   12  C5  UNL     1       8.070  -3.885   0.088  1.00  0.00     0.168 C 
ENDROOT
TORSDOF 0
ENDMDL
MODEL 2
REMARK VINA RESULT: -4.009689776      1.606      2.535
REMARK  0 active torsions:
REMARK  status: ('A' for Active; 'I' for Inactive)
REMARK       I    between atoms: N1_2  and  C2_4 
REMARK       I    between atoms: C2_4  and  N4_10 
REMARK       I    between atoms: N2_5  and  C3_7 
ROOT
HETATM    1  C1  UNL     1      11.476  -7.072   1.193  1.00  0.00     0.165 C 
HETATM    2  N1  UNL     1      10.674  -5.886   1.306  1.00  0.00    -0.230 N 
ATOM      3  H1  UNL     1      10.365  -5.607   2.237  1.00  0.00     0.177 HD
HETATM    4  C2  UNL     1      10.288  -5.082   0.212  1.00  0.00     0.678 C 
HETATM    5  N2  UNL     1      11.048  -4.301  -0.443  1.00  0.00    -0.144 N 
ATOM      6  H2  UNL     1      10.617  -3.784  -1.210  1.00  0.00     0.188 HD
HETATM    7  C3  UNL     1      12.409  -4.072  -0.226  1.00  0.00     0.346 C 
HETATM    8  N3  UNL     1      13.299  -3.917  -1.312  1.00  0.00    -0.039 NA
HETATM    9  O1  UNL     1      12.862  -4.001   0.935  1.00  0.00    -0.250 OA
HETATM   10  N4  UNL     1       8.910  -5.151  -0.198  1.00  0.00    -0.227 N 
HETATM   11  C4  UNL     1       8.018  -4.056   0.069  1.00  0.00     0.168 C 
HETATM   12  C5  UNL     1       8.508  -6.369  -0.876  1.00  0.00     0.168 C 
ENDROOT
TORSDOF 0
ENDMDL
MODEL 3
REMARK VINA RESULT: -3.972915254      2.729      4.505
REMARK  0 active torsions:
REMARK  status: ('A' for Active; 'I' for Inactive)
REMARK       I    between atoms: N1_2  and  C2_4 
REMARK       I    between atoms: C2_4  and  N4_10 
REMARK       I    between atoms: N2_5  and  C3_7 
ROOT
HETATM    1  C1  UNL     1       7.796  -3.844  -0.107  1.00  0.00     0.165 C 
HETATM    2  N1  UNL     1       8.618  -4.642   0.758  1.00  0.00    -0.230 N 
ATOM      3  H1  UNL     1       8.599  -4.436   1.757  1.00  0.00     0.177 HD
HETATM    4  C2  UNL     1       9.451  -5.692   0.315  1.00  0.00     0.678 C 
HETATM    5  N2  UNL     1       9.060  -6.833  -0.085  1.00  0.00    -0.144 N 
ATOM      6  H2  UNL     1       9.788  -7.488  -0.373  1.00  0.00     0.188 HD
HETATM    7  C3  UNL     1       7.743  -7.290  -0.173  1.00  0.00     0.346 C 
HETATM    8  N3  UNL     1       7.323  -8.086  -1.262  1.00  0.00    -0.039 NA
HETATM    9  O1  UNL     1       6.912  -7.000   0.713  1.00  0.00    -0.250 OA
HETATM   10  N4  UNL     1      10.870  -5.449   0.319  1.00  0.00    -0.227 N 
HETATM   11  C4  UNL     1      11.712  -6.082   1.296  1.00  0.00     0.168 C 
HETATM   12  C5  UNL     1      11.364  -4.547  -0.706  1.00  0.00     0.168 C 
ENDROOT
TORSDOF 0
ENDMDL
MODEL 4
REMARK VINA RESULT: -3.955865415      1.341      2.633
REMARK  0 active torsions:
REMARK  status: ('A' for Active; 'I' for Inactive)
REMARK       I    between atoms: N1_2  and  C2_4 
REMARK       I    between atoms: C2_4  and  N4_10 
REMARK       I    between atoms: N2_5  and  C3_7 
ROOT
HETATM    1  C1  UNL     1      12.050  -6.153   0.746  1.00  0.00     0.165 C 
HETATM    2  N1  UNL     1      11.115  -5.067   0.838  1.00  0.00    -0.230 N 
ATOM      3  H1  UNL     1      11.030  -4.586   1.733  1.00  0.00     0.177 HD
HETATM    4  C2  UNL     1      10.307  -4.622  -0.230  1.00  0.00     0.678 C 
HETATM    5  N2  UNL     1      10.708  -3.967  -1.244  1.00  0.00    -0.144 N 
ATOM      6  H2  UNL     1       9.998  -3.717  -1.933  1.00  0.00     0.188 HD
HETATM    7  C3  UNL     1      12.014  -3.553  -1.517  1.00  0.00     0.346 C 
HETATM    8  N3  UNL     1      12.528  -3.598  -2.832  1.00  0.00    -0.039 NA
HETATM    9  O1  UNL     1      12.750  -3.134  -0.600  1.00  0.00    -0.250 OA
HETATM   10  N4  UNL     1       8.904  -4.936  -0.166  1.00  0.00    -0.227 N 
HETATM   11  C4  UNL     1       7.943  -3.906   0.116  1.00  0.00     0.168 C 
HETATM   12  C5  UNL     1       8.551  -6.324  -0.401  1.00  0.00     0.168 C 
ENDROOT
TORSDOF 0
ENDMDL
MODEL 5
REMARK VINA RESULT: -3.931005662      2.693      4.027
REMARK  0 active torsions:
REMARK  status: ('A' for Active; 'I' for Inactive)
REMARK       I    between atoms: N1_2  and  C2_4 
REMARK       I    between atoms: C2_4  and  N4_10 
REMARK       I    between atoms: N2_5  and  C3_7 
ROOT
HETATM    1  C1  UNL     1       8.240  -7.429  -1.187  1.00  0.00     0.165 C 
HETATM    2  N1  UNL     1       9.454  -6.719  -0.894  1.00  0.00    -0.230 N 
ATOM      3  H1  UNL     1      10.196  -6.737  -1.593  1.00  0.00     0.177 HD
HETATM    4  C2  UNL     1       9.685  -6.000   0.299  1.00  0.00     0.678 C 
HETATM    5  N2  UNL     1       9.159  -4.885   0.609  1.00  0.00    -0.144 N 
ATOM      6  H2  UNL     1       9.429  -4.491   1.510  1.00  0.00     0.188 HD
HETATM    7  C3  UNL     1       8.252  -4.141  -0.149  1.00  0.00     0.346 C 
HETATM    8  N3  UNL     1       7.173  -3.468   0.467  1.00  0.00    -0.039 NA
HETATM    9  O1  UNL     1       8.381  -4.058  -1.388  1.00  0.00    -0.250 OA
HETATM   10  N4  UNL     1      10.599  -6.580   1.247  1.00  0.00    -0.227 N 
HETATM   11  C4  UNL     1      11.906  -6.013   1.434  1.00  0.00     0.168 C 
HETATM   12  C5  UNL     1      10.113  -7.740   1.972  1.00  0.00     0.168 C 
ENDROOT
TORSDOF 0
ENDMDL
