MODEL 1
REMARK VINA RESULT: -4.464206142      0.000      0.000
REMARK  5 active torsions:
REMARK  status: ('A' for Active; 'I' for Inactive)
REMARK    1  A    between atoms: C2_2  and  N1_5 
REMARK    2  A    between atoms: N1_5  and  C5_7 
REMARK    3  A    between atoms: C5_7  and  N2_8 
REMARK    4  A    between atoms: C5_7  and  C6_12 
REMARK    5  A    between atoms: N2_8  and  N3_9 
ROOT
HETATM    1  C5  UNL     1       8.906  -4.958   0.352  1.00  0.00     0.276 C 
ENDROOT
BRANCH   1   2
HETATM    2  N1  UNL     1       8.316  -6.074   0.978  1.00  0.00    -0.350 N 
ATOM      3  H1  UNL     1       8.043  -5.983   1.956  1.00  0.00     0.163 HD
BRANCH   2   4
HETATM    4  C2  UNL     1       8.073  -7.332   0.324  1.00  0.00     0.022 C 
HETATM    5  C1  UNL     1       9.039  -8.403   0.792  1.00  0.00     0.037 C 
HETATM    6  C3  UNL     1       6.682  -7.821   0.632  1.00  0.00     0.037 C 
HETATM    7  C4  UNL     1       8.244  -7.228  -1.192  1.00  0.00     0.037 C 
ENDBRANCH   2   4
ENDBRANCH   1   2
BRANCH   1   8
HETATM    8  N2  UNL     1      10.138  -4.825   0.361  1.00  0.00    -0.307 NA
BRANCH   8   9
HETATM    9  N3  UNL     1      11.381  -4.679   0.409  1.00  0.00    -0.278 N 
ATOM     10  H32 UNL     1      10.849  -4.944   1.237  1.00  0.00     0.191 HD
ATOM     11  H31 UNL     1      12.393  -4.552   0.416  1.00  0.00     0.191 HD
ENDBRANCH   8   9
ENDBRANCH   1   8
BRANCH   1  12
HETATM   12  C6  UNL     1       8.080  -3.976  -0.297  1.00  0.00     0.262 C 
HETATM   13  O1  UNL     1       8.417  -3.572  -1.435  1.00  0.00    -0.641 OA
HETATM   14  O2  UNL     1       6.922  -3.445   0.268  1.00  0.00    -0.641 OA
ENDBRANCH   1  12
TORSDOF 5
ENDMDL
MODEL 2
REMARK VINA RESULT: -4.402437615      0.264      1.002
REMARK  5 active torsions:
REMARK  status: ('A' for Active; 'I' for Inactive)
REMARK    1  A    between atoms: C2_2  and  N1_5 
REMARK    2  A    between atoms: N1_5  and  C5_7 
REMARK    3  A    between atoms: C5_7  and  N2_8 
REMARK    4  A    between atoms: C5_7  and  C6_12 
REMARK    5  A    between atoms: N2_8  and  N3_9 
ROOT
HETATM    1  C5  UNL     1       8.848  -5.138   0.464  1.00  0.00     0.276 C 
ENDROOT
BRANCH   1   2
HETATM    2  N1  UNL     1       8.127  -6.219   1.007  1.00  0.00    -0.350 N 
ATOM      3  H1  UNL     1       7.751  -6.116   1.950  1.00  0.00     0.163 HD
BRANCH   2   4
HETATM    4  C2  UNL     1       7.885  -7.458   0.317  1.00  0.00     0.022 C 
HETATM    5  C1  UNL     1       8.848  -8.542   0.758  1.00  0.00     0.037 C 
HETATM    6  C3  UNL     1       6.492  -7.954   0.606  1.00  0.00     0.037 C 
HETATM    7  C4  UNL     1       8.062  -7.310  -1.195  1.00  0.00     0.037 C 
ENDBRANCH   2   4
ENDBRANCH   1   2
BRANCH   1   8
HETATM    8  N2  UNL     1      10.083  -5.103   0.571  1.00  0.00    -0.307 NA
BRANCH   8   9
HETATM    9  N3  UNL     1      11.326  -5.041   0.708  1.00  0.00    -0.278 N 
ATOM     10  H32 UNL     1      10.850  -4.526  -0.033  1.00  0.00     0.191 HD
ATOM     11  H31 UNL     1      12.336  -5.011   0.844  1.00  0.00     0.191 HD
ENDBRANCH   8   9
ENDBRANCH   1   8
BRANCH   1  12
HETATM   12  C6  UNL     1       8.154  -4.077  -0.215  1.00  0.00     0.262 C 
HETATM   13  O1  UNL     1       7.157  -3.563   0.346  1.00  0.00    -0.641 OA
HETATM   14  O2  UNL     1       8.527  -3.585  -1.464  1.00  0.00    -0.641 OA
ENDBRANCH   1  12
TORSDOF 5
ENDMDL
MODEL 3
REMARK VINA RESULT: -4.396500578      0.268      1.620
REMARK  5 active torsions:
REMARK  status: ('A' for Active; 'I' for Inactive)
REMARK    1  A    between atoms: C2_2  and  N1_5 
REMARK    2  A    between atoms: N1_5  and  C5_7 
REMARK    3  A    between atoms: C5_7  and  N2_8 
REMARK    4  A    between atoms: C5_7  and  C6_12 
REMARK    5  A    between atoms: N2_8  and  N3_9 
ROOT
HETATM    1  C5  UNL     1       8.851  -5.141   0.465  1.00  0.00     0.276 C 
ENDROOT
BRANCH   1   2
HETATM    2  N1  UNL     1       8.133  -6.224   1.009  1.00  0.00    -0.350 N 
ATOM      3  H1  UNL     1       7.765  -6.126   1.955  1.00  0.00     0.163 HD
BRANCH   2   4
HETATM    4  C2  UNL     1       7.885  -7.459   0.314  1.00  0.00     0.022 C 
HETATM    5  C1  UNL     1       8.065  -7.306  -1.183  1.00  0.00     0.037 C 
HETATM    6  C3  UNL     1       8.852  -8.520   0.773  1.00  0.00     0.037 C 
HETATM    7  C4  UNL     1       6.456  -7.956   0.530  1.00  0.00     0.037 C 
ENDBRANCH   2   4
ENDBRANCH   1   2
BRANCH   1   8
HETATM    8  N2  UNL     1      10.086  -5.102   0.572  1.00  0.00    -0.307 NA
BRANCH   8   9
HETATM    9  N3  UNL     1      11.328  -5.045   0.713  1.00  0.00    -0.278 N 
ATOM     10  H32 UNL     1      10.718  -4.331   1.111  1.00  0.00     0.191 HD
ATOM     11  H31 UNL     1      12.344  -5.024   0.812  1.00  0.00     0.191 HD
ENDBRANCH   8   9
ENDBRANCH   1   8
BRANCH   1  12
HETATM   12  C6  UNL     1       8.153  -4.081  -0.212  1.00  0.00     0.262 C 
HETATM   13  O1  UNL     1       7.157  -3.568   0.351  1.00  0.00    -0.641 OA
HETATM   14  O2  UNL     1       8.521  -3.590  -1.463  1.00  0.00    -0.641 OA
ENDBRANCH   1  12
TORSDOF 5
ENDMDL
MODEL 4
REMARK VINA RESULT: -4.334830839      0.857      1.816
REMARK  5 active torsions:
REMARK  status: ('A' for Active; 'I' for Inactive)
REMARK    1  A    between atoms: C2_2  and  N1_5 
REMARK    2  A    between atoms: N1_5  and  C5_7 
REMARK    3  A    between atoms: C5_7  and  N2_8 
REMARK    4  A    between atoms: C5_7  and  C6_12 
REMARK    5  A    between atoms: N2_8  and  N3_9 
ROOT
HETATM    1  C5  UNL     1       8.574  -5.484   0.423  1.00  0.00     0.276 C 
ENDROOT
BRANCH   1   2
HETATM    2  N1  UNL     1       7.696  -6.583   0.493  1.00  0.00    -0.350 N 
ATOM      3  H1  UNL     1       6.968  -6.567   1.206  1.00  0.00     0.163 HD
BRANCH   2   4
HETATM    4  C2  UNL     1       7.762  -7.727  -0.378  1.00  0.00     0.022 C 
HETATM    5  C1  UNL     1       6.440  -8.465  -0.436  1.00  0.00     0.037 C 
HETATM    6  C3  UNL     1       8.094  -7.294  -1.783  1.00  0.00     0.037 C 
HETATM    7  C4  UNL     1       8.804  -8.741   0.094  1.00  0.00     0.037 C 
ENDBRANCH   2   4
ENDBRANCH   1   2
BRANCH   1   8
HETATM    8  N2  UNL     1       9.734  -5.591   0.848  1.00  0.00    -0.307 NA
BRANCH   8   9
HETATM    9  N3  UNL     1      10.907  -5.736   1.262  1.00  0.00    -0.278 N 
ATOM     10  H32 UNL     1      10.702  -5.680   0.264  1.00  0.00     0.191 HD
ATOM     11  H31 UNL     1      11.852  -5.855   1.628  1.00  0.00     0.191 HD
ENDBRANCH   8   9
ENDBRANCH   1   8
BRANCH   1  12
HETATM   12  C6  UNL     1       8.126  -4.239  -0.141  1.00  0.00     0.262 C 
HETATM   13  O1  UNL     1       7.303  -3.552   0.510  1.00  0.00    -0.641 OA
HETATM   14  O2  UNL     1       8.556  -3.750  -1.372  1.00  0.00    -0.641 OA
ENDBRANCH   1  12
TORSDOF 5
ENDMDL
MODEL 5
REMARK VINA RESULT: -4.265767195      2.510      3.592
REMARK  5 active torsions:
REMARK  status: ('A' for Active; 'I' for Inactive)
REMARK    1  A    between atoms: C2_2  and  N1_5 
REMARK    2  A    between atoms: N1_5  and  C5_7 
REMARK    3  A    between atoms: C5_7  and  N2_8 
REMARK    4  A    between atoms: C5_7  and  C6_12 
REMARK    5  A    between atoms: N2_8  and  N3_9 
ROOT
HETATM    1  C5  UNL     1       9.081  -6.743   0.837  1.00  0.00     0.276 C 
ENDROOT
BRANCH   1   2
HETATM    2  N1  UNL     1       9.099  -6.375  -0.523  1.00  0.00    -0.350 N 
ATOM      3  H1  UNL     1       9.133  -7.120  -1.218  1.00  0.00     0.163 HD
BRANCH   2   4
HETATM    4  C2  UNL     1       9.071  -5.015  -0.992  1.00  0.00     0.022 C 
HETATM    5  C1  UNL     1      10.465  -4.436  -1.117  1.00  0.00     0.037 C 
HETATM    6  C3  UNL     1       8.435  -4.946  -2.356  1.00  0.00     0.037 C 
HETATM    7  C4  UNL     1       8.305  -4.100  -0.035  1.00  0.00     0.037 C 
ENDBRANCH   2   4
ENDBRANCH   1   2
BRANCH   1   8
HETATM    8  N2  UNL     1      10.088  -6.568   1.538  1.00  0.00    -0.307 NA
BRANCH   8   9
HETATM    9  N3  UNL     1      11.090  -6.416   2.273  1.00  0.00    -0.278 N 
ATOM     10  H32 UNL     1      10.382  -7.118   2.485  1.00  0.00     0.191 HD
ATOM     11  H31 UNL     1      11.917  -6.268   2.853  1.00  0.00     0.191 HD
ENDBRANCH   8   9
ENDBRANCH   1   8
BRANCH   1  12
HETATM   12  C6  UNL     1       7.896  -7.321   1.411  1.00  0.00     0.262 C 
HETATM   13  O1  UNL     1       8.000  -7.940   2.497  1.00  0.00    -0.641 OA
HETATM   14  O2  UNL     1       6.633  -7.233   0.829  1.00  0.00    -0.641 OA
ENDBRANCH   1  12
TORSDOF 5
ENDMDL
