MODEL 1
REMARK VINA RESULT: -4.490324457      0.000      0.000
REMARK  1 active torsions:
REMARK  status: ('A' for Active; 'I' for Inactive)
REMARK       I    between atoms: C2_2  and  N1_4 
REMARK       I    between atoms: C3_6  and  N3_8 
REMARK    1  A    between atoms: N3_8  and  C4_10 
ROOT
HETATM    1  C1  UNL     1       6.780 -10.374  -0.197  1.00  0.00     0.117 C 
HETATM    2  C2  UNL     1       7.414  -9.912   1.063  1.00  0.00     0.220 C 
HETATM    3  O1  UNL     1       7.323 -10.623   2.099  1.00  0.00    -0.274 OA
HETATM    4  N1  UNL     1       8.130  -8.696   1.165  1.00  0.00    -0.302 N 
ATOM      5  H1  UNL     1       9.145  -8.734   1.259  1.00  0.00     0.171 HD
HETATM    6  C3  UNL     1       7.559  -7.544   1.145  1.00  0.00     0.191 C 
HETATM    7  N2  UNL     1       6.146  -7.532   1.014  1.00  0.00    -0.063 NA
HETATM    8  N3  UNL     1       8.227  -6.301   1.244  1.00  0.00    -0.356 N 
ATOM      9  H3  UNL     1       8.236  -5.836   2.152  1.00  0.00     0.163 HD
ENDROOT
BRANCH   8  10
HETATM   10  C4  UNL     1       8.893  -5.650   0.152  1.00  0.00     0.021 C 
HETATM   11  C5  UNL     1       8.619  -6.316  -1.182  1.00  0.00     0.037 C 
HETATM   12  C6  UNL     1       8.384  -4.228   0.033  1.00  0.00     0.037 C 
HETATM   13  C7  UNL     1      10.389  -5.577   0.317  1.00  0.00     0.037 C 
ENDBRANCH   8  10
TORSDOF 1
ENDMDL
MODEL 2
REMARK VINA RESULT: -4.461528211      0.102      1.275
REMARK  1 active torsions:
REMARK  status: ('A' for Active; 'I' for Inactive)
REMARK       I    between atoms: C2_2  and  N1_4 
REMARK       I    between atoms: C3_6  and  N3_8 
REMARK    1  A    between atoms: N3_8  and  C4_10 
ROOT
HETATM    1  C1  UNL     1       6.610 -10.342  -0.249  1.00  0.00     0.117 C 
HETATM    2  C2  UNL     1       7.301  -9.934   1.001  1.00  0.00     0.220 C 
HETATM    3  O1  UNL     1       7.225 -10.671   2.019  1.00  0.00    -0.274 OA
HETATM    4  N1  UNL     1       8.054  -8.742   1.111  1.00  0.00    -0.302 N 
ATOM      5  H1  UNL     1       9.070  -8.811   1.168  1.00  0.00     0.171 HD
HETATM    6  C3  UNL     1       7.516  -7.574   1.143  1.00  0.00     0.191 C 
HETATM    7  N2  UNL     1       6.101  -7.519   1.062  1.00  0.00    -0.063 NA
HETATM    8  N3  UNL     1       8.224  -6.354   1.252  1.00  0.00    -0.356 N 
ATOM      9  H3  UNL     1       8.278  -5.916   2.171  1.00  0.00     0.163 HD
ENDROOT
BRANCH   8  10
HETATM   10  C4  UNL     1       8.870  -5.691   0.155  1.00  0.00     0.021 C 
HETATM   11  C5  UNL     1       8.442  -4.244   0.012  1.00  0.00     0.037 C 
HETATM   12  C6  UNL     1      10.366  -5.674   0.394  1.00  0.00     0.037 C 
HETATM   13  C7  UNL     1       8.637  -6.361  -1.174  1.00  0.00     0.037 C 
ENDBRANCH   8  10
TORSDOF 1
ENDMDL
MODEL 3
REMARK VINA RESULT: -4.370681407      0.119      1.281
REMARK  1 active torsions:
REMARK  status: ('A' for Active; 'I' for Inactive)
REMARK       I    between atoms: C2_2  and  N1_4 
REMARK       I    between atoms: C3_6  and  N3_8 
REMARK    1  A    between atoms: N3_8  and  C4_10 
ROOT
HETATM    1  C1  UNL     1       6.613 -10.337  -0.239  1.00  0.00     0.117 C 
HETATM    2  C2  UNL     1       7.286  -9.934   1.022  1.00  0.00     0.220 C 
HETATM    3  O1  UNL     1       7.189 -10.672   2.038  1.00  0.00    -0.274 OA
HETATM    4  N1  UNL     1       8.045  -8.746   1.145  1.00  0.00    -0.302 N 
ATOM      5  H1  UNL     1       9.059  -8.822   1.218  1.00  0.00     0.171 HD
HETATM    6  C3  UNL     1       7.514  -7.576   1.170  1.00  0.00     0.191 C 
HETATM    7  N2  UNL     1       6.100  -7.512   1.066  1.00  0.00    -0.063 NA
HETATM    8  N3  UNL     1       8.226  -6.360   1.291  1.00  0.00    -0.356 N 
ATOM      9  H3  UNL     1       8.268  -5.923   2.212  1.00  0.00     0.163 HD
ENDROOT
BRANCH   8  10
HETATM   10  C4  UNL     1       8.894  -5.700   0.206  1.00  0.00     0.021 C 
HETATM   11  C5  UNL     1      10.399  -5.660   0.382  1.00  0.00     0.037 C 
HETATM   12  C6  UNL     1       8.633  -6.461  -1.078  1.00  0.00     0.037 C 
HETATM   13  C7  UNL     1       8.431  -4.283  -0.013  1.00  0.00     0.037 C 
ENDBRANCH   8  10
TORSDOF 1
ENDMDL
MODEL 4
REMARK VINA RESULT: -4.186512458      1.638      2.143
REMARK  1 active torsions:
REMARK  status: ('A' for Active; 'I' for Inactive)
REMARK       I    between atoms: C2_2  and  N1_4 
REMARK       I    between atoms: C3_6  and  N3_8 
REMARK    1  A    between atoms: N3_8  and  C4_10 
ROOT
HETATM    1  C1  UNL     1       9.273  -8.625   3.038  1.00  0.00     0.117 C 
HETATM    2  C2  UNL     1       7.986  -8.413   2.327  1.00  0.00     0.220 C 
HETATM    3  O1  UNL     1       7.033  -9.211   2.522  1.00  0.00    -0.274 OA
HETATM    4  N1  UNL     1       7.771  -7.344   1.426  1.00  0.00    -0.302 N 
ATOM      5  H1  UNL     1       7.158  -6.581   1.714  1.00  0.00     0.171 HD
HETATM    6  C3  UNL     1       8.312  -7.290   0.261  1.00  0.00     0.191 C 
HETATM    7  N2  UNL     1       9.157  -8.369  -0.103  1.00  0.00    -0.063 NA
HETATM    8  N3  UNL     1       8.128  -6.245  -0.675  1.00  0.00    -0.356 N 
ATOM      9  H3  UNL     1       7.461  -6.396  -1.432  1.00  0.00     0.163 HD
ENDROOT
BRANCH   8  10
HETATM   10  C4  UNL     1       8.819  -4.988  -0.632  1.00  0.00     0.021 C 
HETATM   11  C5  UNL     1       9.065  -4.408  -2.010  1.00  0.00     0.037 C 
HETATM   12  C6  UNL     1       7.971  -3.977   0.113  1.00  0.00     0.037 C 
HETATM   13  C7  UNL     1      10.151  -5.057   0.069  1.00  0.00     0.037 C 
ENDBRANCH   8  10
TORSDOF 1
ENDMDL
MODEL 5
REMARK VINA RESULT: -4.181972223      1.622      2.418
REMARK  1 active torsions:
REMARK  status: ('A' for Active; 'I' for Inactive)
REMARK       I    between atoms: C2_2  and  N1_4 
REMARK       I    between atoms: C3_6  and  N3_8 
REMARK    1  A    between atoms: N3_8  and  C4_10 
ROOT
HETATM    1  C1  UNL     1       9.224  -8.591   3.082  1.00  0.00     0.117 C 
HETATM    2  C2  UNL     1       7.964  -8.436   2.312  1.00  0.00     0.220 C 
HETATM    3  O1  UNL     1       7.037  -9.273   2.467  1.00  0.00    -0.274 OA
HETATM    4  N1  UNL     1       7.744  -7.378   1.399  1.00  0.00    -0.302 N 
ATOM      5  H1  UNL     1       7.087  -6.641   1.655  1.00  0.00     0.171 HD
HETATM    6  C3  UNL     1       8.335  -7.303   0.259  1.00  0.00     0.191 C 
HETATM    7  N2  UNL     1       9.241  -8.346  -0.062  1.00  0.00    -0.063 NA
HETATM    8  N3  UNL     1       8.150  -6.268  -0.688  1.00  0.00    -0.356 N 
ATOM      9  H3  UNL     1       7.524  -6.448  -1.473  1.00  0.00     0.163 HD
ENDROOT
BRANCH   8  10
HETATM   10  C4  UNL     1       8.784  -4.983  -0.618  1.00  0.00     0.021 C 
HETATM   11  C5  UNL     1      10.140  -5.035   0.057  1.00  0.00     0.037 C 
HETATM   12  C6  UNL     1       9.025  -4.468  -2.023  1.00  0.00     0.037 C 
HETATM   13  C7  UNL     1       7.964  -3.946   0.103  1.00  0.00     0.037 C 
ENDBRANCH   8  10
TORSDOF 1
ENDMDL
