MODEL 1
REMARK VINA RESULT: -5.185697420      0.000      0.000
REMARK  1 active torsions:
REMARK  status: ('A' for Active; 'I' for Inactive)
REMARK    1  A    between atoms: C3_8  and  C4_9 
ROOT
HETATM    1  N1  UNL     1       8.944 -36.437 -37.840  1.00  0.00    -0.195 NA
HETATM    2  C1  UNL     1       8.518 -35.974 -36.890  1.00  0.00     0.087 C 
HETATM    3  C2  UNL     1       7.971 -35.402 -35.666  1.00  0.00     0.225 C 
HETATM    4  N2  UNL     1       7.719 -36.401 -34.695  1.00  0.00    -0.320 N 
ATOM      5  H2  UNL     1       7.438 -37.358 -34.909  1.00  0.00     0.181 HD
HETATM    6  N3  UNL     1       7.883 -35.962 -33.570  1.00  0.00    -0.328 N 
ATOM      7  H3  UNL     1       7.752 -36.516 -32.724  1.00  0.00     0.180 HD
HETATM    8  C3  UNL     1       8.283 -34.570 -33.564  1.00  0.00     0.157 C 
HETATM    9  C5  UNL     1       8.966 -34.524 -34.947  1.00  0.00     0.160 C 
HETATM   10  C6  UNL     1      10.249 -35.175 -34.865  1.00  0.00     0.069 C 
HETATM   11  N5  UNL     1      11.297 -35.685 -34.803  1.00  0.00    -0.197 NA
ENDROOT
BRANCH   8  12
HETATM   12  C4  UNL     1       7.106 -33.664 -33.657  1.00  0.00     0.081 C 
HETATM   13  N4  UNL     1       6.292 -33.471 -32.686  1.00  0.00    -0.409 N 
ATOM     14  H42 UNL     1       6.473 -33.970 -31.816  1.00  0.00     0.155 HD
ATOM     15  H41 UNL     1       5.485 -32.849 -32.750  1.00  0.00     0.155 HD
ENDBRANCH   8  12
TORSDOF 1
ENDMDL
MODEL 2
REMARK VINA RESULT: -4.970052213      1.379      1.526
REMARK  1 active torsions:
REMARK  status: ('A' for Active; 'I' for Inactive)
REMARK    1  A    between atoms: C3_8  and  C4_9 
ROOT
HETATM    1  N1  UNL     1       7.185 -36.438 -36.609  1.00  0.00    -0.195 NA
HETATM    2  C1  UNL     1       7.168 -35.804 -35.663  1.00  0.00     0.087 C 
HETATM    3  C2  UNL     1       7.153 -35.010 -34.441  1.00  0.00     0.225 C 
HETATM    4  N2  UNL     1       7.681 -35.735 -33.346  1.00  0.00    -0.320 N 
ATOM      5  H2  UNL     1       7.601 -36.745 -33.227  1.00  0.00     0.181 HD
HETATM    6  N3  UNL     1       8.245 -34.989 -32.565  1.00  0.00    -0.328 N 
ATOM      7  H3  UNL     1       8.696 -35.306 -31.706  1.00  0.00     0.180 HD
HETATM    8  C3  UNL     1       8.208 -33.603 -32.986  1.00  0.00     0.157 C 
HETATM    9  C5  UNL     1       8.094 -33.833 -34.507  1.00  0.00     0.160 C 
HETATM   10  C6  UNL     1       9.376 -34.238 -35.025  1.00  0.00     0.069 C 
HETATM   11  N5  UNL     1      10.415 -34.550 -35.454  1.00  0.00    -0.197 NA
ENDROOT
BRANCH   8  12
HETATM   12  C4  UNL     1       6.940 -32.942 -32.573  1.00  0.00     0.081 C 
HETATM   13  N4  UNL     1       6.607 -32.767 -31.349  1.00  0.00    -0.409 N 
ATOM     14  H42 UNL     1       7.252 -33.104 -30.634  1.00  0.00     0.155 HD
ATOM     15  H41 UNL     1       5.738 -32.313 -31.066  1.00  0.00     0.155 HD
ENDBRANCH   8  12
TORSDOF 1
ENDMDL
MODEL 3
REMARK VINA RESULT: -4.875370470      1.517      3.506
REMARK  1 active torsions:
REMARK  status: ('A' for Active; 'I' for Inactive)
REMARK    1  A    between atoms: C3_8  and  C4_9 
ROOT
HETATM    1  N1  UNL     1      11.175 -34.907 -34.199  1.00  0.00    -0.195 NA
HETATM    2  C1  UNL     1      10.281 -35.230 -34.827  1.00  0.00     0.087 C 
HETATM    3  C2  UNL     1       9.130 -35.656 -35.612  1.00  0.00     0.225 C 
HETATM    4  N2  UNL     1       8.226 -36.420 -34.835  1.00  0.00    -0.320 N 
ATOM      5  H2  UNL     1       8.498 -37.034 -34.067  1.00  0.00     0.181 HD
HETATM    6  N3  UNL     1       7.079 -36.244 -35.208  1.00  0.00    -0.328 N 
ATOM      7  H3  UNL     1       6.272 -36.700 -34.783  1.00  0.00     0.180 HD
HETATM    8  C3  UNL     1       6.986 -35.318 -36.318  1.00  0.00     0.157 C 
HETATM    9  C5  UNL     1       8.262 -34.498 -36.036  1.00  0.00     0.160 C 
HETATM   10  C6  UNL     1       8.021 -33.612 -34.925  1.00  0.00     0.069 C 
HETATM   11  N5  UNL     1       7.829 -32.880 -34.037  1.00  0.00    -0.197 NA
ENDROOT
BRANCH   8  12
HETATM   12  C4  UNL     1       7.217 -36.002 -37.619  1.00  0.00     0.081 C 
HETATM   13  N4  UNL     1       6.266 -36.392 -38.385  1.00  0.00    -0.409 N 
ATOM     14  H42 UNL     1       5.310 -36.217 -38.073  1.00  0.00     0.155 HD
ATOM     15  H41 UNL     1       6.424 -36.860 -39.278  1.00  0.00     0.155 HD
ENDBRANCH   8  12
TORSDOF 1
ENDMDL
MODEL 4
REMARK VINA RESULT: -4.798330634      2.137      2.807
REMARK  1 active torsions:
REMARK  status: ('A' for Active; 'I' for Inactive)
REMARK    1  A    between atoms: C3_8  and  C4_9 
ROOT
HETATM    1  N1  UNL     1      11.310 -32.277 -37.109  1.00  0.00    -0.195 NA
HETATM    2  C1  UNL     1      10.559 -32.905 -36.527  1.00  0.00     0.087 C 
HETATM    3  C2  UNL     1       9.585 -33.708 -35.799  1.00  0.00     0.225 C 
HETATM    4  N2  UNL     1       8.477 -34.042 -36.614  1.00  0.00    -0.320 N 
ATOM      5  H2  UNL     1       8.106 -33.451 -37.358  1.00  0.00     0.181 HD
HETATM    6  N3  UNL     1       8.026 -35.132 -36.306  1.00  0.00    -0.328 N 
ATOM      7  H3  UNL     1       7.224 -35.562 -36.767  1.00  0.00     0.180 HD
HETATM    8  C3  UNL     1       8.750 -35.750 -35.214  1.00  0.00     0.157 C 
HETATM    9  C5  UNL     1      10.118 -35.072 -35.437  1.00  0.00     0.160 C 
HETATM   10  C6  UNL     1      10.769 -35.678 -36.572  1.00  0.00     0.069 C 
HETATM   11  N5  UNL     1      11.310 -36.175 -37.478  1.00  0.00    -0.197 NA
ENDROOT
BRANCH   8  12
HETATM   12  C4  UNL     1       8.263 -35.267 -33.894  1.00  0.00     0.081 C 
HETATM   13  N4  UNL     1       7.054 -35.414 -33.496  1.00  0.00    -0.409 N 
ATOM     14  H42 UNL     1       6.406 -35.887 -34.127  1.00  0.00     0.155 HD
ATOM     15  H41 UNL     1       6.719 -35.083 -32.590  1.00  0.00     0.155 HD
ENDBRANCH   8  12
TORSDOF 1
ENDMDL
MODEL 5
REMARK VINA RESULT: -4.730458994      6.016      7.214
REMARK  1 active torsions:
REMARK  status: ('A' for Active; 'I' for Inactive)
REMARK    1  A    between atoms: C3_8  and  C4_9 
ROOT
HETATM    1  N1  UNL     1       4.628 -29.332 -36.599  1.00  0.00    -0.195 NA
HETATM    2  C1  UNL     1       5.117 -29.611 -35.608  1.00  0.00     0.087 C 
HETATM    3  C2  UNL     1       5.759 -29.952 -34.346  1.00  0.00     0.225 C 
HETATM    4  N2  UNL     1       6.919 -29.172 -34.126  1.00  0.00    -0.320 N 
ATOM      5  H2  UNL     1       7.534 -28.828 -34.863  1.00  0.00     0.181 HD
HETATM    6  N3  UNL     1       7.084 -28.966 -32.936  1.00  0.00    -0.328 N 
ATOM      7  H3  UNL     1       7.862 -28.425 -32.559  1.00  0.00     0.180 HD
HETATM    8  C3  UNL     1       6.056 -29.573 -32.115  1.00  0.00     0.157 C 
HETATM    9  C5  UNL     1       4.914 -29.582 -33.151  1.00  0.00     0.160 C 
HETATM   10  C6  UNL     1       4.392 -28.247 -33.295  1.00  0.00     0.069 C 
HETATM   11  N5  UNL     1       3.952 -27.171 -33.405  1.00  0.00    -0.197 NA
ENDROOT
BRANCH   8  12
HETATM   12  C4  UNL     1       6.361 -31.001 -31.826  1.00  0.00     0.081 C 
HETATM   13  N4  UNL     1       6.490 -31.464 -30.638  1.00  0.00    -0.409 N 
ATOM     14  H42 UNL     1       6.376 -30.809 -29.864  1.00  0.00     0.155 HD
ATOM     15  H41 UNL     1       6.699 -32.443 -30.440  1.00  0.00     0.155 HD
ENDBRANCH   8  12
TORSDOF 1
ENDMDL
