MODEL 1
REMARK VINA RESULT: -7.138465343      0.000      0.000
REMARK  4 active torsions:
REMARK  status: ('A' for Active; 'I' for Inactive)
REMARK    1  A    between atoms: C2_2  and  C3_3 
REMARK    2  A    between atoms: C3_3  and  C4_4 
REMARK    3  A    between atoms: C4_4  and  C5_5 
REMARK    4  A    between atoms: N1_12  and  C10_13 
ROOT
HETATM    1  C3  UNL     1       5.462  11.913  44.926  1.00  0.00     0.154 A 
HETATM    2  O1  UNL     1       6.831  12.220  44.922  1.00  0.00    -0.282 OA
HETATM    3  C9  UNL     1       7.543  11.313  44.150  1.00  0.00     0.375 A 
HETATM    4  O2  UNL     1       8.782  11.372  43.945  1.00  0.00    -0.237 OA
HETATM    5  N1  UNL     1       6.678  10.312  43.628  1.00  0.00    -0.229 N 
HETATM    6  C17 UNL     1       5.378  10.669  44.134  1.00  0.00     0.268 A 
HETATM    7  O3  UNL     1       4.375   9.958  43.882  1.00  0.00    -0.269 OA
ENDROOT
BRANCH   1   8
HETATM    8  C2  UNL     1       5.132  11.578  46.399  1.00  0.00     0.044 C 
HETATM    9  C1  UNL     1       3.849  12.189  46.827  1.00  0.00     0.009 C 
ENDBRANCH   1   8
BRANCH   1  10
HETATM   10  C4  UNL     1       4.549  12.995  44.561  1.00  0.00     0.057 C 
BRANCH  10  11
HETATM   11  C5  UNL     1       4.637  13.730  43.315  1.00  0.00    -0.048 C 
HETATM   12  C6  UNL     1       5.776  14.686  43.135  1.00  0.00     0.014 C 
HETATM   13  C7  UNL     1       4.586  12.860  42.075  1.00  0.00     0.014 C 
HETATM   14  C8  UNL     1       3.369  14.609  43.179  1.00  0.00     0.014 C 
ENDBRANCH  10  11
ENDBRANCH   1  10
BRANCH   5  15
HETATM   15  C10 UNL     1       7.044   9.225  42.800  1.00  0.00     0.021 C 
HETATM   16  C11 UNL     1       7.208   9.565  41.511  1.00  0.00    -0.001 C 
HETATM   17  C12 UNL     1       7.587   8.667  40.398  1.00  0.00     0.029 C 
HETATM   18  C13 UNL     1       6.786   7.367  40.496  1.00  0.00     0.004 C 
HETATM   19  C14 UNL     1       7.447   6.378  41.400  1.00  0.00     0.001 C 
HETATM   20  C15 UNL     1       8.102   7.005  42.594  1.00  0.00     0.006 C 
HETATM   21  C16 UNL     1       7.203   7.887  43.394  1.00  0.00     0.057 C 
ENDBRANCH   5  15
TORSDOF 4
ENDMDL
MODEL 2
REMARK VINA RESULT: -7.128423240      0.424      1.341
REMARK  4 active torsions:
REMARK  status: ('A' for Active; 'I' for Inactive)
REMARK    1  A    between atoms: C2_2  and  C3_3 
REMARK    2  A    between atoms: C3_3  and  C4_4 
REMARK    3  A    between atoms: C4_4  and  C5_5 
REMARK    4  A    between atoms: N1_12  and  C10_13 
ROOT
HETATM    1  C3  UNL     1       5.462  11.953  44.888  1.00  0.00     0.154 A 
HETATM    2  O1  UNL     1       6.836  12.232  44.854  1.00  0.00    -0.282 OA
HETATM    3  C9  UNL     1       7.521  11.270  44.124  1.00  0.00     0.375 A 
HETATM    4  O2  UNL     1       8.759  11.294  43.904  1.00  0.00    -0.237 OA
HETATM    5  N1  UNL     1       6.631  10.261  43.664  1.00  0.00    -0.229 N 
HETATM    6  C17 UNL     1       5.344  10.671  44.164  1.00  0.00     0.268 A 
HETATM    7  O3  UNL     1       4.325   9.968  43.960  1.00  0.00    -0.269 OA
ENDROOT
BRANCH   1   8
HETATM    8  C2  UNL     1       5.141  11.704  46.379  1.00  0.00     0.044 C 
HETATM    9  C1  UNL     1       3.814  12.251  46.756  1.00  0.00     0.009 C 
ENDBRANCH   1   8
BRANCH   1  10
HETATM   10  C4  UNL     1       4.565  13.033  44.475  1.00  0.00     0.057 C 
BRANCH  10  11
HETATM   11  C5  UNL     1       4.704  13.753  43.225  1.00  0.00    -0.048 C 
HETATM   12  C6  UNL     1       5.779  14.789  43.119  1.00  0.00     0.014 C 
HETATM   13  C7  UNL     1       4.823  12.862  42.005  1.00  0.00     0.014 C 
HETATM   14  C8  UNL     1       3.390  14.531  42.964  1.00  0.00     0.014 C 
ENDBRANCH  10  11
ENDBRANCH   1  10
BRANCH   5  15
HETATM   15  C10 UNL     1       6.966   9.124  42.892  1.00  0.00     0.021 C 
HETATM   16  C11 UNL     1       7.125   8.008  43.622  1.00  0.00    -0.001 C 
HETATM   17  C12 UNL     1       7.474   6.662  43.119  1.00  0.00     0.029 C 
HETATM   18  C13 UNL     1       8.603   6.778  42.092  1.00  0.00     0.004 C 
HETATM   19  C14 UNL     1       8.077   7.055  40.722  1.00  0.00     0.001 C 
HETATM   20  C15 UNL     1       6.890   7.971  40.712  1.00  0.00     0.006 C 
HETATM   21  C16 UNL     1       7.103   9.260  41.431  1.00  0.00     0.057 C 
ENDBRANCH   5  15
TORSDOF 4
ENDMDL
MODEL 3
REMARK VINA RESULT: -6.825483308      1.370      6.252
REMARK  4 active torsions:
REMARK  status: ('A' for Active; 'I' for Inactive)
REMARK    1  A    between atoms: C2_2  and  C3_3 
REMARK    2  A    between atoms: C3_3  and  C4_4 
REMARK    3  A    between atoms: C4_4  and  C5_5 
REMARK    4  A    between atoms: N1_12  and  C10_13 
ROOT
HETATM    1  C3  UNL     1       7.805   8.950  41.390  1.00  0.00     0.154 A 
HETATM    2  O1  UNL     1       8.726   9.473  42.310  1.00  0.00    -0.282 OA
HETATM    3  C9  UNL     1       8.128  10.421  43.129  1.00  0.00     0.375 A 
HETATM    4  O2  UNL     1       8.714  11.024  44.064  1.00  0.00    -0.237 OA
HETATM    5  N1  UNL     1       6.768  10.615  42.762  1.00  0.00    -0.229 N 
HETATM    6  C17 UNL     1       6.569   9.714  41.655  1.00  0.00     0.268 A 
HETATM    7  O3  UNL     1       5.464   9.660  41.064  1.00  0.00    -0.269 OA
ENDROOT
BRANCH   1   8
HETATM    8  C2  UNL     1       8.348   9.363  40.003  1.00  0.00     0.044 C 
HETATM    9  C1  UNL     1       9.819   9.187  39.913  1.00  0.00     0.009 C 
ENDBRANCH   1   8
BRANCH   1  10
HETATM   10  C4  UNL     1       7.687   7.493  41.341  1.00  0.00     0.057 C 
BRANCH  10  11
HETATM   11  C5  UNL     1       8.001   6.627  42.460  1.00  0.00    -0.048 C 
HETATM   12  C6  UNL     1       9.408   6.609  42.969  1.00  0.00     0.014 C 
HETATM   13  C7  UNL     1       7.096   6.811  43.662  1.00  0.00     0.014 C 
HETATM   14  C8  UNL     1       7.724   5.164  42.034  1.00  0.00     0.014 C 
ENDBRANCH  10  11
ENDBRANCH   1  10
BRANCH   5  15
HETATM   15  C10 UNL     1       5.844  11.498  43.368  1.00  0.00     0.021 C 
HETATM   16  C11 UNL     1       5.205  12.289  42.490  1.00  0.00    -0.001 C 
HETATM   17  C12 UNL     1       4.185  13.314  42.800  1.00  0.00     0.029 C 
HETATM   18  C13 UNL     1       4.639  14.137  44.008  1.00  0.00     0.004 C 
HETATM   19  C14 UNL     1       4.249  13.489  45.296  1.00  0.00     0.001 C 
HETATM   20  C15 UNL     1       4.347  11.993  45.265  1.00  0.00     0.006 C 
HETATM   21  C16 UNL     1       5.676  11.474  44.831  1.00  0.00     0.057 C 
ENDBRANCH   5  15
TORSDOF 4
ENDMDL
MODEL 4
REMARK VINA RESULT: -6.789128118      2.264      6.674
REMARK  4 active torsions:
REMARK  status: ('A' for Active; 'I' for Inactive)
REMARK    1  A    between atoms: C2_2  and  C3_3 
REMARK    2  A    between atoms: C3_3  and  C4_4 
REMARK    3  A    between atoms: C4_4  and  C5_5 
REMARK    4  A    between atoms: N1_12  and  C10_13 
ROOT
HETATM    1  C3  UNL     1       9.131   7.134  41.882  1.00  0.00     0.154 A 
HETATM    2  O1  UNL     1       8.334   6.345  42.725  1.00  0.00    -0.282 OA
HETATM    3  C9  UNL     1       7.470   7.133  43.472  1.00  0.00     0.375 A 
HETATM    4  O2  UNL     1       6.620   6.684  44.283  1.00  0.00    -0.237 OA
HETATM    5  N1  UNL     1       7.680   8.512  43.194  1.00  0.00    -0.229 N 
HETATM    6  C17 UNL     1       8.739   8.517  42.217  1.00  0.00     0.268 A 
HETATM    7  O3  UNL     1       9.197   9.599  41.776  1.00  0.00    -0.269 OA
ENDROOT
BRANCH   1   8
HETATM    8  C2  UNL     1      10.579   6.903  42.370  1.00  0.00     0.044 C 
HETATM    9  C1  UNL     1      10.952   5.468  42.327  1.00  0.00     0.009 C 
ENDBRANCH   1   8
BRANCH   1  10
HETATM   10  C4  UNL     1       9.138   6.772  40.464  1.00  0.00     0.057 C 
BRANCH  10  11
HETATM   11  C5  UNL     1       7.949   6.389  39.730  1.00  0.00    -0.048 C 
HETATM   12  C6  UNL     1       7.286   5.093  40.081  1.00  0.00     0.014 C 
HETATM   13  C7  UNL     1       6.866   7.449  39.704  1.00  0.00     0.014 C 
HETATM   14  C8  UNL     1       8.327   6.237  38.236  1.00  0.00     0.014 C 
ENDBRANCH  10  11
ENDBRANCH   1  10
BRANCH   5  15
HETATM   15  C10 UNL     1       6.988   9.606  43.764  1.00  0.00     0.021 C 
HETATM   16  C11 UNL     1       5.996  10.075  42.989  1.00  0.00    -0.001 C 
HETATM   17  C12 UNL     1       5.090  11.203  43.294  1.00  0.00     0.029 C 
HETATM   18  C13 UNL     1       5.900  12.369  43.864  1.00  0.00     0.004 C 
HETATM   19  C14 UNL     1       6.091  12.240  45.340  1.00  0.00     0.001 C 
HETATM   20  C15 UNL     1       6.297  10.825  45.794  1.00  0.00     0.006 C 
HETATM   21  C16 UNL     1       7.396  10.108  45.087  1.00  0.00     0.057 C 
ENDBRANCH   5  15
TORSDOF 4
ENDMDL
MODEL 5
REMARK VINA RESULT: -6.741426663      1.295      6.281
REMARK  4 active torsions:
REMARK  status: ('A' for Active; 'I' for Inactive)
REMARK    1  A    between atoms: C2_2  and  C3_3 
REMARK    2  A    between atoms: C3_3  and  C4_4 
REMARK    3  A    between atoms: C4_4  and  C5_5 
REMARK    4  A    between atoms: N1_12  and  C10_13 
ROOT
HETATM    1  C3  UNL     1       7.442   9.236  41.543  1.00  0.00     0.154 A 
HETATM    2  O1  UNL     1       8.551   9.709  42.259  1.00  0.00    -0.282 OA
HETATM    3  C9  UNL     1       8.172  10.670  43.186  1.00  0.00     0.375 A 
HETATM    4  O2  UNL     1       8.960  11.236  43.986  1.00  0.00    -0.237 OA
HETATM    5  N1  UNL     1       6.775  10.923  43.103  1.00  0.00    -0.229 N 
HETATM    6  C17 UNL     1       6.319  10.046  42.056  1.00  0.00     0.268 A 
HETATM    7  O3  UNL     1       5.115  10.045  41.701  1.00  0.00    -0.269 OA
ENDROOT
BRANCH   1   8
HETATM    8  C2  UNL     1       7.709   9.644  40.076  1.00  0.00     0.044 C 
HETATM    9  C1  UNL     1       9.065   9.237  39.630  1.00  0.00     0.009 C 
ENDBRANCH   1   8
BRANCH   1  10
HETATM   10  C4  UNL     1       7.254   7.786  41.512  1.00  0.00     0.057 C 
BRANCH  10  11
HETATM   11  C5  UNL     1       7.758   6.892  42.535  1.00  0.00    -0.048 C 
HETATM   12  C6  UNL     1       9.238   6.831  42.757  1.00  0.00     0.014 C 
HETATM   13  C7  UNL     1       7.113   7.076  43.894  1.00  0.00     0.014 C 
HETATM   14  C8  UNL     1       7.364   5.444  42.154  1.00  0.00     0.014 C 
ENDBRANCH  10  11
ENDBRANCH   1  10
BRANCH   5  15
HETATM   15  C10 UNL     1       6.032  11.836  43.887  1.00  0.00     0.021 C 
HETATM   16  C11 UNL     1       6.142  11.621  45.208  1.00  0.00    -0.001 C 
HETATM   17  C12 UNL     1       5.494  12.394  46.290  1.00  0.00     0.029 C 
HETATM   18  C13 UNL     1       4.031  12.656  45.925  1.00  0.00     0.004 C 
HETATM   19  C14 UNL     1       3.883  13.880  45.082  1.00  0.00     0.001 C 
HETATM   20  C15 UNL     1       4.998  14.067  44.098  1.00  0.00     0.006 C 
HETATM   21  C16 UNL     1       5.245  12.887  43.219  1.00  0.00     0.057 C 
ENDBRANCH   5  15
TORSDOF 4
ENDMDL
