MODEL 1
REMARK VINA RESULT: -9.045929448      0.000      0.000
REMARK  8 active torsions:
REMARK  status: ('A' for Active; 'I' for Inactive)
REMARK    1  A    between atoms: O1_2  and  C2_3 
REMARK    2  A    between atoms: C5_6  and  N1_7 
REMARK    3  A    between atoms: C6_10  and  C7_11 
REMARK    4  A    between atoms: C12_16  and  N3_17 
REMARK       I    between atoms: N3_17  and  C13_18 
REMARK    5  A    between atoms: C13_18  and  C14_20 
REMARK    6  A    between atoms: C17_25  and  O3_26 
REMARK    7  A    between atoms: C21_30  and  O4_31 
REMARK    8  A    between atoms: C25_35  and  O5_36 
ROOT
HETATM    1  N1  UNL     1      28.575  44.039   1.308  1.00  0.00    -0.228 N 
HETATM    2  N2  UNL     1      28.546  42.733   1.410  1.00  0.00    -0.294 N 
ATOM      3  H2  UNL     1      27.697  42.170   1.366  1.00  0.00     0.187 HD
HETATM    4  C6  UNL     1      29.776  42.237   1.579  1.00  0.00     0.040 A 
HETATM    5  C10 UNL     1      30.602  43.315   1.580  1.00  0.00     0.023 A 
HETATM    6  C11 UNL     1      32.058  43.225   1.747  1.00  0.00     0.056 C 
HETATM    7  C12 UNL     1      29.870  44.503   1.407  1.00  0.00     0.212 A 
ENDROOT
BRANCH   7   8
HETATM    8  N3  UNL     1      30.216  45.631   1.347  1.00  0.00    -0.345 NA
HETATM    9  C13 UNL     1      30.425  46.917   1.112  1.00  0.00     0.330 C 
HETATM   10  O2  UNL     1      30.056  47.350  -0.047  1.00  0.00    -0.251 OA
BRANCH   9  11
HETATM   11  C14 UNL     1      31.043  47.801   2.110  1.00  0.00     0.077 A 
HETATM   12  C15 UNL     1      30.337  48.437   3.127  1.00  0.00     0.107 A 
HETATM   13  N4  UNL     1      31.171  49.203   3.840  1.00  0.00    -0.362 N 
HETATM   14  C16 UNL     1      32.397  49.080   3.313  1.00  0.00     0.080 A 
ATOM     15  H4  UNL     1      30.919  49.779   4.643  1.00  0.00     0.165 HD
HETATM   16  C17 UNL     1      33.588  49.655   3.695  1.00  0.00     0.096 A 
HETATM   17  C23 UNL     1      32.327  48.194   2.217  1.00  0.00     0.045 A 
HETATM   18  C19 UNL     1      34.721  49.344   2.980  1.00  0.00     0.042 A 
HETATM   19  C20 UNL     1      34.666  48.478   1.910  1.00  0.00     0.040 A 
HETATM   20  C21 UNL     1      33.462  47.889   1.512  1.00  0.00     0.082 A 
BRANCH  16  21
HETATM   21  O3  UNL     1      33.606  50.528   4.785  1.00  0.00    -0.354 OA
HETATM   22  C18 UNL     1      34.694  51.317   5.168  1.00  0.00     0.210 C 
ENDBRANCH  16  21
BRANCH  20  23
HETATM   23  O4  UNL     1      33.463  47.018   0.424  1.00  0.00    -0.355 OA
HETATM   24  C22 UNL     1      33.555  47.535  -0.891  1.00  0.00     0.210 C 
ENDBRANCH  20  23
ENDBRANCH   9  11
ENDBRANCH   7   8
BRANCH   1  25
HETATM   25  C5  UNL     1      27.415  44.831   1.132  1.00  0.00     0.062 A 
HETATM   26  C4  UNL     1      27.146  45.927   1.917  1.00  0.00     0.034 A 
HETATM   27  C3  UNL     1      25.980  46.675   1.712  1.00  0.00     0.042 A 
HETATM   28  C2  UNL     1      25.091  46.322   0.722  1.00  0.00     0.101 A 
HETATM   29  C25 UNL     1      25.353  45.222  -0.073  1.00  0.00     0.103 A 
HETATM   30  C24 UNL     1      26.505  44.507   0.151  1.00  0.00     0.071 A 
BRANCH  28  31
HETATM   31  O1  UNL     1      23.917  47.063   0.503  1.00  0.00    -0.353 OA
HETATM   32  C1  UNL     1      22.785  46.758   1.317  1.00  0.00     0.210 C 
ENDBRANCH  28  31
BRANCH  29  33
HETATM   33  O5  UNL     1      24.428  44.901  -1.066  1.00  0.00    -0.353 OA
HETATM   34  C26 UNL     1      23.389  43.964  -0.865  1.00  0.00     0.210 C 
ENDBRANCH  29  33
ENDBRANCH   1  25
BRANCH   4  35
HETATM   35  C7  UNL     1      30.085  40.798   1.729  1.00  0.00     0.029 C 
HETATM   36  C8  UNL     1      30.634  40.288   0.416  1.00  0.00     0.016 C 
HETATM   37  C9  UNL     1      31.063  40.479   2.807  1.00  0.00     0.016 C 
ENDBRANCH   4  35
TORSDOF 8
ENDMDL
MODEL 2
REMARK VINA RESULT: -8.869534517      2.512      3.426
REMARK  8 active torsions:
REMARK  status: ('A' for Active; 'I' for Inactive)
REMARK    1  A    between atoms: O1_2  and  C2_3 
REMARK    2  A    between atoms: C5_6  and  N1_7 
REMARK    3  A    between atoms: C6_10  and  C7_11 
REMARK    4  A    between atoms: C12_16  and  N3_17 
REMARK       I    between atoms: N3_17  and  C13_18 
REMARK    5  A    between atoms: C13_18  and  C14_20 
REMARK    6  A    between atoms: C17_25  and  O3_26 
REMARK    7  A    between atoms: C21_30  and  O4_31 
REMARK    8  A    between atoms: C25_35  and  O5_36 
ROOT
HETATM    1  N1  UNL     1      29.638  43.052   1.206  1.00  0.00    -0.228 N 
HETATM    2  N2  UNL     1      29.432  41.764   1.081  1.00  0.00    -0.294 N 
ATOM      3  H2  UNL     1      28.526  41.342   0.878  1.00  0.00     0.187 HD
HETATM    4  C6  UNL     1      30.565  41.076   1.254  1.00  0.00     0.040 A 
HETATM    5  C10 UNL     1      31.520  42.012   1.501  1.00  0.00     0.023 A 
HETATM    6  C11 UNL     1      32.929  41.688   1.759  1.00  0.00     0.056 C 
HETATM    7  C12 UNL     1      30.966  43.304   1.479  1.00  0.00     0.212 A 
ENDROOT
BRANCH   7   8
HETATM    8  N3  UNL     1      31.459  44.366   1.640  1.00  0.00    -0.345 NA
HETATM    9  C13 UNL     1      31.989  45.504   2.059  1.00  0.00     0.330 C 
HETATM   10  O2  UNL     1      31.638  45.894   3.239  1.00  0.00    -0.251 OA
BRANCH   9  11
HETATM   11  C14 UNL     1      32.921  46.281   1.231  1.00  0.00     0.077 A 
HETATM   12  C15 UNL     1      34.307  46.167   1.305  1.00  0.00     0.107 A 
HETATM   13  N4  UNL     1      34.874  47.035   0.458  1.00  0.00    -0.362 N 
HETATM   14  C16 UNL     1      33.894  47.707  -0.162  1.00  0.00     0.080 A 
ATOM     15  H4  UNL     1      35.875  47.162   0.310  1.00  0.00     0.165 HD
HETATM   16  C17 UNL     1      33.964  48.691  -1.122  1.00  0.00     0.096 A 
HETATM   17  C23 UNL     1      32.654  47.236   0.320  1.00  0.00     0.045 A 
HETATM   18  C19 UNL     1      32.788  49.210  -1.609  1.00  0.00     0.042 A 
HETATM   19  C20 UNL     1      31.571  48.758  -1.149  1.00  0.00     0.040 A 
HETATM   20  C21 UNL     1      31.487  47.761  -0.174  1.00  0.00     0.082 A 
BRANCH  16  21
HETATM   21  O3  UNL     1      35.216  49.124  -1.565  1.00  0.00    -0.354 OA
HETATM   22  C18 UNL     1      35.830  48.728  -2.756  1.00  0.00     0.210 C 
ENDBRANCH  16  21
BRANCH  20  23
HETATM   23  O4  UNL     1      30.230  47.338   0.255  1.00  0.00    -0.355 OA
HETATM   24  C22 UNL     1      29.613  47.973   1.359  1.00  0.00     0.210 C 
ENDBRANCH  20  23
ENDBRANCH   9  11
ENDBRANCH   7   8
BRANCH   1  25
HETATM   25  C5  UNL     1      28.613  44.019   1.082  1.00  0.00     0.062 A 
HETATM   26  C4  UNL     1      27.886  44.464   2.161  1.00  0.00     0.034 A 
HETATM   27  C3  UNL     1      26.873  45.416   1.988  1.00  0.00     0.042 A 
HETATM   28  C2  UNL     1      26.596  45.917   0.736  1.00  0.00     0.101 A 
HETATM   29  C25 UNL     1      27.321  45.476  -0.354  1.00  0.00     0.103 A 
HETATM   30  C24 UNL     1      28.308  44.542  -0.155  1.00  0.00     0.071 A 
BRANCH  28  31
HETATM   31  O1  UNL     1      25.583  46.873   0.545  1.00  0.00    -0.353 OA
HETATM   32  C1  UNL     1      24.235  46.406   0.512  1.00  0.00     0.210 C 
ENDBRANCH  28  31
BRANCH  29  33
HETATM   33  O5  UNL     1      27.009  46.012  -1.604  1.00  0.00    -0.353 OA
HETATM   34  C26 UNL     1      27.989  46.562  -2.463  1.00  0.00     0.210 C 
ENDBRANCH  29  33
ENDBRANCH   1  25
BRANCH   4  35
HETATM   35  C7  UNL     1      30.672  39.603   1.179  1.00  0.00     0.029 C 
HETATM   36  C8  UNL     1      31.960  39.252   0.468  1.00  0.00     0.016 C 
HETATM   37  C9  UNL     1      30.653  38.907   2.495  1.00  0.00     0.016 C 
ENDBRANCH   4  35
TORSDOF 8
ENDMDL
MODEL 3
REMARK VINA RESULT: -8.862221731      2.172      2.977
REMARK  8 active torsions:
REMARK  status: ('A' for Active; 'I' for Inactive)
REMARK    1  A    between atoms: O1_2  and  C2_3 
REMARK    2  A    between atoms: C5_6  and  N1_7 
REMARK    3  A    between atoms: C6_10  and  C7_11 
REMARK    4  A    between atoms: C12_16  and  N3_17 
REMARK       I    between atoms: N3_17  and  C13_18 
REMARK    5  A    between atoms: C13_18  and  C14_20 
REMARK    6  A    between atoms: C17_25  and  O3_26 
REMARK    7  A    between atoms: C21_30  and  O4_31 
REMARK    8  A    between atoms: C25_35  and  O5_36 
ROOT
HETATM    1  N1  UNL     1      29.366  42.945   1.149  1.00  0.00    -0.228 N 
HETATM    2  N2  UNL     1      29.309  41.658   0.912  1.00  0.00    -0.294 N 
ATOM      3  H2  UNL     1      28.505  41.182   0.503  1.00  0.00     0.187 HD
HETATM    4  C6  UNL     1      30.443  41.051   1.275  1.00  0.00     0.040 A 
HETATM    5  C10 UNL     1      31.238  42.038   1.766  1.00  0.00     0.023 A 
HETATM    6  C11 UNL     1      32.591  41.808   2.289  1.00  0.00     0.056 C 
HETATM    7  C12 UNL     1      30.584  43.281   1.704  1.00  0.00     0.212 A 
ENDROOT
BRANCH   7   8
HETATM    8  N3  UNL     1      30.934  44.363   2.022  1.00  0.00    -0.345 NA
HETATM    9  C13 UNL     1      31.327  45.484   2.607  1.00  0.00     0.330 C 
HETATM   10  O2  UNL     1      30.996  45.624   3.847  1.00  0.00    -0.251 OA
BRANCH   9  11
HETATM   11  C14 UNL     1      32.092  46.512   1.887  1.00  0.00     0.077 A 
HETATM   12  C15 UNL     1      33.320  46.278   1.274  1.00  0.00     0.107 A 
HETATM   13  N4  UNL     1      33.779  47.418   0.744  1.00  0.00    -0.362 N 
HETATM   14  C16 UNL     1      32.884  48.382   0.996  1.00  0.00     0.080 A 
ATOM     15  H4  UNL     1      34.657  47.532   0.237  1.00  0.00     0.165 HD
HETATM   16  C17 UNL     1      32.893  49.714   0.650  1.00  0.00     0.096 A 
HETATM   17  C23 UNL     1      31.810  47.818   1.719  1.00  0.00     0.045 A 
HETATM   18  C19 UNL     1      31.825  50.493   1.027  1.00  0.00     0.042 A 
HETATM   19  C20 UNL     1      30.770  49.954   1.731  1.00  0.00     0.040 A 
HETATM   20  C21 UNL     1      30.749  48.604   2.088  1.00  0.00     0.082 A 
BRANCH  16  21
HETATM   21  O3  UNL     1      33.980  50.225  -0.064  1.00  0.00    -0.354 OA
HETATM   22  C18 UNL     1      35.063  50.907   0.497  1.00  0.00     0.210 C 
ENDBRANCH  16  21
BRANCH  20  23
HETATM   23  O4  UNL     1      29.656  48.109   2.798  1.00  0.00    -0.355 OA
HETATM   24  C22 UNL     1      28.545  47.579   2.100  1.00  0.00     0.210 C 
ENDBRANCH  20  23
ENDBRANCH   9  11
ENDBRANCH   7   8
BRANCH   1  25
HETATM   25  C5  UNL     1      28.301  43.835   0.872  1.00  0.00     0.062 A 
HETATM   26  C4  UNL     1      27.274  44.054   1.758  1.00  0.00     0.034 A 
HETATM   27  C3  UNL     1      26.236  44.937   1.436  1.00  0.00     0.042 A 
HETATM   28  C2  UNL     1      26.234  45.596   0.228  1.00  0.00     0.101 A 
HETATM   29  C25 UNL     1      27.263  45.384  -0.671  1.00  0.00     0.103 A 
HETATM   30  C24 UNL     1      28.267  44.512  -0.327  1.00  0.00     0.071 A 
BRANCH  28  31
HETATM   31  O1  UNL     1      25.200  46.486  -0.112  1.00  0.00    -0.353 OA
HETATM   32  C1  UNL     1      24.024  46.468   0.697  1.00  0.00     0.210 C 
ENDBRANCH  28  31
BRANCH  29  33
HETATM   33  O5  UNL     1      27.223  46.074  -1.882  1.00  0.00    -0.353 OA
HETATM   34  C26 UNL     1      28.384  46.591  -2.502  1.00  0.00     0.210 C 
ENDBRANCH  29  33
ENDBRANCH   1  25
BRANCH   4  35
HETATM   35  C7  UNL     1      30.698  39.600   1.140  1.00  0.00     0.029 C 
HETATM   36  C8  UNL     1      32.042  39.410   0.474  1.00  0.00     0.016 C 
HETATM   37  C9  UNL     1      30.695  38.843   2.423  1.00  0.00     0.016 C 
ENDBRANCH   4  35
TORSDOF 8
ENDMDL
MODEL 4
REMARK VINA RESULT: -8.838410673      2.029      3.379
REMARK  8 active torsions:
REMARK  status: ('A' for Active; 'I' for Inactive)
REMARK    1  A    between atoms: O1_2  and  C2_3 
REMARK    2  A    between atoms: C5_6  and  N1_7 
REMARK    3  A    between atoms: C6_10  and  C7_11 
REMARK    4  A    between atoms: C12_16  and  N3_17 
REMARK       I    between atoms: N3_17  and  C13_18 
REMARK    5  A    between atoms: C13_18  and  C14_20 
REMARK    6  A    between atoms: C17_25  and  O3_26 
REMARK    7  A    between atoms: C21_30  and  O4_31 
REMARK    8  A    between atoms: C25_35  and  O5_36 
ROOT
HETATM    1  N1  UNL     1      28.475  44.082   1.328  1.00  0.00    -0.228 N 
HETATM    2  N2  UNL     1      28.473  42.782   1.493  1.00  0.00    -0.294 N 
ATOM      3  H2  UNL     1      27.635  42.202   1.491  1.00  0.00     0.187 HD
HETATM    4  C6  UNL     1      29.715  42.317   1.664  1.00  0.00     0.040 A 
HETATM    5  C10 UNL     1      30.521  43.409   1.598  1.00  0.00     0.023 A 
HETATM    6  C11 UNL     1      31.981  43.353   1.744  1.00  0.00     0.056 C 
HETATM    7  C12 UNL     1      29.763  44.573   1.381  1.00  0.00     0.212 A 
ENDROOT
BRANCH   7   8
HETATM    8  N3  UNL     1      30.087  45.703   1.261  1.00  0.00    -0.345 NA
HETATM    9  C13 UNL     1      30.376  46.991   1.361  1.00  0.00     0.330 C 
HETATM   10  O2  UNL     1      29.709  47.656   2.244  1.00  0.00    -0.251 OA
BRANCH   9  11
HETATM   11  C14 UNL     1      31.394  47.629   0.515  1.00  0.00     0.077 A 
HETATM   12  C15 UNL     1      32.549  48.229   1.009  1.00  0.00     0.107 A 
HETATM   13  N4  UNL     1      33.249  48.755  -0.004  1.00  0.00    -0.362 N 
HETATM   14  C16 UNL     1      32.580  48.511  -1.139  1.00  0.00     0.080 A 
ATOM     15  H4  UNL     1      34.135  49.253   0.074  1.00  0.00     0.165 HD
HETATM   16  C17 UNL     1      32.891  48.836  -2.440  1.00  0.00     0.096 A 
HETATM   17  C23 UNL     1      31.404  47.797  -0.821  1.00  0.00     0.045 A 
HETATM   18  C19 UNL     1      32.025  48.447  -3.434  1.00  0.00     0.042 A 
HETATM   19  C20 UNL     1      30.875  47.748  -3.137  1.00  0.00     0.040 A 
HETATM   20  C21 UNL     1      30.548  47.413  -1.821  1.00  0.00     0.082 A 
BRANCH  16  21
HETATM   21  O3  UNL     1      34.065  49.545  -2.703  1.00  0.00    -0.354 OA
HETATM   22  C18 UNL     1      35.264  48.982  -3.149  1.00  0.00     0.210 C 
ENDBRANCH  16  21
BRANCH  20  23
HETATM   23  O4  UNL     1      29.374  46.703  -1.576  1.00  0.00    -0.355 OA
HETATM   24  C22 UNL     1      28.372  46.635  -2.573  1.00  0.00     0.210 C 
ENDBRANCH  20  23
ENDBRANCH   9  11
ENDBRANCH   7   8
BRANCH   1  25
HETATM   25  C5  UNL     1      27.298  44.843   1.134  1.00  0.00     0.062 A 
HETATM   26  C4  UNL     1      26.994  45.938   1.908  1.00  0.00     0.034 A 
HETATM   27  C3  UNL     1      25.812  46.655   1.686  1.00  0.00     0.042 A 
HETATM   28  C2  UNL     1      24.943  46.273   0.690  1.00  0.00     0.101 A 
HETATM   29  C25 UNL     1      25.239  45.174  -0.094  1.00  0.00     0.103 A 
HETATM   30  C24 UNL     1      26.406  44.489   0.147  1.00  0.00     0.071 A 
BRANCH  28  31
HETATM   31  O1  UNL     1      23.752  46.982   0.454  1.00  0.00    -0.353 OA
HETATM   32  C1  UNL     1      22.647  46.719   1.318  1.00  0.00     0.210 C 
ENDBRANCH  28  31
BRANCH  29  33
HETATM   33  O5  UNL     1      24.333  44.822  -1.093  1.00  0.00    -0.353 OA
HETATM   34  C26 UNL     1      23.276  43.907  -0.876  1.00  0.00     0.210 C 
ENDBRANCH  29  33
ENDBRANCH   1  25
BRANCH   4  35
HETATM   35  C7  UNL     1      30.054  40.893   1.877  1.00  0.00     0.029 C 
HETATM   36  C8  UNL     1      30.540  40.315   0.567  1.00  0.00     0.016 C 
HETATM   37  C9  UNL     1      31.093  40.647   2.916  1.00  0.00     0.016 C 
ENDBRANCH   4  35
TORSDOF 8
ENDMDL
MODEL 5
REMARK VINA RESULT: -8.826827016      1.438      2.149
REMARK  8 active torsions:
REMARK  status: ('A' for Active; 'I' for Inactive)
REMARK    1  A    between atoms: O1_2  and  C2_3 
REMARK    2  A    between atoms: C5_6  and  N1_7 
REMARK    3  A    between atoms: C6_10  and  C7_11 
REMARK    4  A    between atoms: C12_16  and  N3_17 
REMARK       I    between atoms: N3_17  and  C13_18 
REMARK    5  A    between atoms: C13_18  and  C14_20 
REMARK    6  A    between atoms: C17_25  and  O3_26 
REMARK    7  A    between atoms: C21_30  and  O4_31 
REMARK    8  A    between atoms: C25_35  and  O5_36 
ROOT
HETATM    1  N1  UNL     1      28.713  43.930   1.382  1.00  0.00    -0.228 N 
HETATM    2  N2  UNL     1      28.663  42.723   1.888  1.00  0.00    -0.294 N 
ATOM      3  H2  UNL     1      27.806  42.255   2.179  1.00  0.00     0.187 HD
HETATM    4  C6  UNL     1      29.885  42.187   1.974  1.00  0.00     0.040 A 
HETATM    5  C10 UNL     1      30.729  43.134   1.488  1.00  0.00     0.023 A 
HETATM    6  C11 UNL     1      32.185  42.961   1.405  1.00  0.00     0.056 C 
HETATM    7  C12 UNL     1      30.016  44.279   1.092  1.00  0.00     0.212 A 
ENDROOT
BRANCH   7   8
HETATM    8  N3  UNL     1      30.380  45.300   0.621  1.00  0.00    -0.345 NA
HETATM    9  C13 UNL     1      30.546  46.493   0.071  1.00  0.00     0.330 C 
HETATM   10  O2  UNL     1      29.579  46.915  -0.673  1.00  0.00    -0.251 OA
BRANCH   9  11
HETATM   11  C14 UNL     1      31.761  47.289   0.291  1.00  0.00     0.077 A 
HETATM   12  C15 UNL     1      32.687  47.585  -0.705  1.00  0.00     0.107 A 
HETATM   13  N4  UNL     1      33.700  48.286  -0.182  1.00  0.00    -0.362 N 
HETATM   14  C16 UNL     1      33.455  48.453   1.125  1.00  0.00     0.080 A 
ATOM     15  H4  UNL     1      34.514  48.633  -0.688  1.00  0.00     0.165 HD
HETATM   16  C17 UNL     1      34.187  49.110   2.088  1.00  0.00     0.096 A 
HETATM   17  C23 UNL     1      32.229  47.826   1.434  1.00  0.00     0.045 A 
HETATM   18  C19 UNL     1      33.694  49.145   3.371  1.00  0.00     0.042 A 
HETATM   19  C20 UNL     1      32.498  48.539   3.685  1.00  0.00     0.040 A 
HETATM   20  C21 UNL     1      31.746  47.868   2.717  1.00  0.00     0.082 A 
BRANCH  16  21
HETATM   21  O3  UNL     1      35.396  49.713   1.732  1.00  0.00    -0.354 OA
HETATM   22  C18 UNL     1      36.665  49.206   2.023  1.00  0.00     0.210 C 
ENDBRANCH  16  21
BRANCH  20  23
HETATM   23  O4  UNL     1      30.541  47.274   3.089  1.00  0.00    -0.355 OA
HETATM   24  C22 UNL     1      30.516  46.335   4.147  1.00  0.00     0.210 C 
ENDBRANCH  20  23
ENDBRANCH   9  11
ENDBRANCH   7   8
BRANCH   1  25
HETATM   25  C5  UNL     1      27.569  44.739   1.184  1.00  0.00     0.062 A 
HETATM   26  C4  UNL     1      27.302  45.840   1.963  1.00  0.00     0.034 A 
HETATM   27  C3  UNL     1      26.151  46.605   1.736  1.00  0.00     0.042 A 
HETATM   28  C2  UNL     1      25.275  46.263   0.732  1.00  0.00     0.101 A 
HETATM   29  C25 UNL     1      25.534  45.158  -0.057  1.00  0.00     0.103 A 
HETATM   30  C24 UNL     1      26.671  44.426   0.188  1.00  0.00     0.071 A 
BRANCH  28  31
HETATM   31  O1  UNL     1      24.115  47.021   0.491  1.00  0.00    -0.353 OA
HETATM   32  C1  UNL     1      22.968  46.740   1.292  1.00  0.00     0.210 C 
ENDBRANCH  28  31
BRANCH  29  33
HETATM   33  O5  UNL     1      24.622  44.849  -1.065  1.00  0.00    -0.353 OA
HETATM   34  C26 UNL     1      23.503  44.012  -0.850  1.00  0.00     0.210 C 
ENDBRANCH  29  33
ENDBRANCH   1  25
BRANCH   4  35
HETATM   35  C7  UNL     1      30.171  40.836   2.505  1.00  0.00     0.029 C 
HETATM   36  C8  UNL     1      30.311  39.883   1.339  1.00  0.00     0.016 C 
HETATM   37  C9  UNL     1      31.399  40.741   3.343  1.00  0.00     0.016 C 
ENDBRANCH   4  35
TORSDOF 8
ENDMDL
