MODEL 1
REMARK VINA RESULT: -5.805807450      0.000      0.000
REMARK  3 active torsions:
REMARK  status: ('A' for Active; 'I' for Inactive)
REMARK    1  A    between atoms: S1_3  and  C2_4 
REMARK    2  A    between atoms: C2_4  and  N2_5 
REMARK    3  A    between atoms: N2_5  and  C3_7 
ROOT
HETATM    1  N1  UNL     1       9.151 -34.283 -32.194  1.00  0.00    -0.183 NA
HETATM    2  C1  UNL     1       8.339 -33.527 -32.527  1.00  0.00     0.147 C 
HETATM    3  S1  UNL     1       7.080 -32.369 -33.072  1.00  0.00     0.051 SA
ENDROOT
BRANCH   3   4
HETATM    4  C2  UNL     1       6.450 -31.382 -31.936  1.00  0.00     0.016 C 
BRANCH   4   5
HETATM    5  N2  UNL     1       5.889 -30.642 -31.068  1.00  0.00    -0.345 N 
ATOM      6  H2  UNL     1       5.722 -30.973 -30.118  1.00  0.00     0.170 HD
BRANCH   5   7
HETATM    7  C3  UNL     1       5.500 -29.322 -31.480  1.00  0.00     0.095 C 
HETATM    8  C4  UNL     1       6.327 -28.873 -32.688  1.00  0.00     0.031 C 
HETATM    9  C5  UNL     1       5.344 -28.690 -33.821  1.00  0.00    -0.012 C 
HETATM   10  C6  UNL     1       4.530 -27.445 -33.591  1.00  0.00     0.005 C 
HETATM   11  C9  UNL     1       4.303 -29.756 -33.432  1.00  0.00     0.011 C 
HETATM   12  C7  UNL     1       3.815 -27.777 -32.284  1.00  0.00     0.007 C 
HETATM   13  C8  UNL     1       4.100 -29.233 -32.000  1.00  0.00     0.009 C 
ENDBRANCH   5   7
ENDBRANCH   4   5
ENDBRANCH   3   4
TORSDOF 3
ENDMDL
MODEL 2
REMARK VINA RESULT: -5.769443932      1.365      1.365
REMARK  3 active torsions:
REMARK  status: ('A' for Active; 'I' for Inactive)
REMARK    1  A    between atoms: S1_3  and  C2_4 
REMARK    2  A    between atoms: C2_4  and  N2_5 
REMARK    3  A    between atoms: N2_5  and  C3_7 
ROOT
HETATM    1  N1  UNL     1       8.072 -31.672 -34.925  1.00  0.00    -0.183 NA
HETATM    2  C1  UNL     1       7.713 -31.895 -33.847  1.00  0.00     0.147 C 
HETATM    3  S1  UNL     1       7.172 -32.266 -32.176  1.00  0.00     0.051 SA
ENDROOT
BRANCH   3   4
HETATM    4  C2  UNL     1       6.278 -31.127 -31.424  1.00  0.00     0.016 C 
BRANCH   4   5
HETATM    5  N2  UNL     1       5.539 -30.297 -30.806  1.00  0.00    -0.345 N 
ATOM      6  H2  UNL     1       5.163 -30.507 -29.882  1.00  0.00     0.170 HD
BRANCH   5   7
HETATM    7  C3  UNL     1       5.256 -29.051 -31.464  1.00  0.00     0.095 C 
HETATM    8  C4  UNL     1       6.254 -28.806 -32.600  1.00  0.00     0.031 C 
HETATM    9  C5  UNL     1       5.439 -28.788 -33.872  1.00  0.00    -0.012 C 
HETATM   10  C6  UNL     1       4.646 -27.510 -33.949  1.00  0.00     0.005 C 
HETATM   11  C9  UNL     1       4.318 -29.765 -33.474  1.00  0.00     0.011 C 
HETATM   12  C7  UNL     1       3.751 -27.626 -32.718  1.00  0.00     0.007 C 
HETATM   13  C8  UNL     1       3.943 -29.024 -32.180  1.00  0.00     0.009 C 
ENDBRANCH   5   7
ENDBRANCH   4   5
ENDBRANCH   3   4
TORSDOF 3
ENDMDL
MODEL 3
REMARK VINA RESULT: -5.742787654      1.822      2.541
REMARK  3 active torsions:
REMARK  status: ('A' for Active; 'I' for Inactive)
REMARK    1  A    between atoms: S1_3  and  C2_4 
REMARK    2  A    between atoms: C2_4  and  N2_5 
REMARK    3  A    between atoms: N2_5  and  C3_7 
ROOT
HETATM    1  N1  UNL     1      11.045 -34.699 -34.472  1.00  0.00    -0.183 NA
HETATM    2  C1  UNL     1       9.904 -34.533 -34.362  1.00  0.00     0.147 C 
HETATM    3  S1  UNL     1       8.130 -34.301 -34.208  1.00  0.00     0.051 SA
ENDROOT
BRANCH   3   4
HETATM    4  C2  UNL     1       7.631 -33.083 -33.245  1.00  0.00     0.016 C 
BRANCH   4   5
HETATM    5  N2  UNL     1       7.316 -32.125 -32.471  1.00  0.00    -0.345 N 
ATOM      6  H2  UNL     1       7.847 -31.932 -31.622  1.00  0.00     0.170 HD
BRANCH   5   7
HETATM    7  C3  UNL     1       6.180 -31.325 -32.842  1.00  0.00     0.095 C 
HETATM    8  C4  UNL     1       5.981 -30.183 -31.841  1.00  0.00     0.031 C 
HETATM    9  C5  UNL     1       6.175 -28.906 -32.625  1.00  0.00    -0.012 C 
HETATM   10  C6  UNL     1       4.986 -28.674 -33.520  1.00  0.00     0.005 C 
HETATM   11  C9  UNL     1       7.193 -29.398 -33.671  1.00  0.00     0.011 C 
HETATM   12  C7  UNL     1       5.037 -29.897 -34.430  1.00  0.00     0.007 C 
HETATM   13  C8  UNL     1       6.345 -30.594 -34.135  1.00  0.00     0.009 C 
ENDBRANCH   5   7
ENDBRANCH   4   5
ENDBRANCH   3   4
TORSDOF 3
ENDMDL
MODEL 4
REMARK VINA RESULT: -5.600493022      1.864      2.517
REMARK  3 active torsions:
REMARK  status: ('A' for Active; 'I' for Inactive)
REMARK    1  A    between atoms: S1_3  and  C2_4 
REMARK    2  A    between atoms: C2_4  and  N2_5 
REMARK    3  A    between atoms: N2_5  and  C3_7 
ROOT
HETATM    1  N1  UNL     1       9.245 -34.441 -32.280  1.00  0.00    -0.183 NA
HETATM    2  C1  UNL     1       8.600 -34.155 -33.198  1.00  0.00     0.147 C 
HETATM    3  S1  UNL     1       7.594 -33.742 -34.627  1.00  0.00     0.051 SA
ENDROOT
BRANCH   3   4
HETATM    4  C2  UNL     1       7.296 -32.158 -34.881  1.00  0.00     0.016 C 
BRANCH   4   5
HETATM    5  N2  UNL     1       7.138 -30.915 -35.097  1.00  0.00    -0.345 N 
ATOM      6  H2  UNL     1       7.873 -30.354 -35.528  1.00  0.00     0.170 HD
BRANCH   5   7
HETATM    7  C3  UNL     1       5.883 -30.333 -34.708  1.00  0.00     0.095 C 
HETATM    8  C4  UNL     1       5.419 -30.909 -33.367  1.00  0.00     0.031 C 
HETATM    9  C5  UNL     1       5.387 -29.745 -32.404  1.00  0.00    -0.012 C 
HETATM   10  C6  UNL     1       4.215 -28.855 -32.721  1.00  0.00     0.005 C 
HETATM   11  C9  UNL     1       6.526 -28.892 -32.994  1.00  0.00     0.011 C 
HETATM   12  C7  UNL     1       4.547 -28.394 -34.138  1.00  0.00     0.007 C 
HETATM   13  C8  UNL     1       5.954 -28.867 -34.421  1.00  0.00     0.009 C 
ENDBRANCH   5   7
ENDBRANCH   4   5
ENDBRANCH   3   4
TORSDOF 3
ENDMDL
MODEL 5
REMARK VINA RESULT: -5.600420029      2.308      2.879
REMARK  3 active torsions:
REMARK  status: ('A' for Active; 'I' for Inactive)
REMARK    1  A    between atoms: S1_3  and  C2_4 
REMARK    2  A    between atoms: C2_4  and  N2_5 
REMARK    3  A    between atoms: N2_5  and  C3_7 
ROOT
HETATM    1  N1  UNL     1      11.060 -34.690 -34.447  1.00  0.00    -0.183 NA
HETATM    2  C1  UNL     1      10.000 -34.376 -34.789  1.00  0.00     0.147 C 
HETATM    3  S1  UNL     1       8.348 -33.919 -35.325  1.00  0.00     0.051 SA
ENDROOT
BRANCH   3   4
HETATM    4  C2  UNL     1       7.918 -32.358 -35.127  1.00  0.00     0.016 C 
BRANCH   4   5
HETATM    5  N2  UNL     1       7.542 -31.147 -35.040  1.00  0.00    -0.345 N 
ATOM      6  H2  UNL     1       7.426 -30.566 -35.870  1.00  0.00     0.170 HD
BRANCH   5   7
HETATM    7  C3  UNL     1       7.289 -30.630 -33.723  1.00  0.00     0.095 C 
HETATM    8  C4  UNL     1       7.086 -29.113 -33.774  1.00  0.00     0.031 C 
HETATM    9  C5  UNL     1       5.668 -28.867 -33.315  1.00  0.00    -0.012 C 
HETATM   10  C6  UNL     1       5.569 -29.089 -31.829  1.00  0.00     0.005 C 
HETATM   11  C9  UNL     1       5.007 -30.165 -33.815  1.00  0.00     0.011 C 
HETATM   12  C7  UNL     1       5.944 -30.564 -31.708  1.00  0.00     0.007 C 
HETATM   13  C8  UNL     1       6.006 -31.104 -33.118  1.00  0.00     0.009 C 
ENDBRANCH   5   7
ENDBRANCH   4   5
ENDBRANCH   3   4
TORSDOF 3
ENDMDL
