MODEL 1
REMARK VINA RESULT: -8.641751999      0.000      0.000
REMARK  8 active torsions:
REMARK  status: ('A' for Active; 'I' for Inactive)
REMARK    1  A    between atoms: C2_2  and  O1_4 
REMARK    2  A    between atoms: O1_4  and  C4_5 
REMARK    3  A    between atoms: C4_5  and  C5_6 
REMARK    4  A    between atoms: C13_16  and  C14_17 
REMARK    5  A    between atoms: C14_17  and  O4_18 
REMARK    6  A    between atoms: C16_22  and  C17_23 
REMARK    7  A    between atoms: C17_23  and  O6_25 
REMARK    8  A    between atoms: C17_23  and  C19_27 
ROOT
HETATM    1  C5  UNL     1      15.256   8.514  -1.333  1.00  0.00     0.011 C 
HETATM    2  C6  UNL     1      14.439   8.614  -0.040  1.00  0.00     0.013 C 
HETATM    3  C7  UNL     1      15.391   9.433   0.786  1.00  0.00     0.011 C 
HETATM    4  C8  UNL     1      15.696  10.547  -0.167  1.00  0.00     0.029 C 
HETATM    5  C9  UNL     1      14.569  11.313  -0.737  1.00  0.00     0.024 C 
HETATM    6  C10 UNL     1      16.237   9.680  -1.318  1.00  0.00     0.024 C 
HETATM    7  C11 UNL     1      16.692  11.399   0.464  1.00  0.00     0.204 C 
HETATM    8  O2  UNL     1      17.631  11.895  -0.193  1.00  0.00    -0.288 OA
HETATM    9  C12 UNL     1      16.579  11.670   1.885  1.00  0.00     0.209 C 
HETATM   10  O3  UNL     1      16.863  12.783   2.383  1.00  0.00    -0.288 OA
HETATM   11  C13 UNL     1      16.104  10.574   2.801  1.00  0.00     0.078 C 
HETATM   12  C15 UNL     1      15.583  11.237   4.086  1.00  0.00     0.189 C 
HETATM   13  O5  UNL     1      15.567  10.485   5.177  1.00  0.00    -0.382 OA
HETATM   14  C16 UNL     1      14.991   9.302   5.336  1.00  0.00     0.155 C 
HETATM   15  C22 UNL     1      14.140   8.710   4.276  1.00  0.00     0.036 C 
HETATM   16  C23 UNL     1      14.710   8.537   2.928  1.00  0.00     0.013 C 
HETATM   17  C24 UNL     1      15.010   9.784   2.148  1.00  0.00    -0.020 C 
HETATM   18  C25 UNL     1      13.714  10.584   2.141  1.00  0.00     0.017 C 
ENDROOT
BRANCH  14  19
HETATM   19  C17 UNL     1      14.075   9.395   6.580  1.00  0.00     0.083 C 
HETATM   20  C18 UNL     1      14.131  10.748   7.188  1.00  0.00     0.049 C 
BRANCH  19  21
HETATM   21  O6  UNL     1      12.774   9.211   6.059  1.00  0.00    -0.387 OA
ATOM     22  H6  UNL     1      12.773   8.310   5.758  1.00  0.00     0.210 HD
ENDBRANCH  19  21
BRANCH  19  23
HETATM   23  C19 UNL     1      14.323   8.262   7.522  1.00  0.00     0.014 C 
HETATM   24  C20 UNL     1      15.820   8.124   7.685  1.00  0.00     0.012 C 
HETATM   25  C21 UNL     1      13.770   6.951   7.092  1.00  0.00     0.012 C 
ENDBRANCH  19  23
ENDBRANCH  14  19
BRANCH  11  26
HETATM   26  C14 UNL     1      17.326   9.839   3.205  1.00  0.00     0.184 C 
BRANCH  26  27
HETATM   27  O4  UNL     1      18.414  10.606   3.593  1.00  0.00    -0.400 OA
ATOM     28  H4  UNL     1      19.245  10.411   3.174  1.00  0.00     0.209 HD
ENDBRANCH  26  27
ENDBRANCH  11  26
BRANCH   1  29
HETATM   29  C4  UNL     1      14.309   8.538  -2.477  1.00  0.00     0.172 C 
BRANCH  29  30
HETATM   30  O1  UNL     1      14.909   8.867  -3.686  1.00  0.00    -0.386 OA
BRANCH  30  31
HETATM   31  C2  UNL     1      14.034   9.496  -4.533  1.00  0.00     0.113 C 
HETATM   32  C1  UNL     1      14.748  10.712  -5.107  1.00  0.00     0.039 C 
HETATM   33  C3  UNL     1      12.777   9.974  -3.874  1.00  0.00     0.039 C 
ENDBRANCH  30  31
ENDBRANCH  29  30
ENDBRANCH   1  29
TORSDOF 8
ENDMDL
MODEL 2
REMARK VINA RESULT: -8.148511036      2.427      7.458
REMARK  8 active torsions:
REMARK  status: ('A' for Active; 'I' for Inactive)
REMARK    1  A    between atoms: C2_2  and  O1_4 
REMARK    2  A    between atoms: O1_4  and  C4_5 
REMARK    3  A    between atoms: C4_5  and  C5_6 
REMARK    4  A    between atoms: C13_16  and  C14_17 
REMARK    5  A    between atoms: C14_17  and  O4_18 
REMARK    6  A    between atoms: C16_22  and  C17_23 
REMARK    7  A    between atoms: C17_23  and  O6_25 
REMARK    8  A    between atoms: C17_23  and  C19_27 
ROOT
HETATM    1  C5  UNL     1      19.066   9.592   3.089  1.00  0.00     0.011 C 
HETATM    2  C6  UNL     1      18.378  10.229   1.877  1.00  0.00     0.013 C 
HETATM    3  C7  UNL     1      17.016   9.610   2.017  1.00  0.00     0.011 C 
HETATM    4  C8  UNL     1      16.730   9.895   3.459  1.00  0.00     0.029 C 
HETATM    5  C9  UNL     1      16.816  11.293   3.931  1.00  0.00     0.024 C 
HETATM    6  C10 UNL     1      17.957   9.178   4.049  1.00  0.00     0.024 C 
HETATM    7  C11 UNL     1      15.456   9.271   3.782  1.00  0.00     0.204 C 
HETATM    8  O2  UNL     1      15.274   8.696   4.875  1.00  0.00    -0.288 OA
HETATM    9  C12 UNL     1      14.385   9.326   2.804  1.00  0.00     0.209 C 
HETATM   10  O3  UNL     1      13.183   9.469   3.129  1.00  0.00    -0.288 OA
HETATM   11  C13 UNL     1      14.724   9.207   1.343  1.00  0.00     0.078 C 
HETATM   12  C15 UNL     1      13.555   9.808   0.545  1.00  0.00     0.189 C 
HETATM   13  O5  UNL     1      13.417   9.394  -0.706  1.00  0.00    -0.382 OA
HETATM   14  C16 UNL     1      14.325   9.415  -1.671  1.00  0.00     0.155 C 
HETATM   15  C22 UNL     1      15.645  10.061  -1.473  1.00  0.00     0.036 C 
HETATM   16  C23 UNL     1      16.483   9.623  -0.343  1.00  0.00     0.013 C 
HETATM   17  C24 UNL     1      15.991   9.948   1.039  1.00  0.00    -0.020 C 
HETATM   18  C25 UNL     1      15.738  11.450   1.040  1.00  0.00     0.017 C 
ENDROOT
BRANCH  14  19
HETATM   19  C17 UNL     1      13.698  10.144  -2.883  1.00  0.00     0.083 C 
HETATM   20  C18 UNL     1      12.304  10.565  -2.595  1.00  0.00     0.049 C 
BRANCH  19  21
HETATM   21  O6  UNL     1      14.482  11.313  -3.019  1.00  0.00    -0.387 OA
ATOM     22  H6  UNL     1      14.974  11.168  -3.818  1.00  0.00     0.210 HD
ENDBRANCH  19  21
BRANCH  19  23
HETATM   23  C19 UNL     1      13.880   9.360  -4.142  1.00  0.00     0.014 C 
HETATM   24  C20 UNL     1      14.757  10.178  -5.065  1.00  0.00     0.012 C 
HETATM   25  C21 UNL     1      12.624   9.021  -4.861  1.00  0.00     0.012 C 
ENDBRANCH  19  23
ENDBRANCH  14  19
BRANCH  11  26
HETATM   26  C14 UNL     1      14.696   7.756   1.048  1.00  0.00     0.184 C 
BRANCH  26  27
HETATM   27  O4  UNL     1      13.462   7.128   1.121  1.00  0.00    -0.400 OA
ATOM     28  H4  UNL     1      12.841   7.325   0.429  1.00  0.00     0.209 HD
ENDBRANCH  26  27
ENDBRANCH  11  26
BRANCH   1  29
HETATM   29  C4  UNL     1      20.013  10.586   3.655  1.00  0.00     0.172 C 
BRANCH  29  30
HETATM   30  O1  UNL     1      20.646  11.361   2.691  1.00  0.00    -0.386 OA
BRANCH  30  31
HETATM   31  C2  UNL     1      21.997  11.130   2.661  1.00  0.00     0.113 C 
HETATM   32  C1  UNL     1      22.277  10.207   1.482  1.00  0.00     0.039 C 
HETATM   33  C3  UNL     1      22.536  10.472   3.893  1.00  0.00     0.039 C 
ENDBRANCH  30  31
ENDBRANCH  29  30
ENDBRANCH   1  29
TORSDOF 8
ENDMDL
MODEL 3
REMARK VINA RESULT: -8.078247640      1.278      1.651
REMARK  8 active torsions:
REMARK  status: ('A' for Active; 'I' for Inactive)
REMARK    1  A    between atoms: C2_2  and  O1_4 
REMARK    2  A    between atoms: O1_4  and  C4_5 
REMARK    3  A    between atoms: C4_5  and  C5_6 
REMARK    4  A    between atoms: C13_16  and  C14_17 
REMARK    5  A    between atoms: C14_17  and  O4_18 
REMARK    6  A    between atoms: C16_22  and  C17_23 
REMARK    7  A    between atoms: C17_23  and  O6_25 
REMARK    8  A    between atoms: C17_23  and  C19_27 
ROOT
HETATM    1  C5  UNL     1      14.711   8.986  -0.613  1.00  0.00     0.011 C 
HETATM    2  C6  UNL     1      14.114   9.363   0.748  1.00  0.00     0.013 C 
HETATM    3  C7  UNL     1      15.380   9.456   1.552  1.00  0.00     0.011 C 
HETATM    4  C8  UNL     1      16.206  10.335   0.665  1.00  0.00     0.029 C 
HETATM    5  C9  UNL     1      15.650  11.640   0.250  1.00  0.00     0.024 C 
HETATM    6  C10 UNL     1      16.164   9.444  -0.590  1.00  0.00     0.024 C 
HETATM    7  C11 UNL     1      17.522  10.454   1.274  1.00  0.00     0.204 C 
HETATM    8  O2  UNL     1      18.561  10.444   0.581  1.00  0.00    -0.288 OA
HETATM    9  C12 UNL     1      17.614  10.586   2.716  1.00  0.00     0.209 C 
HETATM   10  O3  UNL     1      18.465  11.318   3.273  1.00  0.00    -0.288 OA
HETATM   11  C13 UNL     1      16.652   9.818   3.582  1.00  0.00     0.078 C 
HETATM   12  C15 UNL     1      16.606  10.511   4.953  1.00  0.00     0.189 C 
HETATM   13  O5  UNL     1      16.221   9.768   5.980  1.00  0.00    -0.382 OA
HETATM   14  C16 UNL     1      15.105   9.062   6.096  1.00  0.00     0.155 C 
HETATM   15  C22 UNL     1      14.039   9.131   5.068  1.00  0.00     0.036 C 
HETATM   16  C23 UNL     1      14.388   8.830   3.668  1.00  0.00     0.013 C 
HETATM   17  C24 UNL     1      15.287   9.805   2.963  1.00  0.00    -0.020 C 
HETATM   18  C25 UNL     1      14.622  11.166   3.125  1.00  0.00     0.017 C 
ENDROOT
BRANCH  14  19
HETATM   19  C17 UNL     1      14.419   9.490   7.415  1.00  0.00     0.083 C 
HETATM   20  C18 UNL     1      13.890  10.874   7.321  1.00  0.00     0.049 C 
BRANCH  19  21
HETATM   21  O6  UNL     1      13.315   8.614   7.525  1.00  0.00    -0.387 OA
ATOM     22  H6  UNL     1      13.123   8.603   8.455  1.00  0.00     0.210 HD
ENDBRANCH  19  21
BRANCH  19  23
HETATM   23  C19 UNL     1      15.296   9.222   8.595  1.00  0.00     0.014 C 
HETATM   24  C20 UNL     1      14.870   7.897   9.186  1.00  0.00     0.012 C 
HETATM   25  C21 UNL     1      15.248  10.254   9.664  1.00  0.00     0.012 C 
ENDBRANCH  19  23
ENDBRANCH  14  19
BRANCH  11  26
HETATM   26  C14 UNL     1      17.301   8.508   3.826  1.00  0.00     0.184 C 
BRANCH  26  27
HETATM   27  O4  UNL     1      18.471   8.521   4.570  1.00  0.00    -0.400 OA
ATOM     28  H4  UNL     1      19.213   8.052   4.207  1.00  0.00     0.209 HD
ENDBRANCH  26  27
ENDBRANCH  11  26
BRANCH   1  29
HETATM   29  C4  UNL     1      13.892   9.634  -1.669  1.00  0.00     0.172 C 
BRANCH  29  30
HETATM   30  O1  UNL     1      14.219   9.223  -2.955  1.00  0.00    -0.386 OA
BRANCH  30  31
HETATM   31  C2  UNL     1      13.844  10.146  -3.895  1.00  0.00     0.113 C 
HETATM   32  C1  UNL     1      12.586   9.624  -4.575  1.00  0.00     0.039 C 
HETATM   33  C3  UNL     1      14.869  10.393  -4.958  1.00  0.00     0.039 C 
ENDBRANCH  30  31
ENDBRANCH  29  30
ENDBRANCH   1  29
TORSDOF 8
ENDMDL
MODEL 4
REMARK VINA RESULT: -8.056613539      2.782      5.380
REMARK  8 active torsions:
REMARK  status: ('A' for Active; 'I' for Inactive)
REMARK    1  A    between atoms: C2_2  and  O1_4 
REMARK    2  A    between atoms: O1_4  and  C4_5 
REMARK    3  A    between atoms: C4_5  and  C5_6 
REMARK    4  A    between atoms: C13_16  and  C14_17 
REMARK    5  A    between atoms: C14_17  and  O4_18 
REMARK    6  A    between atoms: C16_22  and  C17_23 
REMARK    7  A    between atoms: C17_23  and  O6_25 
REMARK    8  A    between atoms: C17_23  and  C19_27 
ROOT
HETATM    1  C5  UNL     1      13.714  11.187  -1.758  1.00  0.00     0.011 C 
HETATM    2  C6  UNL     1      15.130  10.600  -1.719  1.00  0.00     0.013 C 
HETATM    3  C7  UNL     1      15.487  10.923  -0.295  1.00  0.00     0.011 C 
HETATM    4  C8  UNL     1      14.282  10.395   0.419  1.00  0.00     0.029 C 
HETATM    5  C9  UNL     1      13.888   8.989   0.193  1.00  0.00     0.024 C 
HETATM    6  C10 UNL     1      13.229  11.247  -0.314  1.00  0.00     0.024 C 
HETATM    7  C11 UNL     1      14.436  10.714   1.830  1.00  0.00     0.204 C 
HETATM    8  O2  UNL     1      13.466  11.091   2.520  1.00  0.00    -0.288 OA
HETATM    9  C12 UNL     1      15.750  10.589   2.433  1.00  0.00     0.209 C 
HETATM   10  O3  UNL     1      15.917  10.177   3.604  1.00  0.00    -0.288 OA
HETATM   11  C13 UNL     1      16.963  10.968   1.626  1.00  0.00     0.078 C 
HETATM   12  C15 UNL     1      18.177  10.269   2.258  1.00  0.00     0.189 C 
HETATM   13  O5  UNL     1      19.363  10.815   2.026  1.00  0.00    -0.382 OA
HETATM   14  C16 UNL     1      19.907  11.099   0.852  1.00  0.00     0.155 C 
HETATM   15  C22 UNL     1      19.255  10.696  -0.418  1.00  0.00     0.036 C 
HETATM   16  C23 UNL     1      17.869  11.128  -0.668  1.00  0.00     0.013 C 
HETATM   17  C24 UNL     1      16.800  10.531   0.202  1.00  0.00    -0.020 C 
HETATM   18  C25 UNL     1      16.976   9.022   0.088  1.00  0.00     0.017 C 
ENDROOT
BRANCH  14  19
HETATM   19  C17 UNL     1      21.304  10.435   0.814  1.00  0.00     0.083 C 
HETATM   20  C18 UNL     1      21.334   9.299  -0.141  1.00  0.00     0.049 C 
BRANCH  19  21
HETATM   21  O6  UNL     1      22.149  11.447   0.305  1.00  0.00    -0.387 OA
ATOM     22  H6  UNL     1      22.476  11.085  -0.510  1.00  0.00     0.210 HD
ENDBRANCH  19  21
BRANCH  19  23
HETATM   23  C19 UNL     1      21.794  10.122   2.191  1.00  0.00     0.014 C 
HETATM   24  C20 UNL     1      22.623  11.298   2.657  1.00  0.00     0.012 C 
HETATM   25  C21 UNL     1      22.617   8.890   2.303  1.00  0.00     0.012 C 
ENDBRANCH  19  23
ENDBRANCH  14  19
BRANCH  11  26
HETATM   26  C14 UNL     1      17.168  12.414   1.876  1.00  0.00     0.184 C 
BRANCH  26  27
HETATM   27  O4  UNL     1      17.346  12.799   3.196  1.00  0.00    -0.400 OA
ATOM     28  H4  UNL     1      16.821  13.530   3.502  1.00  0.00     0.209 HD
ENDBRANCH  26  27
ENDBRANCH  11  26
BRANCH   1  29
HETATM   29  C4  UNL     1      12.884  10.324  -2.636  1.00  0.00     0.172 C 
BRANCH  29  30
HETATM   30  O1  UNL     1      13.616   9.363  -3.323  1.00  0.00    -0.386 OA
BRANCH  30  31
HETATM   31  C2  UNL     1      13.330   9.367  -4.663  1.00  0.00     0.113 C 
HETATM   32  C1  UNL     1      14.233  10.402  -5.321  1.00  0.00     0.039 C 
HETATM   33  C3  UNL     1      11.913   9.726  -4.988  1.00  0.00     0.039 C 
ENDBRANCH  30  31
ENDBRANCH  29  30
ENDBRANCH   1  29
TORSDOF 8
ENDMDL
MODEL 5
REMARK VINA RESULT: -7.916603926      2.538      4.520
REMARK  8 active torsions:
REMARK  status: ('A' for Active; 'I' for Inactive)
REMARK    1  A    between atoms: C2_2  and  O1_4 
REMARK    2  A    between atoms: O1_4  and  C4_5 
REMARK    3  A    between atoms: C4_5  and  C5_6 
REMARK    4  A    between atoms: C13_16  and  C14_17 
REMARK    5  A    between atoms: C14_17  and  O4_18 
REMARK    6  A    between atoms: C16_22  and  C17_23 
REMARK    7  A    between atoms: C17_23  and  O6_25 
REMARK    8  A    between atoms: C17_23  and  C19_27 
ROOT
HETATM    1  C5  UNL     1      18.918  11.485   0.744  1.00  0.00     0.011 C 
HETATM    2  C6  UNL     1      18.592  10.493   1.866  1.00  0.00     0.013 C 
HETATM    3  C7  UNL     1      17.113  10.733   1.980  1.00  0.00     0.011 C 
HETATM    4  C8  UNL     1      16.703  10.622   0.545  1.00  0.00     0.029 C 
HETATM    5  C9  UNL     1      17.067   9.399  -0.199  1.00  0.00     0.024 C 
HETATM    6  C10 UNL     1      17.615  11.734  -0.007  1.00  0.00     0.024 C 
HETATM    7  C11 UNL     1      15.281  10.921   0.473  1.00  0.00     0.204 C 
HETATM    8  O2  UNL     1      14.806  11.597  -0.463  1.00  0.00    -0.288 OA
HETATM    9  C12 UNL     1      14.409  10.416   1.517  1.00  0.00     0.209 C 
HETATM   10  O3  UNL     1      13.248  10.007   1.287  1.00  0.00    -0.288 OA
HETATM   11  C13 UNL     1      14.914  10.380   2.935  1.00  0.00     0.078 C 
HETATM   12  C15 UNL     1      14.059   9.361   3.706  1.00  0.00     0.189 C 
HETATM   13  O5  UNL     1      14.003   9.510   5.022  1.00  0.00    -0.382 OA
HETATM   14  C16 UNL     1      15.016   9.578   5.873  1.00  0.00     0.155 C 
HETATM   15  C22 UNL     1      16.413   9.357   5.428  1.00  0.00     0.036 C 
HETATM   16  C23 UNL     1      16.944  10.186   4.332  1.00  0.00     0.013 C 
HETATM   17  C24 UNL     1      16.356   9.973   2.966  1.00  0.00    -0.020 C 
HETATM   18  C25 UNL     1      16.489   8.480   2.693  1.00  0.00     0.017 C 
ENDROOT
BRANCH  14  19
HETATM   19  C17 UNL     1      14.772   8.516   6.972  1.00  0.00     0.083 C 
HETATM   20  C18 UNL     1      13.689   7.579   6.582  1.00  0.00     0.049 C 
BRANCH  19  21
HETATM   21  O6  UNL     1      15.981   7.785   7.012  1.00  0.00    -0.387 OA
ATOM     22  H6  UNL     1      16.458   8.169   7.739  1.00  0.00     0.210 HD
ENDBRANCH  19  21
BRANCH  19  23
HETATM   23  C19 UNL     1      14.613   9.151   8.315  1.00  0.00     0.014 C 
HETATM   24  C20 UNL     1      14.795   8.068   9.355  1.00  0.00     0.012 C 
HETATM   25  C21 UNL     1      13.304   9.815   8.547  1.00  0.00     0.012 C 
ENDBRANCH  19  23
ENDBRANCH  14  19
BRANCH  11  26
HETATM   26  C14 UNL     1      14.567  11.700   3.512  1.00  0.00     0.184 C 
BRANCH  26  27
HETATM   27  O4  UNL     1      13.276  12.156   3.294  1.00  0.00    -0.400 OA
ATOM     28  H4  UNL     1      13.158  13.097   3.240  1.00  0.00     0.209 HD
ENDBRANCH  26  27
ENDBRANCH  11  26
BRANCH   1  29
HETATM   29  C4  UNL     1      19.992  10.893  -0.094  1.00  0.00     0.172 C 
BRANCH  29  30
HETATM   30  O1  UNL     1      21.271  11.277   0.289  1.00  0.00    -0.386 OA
BRANCH  30  31
HETATM   31  C2  UNL     1      22.070  10.196   0.549  1.00  0.00     0.113 C 
HETATM   32  C1  UNL     1      21.406   8.975  -0.072  1.00  0.00     0.039 C 
HETATM   33  C3  UNL     1      22.270   9.914   2.006  1.00  0.00     0.039 C 
ENDBRANCH  30  31
ENDBRANCH  29  30
ENDBRANCH   1  29
TORSDOF 8
ENDMDL
