MODEL 1
REMARK VINA RESULT: -9.004987316      0.000      0.000
REMARK  6 active torsions:
REMARK  status: ('A' for Active; 'I' for Inactive)
REMARK    1  A    between atoms: C7_8  and  N2_9 
REMARK    2  A    between atoms: N2_9  and  C8_11 
REMARK    3  A    between atoms: C18_25  and  C19_26 
REMARK    4  A    between atoms: C19_26  and  N4_27 
REMARK    5  A    between atoms: N4_27  and  C21_29 
REMARK    6  A    between atoms: C21_29  and  C22_30 
ROOT
HETATM    1  C1  UNL     1      12.314   9.470   2.491  1.00  0.00     0.148 C 
HETATM    2  N1  UNL     1      13.607   9.381   3.091  1.00  0.00    -0.391 N 
HETATM    3  C2  UNL     1      13.649   9.000   4.430  1.00  0.00     0.099 C 
HETATM    4  C3  UNL     1      15.002   8.869   4.985  1.00  0.00     0.015 A 
HETATM    5  C4  UNL     1      14.870   8.453   6.320  1.00  0.00     0.016 A 
HETATM    6  C5  UNL     1      15.977   8.251   7.075  1.00  0.00     0.003 A 
HETATM    7  C6  UNL     1      17.221   8.462   6.510  1.00  0.00     0.032 A 
HETATM    8  C7  UNL     1      17.376   8.867   5.211  1.00  0.00     0.063 A 
HETATM    9  C17 UNL     1      16.242   9.084   4.404  1.00  0.00     0.107 A 
HETATM   10  O1  UNL     1      16.643   9.482   3.148  1.00  0.00    -0.336 OA
HETATM   11  C18 UNL     1      15.767   9.823   2.047  1.00  0.00     0.185 C 
HETATM   12  C26 UNL     1      14.535  10.383   2.637  1.00  0.00     0.159 C 
ENDROOT
BRANCH   8  13
HETATM   13  N2  UNL     1      18.652   9.098   4.623  1.00  0.00    -0.383 N 
ATOM     14  H2  UNL     1      18.836   9.964   4.117  1.00  0.00     0.160 HD
BRANCH  13  15
HETATM   15  C8  UNL     1      19.669   8.108   4.748  1.00  0.00     0.082 C 
HETATM   16  C9  UNL     1      20.945   8.498   3.990  1.00  0.00     0.025 C 
HETATM   17  C10 UNL     1      22.009   7.533   4.378  1.00  0.00     0.009 C 
HETATM   18  C11 UNL     1      21.639   6.099   4.427  1.00  0.00     0.015 C 
HETATM   19  C12 UNL     1      22.224   5.327   3.255  1.00  0.00     0.237 C 
HETATM   20  C15 UNL     1      20.211   5.762   4.645  1.00  0.00    -0.005 C 
HETATM   21  N3  UNL     1      22.280   3.938   3.624  1.00  0.00    -0.075 N 
HETATM   22  C13 UNL     1      21.093   3.472   4.271  1.00  0.00     0.232 C 
ATOM     23  H32 UNL     1      22.502   3.358   2.815  1.00  0.00     0.277 HD
ATOM     24  H31 UNL     1      23.102   3.751   4.198  1.00  0.00     0.277 HD
HETATM   25  C14 UNL     1      19.939   4.418   3.958  1.00  0.00     0.032 C 
HETATM   26  C16 UNL     1      19.268   6.783   4.082  1.00  0.00     0.030 C 
ENDBRANCH  13  15
ENDBRANCH   8  13
BRANCH  11  27
HETATM   27  C19 UNL     1      16.502  10.721   1.101  1.00  0.00     0.091 C 
BRANCH  27  28
HETATM   28  N4  UNL     1      16.827  10.226  -0.145  1.00  0.00    -0.393 N 
HETATM   29  C20 UNL     1      18.092  10.222  -0.714  1.00  0.00     0.148 C 
BRANCH  28  30
HETATM   30  C21 UNL     1      15.824   9.446  -0.821  1.00  0.00     0.153 C 
BRANCH  30  31
HETATM   31  C22 UNL     1      14.864  10.270  -1.629  1.00  0.00     0.139 C 
HETATM   32  C23 UNL     1      13.454  10.212  -1.083  1.00  0.00     0.035 C 
HETATM   33  C24 UNL     1      12.655  10.604  -2.325  1.00  0.00     0.029 C 
HETATM   34  C25 UNL     1      13.539  10.073  -3.420  1.00  0.00     0.168 C 
HETATM   35  O2  UNL     1      14.715   9.648  -2.863  1.00  0.00    -0.384 OA
ENDBRANCH  30  31
ENDBRANCH  28  30
ENDBRANCH  27  28
ENDBRANCH  11  27
TORSDOF 6
ENDMDL
MODEL 2
REMARK VINA RESULT: -8.852130572      1.907      7.915
REMARK  6 active torsions:
REMARK  status: ('A' for Active; 'I' for Inactive)
REMARK    1  A    between atoms: C7_8  and  N2_9 
REMARK    2  A    between atoms: N2_9  and  C8_11 
REMARK    3  A    between atoms: C18_25  and  C19_26 
REMARK    4  A    between atoms: C19_26  and  N4_27 
REMARK    5  A    between atoms: N4_27  and  C21_29 
REMARK    6  A    between atoms: C21_29  and  C22_30 
ROOT
HETATM    1  C1  UNL     1      17.468   8.280   7.037  1.00  0.00     0.148 C 
HETATM    2  N1  UNL     1      16.961   8.735   5.783  1.00  0.00    -0.391 N 
HETATM    3  C2  UNL     1      15.582   8.659   5.600  1.00  0.00     0.099 C 
HETATM    4  C3  UNL     1      15.106   9.190   4.317  1.00  0.00     0.015 A 
HETATM    5  C4  UNL     1      13.707   9.067   4.305  1.00  0.00     0.016 A 
HETATM    6  C5  UNL     1      13.003   9.487   3.226  1.00  0.00     0.003 A 
HETATM    7  C6  UNL     1      13.683  10.032   2.153  1.00  0.00     0.032 A 
HETATM    8  C7  UNL     1      15.047  10.163   2.140  1.00  0.00     0.063 A 
HETATM    9  C17 UNL     1      15.803   9.733   3.249  1.00  0.00     0.107 A 
HETATM   10  O1  UNL     1      17.139   9.964   3.009  1.00  0.00    -0.336 OA
HETATM   11  C18 UNL     1      18.230   9.635   3.903  1.00  0.00     0.185 C 
HETATM   12  C26 UNL     1      17.815   8.439   4.662  1.00  0.00     0.159 C 
ENDROOT
BRANCH   8  13
HETATM   13  N2  UNL     1      15.758  10.710   1.035  1.00  0.00    -0.383 N 
ATOM     14  H2  UNL     1      16.410  11.482   1.174  1.00  0.00     0.160 HD
BRANCH  13  15
HETATM   15  C8  UNL     1      15.552  10.169  -0.266  1.00  0.00     0.082 C 
HETATM   16  C9  UNL     1      16.712  10.498  -1.215  1.00  0.00     0.025 C 
HETATM   17  C10 UNL     1      16.519   9.697  -2.454  1.00  0.00     0.009 C 
HETATM   18  C11 UNL     1      15.151   9.642  -3.020  1.00  0.00     0.015 C 
HETATM   19  C12 UNL     1      15.031  10.483  -4.282  1.00  0.00     0.237 C 
HETATM   20  C15 UNL     1      14.013   9.876  -2.098  1.00  0.00    -0.005 C 
HETATM   21  N3  UNL     1      13.908   9.992  -5.034  1.00  0.00    -0.075 N 
HETATM   22  C13 UNL     1      12.754   9.732  -4.232  1.00  0.00     0.232 C 
ATOM     23  H32 UNL     1      13.681  10.628  -5.799  1.00  0.00     0.277 HD
ATOM     24  H31 UNL     1      14.169   9.166  -5.572  1.00  0.00     0.277 HD
HETATM   25  C14 UNL     1      12.869  10.491  -2.915  1.00  0.00     0.032 C 
HETATM   26  C16 UNL     1      14.345  10.807  -0.970  1.00  0.00     0.030 C 
ENDBRANCH  13  15
ENDBRANCH   8  13
BRANCH  11  27
HETATM   27  C19 UNL     1      19.488   9.494   3.103  1.00  0.00     0.091 C 
BRANCH  27  28
HETATM   28  N4  UNL     1      20.529   8.776   3.652  1.00  0.00    -0.393 N 
HETATM   29  C20 UNL     1      21.065   8.959   4.918  1.00  0.00     0.148 C 
BRANCH  28  30
HETATM   30  C21 UNL     1      20.950   7.592   2.949  1.00  0.00     0.153 C 
BRANCH  30  31
HETATM   31  C22 UNL     1      21.106   6.390   3.834  1.00  0.00     0.139 C 
HETATM   32  C23 UNL     1      21.924   5.296   3.182  1.00  0.00     0.035 C 
HETATM   33  C24 UNL     1      21.453   4.080   3.978  1.00  0.00     0.029 C 
HETATM   34  C25 UNL     1      20.044   4.481   4.318  1.00  0.00     0.168 C 
HETATM   35  O2  UNL     1      19.860   5.784   3.940  1.00  0.00    -0.384 OA
ENDBRANCH  30  31
ENDBRANCH  28  30
ENDBRANCH  27  28
ENDBRANCH  11  27
TORSDOF 6
ENDMDL
MODEL 3
REMARK VINA RESULT: -8.808723194      2.613      7.812
REMARK  6 active torsions:
REMARK  status: ('A' for Active; 'I' for Inactive)
REMARK    1  A    between atoms: C7_8  and  N2_9 
REMARK    2  A    between atoms: N2_9  and  C8_11 
REMARK    3  A    between atoms: C18_25  and  C19_26 
REMARK    4  A    between atoms: C19_26  and  N4_27 
REMARK    5  A    between atoms: N4_27  and  C21_29 
REMARK    6  A    between atoms: C21_29  and  C22_30 
ROOT
HETATM    1  C1  UNL     1      18.759  10.596   0.939  1.00  0.00     0.148 C 
HETATM    2  N1  UNL     1      17.637  10.175   1.714  1.00  0.00    -0.391 N 
HETATM    3  C2  UNL     1      16.382  10.599   1.281  1.00  0.00     0.099 C 
HETATM    4  C3  UNL     1      15.259  10.094   2.080  1.00  0.00     0.015 A 
HETATM    5  C4  UNL     1      14.077  10.583   1.498  1.00  0.00     0.016 A 
HETATM    6  C5  UNL     1      12.877  10.265   2.041  1.00  0.00     0.003 A 
HETATM    7  C6  UNL     1      12.842   9.461   3.164  1.00  0.00     0.032 A 
HETATM    8  C7  UNL     1      13.980   8.971   3.750  1.00  0.00     0.063 A 
HETATM    9  C17 UNL     1      15.240   9.287   3.206  1.00  0.00     0.107 A 
HETATM   10  O1  UNL     1      16.226   8.687   3.957  1.00  0.00    -0.336 OA
HETATM   11  C18 UNL     1      17.652   8.797   3.727  1.00  0.00     0.185 C 
HETATM   12  C26 UNL     1      17.888  10.126   3.131  1.00  0.00     0.159 C 
ENDROOT
BRANCH   8  13
HETATM   13  N2  UNL     1      13.956   8.152   4.914  1.00  0.00    -0.383 N 
ATOM     14  H2  UNL     1      13.626   7.188   4.859  1.00  0.00     0.160 HD
BRANCH  13  15
HETATM   15  C8  UNL     1      14.397   8.690   6.157  1.00  0.00     0.082 C 
HETATM   16  C9  UNL     1      14.701   7.591   7.183  1.00  0.00     0.025 C 
HETATM   17  C10 UNL     1      15.374   8.234   8.343  1.00  0.00     0.009 C 
HETATM   18  C11 UNL     1      14.802   9.509   8.838  1.00  0.00     0.015 C 
HETATM   19  C12 UNL     1      14.066   9.322  10.156  1.00  0.00     0.237 C 
HETATM   20  C15 UNL     1      14.015  10.328   7.884  1.00  0.00    -0.005 C 
HETATM   21  N3  UNL     1      14.004  10.599  10.812  1.00  0.00    -0.075 N 
HETATM   22  C13 UNL     1      13.649  11.673   9.938  1.00  0.00     0.232 C 
ATOM     23  H32 UNL     1      13.374  10.563  11.613  1.00  0.00     0.277 HD
ATOM     24  H31 UNL     1      14.880  10.800  11.294  1.00  0.00     0.277 HD
HETATM   25  C14 UNL     1      12.973  11.112   8.692  1.00  0.00     0.032 C 
HETATM   26  C16 UNL     1      13.298   9.510   6.851  1.00  0.00     0.030 C 
ENDBRANCH  13  15
ENDBRANCH   8  13
BRANCH  11  27
HETATM   27  C19 UNL     1      18.373   8.521   5.010  1.00  0.00     0.091 C 
BRANCH  27  28
HETATM   28  N4  UNL     1      19.651   8.004   4.939  1.00  0.00    -0.393 N 
HETATM   29  C20 UNL     1      20.811   8.733   4.726  1.00  0.00     0.148 C 
BRANCH  28  30
HETATM   30  C21 UNL     1      19.826   6.633   5.339  1.00  0.00     0.153 C 
BRANCH  30  31
HETATM   31  C22 UNL     1      20.516   5.788   4.309  1.00  0.00     0.139 C 
HETATM   32  C23 UNL     1      19.856   4.437   4.135  1.00  0.00     0.035 C 
HETATM   33  C24 UNL     1      21.010   3.636   3.534  1.00  0.00     0.029 C 
HETATM   34  C25 UNL     1      22.195   4.319   4.158  1.00  0.00     0.168 C 
HETATM   35  O2  UNL     1      21.757   5.432   4.823  1.00  0.00    -0.384 OA
ENDBRANCH  30  31
ENDBRANCH  28  30
ENDBRANCH  27  28
ENDBRANCH  11  27
TORSDOF 6
ENDMDL
MODEL 4
REMARK VINA RESULT: -8.801835380      2.536      8.193
REMARK  6 active torsions:
REMARK  status: ('A' for Active; 'I' for Inactive)
REMARK    1  A    between atoms: C7_8  and  N2_9 
REMARK    2  A    between atoms: N2_9  and  C8_11 
REMARK    3  A    between atoms: C18_25  and  C19_26 
REMARK    4  A    between atoms: C19_26  and  N4_27 
REMARK    5  A    between atoms: N4_27  and  C21_29 
REMARK    6  A    between atoms: C21_29  and  C22_30 
ROOT
HETATM    1  C1  UNL     1      19.491   7.910   6.011  1.00  0.00     0.148 C 
HETATM    2  N1  UNL     1      18.644   8.511   5.031  1.00  0.00    -0.391 N 
HETATM    3  C2  UNL     1      17.278   8.515   5.302  1.00  0.00     0.099 C 
HETATM    4  C3  UNL     1      16.457   9.193   4.291  1.00  0.00     0.015 A 
HETATM    5  C4  UNL     1      15.123   9.135   4.727  1.00  0.00     0.016 A 
HETATM    6  C5  UNL     1      14.144   9.692   3.973  1.00  0.00     0.003 A 
HETATM    7  C6  UNL     1      14.483  10.310   2.783  1.00  0.00     0.032 A 
HETATM    8  C7  UNL     1      15.777  10.380   2.338  1.00  0.00     0.063 A 
HETATM    9  C17 UNL     1      16.813   9.808   3.101  1.00  0.00     0.107 A 
HETATM   10  O1  UNL     1      18.015  10.001   2.458  1.00  0.00    -0.336 OA
HETATM   11  C18 UNL     1      19.307   9.536   2.918  1.00  0.00     0.185 C 
HETATM   12  C26 UNL     1      19.069   8.290   3.673  1.00  0.00     0.159 C 
ENDROOT
BRANCH   8  13
HETATM   13  N2  UNL     1      16.135  11.002   1.109  1.00  0.00    -0.383 N 
ATOM     14  H2  UNL     1      16.644  11.885   1.108  1.00  0.00     0.160 HD
BRANCH  13  15
HETATM   15  C8  UNL     1      15.776  10.379  -0.121  1.00  0.00     0.082 C 
HETATM   16  C9  UNL     1      16.858  10.562  -1.194  1.00  0.00     0.025 C 
HETATM   17  C10 UNL     1      16.503   9.684  -2.342  1.00  0.00     0.009 C 
HETATM   18  C11 UNL     1      15.086   9.674  -2.777  1.00  0.00     0.015 C 
HETATM   19  C12 UNL     1      14.895  10.424  -4.086  1.00  0.00     0.237 C 
HETATM   20  C15 UNL     1      14.056  10.048  -1.777  1.00  0.00    -0.005 C 
HETATM   21  N3  UNL     1      13.680   9.950  -4.692  1.00  0.00    -0.075 N 
HETATM   22  C13 UNL     1      12.594   9.825  -3.771  1.00  0.00     0.232 C 
ATOM     23  H32 UNL     1      13.418  10.540  -5.482  1.00  0.00     0.277 HD
ATOM     24  H31 UNL     1      13.841   9.071  -5.183  1.00  0.00     0.277 HD
HETATM   25  C14 UNL     1      12.877  10.671  -2.535  1.00  0.00     0.032 C 
HETATM   26  C16 UNL     1      14.546  11.038  -0.763  1.00  0.00     0.030 C 
ENDBRANCH  13  15
ENDBRANCH   8  13
BRANCH  11  27
HETATM   27  C19 UNL     1      20.228   9.419   1.743  1.00  0.00     0.091 C 
BRANCH  27  28
HETATM   28  N4  UNL     1      21.587   9.401   1.982  1.00  0.00    -0.393 N 
HETATM   29  C20 UNL     1      22.482   8.452   1.512  1.00  0.00     0.148 C 
BRANCH  28  30
HETATM   30  C21 UNL     1      22.163  10.578   2.578  1.00  0.00     0.153 C 
BRANCH  30  31
HETATM   31  C22 UNL     1      23.064  10.285   3.742  1.00  0.00     0.139 C 
HETATM   32  C23 UNL     1      22.316  10.260   5.057  1.00  0.00     0.035 C 
HETATM   33  C24 UNL     1      23.461  10.522   6.035  1.00  0.00     0.029 C 
HETATM   34  C25 UNL     1      24.377  11.366   5.194  1.00  0.00     0.168 C 
HETATM   35  O2  UNL     1      23.898  11.383   3.912  1.00  0.00    -0.384 OA
ENDBRANCH  30  31
ENDBRANCH  28  30
ENDBRANCH  27  28
ENDBRANCH  11  27
TORSDOF 6
ENDMDL
MODEL 5
REMARK VINA RESULT: -8.798796434      2.805      7.408
REMARK  6 active torsions:
REMARK  status: ('A' for Active; 'I' for Inactive)
REMARK    1  A    between atoms: C7_8  and  N2_9 
REMARK    2  A    between atoms: N2_9  and  C8_11 
REMARK    3  A    between atoms: C18_25  and  C19_26 
REMARK    4  A    between atoms: C19_26  and  N4_27 
REMARK    5  A    between atoms: N4_27  and  C21_29 
REMARK    6  A    between atoms: C21_29  and  C22_30 
ROOT
HETATM    1  C1  UNL     1      17.023   8.668   7.098  1.00  0.00     0.148 C 
HETATM    2  N1  UNL     1      16.495   9.042   5.825  1.00  0.00    -0.391 N 
HETATM    3  C2  UNL     1      15.162   8.720   5.581  1.00  0.00     0.099 C 
HETATM    4  C3  UNL     1      14.653   9.175   4.282  1.00  0.00     0.015 A 
HETATM    5  C4  UNL     1      13.300   8.801   4.208  1.00  0.00     0.016 A 
HETATM    6  C5  UNL     1      12.579   9.102   3.101  1.00  0.00     0.003 A 
HETATM    7  C6  UNL     1      13.194   9.776   2.062  1.00  0.00     0.032 A 
HETATM    8  C7  UNL     1      14.510  10.151   2.111  1.00  0.00     0.063 A 
HETATM    9  C17 UNL     1      15.283   9.850   3.249  1.00  0.00     0.107 A 
HETATM   10  O1  UNL     1      16.565  10.322   3.070  1.00  0.00    -0.336 OA
HETATM   11  C18 UNL     1      17.658  10.183   4.009  1.00  0.00     0.185 C 
HETATM   12  C26 UNL     1      17.435   8.921   4.742  1.00  0.00     0.159 C 
ENDROOT
BRANCH   8  13
HETATM   13  N2  UNL     1      15.156  10.834   1.042  1.00  0.00    -0.383 N 
ATOM     14  H2  UNL     1      15.618  11.728   1.206  1.00  0.00     0.160 HD
BRANCH  13  15
HETATM   15  C8  UNL     1      15.153  10.256  -0.260  1.00  0.00     0.082 C 
HETATM   16  C9  UNL     1      16.405  10.639  -1.061  1.00  0.00     0.025 C 
HETATM   17  C10 UNL     1      16.421   9.803  -2.292  1.00  0.00     0.009 C 
HETATM   18  C11 UNL     1      15.143   9.652  -3.028  1.00  0.00     0.015 C 
HETATM   19  C12 UNL     1      15.138  10.459  -4.317  1.00  0.00     0.237 C 
HETATM   20  C15 UNL     1      13.884   9.832  -2.265  1.00  0.00    -0.005 C 
HETATM   21  N3  UNL     1      14.154   9.884  -5.193  1.00  0.00    -0.075 N 
HETATM   22  C13 UNL     1      12.923   9.568  -4.539  1.00  0.00     0.232 C 
ATOM     23  H32 UNL     1      13.990  10.490  -5.997  1.00  0.00     0.277 HD
ATOM     24  H31 UNL     1      14.530   9.066  -5.670  1.00  0.00     0.277 HD
HETATM   25  C14 UNL     1      12.821  10.357  -3.239  1.00  0.00     0.032 C 
HETATM   26  C16 UNL     1      14.011  10.804  -1.130  1.00  0.00     0.030 C 
ENDBRANCH  13  15
ENDBRANCH   8  13
BRANCH  11  27
HETATM   27  C19 UNL     1      18.953  10.284   3.264  1.00  0.00     0.091 C 
BRANCH  27  28
HETATM   28  N4  UNL     1      18.913  10.676   1.942  1.00  0.00    -0.393 N 
HETATM   29  C20 UNL     1      18.604  11.946   1.481  1.00  0.00     0.148 C 
BRANCH  28  30
HETATM   30  C21 UNL     1      19.453   9.761   0.971  1.00  0.00     0.153 C 
BRANCH  30  31
HETATM   31  C22 UNL     1      20.916   9.481   1.155  1.00  0.00     0.139 C 
HETATM   32  C23 UNL     1      21.593   9.080  -0.138  1.00  0.00     0.035 C 
HETATM   33  C24 UNL     1      22.813   8.337   0.403  1.00  0.00     0.029 C 
HETATM   34  C25 UNL     1      22.271   7.786   1.693  1.00  0.00     0.168 C 
HETATM   35  O2  UNL     1      21.028   8.317   1.905  1.00  0.00    -0.384 OA
ENDBRANCH  30  31
ENDBRANCH  28  30
ENDBRANCH  27  28
ENDBRANCH  11  27
TORSDOF 6
ENDMDL
