MODEL 1
REMARK VINA RESULT: -9.691338732      0.000      0.000
REMARK  8 active torsions:
REMARK  status: ('A' for Active; 'I' for Inactive)
REMARK    1  A    between atoms: C2_2  and  O1_3 
REMARK    2  A    between atoms: C2_2  and  C3_5 
REMARK    3  A    between atoms: C3_5  and  N1_6 
REMARK    4  A    between atoms: N1_6  and  C4_8 
REMARK    5  A    between atoms: C6_12  and  C7_13 
REMARK    6  A    between atoms: C7_13  and  C8_14 
REMARK    7  A    between atoms: N4_19  and  C11_20 
REMARK    8  A    between atoms: N5_23  and  C14_24 
ROOT
HETATM    1  C8  UNL     1      16.092   9.591   2.347  1.00  0.00     0.088 A 
HETATM    2  N3  UNL     1      17.129   9.579   3.208  1.00  0.00    -0.347 N 
ATOM      3  H3  UNL     1      17.121   9.205   4.157  1.00  0.00     0.167 HD
HETATM    4  C9  UNL     1      18.163  10.143   2.598  1.00  0.00     0.033 A 
HETATM    5  C10 UNL     1      17.736  10.511   1.315  1.00  0.00     0.036 A 
HETATM    6  N4  UNL     1      16.436  10.159   1.175  1.00  0.00    -0.333 N 
HETATM    7  C20 UNL     1      18.604  11.163   0.344  1.00  0.00     0.059 C 
HETATM    8  C21 UNL     1      19.694  10.167  -0.068  1.00  0.00     0.006 C 
HETATM    9  C22 UNL     1      20.449   9.607   1.085  1.00  0.00     0.001 C 
HETATM   10  C23 UNL     1      20.593  10.516   2.258  1.00  0.00     0.006 C 
HETATM   11  C24 UNL     1      19.487  10.297   3.267  1.00  0.00     0.059 C 
ENDROOT
BRANCH   1  12
HETATM   12  C7  UNL     1      14.765   9.025   2.739  1.00  0.00     0.118 C 
BRANCH  12  13
HETATM   13  C6  UNL     1      14.392   9.440   4.117  1.00  0.00    -0.019 A 
HETATM   14  C5  UNL     1      13.617   8.609   4.919  1.00  0.00     0.115 A 
HETATM   15  N2  UNL     1      13.245   8.908   6.157  1.00  0.00    -0.201 N 
HETATM   16  C4  UNL     1      13.635  10.077   6.675  1.00  0.00     0.677 A 
ATOM     17  H2  UNL     1      12.675   8.260   6.701  1.00  0.00     0.183 HD
HETATM   18  N6  UNL     1      14.393  10.924   5.933  1.00  0.00    -0.201 N 
HETATM   19  C25 UNL     1      14.784  10.643   4.671  1.00  0.00     0.115 A 
ATOM     20  H6  UNL     1      14.681  11.811   6.347  1.00  0.00     0.183 HD
BRANCH  16  21
HETATM   21  N1  UNL     1      13.285  10.377   7.867  1.00  0.00    -0.224 N 
ATOM     22  H1  UNL     1      12.367  10.096   8.213  1.00  0.00     0.177 HD
BRANCH  21  23
HETATM   23  C3  UNL     1      14.177  11.109   8.722  1.00  0.00     0.169 C 
BRANCH  23  24
HETATM   24  C2  UNL     1      13.554  11.483  10.050  1.00  0.00     0.132 C 
HETATM   25  C1  UNL     1      14.568  11.277  11.162  1.00  0.00     0.041 C 
BRANCH  24  26
HETATM   26  O1  UNL     1      13.267  12.846  10.023  1.00  0.00    -0.394 OA
ATOM     27  H1  UNL     1      12.335  12.929  10.184  1.00  0.00     0.210 HD
ENDBRANCH  24  26
ENDBRANCH  23  24
ENDBRANCH  21  23
ENDBRANCH  16  21
ENDBRANCH  12  13
ENDBRANCH   1  12
BRANCH   6  28
HETATM   28  C11 UNL     1      15.629  10.365   0.019  1.00  0.00     0.097 C 
HETATM   29  C12 UNL     1      14.171  10.618   0.284  1.00  0.00     0.045 C 
HETATM   30  C13 UNL     1      13.590  11.084  -1.051  1.00  0.00     0.124 C 
HETATM   31  N5  UNL     1      13.734  10.099  -2.052  1.00  0.00    -0.389 N 
HETATM   32  C18 UNL     1      14.595   9.023  -1.805  1.00  0.00     0.060 C 
HETATM   33  C19 UNL     1      15.861   9.343  -1.075  1.00  0.00     0.070 C 
BRANCH  31  34
HETATM   34  C14 UNL     1      13.588  10.528  -3.392  1.00  0.00     0.083 C 
HETATM   35  C15 UNL     1      13.355   9.362  -4.331  1.00  0.00     0.025 C 
HETATM   36  C16 UNL     1      14.303  10.037  -5.300  1.00  0.00     0.004 C 
HETATM   37  C17 UNL     1      14.894  10.794  -4.105  1.00  0.00     0.025 C 
ENDBRANCH  31  34
ENDBRANCH   6  28
TORSDOF 8
ENDMDL
MODEL 2
REMARK VINA RESULT: -9.662879624      3.935      8.370
REMARK  8 active torsions:
REMARK  status: ('A' for Active; 'I' for Inactive)
REMARK    1  A    between atoms: C2_2  and  O1_3 
REMARK    2  A    between atoms: C2_2  and  C3_5 
REMARK    3  A    between atoms: C3_5  and  N1_6 
REMARK    4  A    between atoms: N1_6  and  C4_8 
REMARK    5  A    between atoms: C6_12  and  C7_13 
REMARK    6  A    between atoms: C7_13  and  C8_14 
REMARK    7  A    between atoms: N4_19  and  C11_20 
REMARK    8  A    between atoms: N5_23  and  C14_24 
ROOT
HETATM    1  C8  UNL     1      17.806  10.572   1.778  1.00  0.00     0.088 A 
HETATM    2  N3  UNL     1      17.959  10.668   0.442  1.00  0.00    -0.347 N 
ATOM      3  H3  UNL     1      18.819  10.906  -0.051  1.00  0.00     0.167 HD
HETATM    4  C9  UNL     1      16.786  10.397  -0.114  1.00  0.00     0.033 A 
HETATM    5  C10 UNL     1      15.887  10.126   0.926  1.00  0.00     0.036 A 
HETATM    6  N4  UNL     1      16.542  10.240   2.104  1.00  0.00    -0.333 N 
HETATM    7  C20 UNL     1      14.489   9.783   0.700  1.00  0.00     0.059 C 
HETATM    8  C21 UNL     1      14.437   8.416   0.007  1.00  0.00     0.006 C 
HETATM    9  C22 UNL     1      15.247   8.356  -1.240  1.00  0.00     0.001 C 
HETATM   10  C23 UNL     1      15.356   9.637  -1.995  1.00  0.00     0.006 C 
HETATM   11  C24 UNL     1      16.591  10.413  -1.593  1.00  0.00     0.059 C 
ENDROOT
BRANCH   1  12
HETATM   12  C7  UNL     1      18.956  10.825   2.699  1.00  0.00     0.118 C 
BRANCH  12  13
HETATM   13  C6  UNL     1      20.081   9.893   2.421  1.00  0.00    -0.019 A 
HETATM   14  C5  UNL     1      20.014   8.565   2.828  1.00  0.00     0.115 A 
HETATM   15  N2  UNL     1      20.973   7.674   2.615  1.00  0.00    -0.201 N 
HETATM   16  C4  UNL     1      22.077   8.067   1.970  1.00  0.00     0.677 A 
ATOM     17  H2  UNL     1      20.872   6.711   2.935  1.00  0.00     0.183 HD
HETATM   18  N6  UNL     1      22.191   9.353   1.552  1.00  0.00    -0.201 N 
HETATM   19  C25 UNL     1      21.229  10.279   1.757  1.00  0.00     0.115 A 
ATOM     20  H6  UNL     1      23.040   9.634   1.061  1.00  0.00     0.183 HD
BRANCH  16  21
HETATM   21  N1  UNL     1      23.009   7.219   1.757  1.00  0.00    -0.224 N 
ATOM     22  H1  UNL     1      23.739   7.427   1.076  1.00  0.00     0.177 HD
BRANCH  21  23
HETATM   23  C3  UNL     1      23.033   5.974   2.474  1.00  0.00     0.169 C 
BRANCH  23  24
HETATM   24  C2  UNL     1      23.995   5.980   3.642  1.00  0.00     0.132 C 
HETATM   25  C1  UNL     1      23.466   5.074   4.740  1.00  0.00     0.041 C 
BRANCH  24  26
HETATM   26  O1  UNL     1      25.197   5.421   3.213  1.00  0.00    -0.394 OA
ATOM     27  H1  UNL     1      25.263   4.570   3.630  1.00  0.00     0.210 HD
ENDBRANCH  24  26
ENDBRANCH  23  24
ENDBRANCH  21  23
ENDBRANCH  16  21
ENDBRANCH  12  13
ENDBRANCH   1  12
BRANCH   6  28
HETATM   28  C11 UNL     1      15.982  10.049   3.401  1.00  0.00     0.097 C 
HETATM   29  C12 UNL     1      15.864  11.288   4.243  1.00  0.00     0.045 C 
HETATM   30  C13 UNL     1      14.995  10.887   5.435  1.00  0.00     0.124 C 
HETATM   31  N5  UNL     1      15.587   9.848   6.185  1.00  0.00    -0.389 N 
HETATM   32  C18 UNL     1      16.666   9.155   5.622  1.00  0.00     0.060 C 
HETATM   33  C19 UNL     1      16.577   8.877   4.154  1.00  0.00     0.070 C 
BRANCH  31  34
HETATM   34  C14 UNL     1      14.741   9.139   7.069  1.00  0.00     0.083 C 
HETATM   35  C15 UNL     1      15.359   7.826   7.504  1.00  0.00     0.025 C 
HETATM   36  C16 UNL     1      13.991   7.198   7.330  1.00  0.00     0.004 C 
HETATM   37  C17 UNL     1      13.645   8.355   6.384  1.00  0.00     0.025 C 
ENDBRANCH  31  34
ENDBRANCH   6  28
TORSDOF 8
ENDMDL
MODEL 3
REMARK VINA RESULT: -9.650407807      3.489      7.845
REMARK  8 active torsions:
REMARK  status: ('A' for Active; 'I' for Inactive)
REMARK    1  A    between atoms: C2_2  and  O1_3 
REMARK    2  A    between atoms: C2_2  and  C3_5 
REMARK    3  A    between atoms: C3_5  and  N1_6 
REMARK    4  A    between atoms: N1_6  and  C4_8 
REMARK    5  A    between atoms: C6_12  and  C7_13 
REMARK    6  A    between atoms: C7_13  and  C8_14 
REMARK    7  A    between atoms: N4_19  and  C11_20 
REMARK    8  A    between atoms: N5_23  and  C14_24 
ROOT
HETATM    1  C8  UNL     1      17.847  10.582   1.707  1.00  0.00     0.088 A 
HETATM    2  N3  UNL     1      17.993  10.682   0.371  1.00  0.00    -0.347 N 
ATOM      3  H3  UNL     1      18.851  10.922  -0.125  1.00  0.00     0.167 HD
HETATM    4  C9  UNL     1      16.818  10.411  -0.181  1.00  0.00     0.033 A 
HETATM    5  C10 UNL     1      15.924  10.136   0.863  1.00  0.00     0.036 A 
HETATM    6  N4  UNL     1      16.585  10.248   2.039  1.00  0.00    -0.333 N 
HETATM    7  C20 UNL     1      14.526   9.792   0.642  1.00  0.00     0.059 C 
HETATM    8  C21 UNL     1      14.473   8.427  -0.054  1.00  0.00     0.006 C 
HETATM    9  C22 UNL     1      15.277   8.371  -1.305  1.00  0.00     0.001 C 
HETATM   10  C23 UNL     1      15.381   9.654  -2.057  1.00  0.00     0.006 C 
HETATM   11  C24 UNL     1      16.616  10.430  -1.658  1.00  0.00     0.059 C 
ENDROOT
BRANCH   1  12
HETATM   12  C7  UNL     1      19.001  10.835   2.624  1.00  0.00     0.118 C 
BRANCH  12  13
HETATM   13  C6  UNL     1      19.848   9.621   2.764  1.00  0.00    -0.019 A 
HETATM   14  C5  UNL     1      20.055   9.046   4.014  1.00  0.00     0.115 A 
HETATM   15  N2  UNL     1      20.795   7.964   4.219  1.00  0.00    -0.201 N 
HETATM   16  C4  UNL     1      21.382   7.384   3.168  1.00  0.00     0.677 A 
ATOM     17  H2  UNL     1      20.913   7.583   5.158  1.00  0.00     0.183 HD
HETATM   18  N6  UNL     1      21.211   7.906   1.927  1.00  0.00    -0.201 N 
HETATM   19  C25 UNL     1      20.464   9.007   1.691  1.00  0.00     0.115 A 
ATOM     20  H6  UNL     1      21.667   7.449   1.138  1.00  0.00     0.183 HD
BRANCH  16  21
HETATM   21  N1  UNL     1      22.097   6.340   3.352  1.00  0.00    -0.224 N 
ATOM     22  H1  UNL     1      22.941   6.198   2.796  1.00  0.00     0.177 HD
BRANCH  21  23
HETATM   23  C3  UNL     1      21.717   5.366   4.337  1.00  0.00     0.169 C 
BRANCH  23  24
HETATM   24  C2  UNL     1      20.485   4.578   3.949  1.00  0.00     0.132 C 
HETATM   25  C1  UNL     1      20.885   3.156   3.590  1.00  0.00     0.041 C 
BRANCH  24  26
HETATM   26  O1  UNL     1      19.661   4.487   5.067  1.00  0.00    -0.394 OA
ATOM     27  H1  UNL     1      18.808   4.810   4.801  1.00  0.00     0.210 HD
ENDBRANCH  24  26
ENDBRANCH  23  24
ENDBRANCH  21  23
ENDBRANCH  16  21
ENDBRANCH  12  13
ENDBRANCH   1  12
BRANCH   6  28
HETATM   28  C11 UNL     1      16.031  10.053   3.337  1.00  0.00     0.097 C 
HETATM   29  C12 UNL     1      15.995  11.272   4.215  1.00  0.00     0.045 C 
HETATM   30  C13 UNL     1      15.119  10.889   5.408  1.00  0.00     0.124 C 
HETATM   31  N5  UNL     1      15.660   9.797   6.120  1.00  0.00    -0.389 N 
HETATM   32  C18 UNL     1      16.689   9.059   5.523  1.00  0.00     0.060 C 
HETATM   33  C19 UNL     1      16.567   8.828   4.049  1.00  0.00     0.070 C 
BRANCH  31  34
HETATM   34  C14 UNL     1      14.786   9.113   6.996  1.00  0.00     0.083 C 
HETATM   35  C15 UNL     1      15.406   7.834   7.521  1.00  0.00     0.025 C 
HETATM   36  C16 UNL     1      14.059   7.172   7.314  1.00  0.00     0.004 C 
HETATM   37  C17 UNL     1      13.738   8.275   6.299  1.00  0.00     0.025 C 
ENDBRANCH  31  34
ENDBRANCH   6  28
TORSDOF 8
ENDMDL
MODEL 4
REMARK VINA RESULT: -9.592072288      3.853      8.551
REMARK  8 active torsions:
REMARK  status: ('A' for Active; 'I' for Inactive)
REMARK    1  A    between atoms: C2_2  and  O1_3 
REMARK    2  A    between atoms: C2_2  and  C3_5 
REMARK    3  A    between atoms: C3_5  and  N1_6 
REMARK    4  A    between atoms: N1_6  and  C4_8 
REMARK    5  A    between atoms: C6_12  and  C7_13 
REMARK    6  A    between atoms: C7_13  and  C8_14 
REMARK    7  A    between atoms: N4_19  and  C11_20 
REMARK    8  A    between atoms: N5_23  and  C14_24 
ROOT
HETATM    1  C8  UNL     1      17.398  10.332   2.172  1.00  0.00     0.088 A 
HETATM    2  N3  UNL     1      17.478  10.350   0.827  1.00  0.00    -0.347 N 
ATOM      3  H3  UNL     1      18.292  10.617   0.275  1.00  0.00     0.167 HD
HETATM    4  C9  UNL     1      16.304   9.956   0.351  1.00  0.00     0.033 A 
HETATM    5  C10 UNL     1      15.480   9.689   1.453  1.00  0.00     0.036 A 
HETATM    6  N4  UNL     1      16.181   9.930   2.585  1.00  0.00    -0.333 N 
HETATM    7  C20 UNL     1      14.103   9.230   1.323  1.00  0.00     0.059 C 
HETATM    8  C21 UNL     1      14.124   7.820   0.722  1.00  0.00     0.006 C 
HETATM    9  C22 UNL     1      14.875   7.737  -0.560  1.00  0.00     0.001 C 
HETATM   10  C23 UNL     1      14.848   8.969  -1.399  1.00  0.00     0.006 C 
HETATM   11  C24 UNL     1      16.037   9.859  -1.113  1.00  0.00     0.059 C 
ENDROOT
BRANCH   1  12
HETATM   12  C7  UNL     1      18.568  10.731   3.013  1.00  0.00     0.118 C 
BRANCH  12  13
HETATM   13  C6  UNL     1      19.760   9.898   2.701  1.00  0.00    -0.019 A 
HETATM   14  C5  UNL     1      19.801   8.558   3.073  1.00  0.00     0.115 A 
HETATM   15  N2  UNL     1      20.826   7.752   2.829  1.00  0.00    -0.201 N 
HETATM   16  C4  UNL     1      21.889   8.248   2.187  1.00  0.00     0.677 A 
ATOM     17  H2  UNL     1      20.803   6.776   3.124  1.00  0.00     0.183 HD
HETATM   18  N6  UNL     1      21.898   9.549   1.804  1.00  0.00    -0.201 N 
HETATM   19  C25 UNL     1      20.868  10.391   2.040  1.00  0.00     0.115 A 
ATOM     20  H6  UNL     1      22.718   9.909   1.315  1.00  0.00     0.183 HD
BRANCH  16  21
HETATM   21  N1  UNL     1      22.883   7.481   1.945  1.00  0.00    -0.224 N 
ATOM     22  H1  UNL     1      23.646   7.811   1.354  1.00  0.00     0.177 HD
BRANCH  21  23
HETATM   23  C3  UNL     1      22.931   6.158   2.503  1.00  0.00     0.169 C 
BRANCH  23  24
HETATM   24  C2  UNL     1      23.923   6.028   3.638  1.00  0.00     0.132 C 
HETATM   25  C1  UNL     1      23.374   5.075   4.686  1.00  0.00     0.041 C 
BRANCH  24  26
HETATM   26  O1  UNL     1      25.080   5.438   3.134  1.00  0.00    -0.394 OA
ATOM     27  H1  UNL     1      25.582   6.133   2.725  1.00  0.00     0.210 HD
ENDBRANCH  24  26
ENDBRANCH  23  24
ENDBRANCH  21  23
ENDBRANCH  16  21
ENDBRANCH  12  13
ENDBRANCH   1  12
BRANCH   6  28
HETATM   28  C11 UNL     1      15.700   9.785   3.919  1.00  0.00     0.097 C 
HETATM   29  C12 UNL     1      15.443  11.069   4.657  1.00  0.00     0.045 C 
HETATM   30  C13 UNL     1      14.681  10.666   5.920  1.00  0.00     0.124 C 
HETATM   31  N5  UNL     1      15.439   9.790   6.726  1.00  0.00    -0.389 N 
HETATM   32  C18 UNL     1      16.582   9.199   6.173  1.00  0.00     0.060 C 
HETATM   33  C19 UNL     1      16.479   8.778   4.740  1.00  0.00     0.070 C 
BRANCH  31  34
HETATM   34  C14 UNL     1      14.732   9.057   7.709  1.00  0.00     0.083 C 
HETATM   35  C15 UNL     1      13.243   9.045   7.435  1.00  0.00     0.025 C 
HETATM   36  C16 UNL     1      13.033   9.261   8.920  1.00  0.00     0.004 C 
HETATM   37  C17 UNL     1      14.456   9.829   8.979  1.00  0.00     0.025 C 
ENDBRANCH  31  34
ENDBRANCH   6  28
TORSDOF 8
ENDMDL
MODEL 5
REMARK VINA RESULT: -9.574180502      3.572      6.948
REMARK  8 active torsions:
REMARK  status: ('A' for Active; 'I' for Inactive)
REMARK    1  A    between atoms: C2_2  and  O1_3 
REMARK    2  A    between atoms: C2_2  and  C3_5 
REMARK    3  A    between atoms: C3_5  and  N1_6 
REMARK    4  A    between atoms: N1_6  and  C4_8 
REMARK    5  A    between atoms: C6_12  and  C7_13 
REMARK    6  A    between atoms: C7_13  and  C8_14 
REMARK    7  A    between atoms: N4_19  and  C11_20 
REMARK    8  A    between atoms: N5_23  and  C14_24 
ROOT
HETATM    1  C8  UNL     1      16.251  11.010   1.902  1.00  0.00     0.088 A 
HETATM    2  N3  UNL     1      16.275  10.837   3.238  1.00  0.00    -0.347 N 
ATOM      3  H3  UNL     1      16.858  11.347   3.902  1.00  0.00     0.167 HD
HETATM    4  C9  UNL     1      15.402   9.883   3.534  1.00  0.00     0.033 A 
HETATM    5  C10 UNL     1      14.826   9.462   2.328  1.00  0.00     0.036 A 
HETATM    6  N4  UNL     1      15.370  10.178   1.316  1.00  0.00    -0.333 N 
HETATM    7  C20 UNL     1      13.813   8.417   2.253  1.00  0.00     0.059 C 
HETATM    8  C21 UNL     1      12.540   8.936   2.931  1.00  0.00     0.006 C 
HETATM    9  C22 UNL     1      12.765   9.412   4.322  1.00  0.00     0.001 C 
HETATM   10  C23 UNL     1      13.846   8.711   5.071  1.00  0.00     0.006 C 
HETATM   11  C24 UNL     1      15.169   9.432   4.936  1.00  0.00     0.059 C 
ENDROOT
BRANCH   1  12
HETATM   12  C7  UNL     1      17.134  12.023   1.246  1.00  0.00     0.118 C 
BRANCH  12  13
HETATM   13  C6  UNL     1      18.438  11.424   0.856  1.00  0.00    -0.019 A 
HETATM   14  C5  UNL     1      19.416  11.179   1.814  1.00  0.00     0.115 A 
HETATM   15  N2  UNL     1      20.601  10.646   1.544  1.00  0.00    -0.201 N 
HETATM   16  C4  UNL     1      20.882  10.322   0.278  1.00  0.00     0.677 A 
ATOM     17  H2  UNL     1      21.282  10.487   2.287  1.00  0.00     0.183 HD
HETATM   18  N6  UNL     1      19.960  10.542  -0.694  1.00  0.00    -0.201 N 
HETATM   19  C25 UNL     1      18.747  11.083  -0.446  1.00  0.00     0.115 A 
ATOM     20  H6  UNL     1      20.193  10.288  -1.654  1.00  0.00     0.183 HD
BRANCH  16  21
HETATM   21  N1  UNL     1      22.020   9.808   0.005  1.00  0.00    -0.224 N 
ATOM     22  H1  UNL     1      22.459   9.996  -0.896  1.00  0.00     0.177 HD
BRANCH  21  23
HETATM   23  C3  UNL     1      22.683   8.966   0.962  1.00  0.00     0.169 C 
BRANCH  23  24
HETATM   24  C2  UNL     1      22.965   7.576   0.434  1.00  0.00     0.132 C 
HETATM   25  C1  UNL     1      22.841   6.570   1.566  1.00  0.00     0.041 C 
BRANCH  24  26
HETATM   26  O1  UNL     1      21.974   7.256  -0.491  1.00  0.00    -0.394 OA
ATOM     27  H1  UNL     1      21.736   6.351  -0.330  1.00  0.00     0.210 HD
ENDBRANCH  24  26
ENDBRANCH  23  24
ENDBRANCH  21  23
ENDBRANCH  16  21
ENDBRANCH  12  13
ENDBRANCH   1  12
BRANCH   6  28
HETATM   28  C11 UNL     1      15.057  10.048  -0.069  1.00  0.00     0.097 C 
HETATM   29  C12 UNL     1      13.607  10.225  -0.424  1.00  0.00     0.045 C 
HETATM   30  C13 UNL     1      13.572  10.327  -1.949  1.00  0.00     0.124 C 
HETATM   31  N5  UNL     1      14.080   9.160  -2.560  1.00  0.00    -0.389 N 
HETATM   32  C18 UNL     1      14.782   8.246  -1.764  1.00  0.00     0.060 C 
HETATM   33  C19 UNL     1      15.681   8.833  -0.722  1.00  0.00     0.070 C 
BRANCH  31  34
HETATM   34  C14 UNL     1      14.449   9.264  -3.921  1.00  0.00     0.083 C 
HETATM   35  C15 UNL     1      15.442  10.385  -4.149  1.00  0.00     0.025 C 
HETATM   36  C16 UNL     1      14.660  10.737  -5.398  1.00  0.00     0.004 C 
HETATM   37  C17 UNL     1      13.457  10.018  -4.778  1.00  0.00     0.025 C 
ENDBRANCH  31  34
ENDBRANCH   6  28
TORSDOF 8
ENDMDL
