MODEL 1
REMARK VINA RESULT: -8.847536050      0.000      0.000
REMARK  9 active torsions:
REMARK  status: ('A' for Active; 'I' for Inactive)
REMARK    1  A    between atoms: C3_3  and  C5_5 
REMARK    2  A    between atoms: C5_5  and  O2_7 
REMARK    3  A    between atoms: O2_7  and  C6_8 
REMARK    4  A    between atoms: C8_10  and  C9_11 
REMARK    5  A    between atoms: C13_16  and  O4_17 
REMARK    6  A    between atoms: N1_24  and  O5_26 
REMARK    7  A    between atoms: O5_26  and  C19_27 
REMARK    8  A    between atoms: C19_27  and  C20_28 
REMARK    9  A    between atoms: C20_28  and  O6_29 
ROOT
HETATM    1  C6  UNL     1      13.995   9.374  -0.309  1.00  0.00     0.133 C 
HETATM    2  C7  UNL     1      15.473   9.330  -0.521  1.00  0.00     0.044 C 
HETATM    3  C8  UNL     1      16.206   9.822   0.673  1.00  0.00     0.054 C 
HETATM    4  C10 UNL     1      15.548   9.396   2.004  1.00  0.00     0.010 C 
HETATM    5  C11 UNL     1      16.565   9.421   3.045  1.00  0.00     0.007 C 
HETATM    6  C12 UNL     1      17.215   8.022   3.181  1.00  0.00     0.038 C 
HETATM    7  C13 UNL     1      18.591   8.077   3.734  1.00  0.00     0.118 C 
HETATM    8  C14 UNL     1      18.547   8.893   5.009  1.00  0.00     0.033 C 
HETATM    9  C15 UNL     1      17.117   9.054   5.448  1.00  0.00     0.018 C 
HETATM   10  C16 UNL     1      16.365   9.912   4.404  1.00  0.00     0.001 C 
HETATM   11  C17 UNL     1      17.018  11.301   4.622  1.00  0.00     0.022 C 
HETATM   12  C18 UNL     1      15.020  10.096   4.917  1.00  0.00     0.018 C 
HETATM   13  N1  UNL     1      14.668   9.369   5.944  1.00  0.00    -0.274 N 
ATOM     14  H1  UNL     1      15.360   8.721   6.318  1.00  0.00     0.193 HD
HETATM   15  C21 UNL     1      14.001  11.004   4.443  1.00  0.00     0.056 C 
HETATM   16  C22 UNL     1      13.963  11.120   2.989  1.00  0.00     0.015 C 
HETATM   17  C23 UNL     1      14.204   9.918   2.148  1.00  0.00    -0.037 C 
HETATM   18  C24 UNL     1      13.215   8.787   2.482  1.00  0.00     0.015 C 
HETATM   19  C25 UNL     1      13.690  10.356   0.777  1.00  0.00     0.042 C 
ENDROOT
BRANCH   1  20
HETATM   20  O2  UNL     1      13.247   9.678  -1.434  1.00  0.00    -0.312 OA
BRANCH  20  21
HETATM   21  C5  UNL     1      13.645  10.563  -2.416  1.00  0.00     0.289 C 
HETATM   22  O1  UNL     1      13.613  11.763  -2.056  1.00  0.00    -0.260 OA
BRANCH  21  23
HETATM   23  C3  UNL     1      14.047  10.063  -3.709  1.00  0.00     0.009 C 
HETATM   24  C2  UNL     1      13.174   9.692  -4.597  1.00  0.00    -0.018 C 
HETATM   25  C1  UNL     1      11.735   9.741  -4.385  1.00  0.00     0.036 C 
HETATM   26  C4  UNL     1      15.491   9.972  -4.030  1.00  0.00     0.054 C 
ENDBRANCH  21  23
ENDBRANCH  20  21
ENDBRANCH   1  20
BRANCH   3  27
HETATM   27  C9  UNL     1      16.625  11.211   0.636  1.00  0.00     0.236 C 
HETATM   28  O3  UNL     1      16.563  11.864  -0.390  1.00  0.00    -0.306 OA
ENDBRANCH   3  27
BRANCH   7  29
HETATM   29  O4  UNL     1      18.924   6.758   4.110  1.00  0.00    -0.396 OA
ATOM     30  H4  UNL     1      19.425   6.825   4.914  1.00  0.00     0.210 HD
ENDBRANCH   7  29
BRANCH  13  31
HETATM   31  O5  UNL     1      13.463   9.407   6.550  1.00  0.00    -0.278 OA
BRANCH  31  32
HETATM   32  C19 UNL     1      13.237   9.478   7.925  1.00  0.00     0.227 C 
BRANCH  32  33
HETATM   33  C20 UNL     1      13.867  10.730   8.531  1.00  0.00     0.192 C 
BRANCH  33  34
HETATM   34  O6  UNL     1      12.887  11.685   8.813  1.00  0.00    -0.399 OA
ATOM     35  H6  UNL     1      13.132  12.199   9.574  1.00  0.00     0.209 HD
ENDBRANCH  33  34
ENDBRANCH  32  33
ENDBRANCH  31  32
ENDBRANCH  13  31
TORSDOF 9
ENDMDL
MODEL 2
REMARK VINA RESULT: -8.616534884      1.375      1.527
REMARK  9 active torsions:
REMARK  status: ('A' for Active; 'I' for Inactive)
REMARK    1  A    between atoms: C3_3  and  C5_5 
REMARK    2  A    between atoms: C5_5  and  O2_7 
REMARK    3  A    between atoms: O2_7  and  C6_8 
REMARK    4  A    between atoms: C8_10  and  C9_11 
REMARK    5  A    between atoms: C13_16  and  O4_17 
REMARK    6  A    between atoms: N1_24  and  O5_26 
REMARK    7  A    between atoms: O5_26  and  C19_27 
REMARK    8  A    between atoms: C19_27  and  C20_28 
REMARK    9  A    between atoms: C20_28  and  O6_29 
ROOT
HETATM    1  C6  UNL     1      14.708   9.234  -0.788  1.00  0.00     0.133 C 
HETATM    2  C7  UNL     1      16.095   9.743  -1.001  1.00  0.00     0.044 C 
HETATM    3  C8  UNL     1      16.638  10.369   0.230  1.00  0.00     0.054 C 
HETATM    4  C10 UNL     1      16.218   9.629   1.520  1.00  0.00     0.010 C 
HETATM    5  C11 UNL     1      17.189   9.936   2.560  1.00  0.00     0.007 C 
HETATM    6  C12 UNL     1      18.303   8.860   2.576  1.00  0.00     0.038 C 
HETATM    7  C13 UNL     1      19.582   9.364   3.133  1.00  0.00     0.118 C 
HETATM    8  C14 UNL     1      19.286  10.004   4.473  1.00  0.00     0.033 C 
HETATM    9  C15 UNL     1      17.908   9.601   4.923  1.00  0.00     0.018 C 
HETATM   10  C16 UNL     1      16.866  10.210   3.956  1.00  0.00     0.001 C 
HETATM   11  C17 UNL     1      16.982  11.720   4.293  1.00  0.00     0.022 C 
HETATM   12  C18 UNL     1      15.561   9.855   4.482  1.00  0.00     0.018 C 
HETATM   13  N1  UNL     1      15.525   8.969   5.442  1.00  0.00    -0.274 N 
ATOM     14  H1  UNL     1      16.416   8.587   5.760  1.00  0.00     0.193 HD
HETATM   15  C21 UNL     1      14.270  10.368   4.086  1.00  0.00     0.056 C 
HETATM   16  C22 UNL     1      14.149  10.578   2.648  1.00  0.00     0.015 C 
HETATM   17  C23 UNL     1      14.781   9.617   1.707  1.00  0.00    -0.037 C 
HETATM   18  C24 UNL     1      14.276   8.182   1.941  1.00  0.00     0.015 C 
HETATM   19  C25 UNL     1      14.103   9.948   0.378  1.00  0.00     0.042 C 
ENDROOT
BRANCH   1  20
HETATM   20  O2  UNL     1      13.867   9.336  -1.884  1.00  0.00    -0.312 OA
BRANCH  20  21
HETATM   21  C5  UNL     1      13.935  10.345  -2.823  1.00  0.00     0.289 C 
HETATM   22  O1  UNL     1      13.872  11.496  -2.331  1.00  0.00    -0.260 OA
BRANCH  21  23
HETATM   23  C3  UNL     1      14.068  10.013  -4.222  1.00  0.00     0.009 C 
HETATM   24  C2  UNL     1      13.034   9.720  -4.952  1.00  0.00    -0.018 C 
HETATM   25  C1  UNL     1      11.670   9.695  -4.450  1.00  0.00     0.036 C 
HETATM   26  C4  UNL     1      15.416  10.009  -4.837  1.00  0.00     0.054 C 
ENDBRANCH  21  23
ENDBRANCH  20  21
ENDBRANCH   1  20
BRANCH   3  27
HETATM   27  C9  UNL     1      16.528  11.814   0.314  1.00  0.00     0.236 C 
HETATM   28  O3  UNL     1      17.490  12.507   0.592  1.00  0.00    -0.306 OA
ENDBRANCH   3  27
BRANCH   7  29
HETATM   29  O4  UNL     1      20.379   8.228   3.395  1.00  0.00    -0.396 OA
ATOM     30  H4  UNL     1      20.586   7.843   2.552  1.00  0.00     0.210 HD
ENDBRANCH   7  29
BRANCH  13  31
HETATM   31  O5  UNL     1      14.406   8.520   6.047  1.00  0.00    -0.278 OA
BRANCH  31  32
HETATM   32  C19 UNL     1      14.328   7.979   7.331  1.00  0.00     0.227 C 
BRANCH  32  33
HETATM   33  C20 UNL     1      15.531   8.381   8.182  1.00  0.00     0.192 C 
BRANCH  33  34
HETATM   34  O6  UNL     1      16.622   7.549   7.915  1.00  0.00    -0.399 OA
ATOM     35  H6  UNL     1      17.031   7.790   7.093  1.00  0.00     0.209 HD
ENDBRANCH  33  34
ENDBRANCH  32  33
ENDBRANCH  31  32
ENDBRANCH  13  31
TORSDOF 9
ENDMDL
MODEL 3
REMARK VINA RESULT: -8.580222278      2.762      7.738
REMARK  9 active torsions:
REMARK  status: ('A' for Active; 'I' for Inactive)
REMARK    1  A    between atoms: C3_3  and  C5_5 
REMARK    2  A    between atoms: C5_5  and  O2_7 
REMARK    3  A    between atoms: O2_7  and  C6_8 
REMARK    4  A    between atoms: C8_10  and  C9_11 
REMARK    5  A    between atoms: C13_16  and  O4_17 
REMARK    6  A    between atoms: N1_24  and  O5_26 
REMARK    7  A    between atoms: O5_26  and  C19_27 
REMARK    8  A    between atoms: C19_27  and  C20_28 
REMARK    9  A    between atoms: C20_28  and  O6_29 
ROOT
HETATM    1  C6  UNL     1      15.386  10.005   5.475  1.00  0.00     0.133 C 
HETATM    2  C7  UNL     1      14.153   9.561   4.759  1.00  0.00     0.044 C 
HETATM    3  C8  UNL     1      14.207   9.912   3.318  1.00  0.00     0.054 C 
HETATM    4  C10 UNL     1      15.619   9.754   2.710  1.00  0.00     0.010 C 
HETATM    5  C11 UNL     1      15.480   9.571   1.273  1.00  0.00     0.007 C 
HETATM    6  C12 UNL     1      15.413   8.061   0.936  1.00  0.00     0.038 C 
HETATM    7  C13 UNL     1      14.699   7.785  -0.334  1.00  0.00     0.118 C 
HETATM    8  C14 UNL     1      15.309   8.658  -1.410  1.00  0.00     0.033 C 
HETATM    9  C15 UNL     1      16.617   9.215  -0.917  1.00  0.00     0.018 C 
HETATM   10  C16 UNL     1      16.339  10.177   0.262  1.00  0.00     0.001 C 
HETATM   11  C17 UNL     1      15.641  11.356  -0.464  1.00  0.00     0.022 C 
HETATM   12  C18 UNL     1      17.622  10.739   0.643  1.00  0.00     0.018 C 
HETATM   13  N1  UNL     1      18.691  10.191   0.128  1.00  0.00    -0.274 N 
ATOM     14  H1  UNL     1      18.554   9.407  -0.510  1.00  0.00     0.193 HD
HETATM   15  C21 UNL     1      17.881  11.853   1.526  1.00  0.00     0.056 C 
HETATM   16  C22 UNL     1      16.996  11.888   2.685  1.00  0.00     0.015 C 
HETATM   17  C23 UNL     1      16.593  10.618   3.344  1.00  0.00    -0.037 C 
HETATM   18  C24 UNL     1      17.818   9.809   3.806  1.00  0.00     0.015 C 
HETATM   19  C25 UNL     1      16.039  11.094   4.686  1.00  0.00     0.042 C 
ENDROOT
BRANCH   1  20
HETATM   20  O2  UNL     1      15.191  10.428   6.779  1.00  0.00    -0.312 OA
BRANCH  20  21
HETATM   21  C5  UNL     1      15.046   9.578   7.857  1.00  0.00     0.289 C 
HETATM   22  O1  UNL     1      16.091   8.952   8.149  1.00  0.00    -0.260 OA
BRANCH  21  23
HETATM   23  C3  UNL     1      13.770   9.485   8.528  1.00  0.00     0.009 C 
HETATM   24  C2  UNL     1      13.517  10.164   9.606  1.00  0.00    -0.018 C 
HETATM   25  C1  UNL     1      14.469  11.066  10.236  1.00  0.00     0.036 C 
HETATM   26  C4  UNL     1      12.726   8.594   7.969  1.00  0.00     0.054 C 
ENDBRANCH  21  23
ENDBRANCH  20  21
ENDBRANCH   1  20
BRANCH   3  27
HETATM   27  C9  UNL     1      13.530  11.137   2.934  1.00  0.00     0.236 C 
HETATM   28  O3  UNL     1      12.516  11.115   2.260  1.00  0.00    -0.306 OA
ENDBRANCH   3  27
BRANCH   7  29
HETATM   29  O4  UNL     1      14.998   6.449  -0.680  1.00  0.00    -0.396 OA
ATOM     30  H4  UNL     1      15.903   6.303  -0.433  1.00  0.00     0.210 HD
ENDBRANCH   7  29
BRANCH  13  31
HETATM   31  O5  UNL     1      19.960  10.580   0.369  1.00  0.00    -0.278 OA
BRANCH  31  32
HETATM   32  C19 UNL     1      20.942   9.826   1.014  1.00  0.00     0.227 C 
BRANCH  32  33
HETATM   33  C20 UNL     1      21.192  10.331   2.433  1.00  0.00     0.192 C 
BRANCH  33  34
HETATM   34  O6  UNL     1      21.177  11.729   2.466  1.00  0.00    -0.399 OA
ATOM     35  H6  UNL     1      21.744  12.084   1.792  1.00  0.00     0.209 HD
ENDBRANCH  33  34
ENDBRANCH  32  33
ENDBRANCH  31  32
ENDBRANCH  13  31
TORSDOF 9
ENDMDL
MODEL 4
REMARK VINA RESULT: -8.452429854      2.934      7.780
REMARK  9 active torsions:
REMARK  status: ('A' for Active; 'I' for Inactive)
REMARK    1  A    between atoms: C3_3  and  C5_5 
REMARK    2  A    between atoms: C5_5  and  O2_7 
REMARK    3  A    between atoms: O2_7  and  C6_8 
REMARK    4  A    between atoms: C8_10  and  C9_11 
REMARK    5  A    between atoms: C13_16  and  O4_17 
REMARK    6  A    between atoms: N1_24  and  O5_26 
REMARK    7  A    between atoms: O5_26  and  C19_27 
REMARK    8  A    between atoms: C19_27  and  C20_28 
REMARK    9  A    between atoms: C20_28  and  O6_29 
ROOT
HETATM    1  C6  UNL     1      15.031  10.331   4.989  1.00  0.00     0.133 C 
HETATM    2  C7  UNL     1      14.604  11.224   3.870  1.00  0.00     0.044 C 
HETATM    3  C8  UNL     1      15.756  11.617   3.020  1.00  0.00     0.054 C 
HETATM    4  C10 UNL     1      16.779  10.475   2.824  1.00  0.00     0.010 C 
HETATM    5  C11 UNL     1      17.524  10.735   1.601  1.00  0.00     0.007 C 
HETATM    6  C12 UNL     1      16.842  10.026   0.406  1.00  0.00     0.038 C 
HETATM    7  C13 UNL     1      17.133  10.678  -0.894  1.00  0.00     0.118 C 
HETATM    8  C14 UNL     1      18.634  10.836  -1.011  1.00  0.00     0.033 C 
HETATM    9  C15 UNL     1      19.306   9.982   0.029  1.00  0.00     0.018 C 
HETATM   10  C16 UNL     1      18.959  10.532   1.432  1.00  0.00     0.001 C 
HETATM   11  C17 UNL     1      19.740  11.872   1.437  1.00  0.00     0.022 C 
HETATM   12  C18 UNL     1      19.693   9.720   2.385  1.00  0.00     0.018 C 
HETATM   13  N1  UNL     1      20.258   8.633   1.932  1.00  0.00    -0.274 N 
ATOM     14  H1  UNL     1      20.148   8.426   0.940  1.00  0.00     0.193 HD
HETATM   15  C21 UNL     1      19.897   9.964   3.795  1.00  0.00     0.056 C 
HETATM   16  C22 UNL     1      18.721  10.512   4.461  1.00  0.00     0.015 C 
HETATM   17  C23 UNL     1      17.366  10.038   4.074  1.00  0.00    -0.037 C 
HETATM   18  C24 UNL     1      17.235   8.512   4.231  1.00  0.00     0.015 C 
HETATM   19  C25 UNL     1      16.494  10.523   5.231  1.00  0.00     0.042 C 
ENDROOT
BRANCH   1  20
HETATM   20  O2  UNL     1      14.337  10.499   6.175  1.00  0.00    -0.312 OA
BRANCH  20  21
HETATM   21  C5  UNL     1      13.996   9.469   7.028  1.00  0.00     0.289 C 
HETATM   22  O1  UNL     1      12.888   8.944   6.767  1.00  0.00    -0.260 OA
BRANCH  21  23
HETATM   23  C3  UNL     1      14.895   9.096   8.095  1.00  0.00     0.009 C 
HETATM   24  C2  UNL     1      14.937   9.759   9.211  1.00  0.00    -0.018 C 
HETATM   25  C1  UNL     1      14.105  10.918   9.496  1.00  0.00     0.036 C 
HETATM   26  C4  UNL     1      15.789   7.929   7.910  1.00  0.00     0.054 C 
ENDBRANCH  21  23
ENDBRANCH  20  21
ENDBRANCH   1  20
BRANCH   3  27
HETATM   27  C9  UNL     1      16.355  12.905   3.315  1.00  0.00     0.236 C 
HETATM   28  O3  UNL     1      15.669  13.889   3.526  1.00  0.00    -0.306 OA
ENDBRANCH   3  27
BRANCH   7  29
HETATM   29  O4  UNL     1      16.744   9.764  -1.898  1.00  0.00    -0.396 OA
ATOM     30  H4  UNL     1      17.283   9.950  -2.656  1.00  0.00     0.210 HD
ENDBRANCH   7  29
BRANCH  13  31
HETATM   31  O5  UNL     1      20.976   7.761   2.671  1.00  0.00    -0.278 OA
BRANCH  31  32
HETATM   32  C19 UNL     1      22.312   7.413   2.462  1.00  0.00     0.227 C 
BRANCH  32  33
HETATM   33  C20 UNL     1      22.621   7.254   0.975  1.00  0.00     0.192 C 
BRANCH  33  34
HETATM   34  O6  UNL     1      22.944   8.490   0.406  1.00  0.00    -0.399 OA
ATOM     35  H6  UNL     1      22.530   8.583  -0.444  1.00  0.00     0.209 HD
ENDBRANCH  33  34
ENDBRANCH  32  33
ENDBRANCH  31  32
ENDBRANCH  13  31
TORSDOF 9
ENDMDL
MODEL 5
REMARK VINA RESULT: -8.436219088      2.937      7.815
REMARK  9 active torsions:
REMARK  status: ('A' for Active; 'I' for Inactive)
REMARK    1  A    between atoms: C3_3  and  C5_5 
REMARK    2  A    between atoms: C5_5  and  O2_7 
REMARK    3  A    between atoms: O2_7  and  C6_8 
REMARK    4  A    between atoms: C8_10  and  C9_11 
REMARK    5  A    between atoms: C13_16  and  O4_17 
REMARK    6  A    between atoms: N1_24  and  O5_26 
REMARK    7  A    between atoms: O5_26  and  C19_27 
REMARK    8  A    between atoms: C19_27  and  C20_28 
REMARK    9  A    between atoms: C20_28  and  O6_29 
ROOT
HETATM    1  C6  UNL     1      15.165  10.206   5.120  1.00  0.00     0.133 C 
HETATM    2  C7  UNL     1      14.690  11.126   4.043  1.00  0.00     0.044 C 
HETATM    3  C8  UNL     1      15.807  11.551   3.162  1.00  0.00     0.054 C 
HETATM    4  C10 UNL     1      16.829  10.424   2.896  1.00  0.00     0.010 C 
HETATM    5  C11 UNL     1      17.527  10.724   1.654  1.00  0.00     0.007 C 
HETATM    6  C12 UNL     1      16.806  10.041   0.466  1.00  0.00     0.038 C 
HETATM    7  C13 UNL     1      17.042  10.731  -0.826  1.00  0.00     0.118 C 
HETATM    8  C14 UNL     1      18.537  10.905  -0.994  1.00  0.00     0.033 C 
HETATM    9  C15 UNL     1      19.254  10.028  -0.004  1.00  0.00     0.018 C 
HETATM   10  C16 UNL     1      18.955  10.537   1.426  1.00  0.00     0.001 C 
HETATM   11  C17 UNL     1      19.727  11.883   1.438  1.00  0.00     0.022 C 
HETATM   12  C18 UNL     1      19.730   9.705   2.328  1.00  0.00     0.018 C 
HETATM   13  N1  UNL     1      20.286   8.636   1.825  1.00  0.00    -0.274 N 
ATOM     14  H1  UNL     1      20.141   8.455   0.831  1.00  0.00     0.193 HD
HETATM   15  C21 UNL     1      19.985   9.912   3.735  1.00  0.00     0.056 C 
HETATM   16  C22 UNL     1      18.831  10.432   4.460  1.00  0.00     0.015 C 
HETATM   17  C23 UNL     1      17.466   9.958   4.110  1.00  0.00    -0.037 C 
HETATM   18  C24 UNL     1      17.353   8.427   4.230  1.00  0.00     0.015 C 
HETATM   19  C25 UNL     1      16.635  10.404   5.312  1.00  0.00     0.042 C 
ENDROOT
BRANCH   1  20
HETATM   20  O2  UNL     1      14.515  10.336   6.335  1.00  0.00    -0.312 OA
BRANCH  20  21
HETATM   21  C5  UNL     1      13.757   9.342   6.921  1.00  0.00     0.289 C 
HETATM   22  O1  UNL     1      12.962   8.784   6.130  1.00  0.00    -0.260 OA
BRANCH  21  23
HETATM   23  C3  UNL     1      13.932   9.041   8.322  1.00  0.00     0.009 C 
HETATM   24  C2  UNL     1      14.924   8.315   8.743  1.00  0.00    -0.018 C 
HETATM   25  C1  UNL     1      15.937   7.745   7.869  1.00  0.00     0.036 C 
HETATM   26  C4  UNL     1      12.956   9.574   9.301  1.00  0.00     0.054 C 
ENDBRANCH  21  23
ENDBRANCH  20  21
ENDBRANCH   1  20
BRANCH   3  27
HETATM   27  C9  UNL     1      16.407  12.836   3.469  1.00  0.00     0.236 C 
HETATM   28  O3  UNL     1      15.736  13.850   3.532  1.00  0.00    -0.306 OA
ENDBRANCH   3  27
BRANCH   7  29
HETATM   29  O4  UNL     1      16.622   9.841  -1.839  1.00  0.00    -0.396 OA
ATOM     30  H4  UNL     1      16.875  10.235  -2.665  1.00  0.00     0.210 HD
ENDBRANCH   7  29
BRANCH  13  31
HETATM   31  O5  UNL     1      21.038   7.750   2.511  1.00  0.00    -0.278 OA
BRANCH  31  32
HETATM   32  C19 UNL     1      22.399   7.508   2.322  1.00  0.00     0.227 C 
BRANCH  32  33
HETATM   33  C20 UNL     1      22.730   7.300   0.846  1.00  0.00     0.192 C 
BRANCH  33  34
HETATM   34  O6  UNL     1      22.995   8.524   0.225  1.00  0.00    -0.399 OA
ATOM     35  H6  UNL     1      23.785   8.913   0.579  1.00  0.00     0.209 HD
ENDBRANCH  33  34
ENDBRANCH  32  33
ENDBRANCH  31  32
ENDBRANCH  13  31
TORSDOF 9
ENDMDL
