MODEL 1
REMARK VINA RESULT: -9.166387197      0.000      0.000
REMARK  7 active torsions:
REMARK  status: ('A' for Active; 'I' for Inactive)
REMARK    1  A    between atoms: C3_4  and  S1_5 
REMARK    2  A    between atoms: S1_5  and  O2_7 
REMARK    3  A    between atoms: O2_7  and  C4_8 
REMARK    4  A    between atoms: C4_8  and  C5_9 
REMARK    5  A    between atoms: C5_9  and  N2_10 
REMARK    6  A    between atoms: C9_14  and  C10_15 
REMARK    7  A    between atoms: C21_31  and  N5_32 
ROOT
HETATM    1  N2  UNL     1      21.373   9.834   2.980  1.00  0.00     0.091 N 
HETATM    2  C6  UNL     1      22.149   8.886   3.686  1.00  0.00     0.272 C 
HETATM    3  C7  UNL     1      21.474   7.506   3.731  1.00  0.00     0.031 C 
HETATM    4  C8  UNL     1      19.986   7.700   3.910  1.00  0.00     0.015 C 
HETATM    5  C9  UNL     1      19.806   9.051   4.607  1.00  0.00     0.071 C 
HETATM    6  C19 UNL     1      20.099  10.123   3.609  1.00  0.00     0.283 C 
ENDROOT
BRANCH   1   7
HETATM    7  C5  UNL     1      21.276   9.613   1.583  1.00  0.00     0.299 C 
BRANCH   7   8
HETATM    8  C4  UNL     1      20.404  10.647   0.934  1.00  0.00     0.218 C 
BRANCH   8   9
HETATM    9  O2  UNL     1      19.408  10.056   0.143  1.00  0.00    -0.290 OA
BRANCH   9  10
HETATM   10  S1  UNL     1      17.912  10.701   0.463  1.00  0.00     0.192 S 
HETATM   11  O1  UNL     1      18.014  12.302   0.982  1.00  0.00    -0.223 OA
BRANCH  10  12
HETATM   12  C3  UNL     1      16.814  10.519  -0.862  1.00  0.00     0.091 A 
HETATM   13  C2  UNL     1      15.492  10.867  -0.690  1.00  0.00     0.133 A 
HETATM   14  N1  UNL     1      14.631  10.730  -1.713  1.00  0.00    -0.197 N 
HETATM   15  C1  UNL     1      13.217  11.097  -1.538  1.00  0.00     0.175 C 
HETATM   16  C21 UNL     1      14.985  10.264  -2.922  1.00  0.00     0.677 A 
HETATM   17  N4  UNL     1      16.274   9.918  -3.108  1.00  0.00    -0.201 N 
HETATM   18  C20 UNL     1      17.178  10.042  -2.099  1.00  0.00     0.130 A 
ATOM     19  H4  UNL     1      16.576   9.560  -4.015  1.00  0.00     0.183 HD
BRANCH  16  20
HETATM   20  N5  UNL     1      14.103  10.156  -3.867  1.00  0.00    -0.234 N 
ATOM     21  H52 UNL     1      13.640   9.271  -4.074  1.00  0.00     0.174 HD
ATOM     22  H51 UNL     1      13.851  10.967  -4.431  1.00  0.00     0.174 HD
ENDBRANCH  16  20
ENDBRANCH  10  12
ENDBRANCH   9  10
ENDBRANCH   8   9
ENDBRANCH   7   8
ENDBRANCH   1   7
BRANCH   5  23
HETATM   23  C10 UNL     1      18.412   9.160   5.147  1.00  0.00     0.057 A 
HETATM   24  N3  UNL     1      17.890   8.497   6.160  1.00  0.00    -0.356 N 
HETATM   25  C11 UNL     1      16.658   8.708   6.502  1.00  0.00     0.023 A 
ATOM     26  H3  UNL     1      18.454   7.820   6.673  1.00  0.00     0.166 HD
HETATM   27  C12 UNL     1      15.946   9.630   5.777  1.00  0.00     0.007 A 
HETATM   28  C18 UNL     1      16.206   7.873   7.677  1.00  0.00     0.058 C 
HETATM   29  S2  UNL     1      17.117  10.141   4.631  1.00  0.00    -0.079 SA
HETATM   30  C13 UNL     1      14.568  10.219   5.755  1.00  0.00     0.048 C 
HETATM   31  C14 UNL     1      13.486   9.192   5.762  1.00  0.00     0.005 C 
HETATM   32  C15 UNL     1      12.943   8.952   7.153  1.00  0.00     0.000 C 
HETATM   33  C16 UNL     1      13.776   7.827   7.753  1.00  0.00     0.000 C 
HETATM   34  C17 UNL     1      15.011   8.450   8.358  1.00  0.00     0.006 C 
ENDBRANCH   5  23
TORSDOF 7
ENDMDL
MODEL 2
REMARK VINA RESULT: -9.165718756      1.295      1.857
REMARK  7 active torsions:
REMARK  status: ('A' for Active; 'I' for Inactive)
REMARK    1  A    between atoms: C3_4  and  S1_5 
REMARK    2  A    between atoms: S1_5  and  O2_7 
REMARK    3  A    between atoms: O2_7  and  C4_8 
REMARK    4  A    between atoms: C4_8  and  C5_9 
REMARK    5  A    between atoms: C5_9  and  N2_10 
REMARK    6  A    between atoms: C9_14  and  C10_15 
REMARK    7  A    between atoms: C21_31  and  N5_32 
ROOT
HETATM    1  N2  UNL     1      20.169  11.025   1.724  1.00  0.00     0.091 N 
HETATM    2  C6  UNL     1      21.300  10.426   2.326  1.00  0.00     0.272 C 
HETATM    3  C7  UNL     1      21.068   8.939   2.638  1.00  0.00     0.031 C 
HETATM    4  C8  UNL     1      19.645   8.761   3.117  1.00  0.00     0.015 C 
HETATM    5  C9  UNL     1      19.218  10.105   3.714  1.00  0.00     0.071 C 
HETATM    6  C19 UNL     1      19.003  11.059   2.585  1.00  0.00     0.283 C 
ENDROOT
BRANCH   1   7
HETATM    7  C5  UNL     1      19.885  10.586   0.406  1.00  0.00     0.299 C 
BRANCH   7   8
HETATM    8  C4  UNL     1      18.841  11.452  -0.237  1.00  0.00     0.218 C 
BRANCH   8   9
HETATM    9  O2  UNL     1      17.947  10.693  -1.006  1.00  0.00    -0.290 OA
BRANCH   9  10
HETATM   10  S1  UNL     1      16.478  10.529  -0.249  1.00  0.00     0.192 S 
HETATM   11  O1  UNL     1      16.214  11.749   0.885  1.00  0.00    -0.223 OA
BRANCH  10  12
HETATM   12  C3  UNL     1      15.166  10.392  -1.369  1.00  0.00     0.091 A 
HETATM   13  C2  UNL     1      15.443  10.253  -2.712  1.00  0.00     0.133 A 
HETATM   14  N1  UNL     1      14.433  10.145  -3.591  1.00  0.00    -0.197 N 
HETATM   15  C1  UNL     1      14.720   9.998  -5.026  1.00  0.00     0.175 C 
HETATM   16  C21 UNL     1      13.137  10.165  -3.236  1.00  0.00     0.677 A 
HETATM   17  N4  UNL     1      12.847  10.301  -1.927  1.00  0.00    -0.201 N 
HETATM   18  C20 UNL     1      13.841  10.413  -1.005  1.00  0.00     0.130 A 
ATOM     19  H4  UNL     1      11.873  10.320  -1.624  1.00  0.00     0.183 HD
BRANCH  16  20
HETATM   20  N5  UNL     1      12.210  10.056  -4.136  1.00  0.00    -0.234 N 
ATOM     21  H52 UNL     1      11.945  10.839  -4.735  1.00  0.00     0.174 HD
ATOM     22  H51 UNL     1      11.719   9.172  -4.266  1.00  0.00     0.174 HD
ENDBRANCH  16  20
ENDBRANCH  10  12
ENDBRANCH   9  10
ENDBRANCH   8   9
ENDBRANCH   7   8
ENDBRANCH   1   7
BRANCH   5  23
HETATM   23  C10 UNL     1      17.975   9.923   4.532  1.00  0.00     0.057 A 
HETATM   24  N3  UNL     1      17.789   9.086   5.533  1.00  0.00    -0.356 N 
HETATM   25  C11 UNL     1      16.644   9.050   6.139  1.00  0.00     0.023 A 
ATOM     26  H3  UNL     1      18.544   8.468   5.830  1.00  0.00     0.166 HD
HETATM   27  C12 UNL     1      15.664   9.903   5.699  1.00  0.00     0.007 A 
HETATM   28  C18 UNL     1      16.586   8.041   7.262  1.00  0.00     0.058 C 
HETATM   29  S2  UNL     1      16.470  10.714   4.418  1.00  0.00    -0.079 SA
HETATM   30  C13 UNL     1      14.244  10.249   6.030  1.00  0.00     0.048 C 
HETATM   31  C14 UNL     1      13.352   9.057   6.119  1.00  0.00     0.005 C 
HETATM   32  C15 UNL     1      13.166   8.596   7.548  1.00  0.00     0.000 C 
HETATM   33  C16 UNL     1      14.266   7.576   7.817  1.00  0.00     0.000 C 
HETATM   34  C17 UNL     1      15.498   8.338   8.237  1.00  0.00     0.006 C 
ENDBRANCH   5  23
TORSDOF 7
ENDMDL
MODEL 3
REMARK VINA RESULT: -9.152208292      1.130      1.210
REMARK  7 active torsions:
REMARK  status: ('A' for Active; 'I' for Inactive)
REMARK    1  A    between atoms: C3_4  and  S1_5 
REMARK    2  A    between atoms: S1_5  and  O2_7 
REMARK    3  A    between atoms: O2_7  and  C4_8 
REMARK    4  A    between atoms: C4_8  and  C5_9 
REMARK    5  A    between atoms: C5_9  and  N2_10 
REMARK    6  A    between atoms: C9_14  and  C10_15 
REMARK    7  A    between atoms: C21_31  and  N5_32 
ROOT
HETATM    1  N2  UNL     1      21.784   8.582   3.634  1.00  0.00     0.091 N 
HETATM    2  C6  UNL     1      22.348   7.619   4.504  1.00  0.00     0.272 C 
HETATM    3  C7  UNL     1      21.489   6.348   4.592  1.00  0.00     0.031 C 
HETATM    4  C8  UNL     1      20.031   6.747   4.584  1.00  0.00     0.015 C 
HETATM    5  C9  UNL     1      19.969   8.174   5.135  1.00  0.00     0.071 C 
HETATM    6  C19 UNL     1      20.506   9.093   4.086  1.00  0.00     0.283 C 
ENDROOT
BRANCH   1   7
HETATM    7  C5  UNL     1      21.800   8.234   2.260  1.00  0.00     0.299 C 
BRANCH   7   8
HETATM    8  C4  UNL     1      21.384   9.396   1.406  1.00  0.00     0.218 C 
BRANCH   8   9
HETATM    9  O2  UNL     1      20.089   9.219   0.894  1.00  0.00    -0.290 OA
BRANCH   9  10
HETATM   10  S1  UNL     1      19.344  10.675   0.606  1.00  0.00     0.192 S 
HETATM   11  O1  UNL     1      20.419  11.825   0.003  1.00  0.00    -0.223 OA
BRANCH  10  12
HETATM   12  C3  UNL     1      17.940  10.514  -0.393  1.00  0.00     0.091 A 
HETATM   13  C2  UNL     1      16.693  10.548   0.193  1.00  0.00     0.133 A 
HETATM   14  N1  UNL     1      15.596  10.425  -0.574  1.00  0.00    -0.197 N 
HETATM   15  C1  UNL     1      14.261  10.459   0.044  1.00  0.00     0.175 C 
HETATM   16  C21 UNL     1      15.638  10.266  -1.907  1.00  0.00     0.677 A 
HETATM   17  N4  UNL     1      16.849  10.230  -2.497  1.00  0.00    -0.201 N 
HETATM   18  C20 UNL     1      17.984  10.351  -1.756  1.00  0.00     0.130 A 
ATOM     19  H4  UNL     1      16.916  10.110  -3.508  1.00  0.00     0.183 HD
BRANCH  16  20
HETATM   20  N5  UNL     1      14.540  10.153  -2.588  1.00  0.00    -0.234 N 
ATOM     21  H52 UNL     1      14.273  10.835  -3.298  1.00  0.00     0.174 HD
ATOM     22  H51 UNL     1      13.912   9.366  -2.426  1.00  0.00     0.174 HD
ENDBRANCH  16  20
ENDBRANCH  10  12
ENDBRANCH   9  10
ENDBRANCH   8   9
ENDBRANCH   7   8
ENDBRANCH   1   7
BRANCH   5  23
HETATM   23  C10 UNL     1      18.557   8.514   5.502  1.00  0.00     0.057 A 
HETATM   24  N3  UNL     1      17.866   8.068   6.533  1.00  0.00    -0.356 N 
HETATM   25  C11 UNL     1      16.644   8.462   6.709  1.00  0.00     0.023 A 
ATOM     26  H3  UNL     1      18.292   7.416   7.191  1.00  0.00     0.166 HD
HETATM   27  C12 UNL     1      16.120   9.339   5.794  1.00  0.00     0.007 A 
HETATM   28  C18 UNL     1      15.986   7.864   7.931  1.00  0.00     0.058 C 
HETATM   29  S2  UNL     1      17.445   9.544   4.722  1.00  0.00    -0.079 SA
HETATM   30  C13 UNL     1      14.834  10.067   5.543  1.00  0.00     0.048 C 
HETATM   31  C14 UNL     1      13.637   9.176   5.573  1.00  0.00     0.005 C 
HETATM   32  C15 UNL     1      12.944   9.206   6.917  1.00  0.00     0.000 C 
HETATM   33  C16 UNL     1      13.573   8.096   7.750  1.00  0.00     0.000 C 
HETATM   34  C17 UNL     1      14.815   8.662   8.394  1.00  0.00     0.006 C 
ENDBRANCH   5  23
TORSDOF 7
ENDMDL
MODEL 4
REMARK VINA RESULT: -9.119118138      2.577      3.335
REMARK  7 active torsions:
REMARK  status: ('A' for Active; 'I' for Inactive)
REMARK    1  A    between atoms: C3_4  and  S1_5 
REMARK    2  A    between atoms: S1_5  and  O2_7 
REMARK    3  A    between atoms: O2_7  and  C4_8 
REMARK    4  A    between atoms: C4_8  and  C5_9 
REMARK    5  A    between atoms: C5_9  and  N2_10 
REMARK    6  A    between atoms: C9_14  and  C10_15 
REMARK    7  A    between atoms: C21_31  and  N5_32 
ROOT
HETATM    1  N2  UNL     1      18.842  11.069   1.160  1.00  0.00     0.091 N 
HETATM    2  C6  UNL     1      20.186  11.073   1.601  1.00  0.00     0.272 C 
HETATM    3  C7  UNL     1      20.608   9.712   2.177  1.00  0.00     0.031 C 
HETATM    4  C8  UNL     1      19.449   9.136   2.958  1.00  0.00     0.015 C 
HETATM    5  C9  UNL     1      18.603  10.326   3.419  1.00  0.00     0.071 C 
HETATM    6  C19 UNL     1      17.882  10.863   2.226  1.00  0.00     0.283 C 
ENDROOT
BRANCH   1   7
HETATM    7  C5  UNL     1      18.588  10.278   0.010  1.00  0.00     0.299 C 
BRANCH   7   8
HETATM    8  C4  UNL     1      18.182  11.134  -1.153  1.00  0.00     0.218 C 
BRANCH   8   9
HETATM    9  O2  UNL     1      17.071  10.598  -1.822  1.00  0.00    -0.290 OA
BRANCH   9  10
HETATM   10  S1  UNL     1      15.673  10.814  -0.952  1.00  0.00     0.192 S 
HETATM   11  O1  UNL     1      14.463  11.542  -1.873  1.00  0.00    -0.223 OA
BRANCH  10  12
HETATM   12  C3  UNL     1      15.125   9.353  -0.204  1.00  0.00     0.091 A 
HETATM   13  C2  UNL     1      14.505   9.420   1.025  1.00  0.00     0.133 A 
HETATM   14  N1  UNL     1      14.076   8.291   1.615  1.00  0.00    -0.197 N 
HETATM   15  C1  UNL     1      13.414   8.354   2.927  1.00  0.00     0.175 C 
HETATM   16  C21 UNL     1      14.215   7.072   1.070  1.00  0.00     0.677 A 
HETATM   17  N4  UNL     1      14.820   6.987  -0.132  1.00  0.00    -0.201 N 
HETATM   18  C20 UNL     1      15.269   8.105  -0.762  1.00  0.00     0.130 A 
ATOM     19  H4  UNL     1      14.943   6.075  -0.573  1.00  0.00     0.183 HD
BRANCH  16  20
HETATM   20  N5  UNL     1      13.778   6.022   1.693  1.00  0.00    -0.234 N 
ATOM     21  H52 UNL     1      12.860   6.002   2.138  1.00  0.00     0.174 HD
ATOM     22  H51 UNL     1      14.351   5.180   1.750  1.00  0.00     0.174 HD
ENDBRANCH  16  20
ENDBRANCH  10  12
ENDBRANCH   9  10
ENDBRANCH   8   9
ENDBRANCH   7   8
ENDBRANCH   1   7
BRANCH   5  23
HETATM   23  C10 UNL     1      17.654   9.887   4.492  1.00  0.00     0.057 A 
HETATM   24  N3  UNL     1      16.421  10.309   4.695  1.00  0.00    -0.356 N 
HETATM   25  C11 UNL     1      15.728   9.824   5.677  1.00  0.00     0.023 A 
ATOM     26  H3  UNL     1      16.014  11.014   4.081  1.00  0.00     0.166 HD
HETATM   27  C12 UNL     1      16.324   8.879   6.471  1.00  0.00     0.007 A 
HETATM   28  C18 UNL     1      14.337  10.407   5.780  1.00  0.00     0.058 C 
HETATM   29  S2  UNL     1      17.872   8.746   5.740  1.00  0.00    -0.079 SA
HETATM   30  C13 UNL     1      15.987   8.043   7.669  1.00  0.00     0.048 C 
HETATM   31  C14 UNL     1      15.428   8.835   8.803  1.00  0.00     0.005 C 
HETATM   32  C15 UNL     1      13.916   8.793   8.830  1.00  0.00     0.000 C 
HETATM   33  C16 UNL     1      13.438   9.976   7.997  1.00  0.00     0.000 C 
HETATM   34  C17 UNL     1      13.411   9.533   6.554  1.00  0.00     0.006 C 
ENDBRANCH   5  23
TORSDOF 7
ENDMDL
MODEL 5
REMARK VINA RESULT: -9.100776909      2.181      5.548
REMARK  7 active torsions:
REMARK  status: ('A' for Active; 'I' for Inactive)
REMARK    1  A    between atoms: C3_4  and  S1_5 
REMARK    2  A    between atoms: S1_5  and  O2_7 
REMARK    3  A    between atoms: O2_7  and  C4_8 
REMARK    4  A    between atoms: C4_8  and  C5_9 
REMARK    5  A    between atoms: C5_9  and  N2_10 
REMARK    6  A    between atoms: C9_14  and  C10_15 
REMARK    7  A    between atoms: C21_31  and  N5_32 
ROOT
HETATM    1  N2  UNL     1      15.697  10.096   3.577  1.00  0.00     0.091 N 
HETATM    2  C6  UNL     1      14.937   9.287   4.454  1.00  0.00     0.272 C 
HETATM    3  C7  UNL     1      15.617   9.122   5.822  1.00  0.00     0.031 C 
HETATM    4  C8  UNL     1      17.108   8.990   5.609  1.00  0.00     0.015 C 
HETATM    5  C9  UNL     1      17.296   8.431   4.196  1.00  0.00     0.071 C 
HETATM    6  C19 UNL     1      16.981   9.523   3.226  1.00  0.00     0.283 C 
ENDROOT
BRANCH   1   7
HETATM    7  C5  UNL     1      15.769  11.467   3.932  1.00  0.00     0.299 C 
BRANCH   7   8
HETATM    8  C4  UNL     1      17.107  12.046   3.578  1.00  0.00     0.218 C 
BRANCH   8   9
HETATM    9  O2  UNL     1      17.013  12.934   2.497  1.00  0.00    -0.290 OA
BRANCH   9  10
HETATM   10  S1  UNL     1      18.229  12.684   1.394  1.00  0.00     0.192 S 
HETATM   11  O1  UNL     1      19.624  12.077   2.121  1.00  0.00    -0.223 OA
BRANCH  10  12
HETATM   12  C3  UNL     1      17.721  11.712   0.055  1.00  0.00     0.091 A 
HETATM   13  C2  UNL     1      16.383  11.415  -0.088  1.00  0.00     0.133 A 
HETATM   14  N1  UNL     1      15.977  10.661  -1.124  1.00  0.00    -0.197 N 
HETATM   15  C1  UNL     1      14.551  10.339  -1.283  1.00  0.00     0.175 C 
HETATM   16  C21 UNL     1      16.813  10.166  -2.052  1.00  0.00     0.677 A 
HETATM   17  N4  UNL     1      18.125  10.446  -1.927  1.00  0.00    -0.201 N 
HETATM   18  C20 UNL     1      18.577  11.206  -0.893  1.00  0.00     0.130 A 
ATOM     19  H4  UNL     1      18.787  10.084  -2.615  1.00  0.00     0.183 HD
BRANCH  16  20
HETATM   20  N5  UNL     1      16.355   9.445  -3.027  1.00  0.00    -0.234 N 
ATOM     21  H52 UNL     1      15.748   8.641  -2.865  1.00  0.00     0.174 HD
ATOM     22  H51 UNL     1      16.596   9.670  -3.992  1.00  0.00     0.174 HD
ENDBRANCH  16  20
ENDBRANCH  10  12
ENDBRANCH   9  10
ENDBRANCH   8   9
ENDBRANCH   7   8
ENDBRANCH   1   7
BRANCH   5  23
HETATM   23  C10 UNL     1      18.699   7.929   4.033  1.00  0.00     0.057 A 
HETATM   24  N3  UNL     1      19.141   6.703   4.231  1.00  0.00    -0.356 N 
HETATM   25  C11 UNL     1      20.395   6.433   4.046  1.00  0.00     0.023 A 
ATOM     26  H3  UNL     1      18.499   5.969   4.528  1.00  0.00     0.166 HD
HETATM   27  C12 UNL     1      21.215   7.458   3.646  1.00  0.00     0.007 A 
HETATM   28  C18 UNL     1      20.747   4.988   4.314  1.00  0.00     0.058 C 
HETATM   29  S2  UNL     1      20.107   8.766   3.561  1.00  0.00    -0.079 SA
HETATM   30  C13 UNL     1      22.659   7.674   3.309  1.00  0.00     0.048 C 
HETATM   31  C14 UNL     1      23.592   7.157   4.352  1.00  0.00     0.005 C 
HETATM   32  C15 UNL     1      24.118   5.781   4.007  1.00  0.00     0.000 C 
HETATM   33  C16 UNL     1      23.149   4.782   4.627  1.00  0.00     0.000 C 
HETATM   34  C17 UNL     1      22.018   4.580   3.649  1.00  0.00     0.006 C 
ENDBRANCH   5  23
TORSDOF 7
ENDMDL
