MODEL 1
REMARK VINA RESULT: -8.415159881      0.000      0.000
REMARK  7 active torsions:
REMARK  status: ('A' for Active; 'I' for Inactive)
REMARK    1  A    between atoms: C2_3  and  O1_4 
REMARK    2  A    between atoms: C3_6  and  C4_7 
REMARK    3  A    between atoms: N3_18  and  C11_19 
REMARK    4  A    between atoms: C11_19  and  O4_25 
REMARK    5  A    between atoms: N4_20  and  N5_22 
REMARK    6  A    between atoms: O4_25  and  N6_26 
REMARK    7  A    between atoms: N7_28  and  N8_30 
ROOT
HETATM    1  C1  UNL     1      20.056  -4.932  85.040  1.00  0.00     0.163 C 
HETATM    2  N1  UNL     1      19.279  -4.537  86.210  1.00  0.00    -0.282 N 
HETATM    3  C2  UNL     1      18.498  -3.431  86.264  1.00  0.00     0.174 A 
HETATM    4  C3  UNL     1      17.949  -3.418  87.517  1.00  0.00     0.099 A 
HETATM    5  N3  UNL     1      18.391  -4.492  88.194  1.00  0.00    -0.222 N 
HETATM    6  C12 UNL     1      19.208  -5.176  87.383  1.00  0.00     0.338 A 
HETATM    7  O5  UNL     1      19.813  -6.264  87.705  1.00  0.00    -0.246 OA
ENDROOT
BRANCH   5   8
HETATM    8  C11 UNL     1      18.068  -4.870  89.543  1.00  0.00     0.274 C 
HETATM    9  N4  UNL     1      17.050  -4.388  90.126  1.00  0.00    -0.270 N 
ATOM     10  H4  UNL     1      16.463  -3.726  89.620  1.00  0.00     0.190 HD
BRANCH   9  11
HETATM   11  N5  UNL     1      16.705  -4.728  91.429  1.00  0.00    -0.342 N 
ATOM     12  H52 UNL     1      16.381  -5.680  91.601  1.00  0.00     0.176 HD
ATOM     13  H51 UNL     1      16.767  -4.065  92.203  1.00  0.00     0.176 HD
ENDBRANCH   9  11
BRANCH   8  14
HETATM   14  O4  UNL     1      18.880  -5.770  90.211  1.00  0.00    -0.182 OA
BRANCH  14  15
HETATM   15  N6  UNL     1      18.697  -7.117  89.993  1.00  0.00    -0.184 N 
HETATM   16  N7  UNL     1      19.650  -7.929  89.954  1.00  0.00    -0.229 N 
ATOM     17  H7  UNL     1      19.475  -8.920  89.790  1.00  0.00     0.209 HD
ATOM     18  H6  UNL     1      17.749  -7.468  89.857  1.00  0.00     0.218 HD
BRANCH  16  19
HETATM   19  N8  UNL     1      20.968  -7.461  90.139  1.00  0.00    -0.329 N 
ATOM     20  H82 UNL     1      21.436  -6.970  89.377  1.00  0.00     0.178 HD
ATOM     21  H81 UNL     1      21.435  -7.618  91.032  1.00  0.00     0.178 HD
ENDBRANCH  16  19
ENDBRANCH  14  15
ENDBRANCH   8  14
ENDBRANCH   5   8
BRANCH   4  22
HETATM   22  C4  UNL     1      17.060  -2.405  88.067  1.00  0.00     0.048 C 
HETATM   23  C5  UNL     1      15.862  -2.091  87.711  1.00  0.00     0.029 C 
HETATM   24  C6  UNL     1      14.994  -2.599  86.672  1.00  0.00     0.255 C 
HETATM   25  C8  UNL     1      15.033  -1.042  88.399  1.00  0.00     0.066 C 
HETATM   26  O2  UNL     1      15.343  -3.235  85.647  1.00  0.00    -0.268 OA
HETATM   27  N2  UNL     1      13.640  -2.264  86.984  1.00  0.00    -0.293 N 
HETATM   28  C7  UNL     1      13.638  -1.537  88.220  1.00  0.00     0.237 C 
ATOM     29  H2  UNL     1      12.820  -2.500  86.426  1.00  0.00     0.172 HD
HETATM   30  O3  UNL     1      12.700  -1.343  88.996  1.00  0.00    -0.272 OA
HETATM   31  C9  UNL     1      15.288   0.260  87.682  1.00  0.00     0.030 C 
HETATM   32  C10 UNL     1      15.446  -1.008  89.846  1.00  0.00     0.030 C 
ENDBRANCH   4  22
BRANCH   3  33
HETATM   33  O1  UNL     1      18.327  -2.518  85.199  1.00  0.00    -0.344 OA
ATOM     34  H1  UNL     1      17.973  -1.643  85.293  1.00  0.00     0.219 HD
ENDBRANCH   3  33
TORSDOF 7
ENDMDL
MODEL 2
REMARK VINA RESULT: -7.946724613      1.563      2.281
REMARK  7 active torsions:
REMARK  status: ('A' for Active; 'I' for Inactive)
REMARK    1  A    between atoms: C2_3  and  O1_4 
REMARK    2  A    between atoms: C3_6  and  C4_7 
REMARK    3  A    between atoms: N3_18  and  C11_19 
REMARK    4  A    between atoms: C11_19  and  O4_25 
REMARK    5  A    between atoms: N4_20  and  N5_22 
REMARK    6  A    between atoms: O4_25  and  N6_26 
REMARK    7  A    between atoms: N7_28  and  N8_30 
ROOT
HETATM    1  C1  UNL     1      20.018  -5.820  87.051  1.00  0.00     0.163 C 
HETATM    2  N1  UNL     1      19.007  -5.196  87.897  1.00  0.00    -0.282 N 
HETATM    3  C2  UNL     1      18.391  -4.025  87.606  1.00  0.00     0.174 A 
HETATM    4  C3  UNL     1      17.526  -3.787  88.639  1.00  0.00     0.099 A 
HETATM    5  N3  UNL     1      17.622  -4.795  89.524  1.00  0.00    -0.222 N 
HETATM    6  C12 UNL     1      18.536  -5.657  89.061  1.00  0.00     0.338 A 
HETATM    7  O5  UNL     1      18.883  -6.741  89.658  1.00  0.00    -0.246 OA
ENDROOT
BRANCH   5   8
HETATM    8  C11 UNL     1      16.895  -4.950  90.755  1.00  0.00     0.274 C 
HETATM    9  N4  UNL     1      15.989  -5.830  90.867  1.00  0.00    -0.270 N 
ATOM     10  H4  UNL     1      15.785  -6.427  90.067  1.00  0.00     0.190 HD
BRANCH   9  11
HETATM   11  N5  UNL     1      15.265  -6.010  92.040  1.00  0.00    -0.342 N 
ATOM     12  H52 UNL     1      14.477  -5.385  92.212  1.00  0.00     0.176 HD
ATOM     13  H51 UNL     1      15.496  -6.735  92.721  1.00  0.00     0.176 HD
ENDBRANCH   9  11
BRANCH   8  14
HETATM   14  O4  UNL     1      17.191  -4.126  91.829  1.00  0.00    -0.182 OA
BRANCH  14  15
HETATM   15  N6  UNL     1      18.344  -4.357  92.544  1.00  0.00    -0.184 N 
HETATM   16  N7  UNL     1      18.339  -4.588  93.775  1.00  0.00    -0.229 N 
ATOM     17  H7  UNL     1      19.214  -4.755  94.271  1.00  0.00     0.209 HD
ATOM     18  H6  UNL     1      19.238  -4.339  92.052  1.00  0.00     0.218 HD
BRANCH  16  19
HETATM   19  N8  UNL     1      17.111  -4.615  94.470  1.00  0.00    -0.329 N 
ATOM     20  H82 UNL     1      16.547  -3.767  94.522  1.00  0.00     0.178 HD
ATOM     21  H81 UNL     1      16.804  -5.482  94.910  1.00  0.00     0.178 HD
ENDBRANCH  16  19
ENDBRANCH  14  15
ENDBRANCH   8  14
ENDBRANCH   5   8
BRANCH   4  22
HETATM   22  C4  UNL     1      16.658  -2.629  88.798  1.00  0.00     0.048 C 
HETATM   23  C5  UNL     1      15.634  -2.275  88.101  1.00  0.00     0.029 C 
HETATM   24  C6  UNL     1      14.997  -2.865  86.945  1.00  0.00     0.255 C 
HETATM   25  C8  UNL     1      14.794  -1.065  88.404  1.00  0.00     0.066 C 
HETATM   26  O2  UNL     1      15.510  -3.681  86.139  1.00  0.00    -0.268 OA
HETATM   27  N2  UNL     1      13.660  -2.372  86.842  1.00  0.00    -0.293 N 
HETATM   28  C7  UNL     1      13.438  -1.462  87.928  1.00  0.00     0.237 C 
ATOM     29  H2  UNL     1      12.982  -2.623  86.123  1.00  0.00     0.172 HD
HETATM   30  O3  UNL     1      12.367  -1.071  88.397  1.00  0.00    -0.272 OA
HETATM   31  C9  UNL     1      15.377   0.082  87.617  1.00  0.00     0.030 C 
HETATM   32  C10 UNL     1      14.835  -0.840  89.891  1.00  0.00     0.030 C 
ENDBRANCH   4  22
BRANCH   3  33
HETATM   33  O1  UNL     1      18.638  -3.256  86.447  1.00  0.00    -0.344 OA
ATOM     34  H1  UNL     1      19.214  -2.502  86.415  1.00  0.00     0.219 HD
ENDBRANCH   3  33
TORSDOF 7
ENDMDL
MODEL 3
REMARK VINA RESULT: -7.289533025      4.454      7.995
REMARK  7 active torsions:
REMARK  status: ('A' for Active; 'I' for Inactive)
REMARK    1  A    between atoms: C2_3  and  O1_4 
REMARK    2  A    between atoms: C3_6  and  C4_7 
REMARK    3  A    between atoms: N3_18  and  C11_19 
REMARK    4  A    between atoms: C11_19  and  O4_25 
REMARK    5  A    between atoms: N4_20  and  N5_22 
REMARK    6  A    between atoms: O4_25  and  N6_26 
REMARK    7  A    between atoms: N7_28  and  N8_30 
ROOT
HETATM    1  C1  UNL     1      18.994  -5.277  88.039  1.00  0.00     0.163 C 
HETATM    2  N1  UNL     1      19.993  -6.145  87.426  1.00  0.00    -0.282 N 
HETATM    3  C2  UNL     1      20.295  -6.140  86.105  1.00  0.00     0.174 A 
HETATM    4  C3  UNL     1      21.267  -7.088  85.937  1.00  0.00     0.099 A 
HETATM    5  N3  UNL     1      21.540  -7.644  87.130  1.00  0.00    -0.222 N 
HETATM    6  C12 UNL     1      20.752  -7.059  88.041  1.00  0.00     0.338 A 
HETATM    7  O5  UNL     1      20.747  -7.347  89.294  1.00  0.00    -0.246 OA
ENDROOT
BRANCH   5   8
HETATM    8  C11 UNL     1      22.494  -8.681  87.415  1.00  0.00     0.274 C 
HETATM    9  N4  UNL     1      23.710  -8.400  87.638  1.00  0.00    -0.270 N 
ATOM     10  H4  UNL     1      24.001  -7.423  87.613  1.00  0.00     0.190 HD
BRANCH   9  11
HETATM   11  N5  UNL     1      24.663  -9.374  87.916  1.00  0.00    -0.342 N 
ATOM     12  H52 UNL     1      24.356 -10.347  87.929  1.00  0.00     0.176 HD
ATOM     13  H51 UNL     1      25.640  -9.147  88.104  1.00  0.00     0.176 HD
ENDBRANCH   9  11
BRANCH   8  14
HETATM   14  O4  UNL     1      22.077 -10.001  87.444  1.00  0.00    -0.182 OA
BRANCH  14  15
HETATM   15  N6  UNL     1      21.804 -10.636  86.253  1.00  0.00    -0.184 N 
HETATM   16  N7  UNL     1      20.635 -10.851  85.856  1.00  0.00    -0.229 N 
ATOM     17  H7  UNL     1      20.473 -11.324  84.968  1.00  0.00     0.209 HD
ATOM     18  H6  UNL     1      22.584 -10.944  85.671  1.00  0.00     0.218 HD
BRANCH  16  19
HETATM   19  N8  UNL     1      19.546 -10.432  86.650  1.00  0.00    -0.329 N 
ATOM     20  H82 UNL     1      19.111  -9.529  86.464  1.00  0.00     0.178 HD
ATOM     21  H81 UNL     1      19.209 -11.038  87.397  1.00  0.00     0.178 HD
ENDBRANCH  16  19
ENDBRANCH  14  15
ENDBRANCH   8  14
ENDBRANCH   5   8
BRANCH   4  22
HETATM   22  C4  UNL     1      21.895  -7.478  84.683  1.00  0.00     0.048 C 
HETATM   23  C5  UNL     1      21.363  -7.999  83.631  1.00  0.00     0.029 C 
HETATM   24  C6  UNL     1      20.004  -8.383  83.321  1.00  0.00     0.255 C 
HETATM   25  C8  UNL     1      22.128  -8.316  82.377  1.00  0.00     0.066 C 
HETATM   26  O2  UNL     1      19.084  -8.617  84.142  1.00  0.00    -0.268 OA
HETATM   27  N2  UNL     1      19.851  -8.465  81.902  1.00  0.00    -0.293 N 
HETATM   28  C7  UNL     1      21.111  -8.139  81.301  1.00  0.00     0.237 C 
ATOM     29  H2  UNL     1      18.996  -8.713  81.405  1.00  0.00     0.172 HD
HETATM   30  O3  UNL     1      21.341  -7.782  80.144  1.00  0.00    -0.272 OA
HETATM   31  C9  UNL     1      22.605  -9.741  82.501  1.00  0.00     0.030 C 
HETATM   32  C10 UNL     1      23.256  -7.325  82.265  1.00  0.00     0.030 C 
ENDBRANCH   4  22
BRANCH   3  33
HETATM   33  O1  UNL     1      19.690  -5.295  85.148  1.00  0.00    -0.344 OA
ATOM     34  H1  UNL     1      18.874  -4.829  85.282  1.00  0.00     0.219 HD
ENDBRANCH   3  33
TORSDOF 7
ENDMDL
MODEL 4
REMARK VINA RESULT: -7.248903649      3.435      7.282
REMARK  7 active torsions:
REMARK  status: ('A' for Active; 'I' for Inactive)
REMARK    1  A    between atoms: C2_3  and  O1_4 
REMARK    2  A    between atoms: C3_6  and  C4_7 
REMARK    3  A    between atoms: N3_18  and  C11_19 
REMARK    4  A    between atoms: C11_19  and  O4_25 
REMARK    5  A    between atoms: N4_20  and  N5_22 
REMARK    6  A    between atoms: O4_25  and  N6_26 
REMARK    7  A    between atoms: N7_28  and  N8_30 
ROOT
HETATM    1  C1  UNL     1      18.484  -3.580  85.648  1.00  0.00     0.163 C 
HETATM    2  N1  UNL     1      19.156  -4.632  86.401  1.00  0.00    -0.282 N 
HETATM    3  C2  UNL     1      20.017  -5.525  85.856  1.00  0.00     0.174 A 
HETATM    4  C3  UNL     1      20.422  -6.335  86.882  1.00  0.00     0.099 A 
HETATM    5  N3  UNL     1      19.818  -5.932  88.013  1.00  0.00    -0.222 N 
HETATM    6  C12 UNL     1      19.041  -4.885  87.710  1.00  0.00     0.338 A 
HETATM    7  O5  UNL     1      18.314  -4.246  88.556  1.00  0.00    -0.246 OA
ENDROOT
BRANCH   5   8
HETATM    8  C11 UNL     1      19.955  -6.500  89.328  1.00  0.00     0.274 C 
HETATM    9  N4  UNL     1      20.880  -7.328  89.583  1.00  0.00    -0.270 N 
ATOM     10  H4  UNL     1      21.528  -7.585  88.839  1.00  0.00     0.190 HD
BRANCH   9  11
HETATM   11  N5  UNL     1      21.045  -7.898  90.841  1.00  0.00    -0.342 N 
ATOM     12  H52 UNL     1      20.641  -7.409  91.640  1.00  0.00     0.176 HD
ATOM     13  H51 UNL     1      21.549  -8.774  90.983  1.00  0.00     0.176 HD
ENDBRANCH   9  11
BRANCH   8  14
HETATM   14  O4  UNL     1      19.063  -6.136  90.323  1.00  0.00    -0.182 OA
BRANCH  14  15
HETATM   15  N6  UNL     1      17.742  -6.500  90.194  1.00  0.00    -0.184 N 
HETATM   16  N7  UNL     1      16.806  -5.820  90.674  1.00  0.00    -0.229 N 
ATOM     17  H7  UNL     1      15.839  -6.122  90.558  1.00  0.00     0.209 HD
ATOM     18  H6  UNL     1      17.516  -7.357  89.689  1.00  0.00     0.218 HD
BRANCH  16  19
HETATM   19  N8  UNL     1      17.101  -4.632  91.376  1.00  0.00    -0.329 N 
ATOM     20  H82 UNL     1      17.968  -4.570  91.909  1.00  0.00     0.178 HD
ATOM     21  H81 UNL     1      16.444  -3.853  91.341  1.00  0.00     0.178 HD
ENDBRANCH  16  19
ENDBRANCH  14  15
ENDBRANCH   8  14
ENDBRANCH   5   8
BRANCH   4  22
HETATM   22  C4  UNL     1      21.326  -7.472  86.789  1.00  0.00     0.048 C 
HETATM   23  C5  UNL     1      21.350  -8.427  85.923  1.00  0.00     0.029 C 
HETATM   24  C6  UNL     1      20.519  -8.718  84.777  1.00  0.00     0.255 C 
HETATM   25  C8  UNL     1      22.376  -9.525  85.920  1.00  0.00     0.066 C 
HETATM   26  O2  UNL     1      19.358  -8.289  84.564  1.00  0.00    -0.268 OA
HETATM   27  N2  UNL     1      21.224  -9.592  83.894  1.00  0.00    -0.293 N 
HETATM   28  C7  UNL     1      22.506  -9.867  84.474  1.00  0.00     0.237 C 
ATOM     29  H2  UNL     1      20.877  -9.957  83.008  1.00  0.00     0.172 HD
HETATM   30  O3  UNL     1      23.523 -10.294  83.924  1.00  0.00    -0.272 OA
HETATM   31  C9  UNL     1      21.810 -10.658  86.739  1.00  0.00     0.030 C 
HETATM   32  C10 UNL     1      23.651  -8.965  86.491  1.00  0.00     0.030 C 
ENDBRANCH   4  22
BRANCH   3  33
HETATM   33  O1  UNL     1      20.382  -5.555  84.491  1.00  0.00    -0.344 OA
ATOM     34  H1  UNL     1      20.393  -4.797  83.920  1.00  0.00     0.219 HD
ENDBRANCH   3  33
TORSDOF 7
ENDMDL
MODEL 5
REMARK VINA RESULT: -7.170236709      4.985      9.118
REMARK  7 active torsions:
REMARK  status: ('A' for Active; 'I' for Inactive)
REMARK    1  A    between atoms: C2_3  and  O1_4 
REMARK    2  A    between atoms: C3_6  and  C4_7 
REMARK    3  A    between atoms: N3_18  and  C11_19 
REMARK    4  A    between atoms: C11_19  and  O4_25 
REMARK    5  A    between atoms: N4_20  and  N5_22 
REMARK    6  A    between atoms: O4_25  and  N6_26 
REMARK    7  A    between atoms: N7_28  and  N8_30 
ROOT
HETATM    1  C1  UNL     1      19.181  -5.292  88.988  1.00  0.00     0.163 C 
HETATM    2  N1  UNL     1      19.952  -6.109  88.058  1.00  0.00    -0.282 N 
HETATM    3  C2  UNL     1      20.769  -7.122  88.436  1.00  0.00     0.174 A 
HETATM    4  C3  UNL     1      21.302  -7.628  87.281  1.00  0.00     0.099 A 
HETATM    5  N3  UNL     1      20.812  -6.933  86.239  1.00  0.00    -0.222 N 
HETATM    6  C12 UNL     1      19.983  -6.001  86.725  1.00  0.00     0.338 A 
HETATM    7  O5  UNL     1      19.336  -5.154  86.006  1.00  0.00    -0.246 OA
ENDROOT
BRANCH   5   8
HETATM    8  C11 UNL     1      21.105  -7.127  84.844  1.00  0.00     0.274 C 
HETATM    9  N4  UNL     1      22.300  -7.101  84.423  1.00  0.00    -0.270 N 
ATOM     10  H4  UNL     1      23.053  -6.942  85.091  1.00  0.00     0.190 HD
BRANCH   9  11
HETATM   11  N5  UNL     1      22.622  -7.283  83.082  1.00  0.00    -0.342 N 
ATOM     12  H52 UNL     1      23.417  -6.763  82.710  1.00  0.00     0.176 HD
ATOM     13  H51 UNL     1      22.096  -7.910  82.473  1.00  0.00     0.176 HD
ENDBRANCH   9  11
BRANCH   8  14
HETATM   14  O4  UNL     1      20.066  -7.342  83.954  1.00  0.00    -0.182 OA
BRANCH  14  15
HETATM   15  N6  UNL     1      19.652  -8.633  83.718  1.00  0.00    -0.184 N 
HETATM   16  N7  UNL     1      19.490  -9.088  82.562  1.00  0.00    -0.229 N 
ATOM     17  H7  UNL     1      19.182 -10.051  82.427  1.00  0.00     0.209 HD
ATOM     18  H6  UNL     1      19.470  -9.244  84.515  1.00  0.00     0.218 HD
BRANCH  16  19
HETATM   19  N8  UNL     1      19.736  -8.256  81.449  1.00  0.00    -0.329 N 
ATOM     20  H82 UNL     1      20.234  -7.376  81.583  1.00  0.00     0.178 HD
ATOM     21  H81 UNL     1      19.413  -8.546  80.526  1.00  0.00     0.178 HD
ENDBRANCH  16  19
ENDBRANCH  14  15
ENDBRANCH   8  14
ENDBRANCH   5   8
BRANCH   4  22
HETATM   22  C4  UNL     1      22.267  -8.712  87.170  1.00  0.00     0.048 C 
HETATM   23  C5  UNL     1      22.085  -9.930  86.792  1.00  0.00     0.029 C 
HETATM   24  C6  UNL     1      20.905 -10.647  86.363  1.00  0.00     0.255 C 
HETATM   25  C8  UNL     1      23.189 -10.945  86.682  1.00  0.00     0.066 C 
HETATM   26  O2  UNL     1      19.711 -10.333  86.595  1.00  0.00    -0.268 OA
HETATM   27  N2  UNL     1      21.299 -11.801  85.619  1.00  0.00    -0.293 N 
HETATM   28  C7  UNL     1      22.732 -11.829  85.572  1.00  0.00     0.237 C 
ATOM     29  H2  UNL     1      20.672 -12.484  85.195  1.00  0.00     0.172 HD
HETATM   30  O3  UNL     1      23.464 -12.442  84.792  1.00  0.00    -0.272 OA
HETATM   31  C9  UNL     1      23.260 -11.662  88.008  1.00  0.00     0.030 C 
HETATM   32  C10 UNL     1      24.456 -10.209  86.342  1.00  0.00     0.030 C 
ENDBRANCH   4  22
BRANCH   3  33
HETATM   33  O1  UNL     1      20.980  -7.525  89.773  1.00  0.00    -0.344 OA
ATOM     34  H1  UNL     1      21.472  -8.295  90.032  1.00  0.00     0.219 HD
ENDBRANCH   3  33
TORSDOF 7
ENDMDL
