MODEL 1
REMARK VINA RESULT: -7.675890707      0.000      0.000
REMARK  18 active torsions:
REMARK  status: ('A' for Active; 'I' for Inactive)
REMARK    1  A    between atoms: C1_4  and  C2_6 
REMARK    2  A    between atoms: C2_6  and  C3_7 
REMARK    3  A    between atoms: C3_7  and  N3_8 
REMARK    4  A    between atoms: N3_8  and  C4_9 
REMARK    5  A    between atoms: N3_8  and  C6_15 
REMARK    6  A    between atoms: C4_9  and  C5_10 
REMARK    7  A    between atoms: C5_10  and  N4_11 
REMARK    8  A    between atoms: C9_18  and  N5_19 
REMARK    9  A    between atoms: N5_19  and  C10_21 
REMARK   10  A    between atoms: C10_21  and  C11_22 
REMARK   11  A    between atoms: C11_22  and  S1_23 
REMARK   12  A    between atoms: S1_23  and  C12_24 
REMARK   13  A    between atoms: C13_27  and  N7_28 
REMARK   14  A    between atoms: N10_39  and  C16_41 
REMARK   15  A    between atoms: C16_41  and  C17_42 
REMARK   16  A    between atoms: C17_42  and  O3_43 
REMARK   17  A    between atoms: O3_43  and  N11_44 
REMARK   18  A    between atoms: C18_47  and  N12_48 
ROOT
HETATM    1  C10 UNL     1     -36.582   0.645  -9.007  1.00  0.00     0.087 C 
HETATM    2  N10 UNL     1     -37.088  -0.457  -8.620  1.00  0.00    -0.377 N 
ATOM      3  H10 UNL     1     -38.066  -0.455  -8.330  1.00  0.00     0.160 HD
ENDROOT
BRANCH   1   4
HETATM    4  N5  UNL     1     -37.426   1.832  -9.025  1.00  0.00    -0.344 N 
ATOM      5  H5  UNL     1     -38.198   1.887  -9.690  1.00  0.00     0.167 HD
BRANCH   4   6
HETATM    6  C9  UNL     1     -37.200   2.892  -8.152  1.00  0.00     0.067 A 
HETATM    7  C8  UNL     1     -36.743   4.120  -8.664  1.00  0.00     0.034 A 
HETATM    8  C7  UNL     1     -36.533   5.167  -7.806  1.00  0.00     0.031 A 
HETATM    9  C6  UNL     1     -36.747   5.100  -6.449  1.00  0.00     0.032 A 
HETATM   10  C19 UNL     1     -37.201   3.867  -5.981  1.00  0.00     0.067 A 
HETATM   11  C18 UNL     1     -37.428   2.771  -6.806  1.00  0.00     0.131 A 
BRANCH   9  12
HETATM   12  N3  UNL     1     -36.496   6.174  -5.545  1.00  0.00    -0.379 N 
BRANCH  12  13
HETATM   13  C3  UNL     1     -37.418   7.235  -5.414  1.00  0.00     0.130 C 
BRANCH  13  14
HETATM   14  C2  UNL     1     -38.743   6.964  -4.828  1.00  0.00     0.092 C 
BRANCH  14  15
HETATM   15  C1  UNL     1     -38.810   6.498  -3.442  1.00  0.00     0.088 C 
HETATM   16  N1  UNL     1     -38.434   7.209  -2.435  1.00  0.00    -0.391 N 
ATOM     17  H12 UNL     1     -38.481   6.885  -1.469  1.00  0.00     0.157 HD
ATOM     18  H11 UNL     1     -38.053   8.142  -2.586  1.00  0.00     0.157 HD
HETATM   19  N2  UNL     1     -39.346   5.182  -3.228  1.00  0.00    -0.088 NA
ENDBRANCH  14  15
ENDBRANCH  13  14
ENDBRANCH  12  13
BRANCH  12  20
HETATM   20  C4  UNL     1     -35.283   6.037  -4.743  1.00  0.00     0.150 C 
BRANCH  20  21
HETATM   21  C5  UNL     1     -34.328   7.175  -4.899  1.00  0.00     0.249 C 
BRANCH  21  22
HETATM   22  N4  UNL     1     -34.058   7.932  -3.722  1.00  0.00    -0.078 N 
ATOM     23  H43 UNL     1     -34.815   7.806  -3.049  1.00  0.00     0.274 HD
ATOM     24  H42 UNL     1     -33.284   7.509  -3.209  1.00  0.00     0.274 HD
ATOM     25  H41 UNL     1     -33.880   8.927  -3.859  1.00  0.00     0.274 HD
ENDBRANCH  21  22
ENDBRANCH  20  21
ENDBRANCH  12  20
ENDBRANCH   9  12
BRANCH  11  26
HETATM   26  N12 UNL     1     -37.896   1.598  -6.158  1.00  0.00    -0.113 N 
HETATM   27  O6  UNL     1     -37.369   1.177  -5.134  1.00  0.00    -0.532 OA
HETATM   28  O7  UNL     1     -39.003   0.965  -6.722  1.00  0.00    -0.532 OA
ENDBRANCH  11  26
ENDBRANCH   4   6
ENDBRANCH   1   4
BRANCH   1  29
HETATM   29  C11 UNL     1     -35.183   0.817  -9.380  1.00  0.00     0.158 C 
BRANCH  29  30
HETATM   30  S1  UNL     1     -35.039   1.276 -11.124  1.00  0.00    -0.086 SA
BRANCH  30  31
HETATM   31  C12 UNL     1     -35.188  -0.257 -12.071  1.00  0.00     0.162 C 
HETATM   32  N6  UNL     1     -36.411  -0.748 -12.308  1.00  0.00    -0.170 N 
HETATM   33  C13 UNL     1     -36.775  -2.042 -12.584  1.00  0.00     0.680 C 
ATOM     34  H6  UNL     1     -37.174  -0.071 -12.279  1.00  0.00     0.186 HD
HETATM   35  N8  UNL     1     -35.979  -3.138 -12.686  1.00  0.00    -0.152 N 
HETATM   36  C14 UNL     1     -34.640  -3.192 -12.808  1.00  0.00     0.328 C 
ATOM     37  H8  UNL     1     -36.458  -4.038 -12.667  1.00  0.00     0.188 HD
HETATM   38  O1  UNL     1     -34.185  -4.342 -13.022  1.00  0.00    -0.261 OA
HETATM   39  C15 UNL     1     -33.774  -2.125 -12.716  1.00  0.00     0.316 C 
HETATM   40  O2  UNL     1     -32.570  -2.425 -12.884  1.00  0.00    -0.262 OA
HETATM   41  N9  UNL     1     -34.019  -0.809 -12.474  1.00  0.00    -0.299 N 
ATOM     42  H9  UNL     1     -33.237  -0.168 -12.611  1.00  0.00     0.171 HD
BRANCH  33  43
HETATM   43  N7  UNL     1     -38.012  -2.282 -12.771  1.00  0.00    -0.234 N 
ATOM     44  H72 UNL     1     -38.436  -2.863 -12.049  1.00  0.00     0.174 HD
ATOM     45  H71 UNL     1     -38.452  -1.882 -13.601  1.00  0.00     0.174 HD
ENDBRANCH  33  43
ENDBRANCH  30  31
ENDBRANCH  29  30
ENDBRANCH   1  29
BRANCH   2  46
HETATM   46  C16 UNL     1     -36.361  -1.733  -8.561  1.00  0.00     0.150 C 
BRANCH  46  47
HETATM   47  C17 UNL     1     -35.975  -2.046  -7.126  1.00  0.00     0.227 C 
BRANCH  47  48
HETATM   48  O3  UNL     1     -34.569  -2.153  -7.115  1.00  0.00    -0.220 OA
BRANCH  48  49
HETATM   49  N11 UNL     1     -33.833  -2.747  -6.135  1.00  0.00     0.004 N 
HETATM   50  O4  UNL     1     -33.698  -3.978  -6.093  1.00  0.00    -0.511 OA
HETATM   51  O5  UNL     1     -33.234  -1.974  -5.180  1.00  0.00    -0.511 OA
ENDBRANCH  48  49
ENDBRANCH  47  48
ENDBRANCH  46  47
ENDBRANCH   2  46
TORSDOF 18
ENDMDL
MODEL 2
REMARK VINA RESULT: -7.674598460      1.900      2.367
REMARK  18 active torsions:
REMARK  status: ('A' for Active; 'I' for Inactive)
REMARK    1  A    between atoms: C1_4  and  C2_6 
REMARK    2  A    between atoms: C2_6  and  C3_7 
REMARK    3  A    between atoms: C3_7  and  N3_8 
REMARK    4  A    between atoms: N3_8  and  C4_9 
REMARK    5  A    between atoms: N3_8  and  C6_15 
REMARK    6  A    between atoms: C4_9  and  C5_10 
REMARK    7  A    between atoms: C5_10  and  N4_11 
REMARK    8  A    between atoms: C9_18  and  N5_19 
REMARK    9  A    between atoms: N5_19  and  C10_21 
REMARK   10  A    between atoms: C10_21  and  C11_22 
REMARK   11  A    between atoms: C11_22  and  S1_23 
REMARK   12  A    between atoms: S1_23  and  C12_24 
REMARK   13  A    between atoms: C13_27  and  N7_28 
REMARK   14  A    between atoms: N10_39  and  C16_41 
REMARK   15  A    between atoms: C16_41  and  C17_42 
REMARK   16  A    between atoms: C17_42  and  O3_43 
REMARK   17  A    between atoms: O3_43  and  N11_44 
REMARK   18  A    between atoms: C18_47  and  N12_48 
ROOT
HETATM    1  C10 UNL     1     -36.878  -0.535  -8.707  1.00  0.00     0.087 C 
HETATM    2  N10 UNL     1     -36.988  -0.786  -7.463  1.00  0.00    -0.377 N 
ATOM      3  H10 UNL     1     -37.351  -0.048  -6.860  1.00  0.00     0.160 HD
ENDROOT
BRANCH   1   4
HETATM    4  N5  UNL     1     -37.286   0.776  -9.192  1.00  0.00    -0.344 N 
ATOM      5  H5  UNL     1     -37.463   0.909 -10.188  1.00  0.00     0.167 HD
BRANCH   4   6
HETATM    6  C9  UNL     1     -37.441   1.852  -8.323  1.00  0.00     0.067 A 
HETATM    7  C8  UNL     1     -36.298   2.477  -7.791  1.00  0.00     0.034 A 
HETATM    8  C7  UNL     1     -36.450   3.545  -6.946  1.00  0.00     0.031 A 
HETATM    9  C6  UNL     1     -37.669   4.061  -6.576  1.00  0.00     0.032 A 
HETATM   10  C19 UNL     1     -38.777   3.414  -7.126  1.00  0.00     0.067 A 
HETATM   11  C18 UNL     1     -38.681   2.326  -7.985  1.00  0.00     0.131 A 
BRANCH   9  12
HETATM   12  N3  UNL     1     -37.837   5.148  -5.669  1.00  0.00    -0.379 N 
BRANCH  12  13
HETATM   13  C3  UNL     1     -38.574   4.984  -4.476  1.00  0.00     0.130 C 
BRANCH  13  14
HETATM   14  C2  UNL     1     -39.677   5.915  -4.182  1.00  0.00     0.092 C 
BRANCH  14  15
HETATM   15  C1  UNL     1     -40.925   5.777  -4.935  1.00  0.00     0.088 C 
HETATM   16  N1  UNL     1     -41.052   6.124  -6.169  1.00  0.00    -0.391 N 
ATOM     17  H12 UNL     1     -41.921   6.028  -6.694  1.00  0.00     0.157 HD
ATOM     18  H11 UNL     1     -40.261   6.533  -6.666  1.00  0.00     0.157 HD
HETATM   19  N2  UNL     1     -42.041   5.201  -4.235  1.00  0.00    -0.088 NA
ENDBRANCH  14  15
ENDBRANCH  13  14
ENDBRANCH  12  13
BRANCH  12  20
HETATM   20  C4  UNL     1     -37.137   6.375  -6.039  1.00  0.00     0.150 C 
BRANCH  20  21
HETATM   21  C5  UNL     1     -36.190   6.866  -4.992  1.00  0.00     0.249 C 
BRANCH  21  22
HETATM   22  N4  UNL     1     -35.141   5.971  -4.628  1.00  0.00    -0.078 N 
ATOM     23  H43 UNL     1     -35.513   5.026  -4.525  1.00  0.00     0.274 HD
ATOM     24  H42 UNL     1     -34.512   5.835  -5.420  1.00  0.00     0.274 HD
ATOM     25  H41 UNL     1     -34.604   6.224  -3.799  1.00  0.00     0.274 HD
ENDBRANCH  21  22
ENDBRANCH  20  21
ENDBRANCH  12  20
ENDBRANCH   9  12
BRANCH  11  26
HETATM   26  N12 UNL     1     -39.914   1.799  -8.452  1.00  0.00    -0.113 N 
HETATM   27  O6  UNL     1     -40.877   1.662  -7.706  1.00  0.00    -0.532 OA
HETATM   28  O7  UNL     1     -39.988   1.476  -9.807  1.00  0.00    -0.532 OA
ENDBRANCH  11  26
ENDBRANCH   4   6
ENDBRANCH   1   4
BRANCH   1  29
HETATM   29  C11 UNL     1     -36.308  -1.458  -9.681  1.00  0.00     0.158 C 
BRANCH  29  30
HETATM   30  S1  UNL     1     -36.305  -0.720 -11.333  1.00  0.00    -0.086 SA
BRANCH  30  31
HETATM   31  C12 UNL     1     -35.211  -1.739 -12.348  1.00  0.00     0.162 C 
HETATM   32  N6  UNL     1     -35.547  -3.016 -12.571  1.00  0.00    -0.170 N 
HETATM   33  C13 UNL     1     -34.732  -4.071 -12.899  1.00  0.00     0.680 C 
ATOM     34  H6  UNL     1     -36.540  -3.234 -12.487  1.00  0.00     0.186 HD
HETATM   35  N8  UNL     1     -33.386  -4.071 -13.078  1.00  0.00    -0.152 N 
HETATM   36  C14 UNL     1     -32.562  -3.020 -13.242  1.00  0.00     0.328 C 
ATOM     37  H8  UNL     1     -32.940  -4.989 -13.089  1.00  0.00     0.188 HD
HETATM   38  O1  UNL     1     -31.378  -3.329 -13.526  1.00  0.00    -0.261 OA
HETATM   39  C15 UNL     1     -32.909  -1.693 -13.125  1.00  0.00     0.316 C 
HETATM   40  O2  UNL     1     -31.968  -0.895 -13.344  1.00  0.00    -0.262 OA
HETATM   41  N9  UNL     1     -34.101  -1.117 -12.812  1.00  0.00    -0.299 N 
ATOM     42  H9  UNL     1     -34.166  -0.107 -12.941  1.00  0.00     0.171 HD
BRANCH  33  43
HETATM   43  N7  UNL     1     -35.276  -5.211 -13.061  1.00  0.00    -0.234 N 
ATOM     44  H72 UNL     1     -34.941  -5.718 -13.880  1.00  0.00     0.174 HD
ATOM     45  H71 UNL     1     -35.974  -5.504 -12.377  1.00  0.00     0.174 HD
ENDBRANCH  33  43
ENDBRANCH  30  31
ENDBRANCH  29  30
ENDBRANCH   1  29
BRANCH   2  46
HETATM   46  C16 UNL     1     -36.627  -2.066  -6.836  1.00  0.00     0.150 C 
BRANCH  46  47
HETATM   47  C17 UNL     1     -36.259  -1.845  -5.380  1.00  0.00     0.227 C 
BRANCH  47  48
HETATM   48  O3  UNL     1     -35.363  -2.879  -5.042  1.00  0.00    -0.220 OA
BRANCH  48  49
HETATM   49  N11 UNL     1     -34.050  -2.932  -5.402  1.00  0.00     0.004 N 
HETATM   50  O4  UNL     1     -33.265  -2.024  -5.094  1.00  0.00    -0.511 OA
HETATM   51  O5  UNL     1     -33.590  -4.003  -6.117  1.00  0.00    -0.511 OA
ENDBRANCH  48  49
ENDBRANCH  47  48
ENDBRANCH  46  47
ENDBRANCH   2  46
TORSDOF 18
ENDMDL
MODEL 3
REMARK VINA RESULT: -7.635263963      1.677      2.114
REMARK  18 active torsions:
REMARK  status: ('A' for Active; 'I' for Inactive)
REMARK    1  A    between atoms: C1_4  and  C2_6 
REMARK    2  A    between atoms: C2_6  and  C3_7 
REMARK    3  A    between atoms: C3_7  and  N3_8 
REMARK    4  A    between atoms: N3_8  and  C4_9 
REMARK    5  A    between atoms: N3_8  and  C6_15 
REMARK    6  A    between atoms: C4_9  and  C5_10 
REMARK    7  A    between atoms: C5_10  and  N4_11 
REMARK    8  A    between atoms: C9_18  and  N5_19 
REMARK    9  A    between atoms: N5_19  and  C10_21 
REMARK   10  A    between atoms: C10_21  and  C11_22 
REMARK   11  A    between atoms: C11_22  and  S1_23 
REMARK   12  A    between atoms: S1_23  and  C12_24 
REMARK   13  A    between atoms: C13_27  and  N7_28 
REMARK   14  A    between atoms: N10_39  and  C16_41 
REMARK   15  A    between atoms: C16_41  and  C17_42 
REMARK   16  A    between atoms: C17_42  and  O3_43 
REMARK   17  A    between atoms: O3_43  and  N11_44 
REMARK   18  A    between atoms: C18_47  and  N12_48 
ROOT
HETATM    1  C10 UNL     1     -36.954  -0.706  -8.840  1.00  0.00     0.087 C 
HETATM    2  N10 UNL     1     -37.016  -0.894  -7.582  1.00  0.00    -0.377 N 
ATOM      3  H10 UNL     1     -37.394  -0.140  -7.008  1.00  0.00     0.160 HD
ENDROOT
BRANCH   1   4
HETATM    4  N5  UNL     1     -37.434   0.558  -9.382  1.00  0.00    -0.344 N 
ATOM      5  H5  UNL     1     -37.786   0.592 -10.338  1.00  0.00     0.167 HD
BRANCH   4   6
HETATM    6  C9  UNL     1     -37.420   1.722  -8.619  1.00  0.00     0.067 A 
HETATM    7  C8  UNL     1     -36.188   2.265  -8.212  1.00  0.00     0.034 A 
HETATM    8  C7  UNL     1     -36.174   3.418  -7.472  1.00  0.00     0.031 A 
HETATM    9  C6  UNL     1     -37.308   4.098  -7.093  1.00  0.00     0.032 A 
HETATM   10  C19 UNL     1     -38.509   3.528  -7.517  1.00  0.00     0.067 A 
HETATM   11  C18 UNL     1     -38.581   2.360  -8.267  1.00  0.00     0.131 A 
BRANCH   9  12
HETATM   12  N3  UNL     1     -37.304   5.278  -6.293  1.00  0.00    -0.379 N 
BRANCH  12  13
HETATM   13  C3  UNL     1     -38.452   6.095  -6.210  1.00  0.00     0.130 C 
BRANCH  13  14
HETATM   14  C2  UNL     1     -39.395   5.894  -5.096  1.00  0.00     0.092 C 
BRANCH  14  15
HETATM   15  C1  UNL     1     -38.854   5.741  -3.744  1.00  0.00     0.088 C 
HETATM   16  N1  UNL     1     -38.426   6.727  -3.034  1.00  0.00    -0.391 N 
ATOM     17  H12 UNL     1     -38.050   6.621  -2.092  1.00  0.00     0.157 HD
ATOM     18  H11 UNL     1     -38.441   7.672  -3.417  1.00  0.00     0.157 HD
HETATM   19  N2  UNL     1     -38.833   4.409  -3.205  1.00  0.00    -0.088 NA
ENDBRANCH  14  15
ENDBRANCH  13  14
ENDBRANCH  12  13
BRANCH  12  20
HETATM   20  C4  UNL     1     -36.076   5.508  -5.537  1.00  0.00     0.150 C 
BRANCH  20  21
HETATM   21  C5  UNL     1     -35.663   6.943  -5.483  1.00  0.00     0.249 C 
BRANCH  21  22
HETATM   22  N4  UNL     1     -34.803   7.307  -4.406  1.00  0.00    -0.078 N 
ATOM     23  H43 UNL     1     -34.079   7.943  -4.741  1.00  0.00     0.274 HD
ATOM     24  H42 UNL     1     -35.300   7.919  -3.759  1.00  0.00     0.274 HD
ATOM     25  H41 UNL     1     -34.376   6.535  -3.893  1.00  0.00     0.274 HD
ENDBRANCH  21  22
ENDBRANCH  20  21
ENDBRANCH  12  20
ENDBRANCH   9  12
BRANCH  11  26
HETATM   26  N12 UNL     1     -39.889   1.930  -8.614  1.00  0.00    -0.113 N 
HETATM   27  O6  UNL     1     -40.177   1.618  -9.764  1.00  0.00    -0.532 OA
HETATM   28  O7  UNL     1     -40.820   1.847  -7.579  1.00  0.00    -0.532 OA
ENDBRANCH  11  26
ENDBRANCH   4   6
ENDBRANCH   1   4
BRANCH   1  29
HETATM   29  C11 UNL     1     -36.372  -1.655  -9.782  1.00  0.00     0.158 C 
BRANCH  29  30
HETATM   30  S1  UNL     1     -36.514  -1.041 -11.478  1.00  0.00    -0.086 SA
BRANCH  30  31
HETATM   31  C12 UNL     1     -35.380  -2.030 -12.478  1.00  0.00     0.162 C 
HETATM   32  N6  UNL     1     -35.799  -3.214 -12.942  1.00  0.00    -0.170 N 
HETATM   33  C13 UNL     1     -35.049  -4.302 -13.315  1.00  0.00     0.680 C 
ATOM     34  H6  UNL     1     -36.809  -3.322 -13.031  1.00  0.00     0.186 HD
HETATM   35  N8  UNL     1     -33.698  -4.436 -13.304  1.00  0.00    -0.152 N 
HETATM   36  C14 UNL     1     -32.761  -3.478 -13.187  1.00  0.00     0.328 C 
ATOM     37  H8  UNL     1     -33.347  -5.390 -13.396  1.00  0.00     0.188 HD
HETATM   38  O1  UNL     1     -31.583  -3.882 -13.349  1.00  0.00    -0.261 OA
HETATM   39  C15 UNL     1     -32.991  -2.148 -12.913  1.00  0.00     0.316 C 
HETATM   40  O2  UNL     1     -31.956  -1.446 -12.872  1.00  0.00    -0.262 OA
HETATM   41  N9  UNL     1     -34.156  -1.485 -12.682  1.00  0.00    -0.299 N 
ATOM     42  H9  UNL     1     -34.103  -0.467 -12.660  1.00  0.00     0.171 HD
BRANCH  33  43
HETATM   43  N7  UNL     1     -35.670  -5.335 -13.726  1.00  0.00    -0.234 N 
ATOM     44  H72 UNL     1     -36.683  -5.227 -13.752  1.00  0.00     0.174 HD
ATOM     45  H71 UNL     1     -35.113  -6.150 -13.985  1.00  0.00     0.174 HD
ENDBRANCH  33  43
ENDBRANCH  30  31
ENDBRANCH  29  30
ENDBRANCH   1  29
BRANCH   2  46
HETATM   46  C16 UNL     1     -36.582  -2.121  -6.900  1.00  0.00     0.150 C 
BRANCH  46  47
HETATM   47  C17 UNL     1     -36.248  -1.818  -5.450  1.00  0.00     0.227 C 
BRANCH  47  48
HETATM   48  O3  UNL     1     -35.346  -2.822  -5.040  1.00  0.00    -0.220 OA
BRANCH  48  49
HETATM   49  N11 UNL     1     -34.042  -2.912  -5.419  1.00  0.00     0.004 N 
HETATM   50  O4  UNL     1     -33.224  -2.032  -5.114  1.00  0.00    -0.511 OA
HETATM   51  O5  UNL     1     -33.626  -3.989  -6.152  1.00  0.00    -0.511 OA
ENDBRANCH  48  49
ENDBRANCH  47  48
ENDBRANCH  46  47
ENDBRANCH   2  46
TORSDOF 18
ENDMDL
MODEL 4
REMARK VINA RESULT: -7.530987850      1.665      2.377
REMARK  18 active torsions:
REMARK  status: ('A' for Active; 'I' for Inactive)
REMARK    1  A    between atoms: C1_4  and  C2_6 
REMARK    2  A    between atoms: C2_6  and  C3_7 
REMARK    3  A    between atoms: C3_7  and  N3_8 
REMARK    4  A    between atoms: N3_8  and  C4_9 
REMARK    5  A    between atoms: N3_8  and  C6_15 
REMARK    6  A    between atoms: C4_9  and  C5_10 
REMARK    7  A    between atoms: C5_10  and  N4_11 
REMARK    8  A    between atoms: C9_18  and  N5_19 
REMARK    9  A    between atoms: N5_19  and  C10_21 
REMARK   10  A    between atoms: C10_21  and  C11_22 
REMARK   11  A    between atoms: C11_22  and  S1_23 
REMARK   12  A    between atoms: S1_23  and  C12_24 
REMARK   13  A    between atoms: C13_27  and  N7_28 
REMARK   14  A    between atoms: N10_39  and  C16_41 
REMARK   15  A    between atoms: C16_41  and  C17_42 
REMARK   16  A    between atoms: C17_42  and  O3_43 
REMARK   17  A    between atoms: O3_43  and  N11_44 
REMARK   18  A    between atoms: C18_47  and  N12_48 
ROOT
HETATM    1  C10 UNL     1     -37.078   0.063  -9.628  1.00  0.00     0.087 C 
HETATM    2  N10 UNL     1     -37.129  -0.604  -8.545  1.00  0.00    -0.377 N 
ATOM      3  H10 UNL     1     -37.828  -0.332  -7.853  1.00  0.00     0.160 HD
ENDROOT
BRANCH   1   4
HETATM    4  N5  UNL     1     -38.019   1.158  -9.819  1.00  0.00    -0.344 N 
ATOM      5  H5  UNL     1     -38.768   1.061 -10.504  1.00  0.00     0.167 HD
BRANCH   4   6
HETATM    6  C9  UNL     1     -37.916   2.335  -9.083  1.00  0.00     0.067 A 
HETATM    7  C8  UNL     1     -37.040   3.346  -9.520  1.00  0.00     0.034 A 
HETATM    8  C7  UNL     1     -36.948   4.510  -8.803  1.00  0.00     0.031 A 
HETATM    9  C6  UNL     1     -37.672   4.765  -7.662  1.00  0.00     0.032 A 
HETATM   10  C19 UNL     1     -38.529   3.739  -7.263  1.00  0.00     0.067 A 
HETATM   11  C18 UNL     1     -38.659   2.538  -7.951  1.00  0.00     0.131 A 
BRANCH   9  12
HETATM   12  N3  UNL     1     -37.555   5.959  -6.890  1.00  0.00    -0.379 N 
BRANCH  12  13
HETATM   13  C3  UNL     1     -38.698   6.562  -6.321  1.00  0.00     0.130 C 
BRANCH  13  14
HETATM   14  C2  UNL     1     -38.774   6.711  -4.857  1.00  0.00     0.092 C 
BRANCH  14  15
HETATM   15  C1  UNL     1     -39.200   5.558  -4.061  1.00  0.00     0.088 C 
HETATM   16  N1  UNL     1     -40.415   5.370  -3.678  1.00  0.00    -0.391 N 
ATOM     17  H12 UNL     1     -40.712   4.567  -3.123  1.00  0.00     0.157 HD
ATOM     18  H11 UNL     1     -41.134   6.052  -3.917  1.00  0.00     0.157 HD
HETATM   19  N2  UNL     1     -38.186   4.597  -3.723  1.00  0.00    -0.088 NA
ENDBRANCH  14  15
ENDBRANCH  13  14
ENDBRANCH  12  13
BRANCH  12  20
HETATM   20  C4  UNL     1     -36.189   6.433  -6.688  1.00  0.00     0.150 C 
BRANCH  20  21
HETATM   21  C5  UNL     1     -35.351   5.514  -5.859  1.00  0.00     0.249 C 
BRANCH  21  22
HETATM   22  N4  UNL     1     -35.304   5.798  -4.463  1.00  0.00    -0.078 N 
ATOM     23  H43 UNL     1     -34.352   6.047  -4.193  1.00  0.00     0.274 HD
ATOM     24  H42 UNL     1     -35.784   6.678  -4.273  1.00  0.00     0.274 HD
ATOM     25  H41 UNL     1     -35.660   5.069  -3.844  1.00  0.00     0.274 HD
ENDBRANCH  21  22
ENDBRANCH  20  21
ENDBRANCH  12  20
ENDBRANCH   9  12
BRANCH  11  26
HETATM   26  N12 UNL     1     -39.585   1.611  -7.402  1.00  0.00    -0.113 N 
HETATM   27  O6  UNL     1     -40.787   1.694  -7.630  1.00  0.00    -0.532 OA
HETATM   28  O7  UNL     1     -39.059   0.583  -6.621  1.00  0.00    -0.532 OA
ENDBRANCH  11  26
ENDBRANCH   4   6
ENDBRANCH   1   4
BRANCH   1  29
HETATM   29  C11 UNL     1     -36.090  -0.156 -10.678  1.00  0.00     0.158 C 
BRANCH  29  30
HETATM   30  S1  UNL     1     -36.729  -1.296 -11.929  1.00  0.00    -0.086 SA
BRANCH  30  31
HETATM   31  C12 UNL     1     -35.334  -2.324 -12.446  1.00  0.00     0.162 C 
HETATM   32  N6  UNL     1     -34.103  -1.798 -12.416  1.00  0.00    -0.170 N 
HETATM   33  C13 UNL     1     -32.996  -2.170 -13.135  1.00  0.00     0.680 C 
ATOM     34  H6  UNL     1     -33.971  -1.017 -11.773  1.00  0.00     0.186 HD
HETATM   35  N8  UNL     1     -32.882  -3.166 -14.051  1.00  0.00    -0.152 N 
HETATM   36  C14 UNL     1     -33.724  -4.189 -14.286  1.00  0.00     0.328 C 
ATOM     37  H8  UNL     1     -32.049  -3.135 -14.639  1.00  0.00     0.188 HD
HETATM   38  O1  UNL     1     -33.293  -5.039 -15.103  1.00  0.00    -0.261 OA
HETATM   39  C15 UNL     1     -34.969  -4.360 -13.722  1.00  0.00     0.316 C 
HETATM   40  O2  UNL     1     -35.558  -5.403 -14.084  1.00  0.00    -0.262 OA
HETATM   41  N9  UNL     1     -35.652  -3.580 -12.841  1.00  0.00    -0.299 N 
ATOM     42  H9  UNL     1     -36.495  -3.985 -12.434  1.00  0.00     0.171 HD
BRANCH  33  43
HETATM   43  N7  UNL     1     -31.919  -1.516 -12.945  1.00  0.00    -0.234 N 
ATOM     44  H72 UNL     1     -31.969  -0.850 -12.174  1.00  0.00     0.174 HD
ATOM     45  H71 UNL     1     -31.130  -1.712 -13.562  1.00  0.00     0.174 HD
ENDBRANCH  33  43
ENDBRANCH  30  31
ENDBRANCH  29  30
ENDBRANCH   1  29
BRANCH   2  46
HETATM   46  C16 UNL     1     -36.253  -1.739  -8.222  1.00  0.00     0.150 C 
BRANCH  46  47
HETATM   47  C17 UNL     1     -35.210  -1.317  -7.203  1.00  0.00     0.227 C 
BRANCH  47  48
HETATM   48  O3  UNL     1     -35.109  -2.381  -6.284  1.00  0.00    -0.220 OA
BRANCH  48  49
HETATM   49  N11 UNL     1     -33.945  -2.880  -5.782  1.00  0.00     0.004 N 
HETATM   50  O4  UNL     1     -33.014  -2.130  -5.458  1.00  0.00    -0.511 OA
HETATM   51  O5  UNL     1     -33.800  -4.232  -5.635  1.00  0.00    -0.511 OA
ENDBRANCH  48  49
ENDBRANCH  47  48
ENDBRANCH  46  47
ENDBRANCH   2  46
TORSDOF 18
ENDMDL
MODEL 5
REMARK VINA RESULT: -7.502558083      2.222      3.313
REMARK  18 active torsions:
REMARK  status: ('A' for Active; 'I' for Inactive)
REMARK    1  A    between atoms: C1_4  and  C2_6 
REMARK    2  A    between atoms: C2_6  and  C3_7 
REMARK    3  A    between atoms: C3_7  and  N3_8 
REMARK    4  A    between atoms: N3_8  and  C4_9 
REMARK    5  A    between atoms: N3_8  and  C6_15 
REMARK    6  A    between atoms: C4_9  and  C5_10 
REMARK    7  A    between atoms: C5_10  and  N4_11 
REMARK    8  A    between atoms: C9_18  and  N5_19 
REMARK    9  A    between atoms: N5_19  and  C10_21 
REMARK   10  A    between atoms: C10_21  and  C11_22 
REMARK   11  A    between atoms: C11_22  and  S1_23 
REMARK   12  A    between atoms: S1_23  and  C12_24 
REMARK   13  A    between atoms: C13_27  and  N7_28 
REMARK   14  A    between atoms: N10_39  and  C16_41 
REMARK   15  A    between atoms: C16_41  and  C17_42 
REMARK   16  A    between atoms: C17_42  and  O3_43 
REMARK   17  A    between atoms: O3_43  and  N11_44 
REMARK   18  A    between atoms: C18_47  and  N12_48 
ROOT
HETATM    1  C10 UNL     1     -37.061  -0.310  -8.395  1.00  0.00     0.087 C 
HETATM    2  N10 UNL     1     -37.317  -0.529  -7.167  1.00  0.00    -0.377 N 
ATOM      3  H10 UNL     1     -37.521   0.276  -6.574  1.00  0.00     0.160 HD
ENDROOT
BRANCH   1   4
HETATM    4  N5  UNL     1     -37.084   1.063  -8.878  1.00  0.00    -0.344 N 
ATOM      5  H5  UNL     1     -36.490   1.328  -9.664  1.00  0.00     0.167 HD
BRANCH   4   6
HETATM    6  C9  UNL     1     -37.901   2.023  -8.288  1.00  0.00     0.067 A 
HETATM    7  C8  UNL     1     -39.245   2.126  -8.690  1.00  0.00     0.034 A 
HETATM    8  C7  UNL     1     -40.053   3.062  -8.100  1.00  0.00     0.031 A 
HETATM    9  C6  UNL     1     -39.631   3.926  -7.117  1.00  0.00     0.032 A 
HETATM   10  C19 UNL     1     -38.292   3.792  -6.745  1.00  0.00     0.067 A 
HETATM   11  C18 UNL     1     -37.429   2.862  -7.312  1.00  0.00     0.131 A 
BRANCH   9  12
HETATM   12  N3  UNL     1     -40.454   4.927  -6.523  1.00  0.00    -0.379 N 
BRANCH  12  13
HETATM   13  C3  UNL     1     -39.881   6.004  -5.814  1.00  0.00     0.130 C 
BRANCH  13  14
HETATM   14  C2  UNL     1     -40.157   6.140  -4.373  1.00  0.00     0.092 C 
BRANCH  14  15
HETATM   15  C1  UNL     1     -39.065   5.897  -3.428  1.00  0.00     0.088 C 
HETATM   16  N1  UNL     1     -38.477   6.834  -2.767  1.00  0.00    -0.391 N 
ATOM     17  H12 UNL     1     -37.717   6.665  -2.108  1.00  0.00     0.157 HD
ATOM     18  H11 UNL     1     -38.758   7.804  -2.902  1.00  0.00     0.157 HD
HETATM   19  N2  UNL     1     -38.668   4.529  -3.237  1.00  0.00    -0.088 NA
ENDBRANCH  14  15
ENDBRANCH  13  14
ENDBRANCH  12  13
BRANCH  12  20
HETATM   20  C4  UNL     1     -41.885   4.780  -6.776  1.00  0.00     0.150 C 
BRANCH  20  21
HETATM   21  C5  UNL     1     -42.556   6.050  -7.187  1.00  0.00     0.249 C 
BRANCH  21  22
HETATM   22  N4  UNL     1     -42.484   6.376  -8.574  1.00  0.00    -0.078 N 
ATOM     23  H43 UNL     1     -43.145   7.123  -8.788  1.00  0.00     0.274 HD
ATOM     24  H42 UNL     1     -41.602   6.849  -8.772  1.00  0.00     0.274 HD
ATOM     25  H41 UNL     1     -42.615   5.600  -9.224  1.00  0.00     0.274 HD
ENDBRANCH  21  22
ENDBRANCH  20  21
ENDBRANCH  12  20
ENDBRANCH   9  12
BRANCH  11  26
HETATM   26  N12 UNL     1     -36.103   2.863  -6.806  1.00  0.00    -0.113 N 
HETATM   27  O6  UNL     1     -35.374   3.843  -6.919  1.00  0.00    -0.532 OA
HETATM   28  O7  UNL     1     -35.680   1.711  -6.144  1.00  0.00    -0.532 OA
ENDBRANCH  11  26
ENDBRANCH   4   6
ENDBRANCH   1   4
BRANCH   1  29
HETATM   29  C11 UNL     1     -36.680  -1.345  -9.348  1.00  0.00     0.158 C 
BRANCH  29  30
HETATM   30  S1  UNL     1     -37.173  -0.880 -11.026  1.00  0.00    -0.086 SA
BRANCH  30  31
HETATM   31  C12 UNL     1     -35.869  -1.475 -12.127  1.00  0.00     0.162 C 
HETATM   32  N6  UNL     1     -35.753  -2.793 -12.332  1.00  0.00    -0.170 N 
HETATM   33  C13 UNL     1     -34.648  -3.505 -12.727  1.00  0.00     0.680 C 
ATOM     34  H6  UNL     1     -36.599  -3.342 -12.175  1.00  0.00     0.186 HD
HETATM   35  N8  UNL     1     -33.403  -3.040 -13.007  1.00  0.00    -0.152 N 
HETATM   36  C14 UNL     1     -33.012  -1.771 -13.227  1.00  0.00     0.328 C 
ATOM     37  H8  UNL     1     -32.668  -3.745 -13.057  1.00  0.00     0.188 HD
HETATM   38  O1  UNL     1     -31.820  -1.654 -13.602  1.00  0.00    -0.261 OA
HETATM   39  C15 UNL     1     -33.791  -0.645 -13.076  1.00  0.00     0.316 C 
HETATM   40  O2  UNL     1     -33.206   0.425 -13.360  1.00  0.00    -0.262 OA
HETATM   41  N9  UNL     1     -35.083  -0.515 -12.670  1.00  0.00    -0.299 N 
ATOM     42  H9  UNL     1     -35.505   0.406 -12.788  1.00  0.00     0.171 HD
BRANCH  33  43
HETATM   43  N7  UNL     1     -34.771  -4.766 -12.854  1.00  0.00    -0.234 N 
ATOM     44  H72 UNL     1     -35.705  -5.066 -13.132  1.00  0.00     0.174 HD
ATOM     45  H71 UNL     1     -33.949  -5.343 -12.674  1.00  0.00     0.174 HD
ENDBRANCH  33  43
ENDBRANCH  30  31
ENDBRANCH  29  30
ENDBRANCH   1  29
BRANCH   2  46
HETATM   46  C16 UNL     1     -37.342  -1.860  -6.544  1.00  0.00     0.150 C 
BRANCH  46  47
HETATM   47  C17 UNL     1     -36.129  -2.037  -5.648  1.00  0.00     0.227 C 
BRANCH  47  48
HETATM   48  O3  UNL     1     -35.092  -2.503  -6.481  1.00  0.00    -0.220 OA
BRANCH  48  49
HETATM   49  N11 UNL     1     -33.825  -2.792  -6.075  1.00  0.00     0.004 N 
HETATM   50  O4  UNL     1     -32.960  -1.909  -5.998  1.00  0.00    -0.511 OA
HETATM   51  O5  UNL     1     -33.499  -4.080  -5.748  1.00  0.00    -0.511 OA
ENDBRANCH  48  49
ENDBRANCH  47  48
ENDBRANCH  46  47
ENDBRANCH   2  46
TORSDOF 18
ENDMDL
