MODEL 1
REMARK VINA RESULT: -6.519429865      0.000      0.000
REMARK  5 active torsions:
REMARK  status: ('A' for Active; 'I' for Inactive)
REMARK    1  A    between atoms: O1_2  and  C2_3 
REMARK    2  A    between atoms: C2_3  and  C3_4 
REMARK    3  A    between atoms: C3_4  and  N1_5 
REMARK       I    between atoms: C4_7  and  N3_9 
REMARK    4  A    between atoms: N3_9  and  N4_11 
REMARK    5  A    between atoms: C5_13  and  C6_14 
ROOT
HETATM    1  N4  UNL     1      28.413  75.140  12.034  1.00  0.00    -0.309 N 
ATOM      2  H4  UNL     1      29.293  75.586  11.775  1.00  0.00     0.186 HD
HETATM    3  C5  UNL     1      27.474  75.880  12.503  1.00  0.00     0.122 C 
ENDROOT
BRANCH   1   4
HETATM    4  N3  UNL     1      28.296  73.773  11.861  1.00  0.00    -0.274 N 
HETATM    5  C4  UNL     1      28.112  73.237  10.562  1.00  0.00     0.203 C 
HETATM    6  N1  UNL     1      28.883  72.340  10.062  1.00  0.00    -0.361 N 
HETATM    7  N2  UNL     1      27.039  73.692   9.747  1.00  0.00    -0.062 NA
ATOM      8  H1  UNL     1      29.661  71.998  10.627  1.00  0.00     0.162 HD
ATOM      9  H3  UNL     1      28.343  73.150  12.667  1.00  0.00     0.189 HD
BRANCH   6  10
HETATM   10  C3  UNL     1      28.700  71.789   8.735  1.00  0.00     0.148 C 
BRANCH  10  11
HETATM   11  C2  UNL     1      29.955  71.055   8.372  1.00  0.00     0.186 C 
BRANCH  11  12
HETATM   12  O1  UNL     1      30.842  70.872   9.410  1.00  0.00    -0.394 OA
HETATM   13  C1  UNL     1      31.337  69.581   9.509  1.00  0.00     0.201 C 
ENDBRANCH  11  12
ENDBRANCH  10  11
ENDBRANCH   6  10
ENDBRANCH   1   4
BRANCH   3  14
HETATM   14  C6  UNL     1      27.617  77.318  12.676  1.00  0.00     0.028 A 
HETATM   15  C7  UNL     1      27.106  78.259  11.780  1.00  0.00     0.035 A 
HETATM   16  C8  UNL     1      26.354  77.933  10.539  1.00  0.00     0.070 C 
HETATM   17  N5  UNL     1      27.448  79.452  12.292  1.00  0.00    -0.304 N 
HETATM   18  N6  UNL     1      28.124  79.286  13.428  1.00  0.00    -0.304 N 
ATOM     19  H5  UNL     1      27.223  80.355  11.874  1.00  0.00     0.186 HD
HETATM   20  C9  UNL     1      28.254  77.977  13.705  1.00  0.00     0.035 A 
ATOM     21  H6  UNL     1      28.491  80.043  14.005  1.00  0.00     0.186 HD
HETATM   22  C10 UNL     1      28.926  77.323  14.857  1.00  0.00     0.070 C 
ENDBRANCH   3  14
TORSDOF 5
ENDMDL
MODEL 2
REMARK VINA RESULT: -6.486176476      0.556      2.030
REMARK  5 active torsions:
REMARK  status: ('A' for Active; 'I' for Inactive)
REMARK    1  A    between atoms: O1_2  and  C2_3 
REMARK    2  A    between atoms: C2_3  and  C3_4 
REMARK    3  A    between atoms: C3_4  and  N1_5 
REMARK       I    between atoms: C4_7  and  N3_9 
REMARK    4  A    between atoms: N3_9  and  N4_11 
REMARK    5  A    between atoms: C5_13  and  C6_14 
ROOT
HETATM    1  N4  UNL     1      28.316  75.118  11.777  1.00  0.00    -0.309 N 
ATOM      2  H4  UNL     1      29.174  75.593  11.497  1.00  0.00     0.186 HD
HETATM    3  C5  UNL     1      27.331  75.833  12.183  1.00  0.00     0.122 C 
ENDROOT
BRANCH   1   4
HETATM    4  N3  UNL     1      28.279  73.737  11.698  1.00  0.00    -0.274 N 
HETATM    5  C4  UNL     1      28.297  73.100  10.432  1.00  0.00     0.203 C 
HETATM    6  N1  UNL     1      29.165  72.208  10.113  1.00  0.00    -0.361 N 
HETATM    7  N2  UNL     1      27.329  73.439   9.447  1.00  0.00    -0.062 NA
ATOM      8  H1  UNL     1      29.870  71.948  10.802  1.00  0.00     0.162 HD
ATOM      9  H3  UNL     1      28.239  73.177  12.550  1.00  0.00     0.189 HD
BRANCH   6  10
HETATM   10  C3  UNL     1      29.188  71.554   8.820  1.00  0.00     0.148 C 
BRANCH  10  11
HETATM   11  C2  UNL     1      30.540  70.931   8.652  1.00  0.00     0.186 C 
BRANCH  11  12
HETATM   12  O1  UNL     1      30.617  69.603   9.011  1.00  0.00    -0.394 OA
HETATM   13  C1  UNL     1      31.746  69.281   9.748  1.00  0.00     0.201 C 
ENDBRANCH  11  12
ENDBRANCH  10  11
ENDBRANCH   6  10
ENDBRANCH   1   4
BRANCH   3  14
HETATM   14  C6  UNL     1      27.391  77.286  12.257  1.00  0.00     0.028 A 
HETATM   15  C7  UNL     1      28.087  77.981  13.249  1.00  0.00     0.035 A 
HETATM   16  C8  UNL     1      28.854  77.347  14.354  1.00  0.00     0.070 C 
HETATM   17  N5  UNL     1      27.895  79.279  12.965  1.00  0.00    -0.304 N 
HETATM   18  N6  UNL     1      27.137  79.403  11.877  1.00  0.00    -0.304 N 
ATOM     19  H5  UNL     1      28.275  80.057  13.505  1.00  0.00     0.186 HD
HETATM   20  C9  UNL     1      26.800  78.192  11.404  1.00  0.00     0.035 A 
ATOM     21  H6  UNL     1      26.854  80.292  11.463  1.00  0.00     0.186 HD
HETATM   22  C10 UNL     1      25.973  77.843  10.221  1.00  0.00     0.070 C 
ENDBRANCH   3  14
TORSDOF 5
ENDMDL
MODEL 3
REMARK VINA RESULT: -6.467811628      1.033      1.311
REMARK  5 active torsions:
REMARK  status: ('A' for Active; 'I' for Inactive)
REMARK    1  A    between atoms: O1_2  and  C2_3 
REMARK    2  A    between atoms: C2_3  and  C3_4 
REMARK    3  A    between atoms: C3_4  and  N1_5 
REMARK       I    between atoms: C4_7  and  N3_9 
REMARK    4  A    between atoms: N3_9  and  N4_11 
REMARK    5  A    between atoms: C5_13  and  C6_14 
ROOT
HETATM    1  N4  UNL     1      28.146  75.733  11.836  1.00  0.00    -0.309 N 
ATOM      2  H4  UNL     1      29.006  76.197  11.546  1.00  0.00     0.186 HD
HETATM    3  C5  UNL     1      27.142  76.464  12.159  1.00  0.00     0.122 C 
ENDROOT
BRANCH   1   4
HETATM    4  N3  UNL     1      28.126  74.349  11.861  1.00  0.00    -0.274 N 
HETATM    5  C4  UNL     1      27.973  73.623  10.653  1.00  0.00     0.203 C 
HETATM    6  N1  UNL     1      28.802  72.720  10.274  1.00  0.00    -0.361 N 
HETATM    7  N2  UNL     1      26.865  73.881   9.799  1.00  0.00    -0.062 NA
ATOM      8  H1  UNL     1      29.606  72.516  10.869  1.00  0.00     0.162 HD
ATOM      9  H3  UNL     1      28.221  73.852  12.746  1.00  0.00     0.189 HD
BRANCH   6  10
HETATM   10  C3  UNL     1      28.651  71.974   9.041  1.00  0.00     0.148 C 
BRANCH  10  11
HETATM   11  C2  UNL     1      29.984  71.377   8.706  1.00  0.00     0.186 C 
BRANCH  11  12
HETATM   12  O1  UNL     1      30.124  70.963   7.400  1.00  0.00    -0.394 OA
HETATM   13  C1  UNL     1      28.928  70.644   6.776  1.00  0.00     0.201 C 
ENDBRANCH  11  12
ENDBRANCH  10  11
ENDBRANCH   6  10
ENDBRANCH   1   4
BRANCH   3  14
HETATM   14  C6  UNL     1      27.184  77.919  12.126  1.00  0.00     0.028 A 
HETATM   15  C7  UNL     1      26.574  78.687  11.133  1.00  0.00     0.035 A 
HETATM   16  C8  UNL     1      25.805  78.139   9.984  1.00  0.00     0.070 C 
HETATM   17  N5  UNL     1      26.844  79.961  11.460  1.00  0.00    -0.304 N 
HETATM   18  N6  UNL     1      27.570  80.003  12.576  1.00  0.00    -0.304 N 
ATOM     19  H5  UNL     1      26.539  80.778  10.931  1.00  0.00     0.186 HD
HETATM   20  C9  UNL     1      27.806  78.758  13.025  1.00  0.00     0.035 A 
ATOM     21  H6  UNL     1      27.900  80.857  13.026  1.00  0.00     0.186 HD
HETATM   22  C10 UNL     1      28.564  78.320  14.224  1.00  0.00     0.070 C 
ENDBRANCH   3  14
TORSDOF 5
ENDMDL
MODEL 4
REMARK VINA RESULT: -6.426915643      1.046      2.352
REMARK  5 active torsions:
REMARK  status: ('A' for Active; 'I' for Inactive)
REMARK    1  A    between atoms: O1_2  and  C2_3 
REMARK    2  A    between atoms: C2_3  and  C3_4 
REMARK    3  A    between atoms: C3_4  and  N1_5 
REMARK       I    between atoms: C4_7  and  N3_9 
REMARK    4  A    between atoms: N3_9  and  N4_11 
REMARK    5  A    between atoms: C5_13  and  C6_14 
ROOT
HETATM    1  N4  UNL     1      28.096  75.769  11.727  1.00  0.00    -0.309 N 
ATOM      2  H4  UNL     1      28.884  76.235  11.279  1.00  0.00     0.186 HD
HETATM    3  C5  UNL     1      27.144  76.496  12.189  1.00  0.00     0.122 C 
ENDROOT
BRANCH   1   4
HETATM    4  N3  UNL     1      28.110  74.387  11.802  1.00  0.00    -0.274 N 
HETATM    5  C4  UNL     1      27.956  73.613  10.625  1.00  0.00     0.203 C 
HETATM    6  N1  UNL     1      28.802  72.716  10.265  1.00  0.00    -0.361 N 
HETATM    7  N2  UNL     1      26.829  73.813   9.781  1.00  0.00    -0.062 NA
ATOM      8  H1  UNL     1      29.619  72.555  10.854  1.00  0.00     0.162 HD
ATOM      9  H3  UNL     1      28.232  73.926  12.704  1.00  0.00     0.189 HD
BRANCH   6  10
HETATM   10  C3  UNL     1      28.650  71.922   9.063  1.00  0.00     0.148 C 
BRANCH  10  11
HETATM   11  C2  UNL     1      30.003  71.400   8.690  1.00  0.00     0.186 C 
BRANCH  11  12
HETATM   12  O1  UNL     1      30.120  70.961   7.390  1.00  0.00    -0.394 OA
HETATM   13  C1  UNL     1      28.911  70.639   6.791  1.00  0.00     0.201 C 
ENDBRANCH  11  12
ENDBRANCH  10  11
ENDBRANCH   6  10
ENDBRANCH   1   4
BRANCH   3  14
HETATM   14  C6  UNL     1      27.148  77.948  12.099  1.00  0.00     0.028 A 
HETATM   15  C7  UNL     1      27.806  78.778  13.010  1.00  0.00     0.035 A 
HETATM   16  C8  UNL     1      28.583  78.304  14.185  1.00  0.00     0.070 C 
HETATM   17  N5  UNL     1      27.569  80.027  12.579  1.00  0.00    -0.304 N 
HETATM   18  N6  UNL     1      26.820  79.998  11.479  1.00  0.00    -0.304 N 
ATOM     19  H5  UNL     1      27.913  80.876  13.030  1.00  0.00     0.186 HD
HETATM   20  C9  UNL     1      26.534  78.729  11.144  1.00  0.00     0.035 A 
ATOM     21  H6  UNL     1      26.508  80.822  10.964  1.00  0.00     0.186 HD
HETATM   22  C10 UNL     1      25.735  78.217  10.001  1.00  0.00     0.070 C 
ENDBRANCH   3  14
TORSDOF 5
ENDMDL
MODEL 5
REMARK VINA RESULT: -6.340236497      1.972      2.399
REMARK  5 active torsions:
REMARK  status: ('A' for Active; 'I' for Inactive)
REMARK    1  A    between atoms: O1_2  and  C2_3 
REMARK    2  A    between atoms: C2_3  and  C3_4 
REMARK    3  A    between atoms: C3_4  and  N1_5 
REMARK       I    between atoms: C4_7  and  N3_9 
REMARK    4  A    between atoms: N3_9  and  N4_11 
REMARK    5  A    between atoms: C5_13  and  C6_14 
ROOT
HETATM    1  N4  UNL     1      27.343  74.016  11.357  1.00  0.00    -0.309 N 
ATOM      2  H4  UNL     1      27.724  73.425  12.096  1.00  0.00     0.186 HD
HETATM    3  C5  UNL     1      26.897  75.176  11.678  1.00  0.00     0.122 C 
ENDROOT
BRANCH   1   4
HETATM    4  N3  UNL     1      27.336  73.523  10.064  1.00  0.00    -0.274 N 
HETATM    5  C4  UNL     1      28.536  73.041   9.485  1.00  0.00     0.203 C 
HETATM    6  N1  UNL     1      28.645  71.863   8.987  1.00  0.00    -0.361 N 
HETATM    7  N2  UNL     1      29.690  73.871   9.437  1.00  0.00    -0.062 NA
ATOM      8  H1  UNL     1      27.831  71.248   9.009  1.00  0.00     0.162 HD
ATOM      9  H3  UNL     1      26.468  73.507   9.528  1.00  0.00     0.189 HD
BRANCH   6  10
HETATM   10  C3  UNL     1      29.869  71.365   8.393  1.00  0.00     0.148 C 
BRANCH  10  11
HETATM   11  C2  UNL     1      30.651  70.683   9.474  1.00  0.00     0.186 C 
BRANCH  11  12
HETATM   12  O1  UNL     1      31.013  69.382   9.197  1.00  0.00    -0.394 OA
HETATM   13  C1  UNL     1      32.117  68.939   9.910  1.00  0.00     0.201 C 
ENDBRANCH  11  12
ENDBRANCH  10  11
ENDBRANCH   6  10
ENDBRANCH   1   4
BRANCH   3  14
HETATM   14  C6  UNL     1      26.915  75.676  13.045  1.00  0.00     0.028 A 
HETATM   15  C7  UNL     1      25.786  75.724  13.865  1.00  0.00     0.035 A 
HETATM   16  C8  UNL     1      24.424  75.279  13.466  1.00  0.00     0.070 C 
HETATM   17  N5  UNL     1      26.218  76.241  15.027  1.00  0.00    -0.304 N 
HETATM   18  N6  UNL     1      27.522  76.502  14.954  1.00  0.00    -0.304 N 
ATOM     19  H5  UNL     1      25.633  76.410  15.845  1.00  0.00     0.186 HD
HETATM   20  C9  UNL     1      27.997  76.168  13.742  1.00  0.00     0.035 A 
ATOM     21  H6  UNL     1      28.080  76.899  15.710  1.00  0.00     0.186 HD
HETATM   22  C10 UNL     1      29.380  76.280  13.212  1.00  0.00     0.070 C 
ENDBRANCH   3  14
TORSDOF 5
ENDMDL
