MODEL 1
REMARK VINA RESULT: -5.969234833      0.000      0.000
REMARK  3 active torsions:
REMARK  status: ('A' for Active; 'I' for Inactive)
REMARK    1  A    between atoms: C3_5  and  C5_7 
REMARK    2  A    between atoms: C6_8  and  C7_9 
REMARK    3  A    between atoms: C7_9  and  C8_10 
ROOT
HETATM    1  C1  UNL     1       3.108  -6.797  40.218  1.00  0.00     0.162 C 
HETATM    2  N1  UNL     1       2.693  -5.429  39.951  1.00  0.00    -0.293 N 
HETATM    3  C2  UNL     1       1.351  -5.006  39.768  1.00  0.00     0.266 A 
HETATM    4  O1  UNL     1       0.352  -5.749  39.810  1.00  0.00    -0.269 OA
HETATM    5  C3  UNL     1       1.417  -3.541  39.526  1.00  0.00     0.174 A 
HETATM    6  C4  UNL     1       0.869  -3.161  38.175  1.00  0.00     0.064 C 
HETATM    7  N2  UNL     1       2.829  -3.247  39.595  1.00  0.00    -0.337 N 
ATOM      8  H2  UNL     1       3.221  -2.314  39.470  1.00  0.00     0.164 HD
HETATM    9  C9  UNL     1       3.528  -4.282  39.828  1.00  0.00     0.194 A 
HETATM   10  N3  UNL     1       4.931  -4.313  39.951  1.00  0.00    -0.063 NA
ENDROOT
BRANCH   5  11
HETATM   11  C5  UNL     1       0.671  -2.892  40.620  1.00  0.00    -0.065 C 
HETATM   12  C6  UNL     1       0.050  -2.346  41.503  1.00  0.00    -0.101 C 
BRANCH  12  13
HETATM   13  C7  UNL     1      -0.716  -1.675  42.554  1.00  0.00     0.130 C 
BRANCH  13  14
HETATM   14  C8  UNL     1       0.227  -0.992  43.552  1.00  0.00     0.189 C 
HETATM   15 CL1  UNL     1       1.533  -2.133  43.929  1.00  0.00    -0.107 Cl
HETATM   16 CL2  UNL     1       0.812   0.525  42.889  1.00  0.00    -0.107 Cl
ENDBRANCH  13  14
ENDBRANCH  12  13
ENDBRANCH   5  11
TORSDOF 3
ENDMDL
MODEL 2
REMARK VINA RESULT: -5.594306153      3.663      5.872
REMARK  3 active torsions:
REMARK  status: ('A' for Active; 'I' for Inactive)
REMARK    1  A    between atoms: C3_5  and  C5_7 
REMARK    2  A    between atoms: C6_8  and  C7_9 
REMARK    3  A    between atoms: C7_9  and  C8_10 
ROOT
HETATM    1  C1  UNL     1      -1.487   1.468  42.805  1.00  0.00     0.162 C 
HETATM    2  N1  UNL     1      -0.421   0.479  42.853  1.00  0.00    -0.293 N 
HETATM    3  C2  UNL     1      -0.616  -0.925  42.929  1.00  0.00     0.266 A 
HETATM    4  O1  UNL     1      -1.722  -1.495  42.966  1.00  0.00    -0.269 OA
HETATM    5  C3  UNL     1       0.746  -1.522  42.954  1.00  0.00     0.174 A 
HETATM    6  C4  UNL     1       1.003  -2.303  44.216  1.00  0.00     0.064 C 
HETATM    7  N2  UNL     1       1.622  -0.376  42.887  1.00  0.00    -0.337 N 
ATOM      8  H2  UNL     1       2.640  -0.439  42.885  1.00  0.00     0.164 HD
HETATM    9  C9  UNL     1       0.981   0.721  42.832  1.00  0.00     0.194 A 
HETATM   10  N3  UNL     1       1.559   2.004  42.760  1.00  0.00    -0.063 NA
ENDROOT
BRANCH   5  11
HETATM   11  C5  UNL     1       0.864  -2.368  41.752  1.00  0.00    -0.065 C 
HETATM   12  C6  UNL     1       0.950  -3.078  40.777  1.00  0.00    -0.101 C 
BRANCH  12  13
HETATM   13  C7  UNL     1       1.036  -3.952  39.607  1.00  0.00     0.130 C 
BRANCH  13  14
HETATM   14  C8  UNL     1       2.381  -4.689  39.584  1.00  0.00     0.189 C 
HETATM   15 CL1  UNL     1       3.315  -4.149  40.993  1.00  0.00    -0.107 Cl
HETATM   16 CL2  UNL     1       2.119  -6.424  39.559  1.00  0.00    -0.107 Cl
ENDBRANCH  13  14
ENDBRANCH  12  13
ENDBRANCH   5  11
TORSDOF 3
ENDMDL
MODEL 3
REMARK VINA RESULT: -5.542559690      3.954      5.741
REMARK  3 active torsions:
REMARK  status: ('A' for Active; 'I' for Inactive)
REMARK    1  A    between atoms: C3_5  and  C5_7 
REMARK    2  A    between atoms: C6_8  and  C7_9 
REMARK    3  A    between atoms: C7_9  and  C8_10 
ROOT
HETATM    1  C1  UNL     1       2.456  -2.491  43.321  1.00  0.00     0.162 C 
HETATM    2  N1  UNL     1       2.391  -3.039  41.975  1.00  0.00    -0.293 N 
HETATM    3  C2  UNL     1       3.477  -3.643  41.289  1.00  0.00     0.266 A 
HETATM    4  O1  UNL     1       4.626  -3.782  41.746  1.00  0.00    -0.269 OA
HETATM    5  C3  UNL     1       2.943  -4.048  39.962  1.00  0.00     0.174 A 
HETATM    6  C4  UNL     1       3.658  -3.364  38.826  1.00  0.00     0.064 C 
HETATM    7  N2  UNL     1       1.562  -3.630  40.008  1.00  0.00    -0.337 N 
ATOM      8  H2  UNL     1       0.902  -3.762  39.241  1.00  0.00     0.164 HD
HETATM    9  C9  UNL     1       1.260  -3.077  41.112  1.00  0.00     0.194 A 
HETATM   10  N3  UNL     1      -0.009  -2.566  41.453  1.00  0.00    -0.063 NA
ENDROOT
BRANCH   5  11
HETATM   11  C5  UNL     1       3.065  -5.515  39.881  1.00  0.00    -0.065 C 
HETATM   12  C6  UNL     1       3.174  -6.716  39.794  1.00  0.00    -0.101 C 
BRANCH  12  13
HETATM   13  C7  UNL     1       3.322  -8.167  39.670  1.00  0.00     0.130 C 
BRANCH  13  14
HETATM   14  C8  UNL     1       2.803  -8.870  40.931  1.00  0.00     0.189 C 
HETATM   15 CL1  UNL     1       2.189 -10.462  40.447  1.00  0.00    -0.107 Cl
HETATM   16 CL2  UNL     1       4.076  -8.963  42.137  1.00  0.00    -0.107 Cl
ENDBRANCH  13  14
ENDBRANCH  12  13
ENDBRANCH   5  11
TORSDOF 3
ENDMDL
MODEL 4
REMARK VINA RESULT: -5.439950315      6.525      7.537
REMARK  3 active torsions:
REMARK  status: ('A' for Active; 'I' for Inactive)
REMARK    1  A    between atoms: C3_5  and  C5_7 
REMARK    2  A    between atoms: C6_8  and  C7_9 
REMARK    3  A    between atoms: C7_9  and  C8_10 
ROOT
HETATM    1  C1  UNL     1       7.972  -1.008  48.227  1.00  0.00     0.162 C 
HETATM    2  N1  UNL     1       7.818  -1.532  46.879  1.00  0.00    -0.293 N 
HETATM    3  C2  UNL     1       6.743  -2.349  46.441  1.00  0.00     0.266 A 
HETATM    4  O1  UNL     1       5.792  -2.725  47.151  1.00  0.00    -0.269 OA
HETATM    5  C3  UNL     1       7.009  -2.633  45.006  1.00  0.00     0.174 A 
HETATM    6  C4  UNL     1       7.173  -4.107  44.738  1.00  0.00     0.064 C 
HETATM    7  N2  UNL     1       8.245  -1.936  44.743  1.00  0.00    -0.337 N 
ATOM      8  H2  UNL     1       8.711  -1.928  43.836  1.00  0.00     0.164 HD
HETATM    9  C9  UNL     1       8.688  -1.332  45.770  1.00  0.00     0.194 A 
HETATM   10  N3  UNL     1       9.871  -0.568  45.825  1.00  0.00    -0.063 NA
ENDROOT
BRANCH   5  11
HETATM   11  C5  UNL     1       5.887  -2.060  44.240  1.00  0.00    -0.065 C 
HETATM   12  C6  UNL     1       4.963  -1.610  43.602  1.00  0.00    -0.101 C 
BRANCH  12  13
HETATM   13  C7  UNL     1       3.840  -1.088  42.824  1.00  0.00     0.130 C 
BRANCH  13  14
HETATM   14  C8  UNL     1       2.674  -2.085  42.827  1.00  0.00     0.189 C 
HETATM   15 CL1  UNL     1       1.165  -1.151  42.828  1.00  0.00    -0.107 Cl
HETATM   16 CL2  UNL     1       2.807  -3.174  41.456  1.00  0.00    -0.107 Cl
ENDBRANCH  13  14
ENDBRANCH  12  13
ENDBRANCH   5  11
TORSDOF 3
ENDMDL
MODEL 5
REMARK VINA RESULT: -5.163439558      4.158      5.780
REMARK  3 active torsions:
REMARK  status: ('A' for Active; 'I' for Inactive)
REMARK    1  A    between atoms: C3_5  and  C5_7 
REMARK    2  A    between atoms: C6_8  and  C7_9 
REMARK    3  A    between atoms: C7_9  and  C8_10 
ROOT
HETATM    1  C1  UNL     1       5.258  -2.625  42.947  1.00  0.00     0.162 C 
HETATM    2  N1  UNL     1       4.207  -3.152  42.091  1.00  0.00    -0.293 N 
HETATM    3  C2  UNL     1       4.410  -3.706  40.800  1.00  0.00     0.266 A 
HETATM    4  O1  UNL     1       5.512  -3.814  40.231  1.00  0.00    -0.269 OA
HETATM    5  C3  UNL     1       3.062  -4.107  40.315  1.00  0.00     0.174 A 
HETATM    6  C4  UNL     1       2.671  -3.380  39.055  1.00  0.00     0.064 C 
HETATM    7  N2  UNL     1       2.185  -3.737  41.401  1.00  0.00    -0.337 N 
ATOM      8  H2  UNL     1       1.175  -3.879  41.388  1.00  0.00     0.164 HD
HETATM    9  C9  UNL     1       2.813  -3.214  42.374  1.00  0.00     0.194 A 
HETATM   10  N3  UNL     1       2.231  -2.752  43.571  1.00  0.00    -0.063 NA
ENDROOT
BRANCH   5  11
HETATM   11  C5  UNL     1       3.096  -5.568  40.116  1.00  0.00    -0.065 C 
HETATM   12  C6  UNL     1       3.137  -6.763  39.935  1.00  0.00    -0.101 C 
BRANCH  12  13
HETATM   13  C7  UNL     1       3.207  -8.206  39.702  1.00  0.00     0.130 C 
BRANCH  13  14
HETATM   14  C8  UNL     1       2.753  -8.974  40.950  1.00  0.00     0.189 C 
HETATM   15 CL1  UNL     1       2.218 -10.583  40.428  1.00  0.00    -0.107 Cl
HETATM   16 CL2  UNL     1       4.053  -9.032  42.129  1.00  0.00    -0.107 Cl
ENDBRANCH  13  14
ENDBRANCH  12  13
ENDBRANCH   5  11
TORSDOF 3
ENDMDL
