MODEL 1
REMARK VINA RESULT: -3.827427078      0.000      0.000
REMARK  2 active torsions:
REMARK  status: ('A' for Active; 'I' for Inactive)
REMARK    1  A    between atoms: C4_4  and  O1_5 
REMARK    2  A    between atoms: C9_11  and  O2_12 
ROOT
HETATM    1  C1  UNL     1      27.844  31.309  -6.737  1.00  0.00     0.018 C 
HETATM    2  C2  UNL     1      27.784  31.927  -5.378  1.00  0.00    -0.015 C 
HETATM    3  C3  UNL     1      26.533  32.728  -5.285  1.00  0.00     0.018 C 
HETATM    4  C4  UNL     1      29.026  32.808  -5.172  1.00  0.00     0.133 C 
HETATM    5  C5  UNL     1      29.826  32.127  -4.097  1.00  0.00     0.044 C 
HETATM    6  C6  UNL     1      29.109  32.352  -2.787  1.00  0.00     0.010 C 
HETATM    7  C7  UNL     1      27.855  31.485  -2.927  1.00  0.00     0.009 C 
HETATM    8  C8  UNL     1      27.933  30.887  -4.296  1.00  0.00     0.025 C 
HETATM    9  C9  UNL     1      29.458  30.657  -4.359  1.00  0.00     0.129 C 
ENDROOT
BRANCH   4  10
HETATM   10  O1  UNL     1      29.737  32.947  -6.347  1.00  0.00    -0.394 OA
ATOM     11  H1  UNL     1      30.392  33.632  -6.272  1.00  0.00     0.210 HD
ENDBRANCH   4  10
BRANCH   9  12
HETATM   12  O2  UNL     1      29.775  29.850  -3.296  1.00  0.00    -0.395 OA
ATOM     13  H2  UNL     1      30.319  30.297  -2.659  1.00  0.00     0.210 HD
ENDBRANCH   9  12
TORSDOF 2
ENDMDL
MODEL 2
REMARK VINA RESULT: -3.682305773      4.263      5.745
REMARK  2 active torsions:
REMARK  status: ('A' for Active; 'I' for Inactive)
REMARK    1  A    between atoms: C4_4  and  O1_5 
REMARK    2  A    between atoms: C9_11  and  O2_12 
ROOT
HETATM    1  C1  UNL     1      23.842  35.720  -3.240  1.00  0.00     0.018 C 
HETATM    2  C2  UNL     1      24.622  34.999  -4.291  1.00  0.00    -0.015 C 
HETATM    3  C3  UNL     1      25.921  35.703  -4.473  1.00  0.00     0.018 C 
HETATM    4  C4  UNL     1      23.810  34.983  -5.595  1.00  0.00     0.133 C 
HETATM    5  C5  UNL     1      23.445  33.543  -5.822  1.00  0.00     0.044 C 
HETATM    6  C6  UNL     1      24.695  32.823  -6.268  1.00  0.00     0.010 C 
HETATM    7  C7  UNL     1      25.550  32.798  -4.998  1.00  0.00     0.009 C 
HETATM    8  C8  UNL     1      24.754  33.532  -3.966  1.00  0.00     0.025 C 
HETATM    9  C9  UNL     1      23.348  33.044  -4.371  1.00  0.00     0.129 C 
ENDROOT
BRANCH   4  10
HETATM   10  O1  UNL     1      22.699  35.797  -5.499  1.00  0.00    -0.394 OA
ATOM     11  H1  UNL     1      22.060  35.585  -6.170  1.00  0.00     0.210 HD
ENDBRANCH   4  10
BRANCH   9  12
HETATM   12  O2  UNL     1      23.373  31.675  -4.294  1.00  0.00    -0.395 OA
ATOM     13  H2  UNL     1      23.103  31.361  -3.439  1.00  0.00     0.210 HD
ENDBRANCH   9  12
TORSDOF 2
ENDMDL
MODEL 3
REMARK VINA RESULT: -3.636516719      9.073     10.472
REMARK  2 active torsions:
REMARK  status: ('A' for Active; 'I' for Inactive)
REMARK    1  A    between atoms: C4_4  and  O1_5 
REMARK    2  A    between atoms: C9_11  and  O2_12 
ROOT
HETATM    1  C1  UNL     1      29.908  21.625  -4.871  1.00  0.00     0.018 C 
HETATM    2  C2  UNL     1      29.456  21.459  -3.457  1.00  0.00    -0.015 C 
HETATM    3  C3  UNL     1      30.561  20.826  -2.686  1.00  0.00     0.018 C 
HETATM    4  C4  UNL     1      28.191  20.587  -3.434  1.00  0.00     0.133 C 
HETATM    5  C5  UNL     1      27.086  21.498  -2.979  1.00  0.00     0.044 C 
HETATM    6  C6  UNL     1      27.279  21.741  -1.501  1.00  0.00     0.010 C 
HETATM    7  C7  UNL     1      28.531  22.621  -1.457  1.00  0.00     0.009 C 
HETATM    8  C8  UNL     1      28.969  22.764  -2.880  1.00  0.00     0.025 C 
HETATM    9  C9  UNL     1      27.577  22.842  -3.541  1.00  0.00     0.129 C 
ENDROOT
BRANCH   4  10
HETATM   10  O1  UNL     1      27.942  20.040  -4.677  1.00  0.00    -0.394 OA
ATOM     11  H1  UNL     1      28.748  19.927  -5.169  1.00  0.00     0.210 HD
ENDBRANCH   4  10
BRANCH   9  12
HETATM   12  O2  UNL     1      26.931  23.907  -2.968  1.00  0.00    -0.395 OA
ATOM     13  H2  UNL     1      26.039  23.693  -2.723  1.00  0.00     0.210 HD
ENDBRANCH   9  12
TORSDOF 2
ENDMDL
MODEL 4
REMARK VINA RESULT: -3.615433101      1.859      2.514
REMARK  2 active torsions:
REMARK  status: ('A' for Active; 'I' for Inactive)
REMARK    1  A    between atoms: C4_4  and  O1_5 
REMARK    2  A    between atoms: C9_11  and  O2_12 
ROOT
HETATM    1  C1  UNL     1      28.880  30.237  -4.482  1.00  0.00     0.018 C 
HETATM    2  C2  UNL     1      28.335  31.528  -5.000  1.00  0.00    -0.015 C 
HETATM    3  C3  UNL     1      28.050  31.364  -6.452  1.00  0.00     0.018 C 
HETATM    4  C4  UNL     1      29.368  32.640  -4.759  1.00  0.00     0.133 C 
HETATM    5  C5  UNL     1      28.741  33.553  -3.742  1.00  0.00     0.044 C 
HETATM    6  C6  UNL     1      27.655  34.334  -4.442  1.00  0.00     0.010 C 
HETATM    7  C7  UNL     1      26.582  33.273  -4.704  1.00  0.00     0.009 C 
HETATM    8  C8  UNL     1      27.153  31.992  -4.187  1.00  0.00     0.025 C 
HETATM    9  C9  UNL     1      27.887  32.550  -2.949  1.00  0.00     0.129 C 
ENDROOT
BRANCH   4  10
HETATM   10  O1  UNL     1      30.570  32.117  -4.324  1.00  0.00    -0.394 OA
ATOM     11  H1  UNL     1      30.461  31.641  -3.509  1.00  0.00     0.210 HD
ENDBRANCH   4  10
BRANCH   9  12
HETATM   12  O2  UNL     1      26.937  33.176  -2.182  1.00  0.00    -0.395 OA
ATOM     13  H2  UNL     1      26.319  32.559  -1.808  1.00  0.00     0.210 HD
ENDBRANCH   9  12
TORSDOF 2
ENDMDL
MODEL 5
REMARK VINA RESULT: -3.599354838      4.312      5.802
REMARK  2 active torsions:
REMARK  status: ('A' for Active; 'I' for Inactive)
REMARK    1  A    between atoms: C4_4  and  O1_5 
REMARK    2  A    between atoms: C9_11  and  O2_12 
ROOT
HETATM    1  C1  UNL     1      22.789  31.933  -3.224  1.00  0.00     0.018 C 
HETATM    2  C2  UNL     1      24.054  32.696  -3.447  1.00  0.00    -0.015 C 
HETATM    3  C3  UNL     1      25.074  32.200  -2.484  1.00  0.00     0.018 C 
HETATM    4  C4  UNL     1      23.778  34.194  -3.243  1.00  0.00     0.133 C 
HETATM    5  C5  UNL     1      23.946  34.821  -4.598  1.00  0.00     0.044 C 
HETATM    6  C6  UNL     1      25.424  34.852  -4.904  1.00  0.00     0.010 C 
HETATM    7  C7  UNL     1      25.762  33.376  -5.129  1.00  0.00     0.009 C 
HETATM    8  C8  UNL     1      24.486  32.634  -4.891  1.00  0.00     0.025 C 
HETATM    9  C9  UNL     1      23.507  33.658  -5.504  1.00  0.00     0.129 C 
ENDROOT
BRANCH   4  10
HETATM   10  O1  UNL     1      22.517  34.401  -2.721  1.00  0.00    -0.394 OA
ATOM     11  H1  UNL     1      22.228  35.295  -2.867  1.00  0.00     0.210 HD
ENDBRANCH   4  10
BRANCH   9  12
HETATM   12  O2  UNL     1      23.899  33.841  -6.805  1.00  0.00    -0.395 OA
ATOM     13  H2  UNL     1      23.190  34.165  -7.348  1.00  0.00     0.210 HD
ENDBRANCH   9  12
TORSDOF 2
ENDMDL
