MODEL 1
REMARK VINA RESULT: -4.482403552      0.000      0.000
REMARK  5 active torsions:
REMARK  status: ('A' for Active; 'I' for Inactive)
REMARK    1  A    between atoms: C2_2  and  N1_3 
REMARK    2  A    between atoms: C2_2  and  C10_15 
REMARK    3  A    between atoms: N1_3  and  C3_5 
REMARK    4  A    between atoms: C3_5  and  N2_7 
REMARK    5  A    between atoms: N2_7  and  C4_9 
ROOT
HETATM    1  C3  UNL     1       8.657  -3.609 -10.073  1.00  0.00     0.172 C 
HETATM    2  S1  UNL     1       7.840  -2.395  -9.366  1.00  0.00    -0.041 SA
ENDROOT
BRANCH   1   3
HETATM    3  N1  UNL     1       8.019  -4.280 -11.148  1.00  0.00    -0.337 N 
ATOM      4  H1  UNL     1       7.175  -4.818 -10.953  1.00  0.00     0.168 HD
BRANCH   3   5
HETATM    5  C2  UNL     1       8.501  -4.240 -12.481  1.00  0.00     0.009 C 
HETATM    6  C1  UNL     1       8.720  -3.057 -13.023  1.00  0.00     0.039 C 
BRANCH   5   7
HETATM    7  C10 UNL     1       8.758  -5.450 -13.261  1.00  0.00    -0.009 C 
HETATM    8  C11 UNL     1      10.075  -5.390 -14.016  1.00  0.00     0.021 C 
HETATM    9  C12 UNL     1       7.669  -5.523 -14.341  1.00  0.00     0.021 C 
HETATM   10  C13 UNL     1       8.639  -6.712 -12.453  1.00  0.00     0.021 C 
ENDBRANCH   5   7
ENDBRANCH   3   5
ENDBRANCH   1   3
BRANCH   1  11
HETATM   11  N2  UNL     1       9.926  -3.970  -9.627  1.00  0.00    -0.362 N 
ATOM     12  H2  UNL     1      10.483  -3.209  -9.237  1.00  0.00     0.162 HD
BRANCH  11  13
HETATM   13  C4  UNL     1      10.558  -5.240  -9.634  1.00  0.00     0.083 C 
HETATM   14  C5  UNL     1      11.636  -5.360 -10.654  1.00  0.00     0.025 C 
HETATM   15  C6  UNL     1      12.268  -6.726 -10.697  1.00  0.00     0.002 C 
HETATM   16  C7  UNL     1      12.562  -7.279  -9.325  1.00  0.00     0.000 C 
HETATM   17  C8  UNL     1      11.393  -7.137  -8.378  1.00  0.00     0.002 C 
HETATM   18  C9  UNL     1      11.143  -5.624  -8.265  1.00  0.00     0.025 C 
ENDBRANCH  11  13
ENDBRANCH   1  11
TORSDOF 5
ENDMDL
MODEL 2
REMARK VINA RESULT: -4.358926722      1.336      4.802
REMARK  5 active torsions:
REMARK  status: ('A' for Active; 'I' for Inactive)
REMARK    1  A    between atoms: C2_2  and  N1_3 
REMARK    2  A    between atoms: C2_2  and  C10_15 
REMARK    3  A    between atoms: N1_3  and  C3_5 
REMARK    4  A    between atoms: C3_5  and  N2_7 
REMARK    5  A    between atoms: N2_7  and  C4_9 
ROOT
HETATM    1  C3  UNL     1       8.317  -3.431 -10.240  1.00  0.00     0.172 C 
HETATM    2  S1  UNL     1       7.484  -2.134  -9.726  1.00  0.00    -0.041 SA
ENDROOT
BRANCH   1   3
HETATM    3  N1  UNL     1       9.062  -4.150  -9.269  1.00  0.00    -0.337 N 
ATOM      4  H1  UNL     1       8.582  -4.474  -8.430  1.00  0.00     0.168 HD
BRANCH   3   5
HETATM    5  C2  UNL     1      10.443  -4.438  -9.410  1.00  0.00     0.009 C 
HETATM    6  C1  UNL     1      11.299  -3.443  -9.277  1.00  0.00     0.039 C 
BRANCH   5   7
HETATM    7  C10 UNL     1      10.940  -5.784  -9.694  1.00  0.00    -0.009 C 
HETATM    8  C11 UNL     1       9.845  -6.725 -10.167  1.00  0.00     0.021 C 
HETATM    9  C12 UNL     1      11.435  -6.366  -8.363  1.00  0.00     0.021 C 
HETATM   10  C13 UNL     1      12.120  -5.794 -10.625  1.00  0.00     0.021 C 
ENDBRANCH   5   7
ENDBRANCH   3   5
ENDBRANCH   1   3
BRANCH   1  11
HETATM   11  N2  UNL     1       8.298  -3.806 -11.581  1.00  0.00    -0.362 N 
ATOM     12  H2  UNL     1       7.595  -4.503 -11.828  1.00  0.00     0.162 HD
BRANCH  11  13
HETATM   13  C4  UNL     1       9.113  -3.362 -12.654  1.00  0.00     0.083 C 
HETATM   14  C5  UNL     1      10.057  -4.400 -13.151  1.00  0.00     0.025 C 
HETATM   15  C6  UNL     1      10.958  -3.910 -14.253  1.00  0.00     0.002 C 
HETATM   16  C7  UNL     1      10.225  -3.100 -15.293  1.00  0.00     0.000 C 
HETATM   17  C8  UNL     1       9.320  -2.054 -14.683  1.00  0.00     0.002 C 
HETATM   18  C9  UNL     1       8.296  -2.839 -13.847  1.00  0.00     0.025 C 
ENDBRANCH  11  13
ENDBRANCH   1  11
TORSDOF 5
ENDMDL
MODEL 3
REMARK VINA RESULT: -4.325864459      2.560      5.813
REMARK  5 active torsions:
REMARK  status: ('A' for Active; 'I' for Inactive)
REMARK    1  A    between atoms: C2_2  and  N1_3 
REMARK    2  A    between atoms: C2_2  and  C10_15 
REMARK    3  A    between atoms: N1_3  and  C3_5 
REMARK    4  A    between atoms: C3_5  and  N2_7 
REMARK    5  A    between atoms: N2_7  and  C4_9 
ROOT
HETATM    1  C3  UNL     1      11.083  -6.770 -10.608  1.00  0.00     0.172 C 
HETATM    2  S1  UNL     1      10.122  -8.070 -10.442  1.00  0.00    -0.041 SA
ENDROOT
BRANCH   1   3
HETATM    3  N1  UNL     1      12.321  -6.786  -9.913  1.00  0.00    -0.337 N 
ATOM      4  H1  UNL     1      12.438  -6.160  -9.116  1.00  0.00     0.168 HD
BRANCH   3   5
HETATM    5  C2  UNL     1      13.401  -7.629 -10.275  1.00  0.00     0.009 C 
HETATM    6  C1  UNL     1      13.835  -7.578 -11.520  1.00  0.00     0.039 C 
BRANCH   5   7
HETATM    7  C10 UNL     1      14.039  -8.540  -9.325  1.00  0.00    -0.009 C 
HETATM    8  C11 UNL     1      13.692  -9.996  -9.586  1.00  0.00     0.021 C 
HETATM    9  C12 UNL     1      13.457  -8.221  -7.941  1.00  0.00     0.021 C 
HETATM   10  C13 UNL     1      15.525  -8.336  -9.217  1.00  0.00     0.021 C 
ENDBRANCH   5   7
ENDBRANCH   3   5
ENDBRANCH   1   3
BRANCH   1  11
HETATM   11  N2  UNL     1      10.692  -5.690 -11.394  1.00  0.00    -0.362 N 
ATOM     12  H2  UNL     1      10.955  -5.750 -12.378  1.00  0.00     0.162 HD
BRANCH  11  13
HETATM   13  C4  UNL     1       9.981  -4.517 -11.029  1.00  0.00     0.083 C 
HETATM   14  C5  UNL     1       8.611  -4.450 -11.608  1.00  0.00     0.025 C 
HETATM   15  C6  UNL     1       7.879  -3.180 -11.264  1.00  0.00     0.002 C 
HETATM   16  C7  UNL     1       8.026  -2.793  -9.814  1.00  0.00     0.000 C 
HETATM   17  C8  UNL     1       9.459  -2.863  -9.336  1.00  0.00     0.002 C 
HETATM   18  C9  UNL     1       9.871  -4.335  -9.506  1.00  0.00     0.025 C 
ENDBRANCH  11  13
ENDBRANCH   1  11
TORSDOF 5
ENDMDL
MODEL 4
REMARK VINA RESULT: -4.287897771      1.336      4.662
REMARK  5 active torsions:
REMARK  status: ('A' for Active; 'I' for Inactive)
REMARK    1  A    between atoms: C2_2  and  N1_3 
REMARK    2  A    between atoms: C2_2  and  C10_15 
REMARK    3  A    between atoms: N1_3  and  C3_5 
REMARK    4  A    between atoms: C3_5  and  N2_7 
REMARK    5  A    between atoms: N2_7  and  C4_9 
ROOT
HETATM    1  C3  UNL     1       8.434  -3.508 -10.177  1.00  0.00     0.172 C 
HETATM    2  S1  UNL     1       7.673  -2.184  -9.624  1.00  0.00    -0.041 SA
ENDROOT
BRANCH   1   3
HETATM    3  N1  UNL     1       9.161  -4.280  -9.234  1.00  0.00    -0.337 N 
ATOM      4  H1  UNL     1       8.661  -4.664  -8.432  1.00  0.00     0.168 HD
BRANCH   3   5
HETATM    5  C2  UNL     1      10.549  -4.542  -9.353  1.00  0.00     0.009 C 
HETATM    6  C1  UNL     1      11.378  -3.517  -9.301  1.00  0.00     0.039 C 
BRANCH   5   7
HETATM    7  C10 UNL     1      11.082  -5.893  -9.529  1.00  0.00    -0.009 C 
HETATM    8  C11 UNL     1      12.206  -5.950 -10.550  1.00  0.00     0.021 C 
HETATM    9  C12 UNL     1       9.949  -6.746 -10.118  1.00  0.00     0.021 C 
HETATM   10  C13 UNL     1      11.476  -6.547  -8.234  1.00  0.00     0.021 C 
ENDBRANCH   5   7
ENDBRANCH   3   5
ENDBRANCH   1   3
BRANCH   1  11
HETATM   11  N2  UNL     1       8.374  -3.856 -11.524  1.00  0.00    -0.362 N 
ATOM     12  H2  UNL     1       7.636  -4.516 -11.771  1.00  0.00     0.162 HD
BRANCH  11  13
HETATM   13  C4  UNL     1       9.187  -3.427 -12.605  1.00  0.00     0.083 C 
HETATM   14  C5  UNL     1      10.150  -4.463 -13.070  1.00  0.00     0.025 C 
HETATM   15  C6  UNL     1      11.049  -3.987 -14.180  1.00  0.00     0.002 C 
HETATM   16  C7  UNL     1      10.309  -3.216 -15.244  1.00  0.00     0.000 C 
HETATM   17  C8  UNL     1       9.385  -2.168 -14.666  1.00  0.00     0.002 C 
HETATM   18  C9  UNL     1       8.369  -2.948 -13.815  1.00  0.00     0.025 C 
ENDBRANCH  11  13
ENDBRANCH   1  11
TORSDOF 5
ENDMDL
MODEL 5
REMARK VINA RESULT: -4.262522591      2.445      5.475
REMARK  5 active torsions:
REMARK  status: ('A' for Active; 'I' for Inactive)
REMARK    1  A    between atoms: C2_2  and  N1_3 
REMARK    2  A    between atoms: C2_2  and  C10_15 
REMARK    3  A    between atoms: N1_3  and  C3_5 
REMARK    4  A    between atoms: C3_5  and  N2_7 
REMARK    5  A    between atoms: N2_7  and  C4_9 
ROOT
HETATM    1  C3  UNL     1      11.183  -5.961 -11.416  1.00  0.00     0.172 C 
HETATM    2  S1  UNL     1      12.494  -5.195 -11.993  1.00  0.00    -0.041 SA
ENDROOT
BRANCH   1   3
HETATM    3  N1  UNL     1      11.388  -7.218 -10.791  1.00  0.00    -0.337 N 
ATOM      4  H1  UNL     1      11.057  -8.057 -11.267  1.00  0.00     0.168 HD
BRANCH   3   5
HETATM    5  C2  UNL     1      12.031  -7.364  -9.536  1.00  0.00     0.009 C 
HETATM    6  C1  UNL     1      11.601  -6.624  -8.531  1.00  0.00     0.039 C 
BRANCH   5   7
HETATM    7  C10 UNL     1      13.140  -8.293  -9.324  1.00  0.00    -0.009 C 
HETATM    8  C11 UNL     1      14.360  -7.950 -10.162  1.00  0.00     0.021 C 
HETATM    9  C12 UNL     1      12.672  -9.667  -9.825  1.00  0.00     0.021 C 
HETATM   10  C13 UNL     1      13.495  -8.470  -7.874  1.00  0.00     0.021 C 
ENDBRANCH   5   7
ENDBRANCH   3   5
ENDBRANCH   1   3
BRANCH   1  11
HETATM   11  N2  UNL     1       9.915  -5.398 -11.543  1.00  0.00    -0.362 N 
ATOM     12  H2  UNL     1       9.251  -5.943 -12.092  1.00  0.00     0.162 HD
BRANCH  11  13
HETATM   13  C4  UNL     1       9.412  -4.179 -11.020  1.00  0.00     0.083 C 
HETATM   14  C5  UNL     1       7.989  -3.923 -11.378  1.00  0.00     0.025 C 
HETATM   15  C6  UNL     1       7.473  -2.603 -10.869  1.00  0.00     0.002 C 
HETATM   16  C7  UNL     1       7.878  -2.327  -9.443  1.00  0.00     0.000 C 
HETATM   17  C8  UNL     1       9.347  -2.587  -9.194  1.00  0.00     0.002 C 
HETATM   18  C9  UNL     1       9.550  -4.081  -9.492  1.00  0.00     0.025 C 
ENDBRANCH  11  13
ENDBRANCH   1  11
TORSDOF 5
ENDMDL
