MODEL 1
REMARK VINA RESULT: -8.007894039      0.000      0.000
REMARK  5 active torsions:
REMARK  status: ('A' for Active; 'I' for Inactive)
REMARK    1  A    between atoms: C2_2  and  O1_3 
REMARK    2  A    between atoms: C2_2  and  C3_5 
REMARK    3  A    between atoms: C3_5  and  O3_7 
REMARK    4  A    between atoms: O3_7  and  C4_8 
REMARK    5  A    between atoms: C9_14  and  O5_15 
ROOT
HETATM    1  C4  UNL     1      25.804  21.978  72.235  1.00  0.00     0.189 C 
HETATM    2  C5  UNL     1      25.980  22.780  73.519  1.00  0.00     0.093 C 
HETATM    3  C6  UNL     1      25.554  24.221  73.371  1.00  0.00     0.068 C 
HETATM    4  C7  UNL     1      24.086  24.389  73.145  1.00  0.00     0.046 C 
HETATM    5  C8  UNL     1      25.897  24.906  74.682  1.00  0.00     0.046 C 
HETATM    6  O4  UNL     1      26.320  24.886  72.385  1.00  0.00    -0.326 OA
HETATM    7  C9  UNL     1      26.476  24.099  71.287  1.00  0.00     0.306 C 
HETATM    8  N1  UNL     1      27.740  24.015  70.640  1.00  0.00    -0.027 NA
HETATM    9  O6  UNL     1      27.634  22.639  70.683  1.00  0.00    -0.257 OA
HETATM   10  C10 UNL     1      26.940  22.754  71.768  1.00  0.00     0.220 C 
HETATM   11  C11 UNL     1      27.477  22.726  73.145  1.00  0.00     0.142 C 
HETATM   12  C12 UNL     1      28.182  21.502  73.587  1.00  0.00     0.211 C 
HETATM   13  O7  UNL     1      28.108  21.443  74.987  1.00  0.00    -0.380 OA
HETATM   14  C13 UNL     1      28.844  22.457  75.555  1.00  0.00     0.251 C 
HETATM   15  C14 UNL     1      29.095  23.599  74.635  1.00  0.00     0.136 C 
HETATM   16  N2  UNL     1      30.131  24.348  74.825  1.00  0.00    -0.382 N 
ATOM     17  H21 UNL     1      30.303  25.131  74.194  1.00  0.00     0.158 HD
ATOM     18  H22 UNL     1      30.780  24.170  75.592  1.00  0.00     0.158 HD
HETATM   19  O8  UNL     1      28.210  23.842  73.589  1.00  0.00    -0.320 OA
ENDROOT
BRANCH   1  20
HETATM   20  O3  UNL     1      24.642  22.165  71.519  1.00  0.00    -0.310 OA
BRANCH  20  21
HETATM   21  C3  UNL     1      23.688  21.166  71.431  1.00  0.00     0.287 C 
HETATM   22  O2  UNL     1      24.050  20.106  70.860  1.00  0.00    -0.262 OA
BRANCH  21  23
HETATM   23  C2  UNL     1      22.304  21.314  71.977  1.00  0.00     0.213 C 
HETATM   24  C1  UNL     1      22.330  21.305  73.465  1.00  0.00     0.050 C 
BRANCH  23  25
HETATM   25  O1  UNL     1      21.513  20.258  71.548  1.00  0.00    -0.386 OA
ATOM     26  H1  UNL     1      20.652  20.353  71.938  1.00  0.00     0.210 HD
ENDBRANCH  23  25
ENDBRANCH  21  23
ENDBRANCH  20  21
ENDBRANCH   1  20
BRANCH   7  27
HETATM   27  O5  UNL     1      25.441  24.082  70.357  1.00  0.00    -0.348 OA
ATOM     28  H5  UNL     1      24.557  24.201  70.684  1.00  0.00     0.214 HD
ENDBRANCH   7  27
TORSDOF 5
ENDMDL
MODEL 2
REMARK VINA RESULT: -7.565947950      2.384      5.878
REMARK  5 active torsions:
REMARK  status: ('A' for Active; 'I' for Inactive)
REMARK    1  A    between atoms: C2_2  and  O1_3 
REMARK    2  A    between atoms: C2_2  and  C3_5 
REMARK    3  A    between atoms: C3_5  and  O3_7 
REMARK    4  A    between atoms: O3_7  and  C4_8 
REMARK    5  A    between atoms: C9_14  and  O5_15 
ROOT
HETATM    1  C4  UNL     1      27.955  23.066  73.569  1.00  0.00     0.189 C 
HETATM    2  C5  UNL     1      26.604  23.765  73.645  1.00  0.00     0.093 C 
HETATM    3  C6  UNL     1      26.203  24.110  75.059  1.00  0.00     0.068 C 
HETATM    4  C7  UNL     1      27.078  25.142  75.693  1.00  0.00     0.046 C 
HETATM    5  C8  UNL     1      24.800  24.685  74.979  1.00  0.00     0.046 C 
HETATM    6  O4  UNL     1      26.090  22.948  75.860  1.00  0.00    -0.326 OA
HETATM    7  C9  UNL     1      27.128  22.102  75.627  1.00  0.00     0.306 C 
HETATM    8  N1  UNL     1      26.898  20.704  75.504  1.00  0.00    -0.027 NA
HETATM    9  O6  UNL     1      27.630  20.719  74.333  1.00  0.00    -0.257 OA
HETATM   10  C10 UNL     1      27.239  21.937  74.139  1.00  0.00     0.220 C 
HETATM   11  C11 UNL     1      26.049  22.351  73.366  1.00  0.00     0.142 C 
HETATM   12  C12 UNL     1      25.991  21.980  71.934  1.00  0.00     0.211 C 
HETATM   13  O7  UNL     1      25.139  22.888  71.287  1.00  0.00    -0.380 OA
HETATM   14  C13 UNL     1      23.841  22.722  71.712  1.00  0.00     0.251 C 
HETATM   15  C14 UNL     1      23.728  22.042  73.030  1.00  0.00     0.136 C 
HETATM   16  N2  UNL     1      22.647  21.390  73.314  1.00  0.00    -0.382 N 
ATOM     17  H21 UNL     1      22.570  20.923  74.218  1.00  0.00     0.158 HD
ATOM     18  H22 UNL     1      21.873  21.334  72.652  1.00  0.00     0.158 HD
HETATM   19  O8  UNL     1      24.783  22.118  73.934  1.00  0.00    -0.320 OA
ENDROOT
BRANCH   1  20
HETATM   20  O3  UNL     1      28.975  23.559  74.353  1.00  0.00    -0.310 OA
BRANCH  20  21
HETATM   21  C3  UNL     1      30.217  23.846  73.812  1.00  0.00     0.287 C 
HETATM   22  O2  UNL     1      30.444  23.375  72.669  1.00  0.00    -0.262 OA
BRANCH  21  23
HETATM   23  C2  UNL     1      31.243  24.666  74.526  1.00  0.00     0.213 C 
HETATM   24  C1  UNL     1      31.820  23.899  75.663  1.00  0.00     0.050 C 
BRANCH  23  25
HETATM   25  O1  UNL     1      30.658  25.819  75.029  1.00  0.00    -0.386 OA
ATOM     26  H1  UNL     1      29.804  25.920  74.627  1.00  0.00     0.210 HD
ENDBRANCH  23  25
ENDBRANCH  21  23
ENDBRANCH  20  21
ENDBRANCH   1  20
BRANCH   7  27
HETATM   27  O5  UNL     1      28.323  22.351  76.296  1.00  0.00    -0.348 OA
ATOM     28  H5  UNL     1      28.494  23.244  76.570  1.00  0.00     0.214 HD
ENDBRANCH   7  27
TORSDOF 5
ENDMDL
MODEL 3
REMARK VINA RESULT: -7.554142705      2.671      4.171
REMARK  5 active torsions:
REMARK  status: ('A' for Active; 'I' for Inactive)
REMARK    1  A    between atoms: C2_2  and  O1_3 
REMARK    2  A    between atoms: C2_2  and  C3_5 
REMARK    3  A    between atoms: C3_5  and  O3_7 
REMARK    4  A    between atoms: O3_7  and  C4_8 
REMARK    5  A    between atoms: C9_14  and  O5_15 
ROOT
HETATM    1  C4  UNL     1      26.757  23.364  74.674  1.00  0.00     0.189 C 
HETATM    2  C5  UNL     1      27.846  22.994  73.674  1.00  0.00     0.093 C 
HETATM    3  C6  UNL     1      27.576  21.685  72.974  1.00  0.00     0.068 C 
HETATM    4  C7  UNL     1      26.384  21.724  72.073  1.00  0.00     0.046 C 
HETATM    5  C8  UNL     1      28.793  21.401  72.110  1.00  0.00     0.046 C 
HETATM    6  O4  UNL     1      27.508  20.612  73.895  1.00  0.00    -0.326 OA
HETATM    7  C9  UNL     1      26.787  20.966  74.991  1.00  0.00     0.306 C 
HETATM    8  N1  UNL     1      27.238  20.608  76.292  1.00  0.00    -0.027 NA
HETATM    9  O6  UNL     1      27.061  21.921  76.680  1.00  0.00    -0.257 OA
HETATM   10  C10 UNL     1      27.324  22.286  75.467  1.00  0.00     0.220 C 
HETATM   11  C11 UNL     1      28.656  22.652  74.944  1.00  0.00     0.142 C 
HETATM   12  C12 UNL     1      29.350  23.803  75.564  1.00  0.00     0.211 C 
HETATM   13  O7  UNL     1      30.258  24.316  74.626  1.00  0.00    -0.380 OA
HETATM   14  C13 UNL     1      31.276  23.419  74.393  1.00  0.00     0.251 C 
HETATM   15  C14 UNL     1      30.928  22.018  74.755  1.00  0.00     0.136 C 
HETATM   16  N2  UNL     1      31.874  21.192  75.064  1.00  0.00    -0.382 N 
ATOM     17  H21 UNL     1      31.636  20.232  75.313  1.00  0.00     0.158 HD
ATOM     18  H22 UNL     1      32.852  21.483  75.065  1.00  0.00     0.158 HD
HETATM   19  O8  UNL     1      29.595  21.621  74.754  1.00  0.00    -0.320 OA
ENDROOT
BRANCH   1  20
HETATM   20  O3  UNL     1      25.448  23.174  74.291  1.00  0.00    -0.310 OA
BRANCH  20  21
HETATM   21  C3  UNL     1      24.587  24.247  74.133  1.00  0.00     0.287 C 
HETATM   22  O2  UNL     1      24.469  25.011  75.124  1.00  0.00    -0.262 OA
BRANCH  21  23
HETATM   23  C2  UNL     1      23.833  24.504  72.868  1.00  0.00     0.213 C 
HETATM   24  C1  UNL     1      23.041  23.304  72.485  1.00  0.00     0.050 C 
BRANCH  23  25
HETATM   25  O1  UNL     1      24.720  24.788  71.840  1.00  0.00    -0.386 OA
ATOM     26  H1  UNL     1      25.602  24.770  72.193  1.00  0.00     0.210 HD
ENDBRANCH  23  25
ENDBRANCH  21  23
ENDBRANCH  20  21
ENDBRANCH   1  20
BRANCH   7  27
HETATM   27  O5  UNL     1      25.401  20.876  74.905  1.00  0.00    -0.348 OA
ATOM     28  H5  UNL     1      24.942  20.470  75.632  1.00  0.00     0.214 HD
ENDBRANCH   7  27
TORSDOF 5
ENDMDL
MODEL 4
REMARK VINA RESULT: -7.465222023      2.404      5.691
REMARK  5 active torsions:
REMARK  status: ('A' for Active; 'I' for Inactive)
REMARK    1  A    between atoms: C2_2  and  O1_3 
REMARK    2  A    between atoms: C2_2  and  C3_5 
REMARK    3  A    between atoms: C3_5  and  O3_7 
REMARK    4  A    between atoms: O3_7  and  C4_8 
REMARK    5  A    between atoms: C9_14  and  O5_15 
ROOT
HETATM    1  C4  UNL     1      27.998  23.001  73.602  1.00  0.00     0.189 C 
HETATM    2  C5  UNL     1      26.662  23.730  73.676  1.00  0.00     0.093 C 
HETATM    3  C6  UNL     1      26.262  24.076  75.090  1.00  0.00     0.068 C 
HETATM    4  C7  UNL     1      27.158  25.084  75.734  1.00  0.00     0.046 C 
HETATM    5  C8  UNL     1      24.874  24.684  75.007  1.00  0.00     0.046 C 
HETATM    6  O4  UNL     1      26.119  22.912  75.883  1.00  0.00    -0.326 OA
HETATM    7  C9  UNL     1      27.139  22.044  75.650  1.00  0.00     0.306 C 
HETATM    8  N1  UNL     1      26.877  20.652  75.517  1.00  0.00    -0.027 NA
HETATM    9  O6  UNL     1      27.614  20.658  74.350  1.00  0.00    -0.257 OA
HETATM   10  C10 UNL     1      27.253  21.886  74.161  1.00  0.00     0.220 C 
HETATM   11  C11 UNL     1      26.077  22.331  73.386  1.00  0.00     0.142 C 
HETATM   12  C12 UNL     1      26.017  21.971  71.951  1.00  0.00     0.211 C 
HETATM   13  O7  UNL     1      25.190  22.902  71.305  1.00  0.00    -0.380 OA
HETATM   14  C13 UNL     1      23.885  22.763  71.723  1.00  0.00     0.251 C 
HETATM   15  C14 UNL     1      23.750  22.077  73.037  1.00  0.00     0.136 C 
HETATM   16  N2  UNL     1      22.654  21.449  73.311  1.00  0.00    -0.382 N 
ATOM     17  H21 UNL     1      22.561  20.979  74.211  1.00  0.00     0.158 HD
ATOM     18  H22 UNL     1      21.882  21.415  72.645  1.00  0.00     0.158 HD
HETATM   19  O8  UNL     1      24.803  22.124  73.945  1.00  0.00    -0.320 OA
ENDROOT
BRANCH   1  20
HETATM   20  O3  UNL     1      29.025  23.466  74.394  1.00  0.00    -0.310 OA
BRANCH  20  21
HETATM   21  C3  UNL     1      30.338  23.421  73.960  1.00  0.00     0.287 C 
HETATM   22  O2  UNL     1      30.845  24.519  73.616  1.00  0.00    -0.262 OA
BRANCH  21  23
HETATM   23  C2  UNL     1      31.129  22.154  73.896  1.00  0.00     0.213 C 
HETATM   24  C1  UNL     1      31.125  21.609  72.511  1.00  0.00     0.050 C 
BRANCH  23  25
HETATM   25  O1  UNL     1      30.568  21.205  74.739  1.00  0.00    -0.386 OA
ATOM     26  H1  UNL     1      29.924  21.638  75.288  1.00  0.00     0.210 HD
ENDBRANCH  23  25
ENDBRANCH  21  23
ENDBRANCH  20  21
ENDBRANCH   1  20
BRANCH   7  27
HETATM   27  O5  UNL     1      28.335  22.261  76.326  1.00  0.00    -0.348 OA
ATOM     28  H5  UNL     1      28.281  22.537  77.234  1.00  0.00     0.214 HD
ENDBRANCH   7  27
TORSDOF 5
ENDMDL
MODEL 5
REMARK VINA RESULT: -7.442192015      1.831      2.791
REMARK  5 active torsions:
REMARK  status: ('A' for Active; 'I' for Inactive)
REMARK    1  A    between atoms: C2_2  and  O1_3 
REMARK    2  A    between atoms: C2_2  and  C3_5 
REMARK    3  A    between atoms: C3_5  and  O3_7 
REMARK    4  A    between atoms: O3_7  and  C4_8 
REMARK    5  A    between atoms: C9_14  and  O5_15 
ROOT
HETATM    1  C4  UNL     1      26.066  22.675  72.941  1.00  0.00     0.189 C 
HETATM    2  C5  UNL     1      27.153  22.038  73.798  1.00  0.00     0.093 C 
HETATM    3  C6  UNL     1      26.708  21.791  75.219  1.00  0.00     0.068 C 
HETATM    4  C7  UNL     1      25.632  20.760  75.337  1.00  0.00     0.046 C 
HETATM    5  C8  UNL     1      27.924  21.270  75.964  1.00  0.00     0.046 C 
HETATM    6  O4  UNL     1      26.356  22.999  75.866  1.00  0.00    -0.326 OA
HETATM    7  C9  UNL     1      25.617  23.788  75.041  1.00  0.00     0.306 C 
HETATM    8  N1  UNL     1      25.872  25.185  74.967  1.00  0.00    -0.027 NA
HETATM    9  O6  UNL     1      25.909  25.073  73.592  1.00  0.00    -0.257 OA
HETATM   10  C10 UNL     1      26.345  23.863  73.730  1.00  0.00     0.220 C 
HETATM   11  C11 UNL     1      27.765  23.456  73.771  1.00  0.00     0.142 C 
HETATM   12  C12 UNL     1      28.603  23.746  72.586  1.00  0.00     0.211 C 
HETATM   13  O7  UNL     1      29.673  22.839  72.580  1.00  0.00    -0.380 OA
HETATM   14  C13 UNL     1      30.521  23.082  73.636  1.00  0.00     0.251 C 
HETATM   15  C14 UNL     1      29.886  23.841  74.748  1.00  0.00     0.136 C 
HETATM   16  N2  UNL     1      30.628  24.551  75.533  1.00  0.00    -0.382 N 
ATOM     17  H21 UNL     1      30.193  25.072  76.294  1.00  0.00     0.158 HD
ATOM     18  H22 UNL     1      31.639  24.602  75.403  1.00  0.00     0.158 HD
HETATM   19  O8  UNL     1      28.507  23.772  74.924  1.00  0.00    -0.320 OA
ENDROOT
BRANCH   1  20
HETATM   20  O3  UNL     1      24.784  22.185  73.067  1.00  0.00    -0.310 OA
BRANCH  20  21
HETATM   21  C3  UNL     1      24.167  21.522  72.020  1.00  0.00     0.287 C 
HETATM   22  O2  UNL     1      24.923  20.867  71.259  1.00  0.00    -0.262 OA
BRANCH  21  23
HETATM   23  C2  UNL     1      22.691  21.565  71.790  1.00  0.00     0.213 C 
HETATM   24  C1  UNL     1      21.960  21.335  73.065  1.00  0.00     0.050 C 
BRANCH  23  25
HETATM   25  O1  UNL     1      22.325  20.572  70.893  1.00  0.00    -0.386 OA
ATOM     26  H1  UNL     1      22.927  20.597  70.158  1.00  0.00     0.210 HD
ENDBRANCH  23  25
ENDBRANCH  21  23
ENDBRANCH  20  21
ENDBRANCH   1  20
BRANCH   7  27
HETATM   27  O5  UNL     1      24.252  23.528  74.958  1.00  0.00    -0.348 OA
ATOM     28  H5  UNL     1      23.929  23.137  74.155  1.00  0.00     0.214 HD
ENDBRANCH   7  27
TORSDOF 5
ENDMDL
