MODEL 1
REMARK VINA RESULT: -8.068692887      0.000      0.000
REMARK  8 active torsions:
REMARK  status: ('A' for Active; 'I' for Inactive)
REMARK    1  A    between atoms: C2_2  and  C3_3 
REMARK    2  A    between atoms: C10_10  and  C11_11 
REMARK    3  A    between atoms: C11_11  and  N1_13 
REMARK    4  A    between atoms: N1_13  and  N2_15 
REMARK    5  A    between atoms: N2_15  and  C12_16 
REMARK    6  A    between atoms: C12_16  and  C14_18 
REMARK       I    between atoms: C14_18  and  N3_20 
REMARK    7  A    between atoms: N3_20  and  N4_22 
REMARK       I    between atoms: N4_22  and  C15_24 
REMARK    8  A    between atoms: C15_24  and  C16_26 
ROOT
HETATM    1  C12 UNL     1       9.440  39.073  21.376  1.00  0.00     0.189 C 
HETATM    2  C13 UNL     1       8.246  40.014  21.391  1.00  0.00     0.040 C 
ENDROOT
BRANCH   1   3
HETATM    3  N2  UNL     1      10.599  39.721  20.780  1.00  0.00    -0.126 NA
BRANCH   3   4
HETATM    4  N1  UNL     1      10.763  41.025  21.190  1.00  0.00    -0.296 N 
ATOM      5  H1  UNL     1      10.156  41.417  21.909  1.00  0.00     0.183 HD
BRANCH   4   6
HETATM    6  C11 UNL     1      11.781  41.818  20.606  1.00  0.00     0.097 C 
HETATM    7  S1  UNL     1      11.641  42.331  19.044  1.00  0.00    -0.064 SA
BRANCH   6   8
HETATM    8  C10 UNL     1      12.986  42.203  21.366  1.00  0.00     0.015 C 
HETATM    9  C9  UNL     1      14.074  41.203  21.024  1.00  0.00     0.021 C 
HETATM   10  C7  UNL     1      15.315  41.600  21.760  1.00  0.00    -0.012 C 
HETATM   11  C6  UNL     1      15.728  42.977  21.304  1.00  0.00     0.009 C 
HETATM   12  C8  UNL     1      15.079  41.522  23.248  1.00  0.00     0.014 C 
HETATM   13  C5  UNL     1      14.664  43.956  21.752  1.00  0.00    -0.012 C 
HETATM   14  C4  UNL     1      14.407  43.859  23.232  1.00  0.00     0.014 C 
HETATM   15  C23 UNL     1      13.404  43.611  21.028  1.00  0.00     0.021 C 
HETATM   16  C3  UNL     1      13.975  42.450  23.613  1.00  0.00    -0.039 C 
HETATM   17  C24 UNL     1      12.726  42.094  22.836  1.00  0.00     0.026 C 
BRANCH  16  18
HETATM   18  C2  UNL     1      13.660  42.469  25.084  1.00  0.00     0.005 C 
HETATM   19  C1  UNL     1      12.626  43.459  25.480  1.00  0.00     0.006 C 
ENDBRANCH  16  18
ENDBRANCH   6   8
ENDBRANCH   4   6
ENDBRANCH   3   4
ENDBRANCH   1   3
BRANCH   1  20
HETATM   20  C14 UNL     1       9.777  38.742  22.771  1.00  0.00     0.257 C 
HETATM   21  O1  UNL     1      10.863  39.117  23.256  1.00  0.00    -0.270 OA
HETATM   22  N3  UNL     1       8.872  38.004  23.553  1.00  0.00    -0.266 N 
ATOM     23  H3  UNL     1       7.990  37.706  23.133  1.00  0.00     0.190 HD
BRANCH  22  24
HETATM   24  N4  UNL     1       9.137  37.656  24.902  1.00  0.00    -0.263 N 
HETATM   25  C15 UNL     1       8.238  36.793  25.532  1.00  0.00     0.272 C 
HETATM   26  O2  UNL     1       7.232  36.370  24.837  1.00  0.00    -0.266 OA
ATOM     27  H4  UNL     1       9.953  38.023  25.392  1.00  0.00     0.190 HD
BRANCH  25  28
HETATM   28  C16 UNL     1       8.366  36.349  26.906  1.00  0.00     0.063 A 
HETATM   29  C17 UNL     1       7.877  36.917  28.035  1.00  0.00     0.022 A 
HETATM   30  C18 UNL     1       7.051  38.122  28.243  1.00  0.00     0.069 C 
HETATM   31  N5  UNL     1       8.282  36.130  29.094  1.00  0.00    -0.362 N 
HETATM   32  C19 UNL     1       8.996  35.108  28.639  1.00  0.00     0.012 A 
ATOM     33  H5  UNL     1       8.066  36.307  30.075  1.00  0.00     0.165 HD
HETATM   34  C20 UNL     1       9.630  34.012  29.447  1.00  0.00     0.068 C 
HETATM   35  C21 UNL     1       9.072  35.206  27.290  1.00  0.00    -0.022 A 
HETATM   36  C22 UNL     1       9.763  34.291  26.374  1.00  0.00     0.051 C 
ENDBRANCH  25  28
ENDBRANCH  22  24
ENDBRANCH   1  20
TORSDOF 8
ENDMDL
MODEL 2
REMARK VINA RESULT: -8.012459019      0.791      2.088
REMARK  8 active torsions:
REMARK  status: ('A' for Active; 'I' for Inactive)
REMARK    1  A    between atoms: C2_2  and  C3_3 
REMARK    2  A    between atoms: C10_10  and  C11_11 
REMARK    3  A    between atoms: C11_11  and  N1_13 
REMARK    4  A    between atoms: N1_13  and  N2_15 
REMARK    5  A    between atoms: N2_15  and  C12_16 
REMARK    6  A    between atoms: C12_16  and  C14_18 
REMARK       I    between atoms: C14_18  and  N3_20 
REMARK    7  A    between atoms: N3_20  and  N4_22 
REMARK       I    between atoms: N4_22  and  C15_24 
REMARK    8  A    between atoms: C15_24  and  C16_26 
ROOT
HETATM    1  C12 UNL     1       9.168  38.702  21.576  1.00  0.00     0.189 C 
HETATM    2  C13 UNL     1       7.905  39.527  21.765  1.00  0.00     0.040 C 
ENDROOT
BRANCH   1   3
HETATM    3  N2  UNL     1      10.221  39.504  20.969  1.00  0.00    -0.126 NA
BRANCH   3   4
HETATM    4  N1  UNL     1      10.254  40.799  21.434  1.00  0.00    -0.296 N 
ATOM      5  H1  UNL     1       9.545  41.127  22.090  1.00  0.00     0.183 HD
BRANCH   4   6
HETATM    6  C11 UNL     1      11.280  41.671  20.997  1.00  0.00     0.097 C 
HETATM    7  S1  UNL     1      11.358  42.136  19.416  1.00  0.00    -0.064 SA
BRANCH   6   8
HETATM    8  C10 UNL     1      12.302  42.184  21.931  1.00  0.00     0.015 C 
HETATM    9  C9  UNL     1      12.026  43.662  22.133  1.00  0.00     0.021 C 
HETATM   10  C7  UNL     1      13.033  44.192  23.106  1.00  0.00    -0.012 C 
HETATM   11  C6  UNL     1      12.870  43.460  24.414  1.00  0.00     0.009 C 
HETATM   12  C8  UNL     1      14.421  44.065  22.531  1.00  0.00     0.014 C 
HETATM   13  C5  UNL     1      13.251  42.012  24.191  1.00  0.00    -0.012 C 
HETATM   14  C4  UNL     1      14.626  41.885  23.591  1.00  0.00     0.014 C 
HETATM   15  C23 UNL     1      12.260  41.432  23.236  1.00  0.00     0.021 C 
HETATM   16  C3  UNL     1      14.706  42.628  22.265  1.00  0.00    -0.039 C 
HETATM   17  C24 UNL     1      13.664  42.064  21.323  1.00  0.00     0.026 C 
BRANCH  16  18
HETATM   18  C2  UNL     1      16.077  42.377  21.701  1.00  0.00     0.005 C 
HETATM   19  C1  UNL     1      16.967  43.566  21.693  1.00  0.00     0.006 C 
ENDBRANCH  16  18
ENDBRANCH   6   8
ENDBRANCH   4   6
ENDBRANCH   3   4
ENDBRANCH   1   3
BRANCH   1  20
HETATM   20  C14 UNL     1       9.636  38.274  22.904  1.00  0.00     0.257 C 
HETATM   21  O1  UNL     1      10.859  38.218  23.146  1.00  0.00    -0.270 OA
HETATM   22  N3  UNL     1       8.703  37.931  23.898  1.00  0.00    -0.266 N 
ATOM     23  H3  UNL     1       7.709  37.983  23.676  1.00  0.00     0.190 HD
BRANCH  22  24
HETATM   24  N4  UNL     1       9.092  37.515  25.196  1.00  0.00    -0.263 N 
HETATM   25  C15 UNL     1       8.202  36.704  25.905  1.00  0.00     0.272 C 
HETATM   26  O2  UNL     1       7.091  36.389  25.321  1.00  0.00    -0.266 OA
ATOM     27  H4  UNL     1       9.987  37.796  25.597  1.00  0.00     0.190 HD
BRANCH  25  28
HETATM   28  C16 UNL     1       8.449  36.201  27.242  1.00  0.00     0.063 A 
HETATM   29  C17 UNL     1       8.105  36.744  28.435  1.00  0.00     0.022 A 
HETATM   30  C18 UNL     1       7.360  37.973  28.769  1.00  0.00     0.069 C 
HETATM   31  N5  UNL     1       8.579  35.900  29.418  1.00  0.00    -0.362 N 
HETATM   32  C19 UNL     1       9.196  34.868  28.856  1.00  0.00     0.012 A 
ATOM     33  H5  UNL     1       8.472  36.047  30.421  1.00  0.00     0.165 HD
HETATM   34  C20 UNL     1       9.858  33.716  29.555  1.00  0.00     0.068 C 
HETATM   35  C21 UNL     1       9.138  35.016  27.511  1.00  0.00    -0.022 A 
HETATM   36  C22 UNL     1       9.689  34.109  26.496  1.00  0.00     0.051 C 
ENDBRANCH  25  28
ENDBRANCH  22  24
ENDBRANCH   1  20
TORSDOF 8
ENDMDL
MODEL 3
REMARK VINA RESULT: -7.919257803      3.497      5.106
REMARK  8 active torsions:
REMARK  status: ('A' for Active; 'I' for Inactive)
REMARK    1  A    between atoms: C2_2  and  C3_3 
REMARK    2  A    between atoms: C10_10  and  C11_11 
REMARK    3  A    between atoms: C11_11  and  N1_13 
REMARK    4  A    between atoms: N1_13  and  N2_15 
REMARK    5  A    between atoms: N2_15  and  C12_16 
REMARK    6  A    between atoms: C12_16  and  C14_18 
REMARK       I    between atoms: C14_18  and  N3_20 
REMARK    7  A    between atoms: N3_20  and  N4_22 
REMARK       I    between atoms: N4_22  and  C15_24 
REMARK    8  A    between atoms: C15_24  and  C16_26 
ROOT
HETATM    1  C12 UNL     1       5.167  37.987  23.548  1.00  0.00     0.189 C 
HETATM    2  C13 UNL     1       3.849  37.434  23.028  1.00  0.00     0.040 C 
ENDROOT
BRANCH   1   3
HETATM    3  N2  UNL     1       5.067  39.419  23.787  1.00  0.00    -0.126 NA
BRANCH   3   4
HETATM    4  N1  UNL     1       6.136  39.929  24.489  1.00  0.00    -0.296 N 
ATOM      5  H1  UNL     1       6.339  39.593  25.430  1.00  0.00     0.183 HD
BRANCH   4   6
HETATM    6  C11 UNL     1       6.950  40.923  23.894  1.00  0.00     0.097 C 
HETATM    7  S1  UNL     1       6.571  42.520  24.066  1.00  0.00    -0.064 SA
BRANCH   6   8
HETATM    8  C10 UNL     1       8.148  40.566  23.110  1.00  0.00     0.015 C 
HETATM    9  C9  UNL     1       9.010  41.811  23.012  1.00  0.00     0.021 C 
HETATM   10  C7  UNL     1      10.248  41.457  22.249  1.00  0.00    -0.012 C 
HETATM   11  C6  UNL     1      10.990  40.383  23.003  1.00  0.00     0.009 C 
HETATM   12  C8  UNL     1       9.888  41.045  20.844  1.00  0.00     0.014 C 
HETATM   13  C5  UNL     1      10.140  39.131  22.991  1.00  0.00    -0.012 C 
HETATM   14  C4  UNL     1       9.755  38.734  21.591  1.00  0.00     0.014 C 
HETATM   15  C23 UNL     1       8.894  39.429  23.759  1.00  0.00     0.021 C 
HETATM   16  C3  UNL     1       8.992  39.857  20.902  1.00  0.00    -0.039 C 
HETATM   17  C24 UNL     1       7.759  40.183  21.717  1.00  0.00     0.026 C 
BRANCH  16  18
HETATM   18  C2  UNL     1       8.577  39.344  19.551  1.00  0.00     0.005 C 
HETATM   19  C1  UNL     1       7.483  40.116  18.909  1.00  0.00     0.006 C 
ENDBRANCH  16  18
ENDBRANCH   6   8
ENDBRANCH   4   6
ENDBRANCH   3   4
ENDBRANCH   1   3
BRANCH   1  20
HETATM   20  C14 UNL     1       5.460  37.334  24.834  1.00  0.00     0.257 C 
HETATM   21  O1  UNL     1       4.763  37.590  25.836  1.00  0.00    -0.270 OA
HETATM   22  N3  UNL     1       6.525  36.422  24.930  1.00  0.00    -0.266 N 
ATOM     23  H3  UNL     1       7.082  36.229  24.096  1.00  0.00     0.190 HD
BRANCH  22  24
HETATM   24  N4  UNL     1       6.855  35.759  26.139  1.00  0.00    -0.263 N 
HETATM   25  C15 UNL     1       8.089  36.058  26.721  1.00  0.00     0.272 C 
HETATM   26  O2  UNL     1       8.838  36.922  26.115  1.00  0.00    -0.266 OA
ATOM     27  H4  UNL     1       6.215  35.090  26.568  1.00  0.00     0.190 HD
BRANCH  25  28
HETATM   28  C16 UNL     1       8.573  35.463  27.951  1.00  0.00     0.063 A 
HETATM   29  C17 UNL     1       8.424  35.899  29.225  1.00  0.00     0.022 A 
HETATM   30  C18 UNL     1       7.717  37.070  29.780  1.00  0.00     0.069 C 
HETATM   31  N5  UNL     1       9.080  35.001  30.041  1.00  0.00    -0.362 N 
HETATM   32  C19 UNL     1       9.617  34.040  29.301  1.00  0.00     0.012 A 
ATOM     33  H5  UNL     1       9.143  35.066  31.057  1.00  0.00     0.165 HD
HETATM   34  C20 UNL     1      10.417  32.863  29.782  1.00  0.00     0.068 C 
HETATM   35  C21 UNL     1       9.327  34.288  28.002  1.00  0.00    -0.022 A 
HETATM   36  C22 UNL     1       9.719  33.484  26.837  1.00  0.00     0.051 C 
ENDBRANCH  25  28
ENDBRANCH  22  24
ENDBRANCH   1  20
TORSDOF 8
ENDMDL
MODEL 4
REMARK VINA RESULT: -7.896623885      4.435      8.043
REMARK  8 active torsions:
REMARK  status: ('A' for Active; 'I' for Inactive)
REMARK    1  A    between atoms: C2_2  and  C3_3 
REMARK    2  A    between atoms: C10_10  and  C11_11 
REMARK    3  A    between atoms: C11_11  and  N1_13 
REMARK    4  A    between atoms: N1_13  and  N2_15 
REMARK    5  A    between atoms: N2_15  and  C12_16 
REMARK    6  A    between atoms: C12_16  and  C14_18 
REMARK       I    between atoms: C14_18  and  N3_20 
REMARK    7  A    between atoms: N3_20  and  N4_22 
REMARK       I    between atoms: N4_22  and  C15_24 
REMARK    8  A    between atoms: C15_24  and  C16_26 
ROOT
HETATM    1  C12 UNL     1       8.648  39.163  22.300  1.00  0.00     0.189 C 
HETATM    2  C13 UNL     1       9.370  38.711  21.041  1.00  0.00     0.040 C 
ENDROOT
BRANCH   1   3
HETATM    3  N2  UNL     1       7.251  38.753  22.267  1.00  0.00    -0.126 NA
BRANCH   3   4
HETATM    4  N1  UNL     1       6.375  39.792  22.482  1.00  0.00    -0.296 N 
ATOM      5  H1  UNL     1       6.416  40.628  21.898  1.00  0.00     0.183 HD
BRANCH   4   6
HETATM    6  C11 UNL     1       5.414  39.693  23.517  1.00  0.00     0.097 C 
HETATM    7  S1  UNL     1       5.766  40.244  25.033  1.00  0.00    -0.064 SA
BRANCH   6   8
HETATM    8  C10 UNL     1       4.085  39.099  23.278  1.00  0.00     0.015 C 
HETATM    9  C9  UNL     1       3.154  39.627  24.353  1.00  0.00     0.021 C 
HETATM   10  C7  UNL     1       1.791  39.061  24.104  1.00  0.00    -0.012 C 
HETATM   11  C6  UNL     1       1.317  39.524  22.750  1.00  0.00     0.009 C 
HETATM   12  C8  UNL     1       1.825  37.559  24.232  1.00  0.00     0.014 C 
HETATM   13  C5  UNL     1       2.210  38.895  21.702  1.00  0.00    -0.012 C 
HETATM   14  C4  UNL     1       2.267  37.397  21.846  1.00  0.00     0.014 C 
HETATM   15  C23 UNL     1       3.585  39.444  21.899  1.00  0.00     0.021 C 
HETATM   16  C3  UNL     1       2.775  37.008  23.227  1.00  0.00    -0.039 C 
HETATM   17  C24 UNL     1       4.148  37.612  23.433  1.00  0.00     0.026 C 
BRANCH  16  18
HETATM   18  C2  UNL     1       2.880  35.508  23.252  1.00  0.00     0.005 C 
HETATM   19  C1  UNL     1       4.038  34.984  24.020  1.00  0.00     0.006 C 
ENDBRANCH  16  18
ENDBRANCH   6   8
ENDBRANCH   4   6
ENDBRANCH   3   4
ENDBRANCH   1   3
BRANCH   1  20
HETATM   20  C14 UNL     1       9.285  38.504  23.452  1.00  0.00     0.257 C 
HETATM   21  O1  UNL     1      10.520  38.579  23.609  1.00  0.00    -0.270 OA
HETATM   22  N3  UNL     1       8.497  37.793  24.374  1.00  0.00    -0.266 N 
ATOM     23  H3  UNL     1       7.489  37.745  24.224  1.00  0.00     0.190 HD
BRANCH  22  24
HETATM   24  N4  UNL     1       9.050  37.140  25.505  1.00  0.00    -0.263 N 
HETATM   25  C15 UNL     1       8.160  36.566  26.416  1.00  0.00     0.272 C 
HETATM   26  O2  UNL     1       6.896  36.667  26.157  1.00  0.00    -0.266 OA
ATOM     27  H4  UNL     1      10.059  37.092  25.648  1.00  0.00     0.190 HD
BRANCH  25  28
HETATM   28  C16 UNL     1       8.567  35.869  27.620  1.00  0.00     0.063 A 
HETATM   29  C17 UNL     1       8.369  36.218  28.915  1.00  0.00     0.022 A 
HETATM   30  C18 UNL     1       7.671  37.368  29.520  1.00  0.00     0.069 C 
HETATM   31  N5  UNL     1       8.958  35.243  29.693  1.00  0.00    -0.362 N 
HETATM   32  C19 UNL     1       9.502  34.320  28.910  1.00  0.00     0.012 A 
ATOM     33  H5  UNL     1       8.973  35.234  30.713  1.00  0.00     0.165 HD
HETATM   34  C20 UNL     1      10.243  33.087  29.340  1.00  0.00     0.068 C 
HETATM   35  C21 UNL     1       9.282  34.670  27.620  1.00  0.00    -0.022 A 
HETATM   36  C22 UNL     1       9.707  33.939  26.420  1.00  0.00     0.051 C 
ENDBRANCH  25  28
ENDBRANCH  22  24
ENDBRANCH   1  20
TORSDOF 8
ENDMDL
MODEL 5
REMARK VINA RESULT: -7.868945996      4.294      8.001
REMARK  8 active torsions:
REMARK  status: ('A' for Active; 'I' for Inactive)
REMARK    1  A    between atoms: C2_2  and  C3_3 
REMARK    2  A    between atoms: C10_10  and  C11_11 
REMARK    3  A    between atoms: C11_11  and  N1_13 
REMARK    4  A    between atoms: N1_13  and  N2_15 
REMARK    5  A    between atoms: N2_15  and  C12_16 
REMARK    6  A    between atoms: C12_16  and  C14_18 
REMARK       I    between atoms: C14_18  and  N3_20 
REMARK    7  A    between atoms: N3_20  and  N4_22 
REMARK       I    between atoms: N4_22  and  C15_24 
REMARK    8  A    between atoms: C15_24  and  C16_26 
ROOT
HETATM    1  C12 UNL     1       8.498  39.576  21.859  1.00  0.00     0.189 C 
HETATM    2  C13 UNL     1       9.582  38.784  21.144  1.00  0.00     0.040 C 
ENDROOT
BRANCH   1   3
HETATM    3  N2  UNL     1       7.176  39.152  21.418  1.00  0.00    -0.126 NA
BRANCH   3   4
HETATM    4  N1  UNL     1       6.159  39.637  22.208  1.00  0.00    -0.296 N 
ATOM      5  H1  UNL     1       6.373  40.172  23.050  1.00  0.00     0.183 HD
BRANCH   4   6
HETATM    6  C11 UNL     1       4.813  39.389  21.844  1.00  0.00     0.097 C 
HETATM    7  S1  UNL     1       4.257  39.842  20.358  1.00  0.00    -0.064 SA
BRANCH   6   8
HETATM    8  C10 UNL     1       3.877  38.726  22.772  1.00  0.00     0.015 C 
HETATM    9  C9  UNL     1       3.712  39.637  23.974  1.00  0.00     0.021 C 
HETATM   10  C7  UNL     1       2.736  38.997  24.910  1.00  0.00    -0.012 C 
HETATM   11  C6  UNL     1       1.414  38.846  24.201  1.00  0.00     0.009 C 
HETATM   12  C8  UNL     1       3.287  37.684  25.410  1.00  0.00     0.014 C 
HETATM   13  C5  UNL     1       1.599  37.854  23.073  1.00  0.00    -0.012 C 
HETATM   14  C4  UNL     1       2.175  36.553  23.566  1.00  0.00     0.014 C 
HETATM   15  C23 UNL     1       2.556  38.458  22.099  1.00  0.00     0.021 C 
HETATM   16  C3  UNL     1       3.516  36.782  24.248  1.00  0.00    -0.039 C 
HETATM   17  C24 UNL     1       4.461  37.440  23.265  1.00  0.00     0.026 C 
BRANCH  16  18
HETATM   18  C2  UNL     1       4.053  35.430  24.629  1.00  0.00     0.005 C 
HETATM   19  C1  UNL     1       3.730  34.346  23.666  1.00  0.00     0.006 C 
ENDBRANCH  16  18
ENDBRANCH   6   8
ENDBRANCH   4   6
ENDBRANCH   3   4
ENDBRANCH   1   3
BRANCH   1  20
HETATM   20  C14 UNL     1       8.604  39.296  23.300  1.00  0.00     0.257 C 
HETATM   21  O1  UNL     1       8.405  40.207  24.128  1.00  0.00    -0.270 OA
HETATM   22  N3  UNL     1       8.927  38.000  23.739  1.00  0.00    -0.266 N 
ATOM     23  H3  UNL     1       9.086  37.272  23.042  1.00  0.00     0.190 HD
BRANCH  22  24
HETATM   24  N4  UNL     1       9.041  37.668  25.113  1.00  0.00    -0.263 N 
HETATM   25  C15 UNL     1       8.203  36.662  25.603  1.00  0.00     0.272 C 
HETATM   26  O2  UNL     1       7.389  36.106  24.765  1.00  0.00    -0.266 OA
ATOM     27  H4  UNL     1       9.708  38.144  25.720  1.00  0.00     0.190 HD
BRANCH  25  28
HETATM   28  C16 UNL     1       8.194  36.212  26.980  1.00  0.00     0.063 A 
HETATM   29  C17 UNL     1       7.434  36.646  28.015  1.00  0.00     0.022 A 
HETATM   30  C18 UNL     1       6.371  37.667  28.083  1.00  0.00     0.069 C 
HETATM   31  N5  UNL     1       7.808  35.921  29.127  1.00  0.00    -0.362 N 
HETATM   32  C19 UNL     1       8.767  35.065  28.795  1.00  0.00     0.012 A 
ATOM     33  H5  UNL     1       7.409  36.026  30.060  1.00  0.00     0.165 HD
HETATM   34  C20 UNL     1       9.461  34.086  29.698  1.00  0.00     0.068 C 
HETATM   35  C21 UNL     1       9.035  35.213  27.477  1.00  0.00    -0.022 A 
HETATM   36  C22 UNL     1      10.025  34.471  26.686  1.00  0.00     0.051 C 
ENDBRANCH  25  28
ENDBRANCH  22  24
ENDBRANCH   1  20
TORSDOF 8
ENDMDL
