MODEL 1
REMARK VINA RESULT: -6.547094307      0.000      0.000
REMARK  6 active torsions:
REMARK  status: ('A' for Active; 'I' for Inactive)
REMARK    1  A    between atoms: C2_2  and  C3_3 
REMARK    2  A    between atoms: C2_2  and  N1_10 
REMARK    3  A    between atoms: C3_3  and  C4_4 
REMARK    4  A    between atoms: N1_10  and  C10_12 
REMARK    5  A    between atoms: C10_12  and  O1_14 
REMARK    6  A    between atoms: O1_14  and  N2_15 
ROOT
HETATM    1  C1  UNL     1      29.110  28.916   2.950  1.00  0.00     0.038 C 
HETATM    2  C2  UNL     1      28.967  28.965   4.250  1.00  0.00     0.006 C 
ENDROOT
BRANCH   2   3
HETATM    3  C3  UNL     1      27.645  28.699   4.853  1.00  0.00     0.083 C 
BRANCH   3   4
HETATM    4  C4  UNL     1      27.621  29.081   6.271  1.00  0.00    -0.018 C 
HETATM    5  C5  UNL     1      26.497  29.217   6.981  1.00  0.00    -0.083 C 
HETATM    6  C6  UNL     1      25.146  28.995   6.400  1.00  0.00     0.034 C 
HETATM    7  C9  UNL     1      26.382  29.598   8.428  1.00  0.00     0.034 C 
HETATM    8  C7  UNL     1      24.249  29.681   7.402  1.00  0.00     0.005 C 
HETATM    9  C8  UNL     1      24.912  29.331   8.710  1.00  0.00     0.005 C 
ENDBRANCH   3   4
ENDBRANCH   2   3
BRANCH   2  10
HETATM   10  N1  UNL     1      30.106  29.277   5.046  1.00  0.00    -0.330 N 
ATOM     11  H1  UNL     1      30.228  30.231   5.386  1.00  0.00     0.168 HD
BRANCH  10  12
HETATM   12  C10 UNL     1      31.071  28.297   5.375  1.00  0.00     0.238 C 
HETATM   13  S1  UNL     1      32.184  27.882   4.264  1.00  0.00    -0.031 SA
BRANCH  12  14
HETATM   14  O1  UNL     1      31.047  27.714   6.632  1.00  0.00    -0.214 OA
BRANCH  14  15
HETATM   15  N2  UNL     1      30.697  28.367   7.768  1.00  0.00    -0.303 N 
ATOM     16  H22 UNL     1      31.457  28.734   8.340  1.00  0.00     0.184 HD
ATOM     17  H21 UNL     1      29.735  28.507   8.075  1.00  0.00     0.184 HD
ENDBRANCH  14  15
ENDBRANCH  12  14
ENDBRANCH  10  12
ENDBRANCH   2  10
TORSDOF 6
ENDMDL
MODEL 2
REMARK VINA RESULT: -6.522562110      2.707      3.598
REMARK  6 active torsions:
REMARK  status: ('A' for Active; 'I' for Inactive)
REMARK    1  A    between atoms: C2_2  and  C3_3 
REMARK    2  A    between atoms: C2_2  and  N1_10 
REMARK    3  A    between atoms: C3_3  and  C4_4 
REMARK    4  A    between atoms: N1_10  and  C10_12 
REMARK    5  A    between atoms: C10_12  and  O1_14 
REMARK    6  A    between atoms: O1_14  and  N2_15 
ROOT
HETATM    1  C1  UNL     1      27.316  28.753   4.943  1.00  0.00     0.038 C 
HETATM    2  C2  UNL     1      27.145  28.868   6.236  1.00  0.00     0.006 C 
ENDROOT
BRANCH   2   3
HETATM    3  C3  UNL     1      25.808  28.642   6.822  1.00  0.00     0.083 C 
BRANCH   3   4
HETATM    4  C4  UNL     1      24.778  28.561   5.778  1.00  0.00    -0.018 C 
HETATM    5  C5  UNL     1      23.621  29.229   5.828  1.00  0.00    -0.083 C 
HETATM    6  C6  UNL     1      23.259  30.129   6.955  1.00  0.00     0.034 C 
HETATM    7  C9  UNL     1      22.520  29.206   4.808  1.00  0.00     0.034 C 
HETATM    8  C7  UNL     1      21.765  30.270   6.785  1.00  0.00     0.005 C 
HETATM    9  C8  UNL     1      21.623  30.338   5.286  1.00  0.00     0.005 C 
ENDBRANCH   3   4
ENDBRANCH   2   3
BRANCH   2  10
HETATM   10  N1  UNL     1      28.269  29.212   7.039  1.00  0.00    -0.330 N 
ATOM     11  H1  UNL     1      28.829  30.027   6.789  1.00  0.00     0.168 HD
BRANCH  10  12
HETATM   12  C10 UNL     1      28.627  28.451   8.177  1.00  0.00     0.238 C 
HETATM   13  S1  UNL     1      30.069  27.698   8.199  1.00  0.00    -0.031 SA
BRANCH  12  14
HETATM   14  O1  UNL     1      27.745  28.363   9.242  1.00  0.00    -0.214 OA
BRANCH  14  15
HETATM   15  N2  UNL     1      27.083  29.420   9.771  1.00  0.00    -0.303 N 
ATOM     16  H22 UNL     1      26.797  30.155   9.125  1.00  0.00     0.184 HD
ATOM     17  H21 UNL     1      26.859  29.520  10.761  1.00  0.00     0.184 HD
ENDBRANCH  14  15
ENDBRANCH  12  14
ENDBRANCH  10  12
ENDBRANCH   2  10
TORSDOF 6
ENDMDL
MODEL 3
REMARK VINA RESULT: -6.513653849      3.826      5.916
REMARK  6 active torsions:
REMARK  status: ('A' for Active; 'I' for Inactive)
REMARK    1  A    between atoms: C2_2  and  C3_3 
REMARK    2  A    between atoms: C2_2  and  N1_10 
REMARK    3  A    between atoms: C3_3  and  C4_4 
REMARK    4  A    between atoms: N1_10  and  C10_12 
REMARK    5  A    between atoms: C10_12  and  O1_14 
REMARK    6  A    between atoms: O1_14  and  N2_15 
ROOT
HETATM    1  C1  UNL     1      25.268  28.434   4.777  1.00  0.00     0.038 C 
HETATM    2  C2  UNL     1      25.866  28.619   5.926  1.00  0.00     0.006 C 
ENDROOT
BRANCH   2   3
HETATM    3  C3  UNL     1      27.299  28.977   5.958  1.00  0.00     0.083 C 
BRANCH   3   4
HETATM    4  C4  UNL     1      27.890  28.920   4.616  1.00  0.00    -0.018 C 
HETATM    5  C5  UNL     1      29.206  28.853   4.390  1.00  0.00    -0.083 C 
HETATM    6  C6  UNL     1      30.211  28.831   5.486  1.00  0.00     0.034 C 
HETATM    7  C9  UNL     1      29.893  28.789   3.057  1.00  0.00     0.034 C 
HETATM    8  C7  UNL     1      31.484  29.199   4.763  1.00  0.00     0.005 C 
HETATM    9  C8  UNL     1      31.326  28.468   3.453  1.00  0.00     0.005 C 
ENDBRANCH   3   4
ENDBRANCH   2   3
BRANCH   2  10
HETATM   10  N1  UNL     1      25.103  28.466   7.118  1.00  0.00    -0.330 N 
ATOM     11  H1  UNL     1      24.927  27.528   7.479  1.00  0.00     0.168 HD
BRANCH  10  12
HETATM   12  C10 UNL     1      24.585  29.583   7.815  1.00  0.00     0.238 C 
HETATM   13  S1  UNL     1      23.179  30.236   7.322  1.00  0.00    -0.031 SA
BRANCH  12  14
HETATM   14  O1  UNL     1      25.284  30.094   8.897  1.00  0.00    -0.214 OA
BRANCH  14  15
HETATM   15  N2  UNL     1      26.304  29.452   9.517  1.00  0.00    -0.303 N 
ATOM     16  H22 UNL     1      26.261  28.433   9.538  1.00  0.00     0.184 HD
ATOM     17  H21 UNL     1      27.095  29.922   9.954  1.00  0.00     0.184 HD
ENDBRANCH  14  15
ENDBRANCH  12  14
ENDBRANCH  10  12
ENDBRANCH   2  10
TORSDOF 6
ENDMDL
MODEL 4
REMARK VINA RESULT: -6.510130960      5.274      6.095
REMARK  6 active torsions:
REMARK  status: ('A' for Active; 'I' for Inactive)
REMARK    1  A    between atoms: C2_2  and  C3_3 
REMARK    2  A    between atoms: C2_2  and  N1_10 
REMARK    3  A    between atoms: C3_3  and  C4_4 
REMARK    4  A    between atoms: N1_10  and  C10_12 
REMARK    5  A    between atoms: C10_12  and  O1_14 
REMARK    6  A    between atoms: O1_14  and  N2_15 
ROOT
HETATM    1  C1  UNL     1      24.387  27.648   2.561  1.00  0.00     0.038 C 
HETATM    2  C2  UNL     1      24.236  28.027   3.805  1.00  0.00     0.006 C 
ENDROOT
BRANCH   2   3
HETATM    3  C3  UNL     1      25.418  28.416   4.602  1.00  0.00     0.083 C 
BRANCH   3   4
HETATM    4  C4  UNL     1      25.079  28.555   6.023  1.00  0.00    -0.018 C 
HETATM    5  C5  UNL     1      25.985  28.773   6.982  1.00  0.00    -0.083 C 
HETATM    6  C6  UNL     1      27.440  28.896   6.701  1.00  0.00     0.034 C 
HETATM    7  C9  UNL     1      25.725  28.932   8.451  1.00  0.00     0.034 C 
HETATM    8  C7  UNL     1      28.049  28.683   8.066  1.00  0.00     0.005 C 
HETATM    9  C8  UNL     1      27.077  29.407   8.962  1.00  0.00     0.005 C 
ENDBRANCH   3   4
ENDBRANCH   2   3
BRANCH   2  10
HETATM   10  N1  UNL     1      22.923  28.050   4.352  1.00  0.00    -0.330 N 
ATOM     11  H1  UNL     1      22.582  27.235   4.863  1.00  0.00     0.168 HD
BRANCH  10  12
HETATM   12  C10 UNL     1      22.078  29.175   4.204  1.00  0.00     0.238 C 
HETATM   13  S1  UNL     1      21.319  29.411   2.785  1.00  0.00    -0.031 SA
BRANCH  12  14
HETATM   14  O1  UNL     1      21.916  30.049   5.268  1.00  0.00    -0.214 OA
BRANCH  14  15
HETATM   15  N2  UNL     1      21.736  29.659   6.553  1.00  0.00    -0.303 N 
ATOM     16  H22 UNL     1      22.213  28.806   6.847  1.00  0.00     0.184 HD
ATOM     17  H21 UNL     1      21.162  30.161   7.229  1.00  0.00     0.184 HD
ENDBRANCH  14  15
ENDBRANCH  12  14
ENDBRANCH  10  12
ENDBRANCH   2  10
TORSDOF 6
ENDMDL
MODEL 5
REMARK VINA RESULT: -6.423329744      5.418      6.345
REMARK  6 active torsions:
REMARK  status: ('A' for Active; 'I' for Inactive)
REMARK    1  A    between atoms: C2_2  and  C3_3 
REMARK    2  A    between atoms: C2_2  and  N1_10 
REMARK    3  A    between atoms: C3_3  and  C4_4 
REMARK    4  A    between atoms: N1_10  and  C10_12 
REMARK    5  A    between atoms: C10_12  and  O1_14 
REMARK    6  A    between atoms: O1_14  and  N2_15 
ROOT
HETATM    1  C1  UNL     1      24.447  27.679   2.615  1.00  0.00     0.038 C 
HETATM    2  C2  UNL     1      24.311  28.037   3.867  1.00  0.00     0.006 C 
ENDROOT
BRANCH   2   3
HETATM    3  C3  UNL     1      25.496  28.452   4.644  1.00  0.00     0.083 C 
BRANCH   3   4
HETATM    4  C4  UNL     1      25.172  28.600   6.068  1.00  0.00    -0.018 C 
HETATM    5  C5  UNL     1      26.093  28.775   7.022  1.00  0.00    -0.083 C 
HETATM    6  C6  UNL     1      27.550  28.835   6.732  1.00  0.00     0.034 C 
HETATM    7  C9  UNL     1      25.850  28.939   8.494  1.00  0.00     0.034 C 
HETATM    8  C7  UNL     1      28.158  28.591   8.092  1.00  0.00     0.005 C 
HETATM    9  C8  UNL     1      27.224  29.353   8.998  1.00  0.00     0.005 C 
ENDBRANCH   3   4
ENDBRANCH   2   3
BRANCH   2  10
HETATM   10  N1  UNL     1      23.008  28.011   4.440  1.00  0.00    -0.330 N 
ATOM     11  H1  UNL     1      22.695  27.171   4.926  1.00  0.00     0.168 HD
BRANCH  10  12
HETATM   12  C10 UNL     1      22.138  29.123   4.353  1.00  0.00     0.238 C 
HETATM   13  S1  UNL     1      21.945  30.077   5.657  1.00  0.00    -0.031 SA
BRANCH  12  14
HETATM   14  O1  UNL     1      21.471  29.374   3.165  1.00  0.00    -0.214 OA
BRANCH  14  15
HETATM   15  N2  UNL     1      20.869  28.420   2.414  1.00  0.00    -0.303 N 
ATOM     16  H22 UNL     1      20.253  27.769   2.902  1.00  0.00     0.184 HD
ATOM     17  H21 UNL     1      20.995  28.318   1.407  1.00  0.00     0.184 HD
ENDBRANCH  14  15
ENDBRANCH  12  14
ENDBRANCH  10  12
ENDBRANCH   2  10
TORSDOF 6
ENDMDL
