MODEL 1
REMARK VINA RESULT: -5.115944789      0.000      0.000
REMARK  5 active torsions:
REMARK  status: ('A' for Active; 'I' for Inactive)
REMARK    1  A    between atoms: C2_2  and  O1_4 
REMARK    2  A    between atoms: C2_2  and  C4_6 
REMARK    3  A    between atoms: C4_6  and  S1_9 
REMARK    4  A    between atoms: S1_9  and  C7_10 
REMARK    5  A    between atoms: C7_10  and  C8_11 
ROOT
HETATM    1  S1  UNL     1      24.150  28.146   5.022  1.00  0.00    -0.155 SA
ENDROOT
BRANCH   1   2
HETATM    2  C4  UNL     1      23.454  27.497   3.509  1.00  0.00     0.031 C 
HETATM    3  C5  UNL     1      24.457  27.768   2.393  1.00  0.00     0.030 C 
HETATM    4  C6  UNL     1      23.213  26.024   3.564  1.00  0.00     0.030 C 
BRANCH   2   5
HETATM    5  C2  UNL     1      22.168  28.272   3.266  1.00  0.00     0.067 C 
HETATM    6  C1  UNL     1      22.114  28.947   1.951  1.00  0.00     0.047 C 
HETATM    7  C3  UNL     1      21.997  29.247   4.408  1.00  0.00     0.047 C 
BRANCH   5   8
HETATM    8  O1  UNL     1      21.098  27.363   3.347  1.00  0.00    -0.389 OA
ATOM      9  H1  UNL     1      21.384  26.527   2.999  1.00  0.00     0.210 HD
ENDBRANCH   5   8
ENDBRANCH   2   5
ENDBRANCH   1   2
BRANCH   1  10
HETATM   10  C7  UNL     1      25.882  28.482   5.040  1.00  0.00     0.107 C 
BRANCH  10  11
HETATM   11  C8  UNL     1      26.288  29.224   6.282  1.00  0.00     0.195 C 
HETATM   12  C9  UNL     1      27.631  28.784   6.768  1.00  0.00     0.035 C 
HETATM   13  C10 UNL     1      27.491  28.782   8.262  1.00  0.00     0.029 C 
HETATM   14  C11 UNL     1      26.030  28.791   8.564  1.00  0.00     0.233 C 
HETATM   15  N1  UNL     1      25.323  28.891   7.328  1.00  0.00    -0.070 N 
ATOM     16  H12 UNL     1      24.545  29.548   7.371  1.00  0.00     0.277 HD
ATOM     17  H11 UNL     1      24.781  28.053   7.114  1.00  0.00     0.277 HD
ENDBRANCH  10  11
ENDBRANCH   1  10
TORSDOF 5
ENDMDL
MODEL 2
REMARK VINA RESULT: -5.083780742      5.286      6.471
REMARK  5 active torsions:
REMARK  status: ('A' for Active; 'I' for Inactive)
REMARK    1  A    between atoms: C2_2  and  O1_4 
REMARK    2  A    between atoms: C2_2  and  C4_6 
REMARK    3  A    between atoms: C4_6  and  S1_9 
REMARK    4  A    between atoms: S1_9  and  C7_10 
REMARK    5  A    between atoms: C7_10  and  C8_11 
ROOT
HETATM    1  S1  UNL     1      20.154  31.886   3.165  1.00  0.00    -0.155 SA
ENDROOT
BRANCH   1   2
HETATM    2  C4  UNL     1      18.711  31.967   2.114  1.00  0.00     0.031 C 
HETATM    3  C5  UNL     1      18.393  30.545   1.665  1.00  0.00     0.030 C 
HETATM    4  C6  UNL     1      17.509  32.508   2.817  1.00  0.00     0.030 C 
BRANCH   2   5
HETATM    5  C2  UNL     1      19.102  32.825   0.921  1.00  0.00     0.067 C 
HETATM    6  C1  UNL     1      18.528  32.365  -0.362  1.00  0.00     0.047 C 
HETATM    7  C3  UNL     1      20.612  32.886   0.874  1.00  0.00     0.047 C 
BRANCH   5   8
HETATM    8  O1  UNL     1      18.653  34.135   1.169  1.00  0.00    -0.389 OA
ATOM      9  H1  UNL     1      19.244  34.545   1.789  1.00  0.00     0.210 HD
ENDBRANCH   5   8
ENDBRANCH   2   5
ENDBRANCH   1   2
BRANCH   1  10
HETATM   10  C7  UNL     1      20.223  32.993   4.538  1.00  0.00     0.107 C 
BRANCH  10  11
HETATM   11  C8  UNL     1      21.400  32.701   5.425  1.00  0.00     0.195 C 
HETATM   12  C9  UNL     1      21.641  31.231   5.549  1.00  0.00     0.035 C 
HETATM   13  C10 UNL     1      22.042  31.052   6.984  1.00  0.00     0.029 C 
HETATM   14  C11 UNL     1      21.617  32.282   7.713  1.00  0.00     0.233 C 
HETATM   15  N1  UNL     1      21.078  33.198   6.761  1.00  0.00    -0.070 N 
ATOM     16  H12 UNL     1      21.392  34.156   6.912  1.00  0.00     0.277 HD
ATOM     17  H11 UNL     1      20.079  33.361   6.891  1.00  0.00     0.277 HD
ENDBRANCH  10  11
ENDBRANCH   1  10
TORSDOF 5
ENDMDL
MODEL 3
REMARK VINA RESULT: -4.972468719      5.218      6.243
REMARK  5 active torsions:
REMARK  status: ('A' for Active; 'I' for Inactive)
REMARK    1  A    between atoms: C2_2  and  O1_4 
REMARK    2  A    between atoms: C2_2  and  C4_6 
REMARK    3  A    between atoms: C4_6  and  S1_9 
REMARK    4  A    between atoms: S1_9  and  C7_10 
REMARK    5  A    between atoms: C7_10  and  C8_11 
ROOT
HETATM    1  S1  UNL     1      20.122  31.654   3.220  1.00  0.00    -0.155 SA
ENDROOT
BRANCH   1   2
HETATM    2  C4  UNL     1      20.209  32.003   1.469  1.00  0.00     0.031 C 
HETATM    3  C5  UNL     1      21.300  33.049   1.266  1.00  0.00     0.030 C 
HETATM    4  C6  UNL     1      20.563  30.802   0.653  1.00  0.00     0.030 C 
BRANCH   2   5
HETATM    5  C2  UNL     1      18.852  32.570   1.081  1.00  0.00     0.067 C 
HETATM    6  C1  UNL     1      17.727  32.030   1.875  1.00  0.00     0.047 C 
HETATM    7  C3  UNL     1      18.661  32.333  -0.400  1.00  0.00     0.047 C 
BRANCH   5   8
HETATM    8  O1  UNL     1      18.901  33.964   1.264  1.00  0.00    -0.389 OA
ATOM      9  H1  UNL     1      19.551  34.324   0.672  1.00  0.00     0.210 HD
ENDBRANCH   5   8
ENDBRANCH   2   5
ENDBRANCH   1   2
BRANCH   1  10
HETATM   10  C7  UNL     1      20.343  33.007   4.330  1.00  0.00     0.107 C 
BRANCH  10  11
HETATM   11  C8  UNL     1      21.459  32.748   5.302  1.00  0.00     0.195 C 
HETATM   12  C9  UNL     1      21.676  31.283   5.507  1.00  0.00     0.035 C 
HETATM   13  C10 UNL     1      21.984  31.167   6.972  1.00  0.00     0.029 C 
HETATM   14  C11 UNL     1      21.527  32.431   7.616  1.00  0.00     0.233 C 
HETATM   15  N1  UNL     1      21.058  33.307   6.592  1.00  0.00    -0.070 N 
ATOM     16  H12 UNL     1      21.372  34.269   6.719  1.00  0.00     0.277 HD
ATOM     17  H11 UNL     1      20.054  33.483   6.651  1.00  0.00     0.277 HD
ENDBRANCH  10  11
ENDBRANCH   1  10
TORSDOF 5
ENDMDL
MODEL 4
REMARK VINA RESULT: -4.887547802      5.429      6.710
REMARK  5 active torsions:
REMARK  status: ('A' for Active; 'I' for Inactive)
REMARK    1  A    between atoms: C2_2  and  O1_4 
REMARK    2  A    between atoms: C2_2  and  C4_6 
REMARK    3  A    between atoms: C4_6  and  S1_9 
REMARK    4  A    between atoms: S1_9  and  C7_10 
REMARK    5  A    between atoms: C7_10  and  C8_11 
ROOT
HETATM    1  S1  UNL     1      20.302  33.033   2.305  1.00  0.00    -0.155 SA
ENDROOT
BRANCH   1   2
HETATM    2  C4  UNL     1      19.300  32.022   1.224  1.00  0.00     0.031 C 
HETATM    3  C5  UNL     1      20.101  31.785  -0.051  1.00  0.00     0.030 C 
HETATM    4  C6  UNL     1      18.968  30.690   1.814  1.00  0.00     0.030 C 
BRANCH   2   5
HETATM    5  C2  UNL     1      18.050  32.833   0.921  1.00  0.00     0.067 C 
HETATM    6  C1  UNL     1      16.904  32.521   1.803  1.00  0.00     0.047 C 
HETATM    7  C3  UNL     1      17.710  32.628  -0.537  1.00  0.00     0.047 C 
BRANCH   5   8
HETATM    8  O1  UNL     1      18.374  34.194   1.072  1.00  0.00    -0.389 OA
ATOM      9  H1  UNL     1      18.157  34.648   0.266  1.00  0.00     0.210 HD
ENDBRANCH   5   8
ENDBRANCH   2   5
ENDBRANCH   1   2
BRANCH   1  10
HETATM   10  C7  UNL     1      19.941  32.980   4.031  1.00  0.00     0.107 C 
BRANCH  10  11
HETATM   11  C8  UNL     1      21.177  32.721   4.846  1.00  0.00     0.195 C 
HETATM   12  C9  UNL     1      21.391  31.258   5.066  1.00  0.00     0.035 C 
HETATM   13  C10 UNL     1      21.899  31.177   6.476  1.00  0.00     0.029 C 
HETATM   14  C11 UNL     1      21.563  32.471   7.137  1.00  0.00     0.233 C 
HETATM   15  N1  UNL     1      20.972  33.328   6.160  1.00  0.00    -0.070 N 
ATOM     16  H12 UNL     1      21.321  34.285   6.211  1.00  0.00     0.277 HD
ATOM     17  H11 UNL     1      19.991  33.530   6.353  1.00  0.00     0.277 HD
ENDBRANCH  10  11
ENDBRANCH   1  10
TORSDOF 5
ENDMDL
MODEL 5
REMARK VINA RESULT: -4.756609239      4.789      6.186
REMARK  5 active torsions:
REMARK  status: ('A' for Active; 'I' for Inactive)
REMARK    1  A    between atoms: C2_2  and  O1_4 
REMARK    2  A    between atoms: C2_2  and  C4_6 
REMARK    3  A    between atoms: C4_6  and  S1_9 
REMARK    4  A    between atoms: S1_9  and  C7_10 
REMARK    5  A    between atoms: C7_10  and  C8_11 
ROOT
HETATM    1  S1  UNL     1      20.475  32.747   2.930  1.00  0.00    -0.155 SA
ENDROOT
BRANCH   1   2
HETATM    2  C4  UNL     1      18.995  32.286   2.041  1.00  0.00     0.031 C 
HETATM    3  C5  UNL     1      17.835  32.337   3.029  1.00  0.00     0.030 C 
HETATM    4  C6  UNL     1      18.681  33.216   0.914  1.00  0.00     0.030 C 
BRANCH   2   5
HETATM    5  C2  UNL     1      19.216  30.863   1.555  1.00  0.00     0.067 C 
HETATM    6  C1  UNL     1      20.480  30.257   2.029  1.00  0.00     0.047 C 
HETATM    7  C3  UNL     1      19.127  30.872   0.046  1.00  0.00     0.047 C 
BRANCH   5   8
HETATM    8  O1  UNL     1      18.143  30.079   2.018  1.00  0.00    -0.389 OA
ATOM      9  H1  UNL     1      17.334  30.550   1.856  1.00  0.00     0.210 HD
ENDBRANCH   5   8
ENDBRANCH   2   5
ENDBRANCH   1   2
BRANCH   1  10
HETATM   10  C7  UNL     1      20.296  33.200   4.626  1.00  0.00     0.107 C 
BRANCH  10  11
HETATM   11  C8  UNL     1      21.460  32.726   5.451  1.00  0.00     0.195 C 
HETATM   12  C9  UNL     1      21.574  31.236   5.430  1.00  0.00     0.035 C 
HETATM   13  C10 UNL     1      21.985  30.887   6.831  1.00  0.00     0.029 C 
HETATM   14  C11 UNL     1      21.682  32.073   7.683  1.00  0.00     0.233 C 
HETATM   15  N1  UNL     1      21.206  33.118   6.836  1.00  0.00    -0.070 N 
ATOM     16  H12 UNL     1      21.605  34.028   7.068  1.00  0.00     0.277 HD
ATOM     17  H11 UNL     1      20.228  33.352   7.007  1.00  0.00     0.277 HD
ENDBRANCH  10  11
ENDBRANCH   1  10
TORSDOF 5
ENDMDL
