MODEL 1
REMARK VINA RESULT: -5.890027442      0.000      0.000
REMARK  7 active torsions:
REMARK  status: ('A' for Active; 'I' for Inactive)
REMARK    1  A    between atoms: C2_2  and  C3_3 
REMARK    2  A    between atoms: C3_3  and  N1_4 
REMARK    3  A    between atoms: C4_5  and  O1_6 
REMARK    4  A    between atoms: C5_8  and  C6_9 
REMARK    5  A    between atoms: C10_14  and  N2_15 
REMARK    6  A    between atoms: N2_15  and  N3_17 
REMARK    7  A    between atoms: C11_19  and  C13_21 
ROOT
HETATM    1  N1  UNL     1      29.321  21.829  -4.711  1.00  0.00    -0.303 N 
HETATM    2  C4  UNL     1      30.144  21.140  -3.933  1.00  0.00     0.158 A 
HETATM    3  C5  UNL     1      31.367  20.812  -4.417  1.00  0.00     0.045 A 
HETATM    4  S1  UNL     1      31.339  21.482  -5.964  1.00  0.00    -0.052 SA
HETATM    5  C10 UNL     1      29.716  22.171  -5.922  1.00  0.00     0.168 A 
ENDROOT
BRANCH   5   6
HETATM    6  N2  UNL     1      29.201  22.792  -6.923  1.00  0.00    -0.280 N 
ATOM      7  H2  UNL     1      28.337  22.374  -7.269  1.00  0.00     0.189 HD
BRANCH   6   8
HETATM    8  N3  UNL     1      29.582  23.870  -7.591  1.00  0.00    -0.306 N 
HETATM    9  C11 UNL     1      29.403  25.107  -7.339  1.00  0.00     0.013 C 
HETATM   10  C12 UNL     1      28.672  25.553  -6.148  1.00  0.00     0.066 C 
ATOM     11  H3  UNL     1      30.103  23.680  -8.447  1.00  0.00     0.186 HD
BRANCH   9  12
HETATM   12  C13 UNL     1      29.944  26.132  -8.268  1.00  0.00     0.168 C 
HETATM   13 CL1  UNL     1      28.830  27.537  -8.364  1.00  0.00    -0.124 Cl
ENDBRANCH   9  12
ENDBRANCH   6   8
ENDBRANCH   5   6
BRANCH   1  14
HETATM   14  C3  UNL     1      27.956  22.198  -4.206  1.00  0.00     0.160 C 
BRANCH  14  15
HETATM   15  C2  UNL     1      27.972  23.539  -3.597  1.00  0.00    -0.017 C 
HETATM   16  C1  UNL     1      27.926  23.772  -2.307  1.00  0.00     0.008 C 
ENDBRANCH  14  15
ENDBRANCH   1  14
BRANCH   2  17
HETATM   17  O1  UNL     1      29.795  20.728  -2.607  1.00  0.00    -0.345 OA
ATOM     18  H1  UNL     1      30.259  21.030  -1.836  1.00  0.00     0.219 HD
ENDBRANCH   2  17
BRANCH   3  19
HETATM   19  C6  UNL     1      32.492  20.058  -3.799  1.00  0.00    -0.013 C 
HETATM   20  C7  UNL     1      33.611  19.930  -4.819  1.00  0.00     0.020 C 
HETATM   21  C8  UNL     1      32.068  18.652  -3.432  1.00  0.00     0.020 C 
HETATM   22  C9  UNL     1      33.052  20.716  -2.587  1.00  0.00     0.020 C 
ENDBRANCH   3  19
TORSDOF 7
ENDMDL
MODEL 2
REMARK VINA RESULT: -5.716594474      1.629      1.772
REMARK  7 active torsions:
REMARK  status: ('A' for Active; 'I' for Inactive)
REMARK    1  A    between atoms: C2_2  and  C3_3 
REMARK    2  A    between atoms: C3_3  and  N1_4 
REMARK    3  A    between atoms: C4_5  and  O1_6 
REMARK    4  A    between atoms: C5_8  and  C6_9 
REMARK    5  A    between atoms: C10_14  and  N2_15 
REMARK    6  A    between atoms: N2_15  and  N3_17 
REMARK    7  A    between atoms: C11_19  and  C13_21 
ROOT
HETATM    1  N1  UNL     1      29.160  21.557  -3.079  1.00  0.00    -0.303 N 
HETATM    2  C4  UNL     1      30.088  20.769  -2.554  1.00  0.00     0.158 A 
HETATM    3  C5  UNL     1      31.151  20.424  -3.321  1.00  0.00     0.045 A 
HETATM    4  S1  UNL     1      30.828  21.218  -4.773  1.00  0.00    -0.052 SA
HETATM    5  C10 UNL     1      29.301  21.977  -4.321  1.00  0.00     0.168 A 
ENDROOT
BRANCH   5   6
HETATM    6  N2  UNL     1      28.619  22.700  -5.137  1.00  0.00    -0.280 N 
ATOM      7  H2  UNL     1      27.970  22.169  -5.717  1.00  0.00     0.189 HD
BRANCH   6   8
HETATM    8  N3  UNL     1      28.602  24.005  -5.366  1.00  0.00    -0.306 N 
HETATM    9  C11 UNL     1      29.046  24.679  -6.352  1.00  0.00     0.013 C 
HETATM   10  C12 UNL     1      29.710  24.035  -7.490  1.00  0.00     0.066 C 
ATOM     11  H3  UNL     1      28.161  24.560  -4.633  1.00  0.00     0.186 HD
BRANCH   9  12
HETATM   12  C13 UNL     1      28.893  26.157  -6.360  1.00  0.00     0.168 C 
HETATM   13 CL1  UNL     1      28.645  26.768  -4.691  1.00  0.00    -0.124 Cl
ENDBRANCH   9  12
ENDBRANCH   6   8
ENDBRANCH   5   6
BRANCH   1  14
HETATM   14  C3  UNL     1      27.966  21.948  -2.257  1.00  0.00     0.160 C 
BRANCH  14  15
HETATM   15  C2  UNL     1      28.207  23.224  -1.563  1.00  0.00    -0.017 C 
HETATM   16  C1  UNL     1      27.703  24.378  -1.929  1.00  0.00     0.008 C 
ENDBRANCH  14  15
ENDBRANCH   1  14
BRANCH   2  17
HETATM   17  O1  UNL     1      30.014  20.268  -1.215  1.00  0.00    -0.345 OA
ATOM     18  H1  UNL     1      29.204  19.961  -0.825  1.00  0.00     0.219 HD
ENDBRANCH   2  17
BRANCH   3  19
HETATM   19  C6  UNL     1      32.334  19.571  -3.024  1.00  0.00    -0.013 C 
HETATM   20  C7  UNL     1      33.170  19.439  -4.286  1.00  0.00     0.020 C 
HETATM   21  C8  UNL     1      31.910  18.171  -2.630  1.00  0.00     0.020 C 
HETATM   22  C9  UNL     1      33.208  20.120  -1.953  1.00  0.00     0.020 C 
ENDBRANCH   3  19
TORSDOF 7
ENDMDL
MODEL 3
REMARK VINA RESULT: -5.637628099      2.705      4.355
REMARK  7 active torsions:
REMARK  status: ('A' for Active; 'I' for Inactive)
REMARK    1  A    between atoms: C2_2  and  C3_3 
REMARK    2  A    between atoms: C3_3  and  N1_4 
REMARK    3  A    between atoms: C4_5  and  O1_6 
REMARK    4  A    between atoms: C5_8  and  C6_9 
REMARK    5  A    between atoms: C10_14  and  N2_15 
REMARK    6  A    between atoms: N2_15  and  N3_17 
REMARK    7  A    between atoms: C11_19  and  C13_21 
ROOT
HETATM    1  N1  UNL     1      28.951  23.168  -5.510  1.00  0.00    -0.303 N 
HETATM    2  C4  UNL     1      28.611  22.559  -4.383  1.00  0.00     0.158 A 
HETATM    3  C5  UNL     1      28.158  23.313  -3.352  1.00  0.00     0.045 A 
HETATM    4  S1  UNL     1      28.218  24.874  -3.987  1.00  0.00    -0.052 SA
HETATM    5  C10 UNL     1      28.839  24.480  -5.591  1.00  0.00     0.168 A 
ENDROOT
BRANCH   5   6
HETATM    6  N2  UNL     1      29.089  25.378  -6.477  1.00  0.00    -0.280 N 
ATOM      7  H2  UNL     1      29.589  25.026  -7.292  1.00  0.00     0.189 HD
BRANCH   6   8
HETATM    8  N3  UNL     1      28.818  26.673  -6.529  1.00  0.00    -0.306 N 
HETATM    9  C11 UNL     1      28.876  27.493  -7.503  1.00  0.00     0.013 C 
HETATM   10  C12 UNL     1      29.295  27.070  -8.843  1.00  0.00     0.066 C 
ATOM     11  H3  UNL     1      28.515  27.081  -5.644  1.00  0.00     0.186 HD
BRANCH   9  12
HETATM   12  C13 UNL     1      28.511  28.917  -7.288  1.00  0.00     0.168 C 
HETATM   13 CL1  UNL     1      27.835  29.622  -8.795  1.00  0.00    -0.124 Cl
ENDBRANCH   9  12
ENDBRANCH   6   8
ENDBRANCH   5   6
BRANCH   1  14
HETATM   14  C3  UNL     1      29.466  22.359  -6.665  1.00  0.00     0.160 C 
BRANCH  14  15
HETATM   15  C2  UNL     1      30.932  22.237  -6.602  1.00  0.00    -0.017 C 
HETATM   16  C1  UNL     1      31.669  21.632  -7.503  1.00  0.00     0.008 C 
ENDBRANCH  14  15
ENDBRANCH   1  14
BRANCH   2  17
HETATM   17  O1  UNL     1      28.702  21.141  -4.209  1.00  0.00    -0.345 OA
ATOM     18  H1  UNL     1      28.061  20.537  -4.564  1.00  0.00     0.219 HD
ENDBRANCH   2  17
BRANCH   3  19
HETATM   19  C6  UNL     1      27.707  22.932  -1.985  1.00  0.00    -0.013 C 
HETATM   20  C7  UNL     1      27.354  24.194  -1.218  1.00  0.00     0.020 C 
HETATM   21  C8  UNL     1      28.819  22.247  -1.217  1.00  0.00     0.020 C 
HETATM   22  C9  UNL     1      26.513  22.045  -1.981  1.00  0.00     0.020 C 
ENDBRANCH   3  19
TORSDOF 7
ENDMDL
MODEL 4
REMARK VINA RESULT: -5.632493652      2.790      4.636
REMARK  7 active torsions:
REMARK  status: ('A' for Active; 'I' for Inactive)
REMARK    1  A    between atoms: C2_2  and  C3_3 
REMARK    2  A    between atoms: C3_3  and  N1_4 
REMARK    3  A    between atoms: C4_5  and  O1_6 
REMARK    4  A    between atoms: C5_8  and  C6_9 
REMARK    5  A    between atoms: C10_14  and  N2_15 
REMARK    6  A    between atoms: N2_15  and  N3_17 
REMARK    7  A    between atoms: C11_19  and  C13_21 
ROOT
HETATM    1  N1  UNL     1      28.001  22.837  -3.980  1.00  0.00    -0.303 N 
HETATM    2  C4  UNL     1      27.518  22.082  -3.003  1.00  0.00     0.158 A 
HETATM    3  C5  UNL     1      27.171  22.677  -1.836  1.00  0.00     0.045 A 
HETATM    4  S1  UNL     1      27.529  24.298  -2.133  1.00  0.00    -0.052 SA
HETATM    5  C10 UNL     1      28.126  24.136  -3.785  1.00  0.00     0.168 A 
ENDROOT
BRANCH   5   6
HETATM    6  N2  UNL     1      28.562  25.136  -4.466  1.00  0.00    -0.280 N 
ATOM      7  H2  UNL     1      28.795  25.951  -3.899  1.00  0.00     0.189 HD
BRANCH   6   8
HETATM    8  N3  UNL     1      28.764  25.307  -5.763  1.00  0.00    -0.306 N 
HETATM    9  C11 UNL     1      28.977  26.368  -6.436  1.00  0.00     0.013 C 
HETATM   10  C12 UNL     1      29.033  27.688  -5.798  1.00  0.00     0.066 C 
ATOM     11  H3  UNL     1      28.745  24.449  -6.314  1.00  0.00     0.186 HD
BRANCH   9  12
HETATM   12  C13 UNL     1      29.176  26.280  -7.906  1.00  0.00     0.168 C 
HETATM   13 CL1  UNL     1      29.333  24.564  -8.411  1.00  0.00    -0.124 Cl
ENDBRANCH   9  12
ENDBRANCH   6   8
ENDBRANCH   5   6
BRANCH   1  14
HETATM   14  C3  UNL     1      28.403  22.203  -5.279  1.00  0.00     0.160 C 
BRANCH  14  15
HETATM   15  C2  UNL     1      29.824  21.818  -5.251  1.00  0.00    -0.017 C 
HETATM   16  C1  UNL     1      30.614  21.805  -6.299  1.00  0.00     0.008 C 
ENDBRANCH  14  15
ENDBRANCH   1  14
BRANCH   2  17
HETATM   17  O1  UNL     1      27.350  20.665  -3.129  1.00  0.00    -0.345 OA
ATOM     18  H1  UNL     1      28.025  20.096  -3.478  1.00  0.00     0.219 HD
ENDBRANCH   2  17
BRANCH   3  19
HETATM   19  C6  UNL     1      26.613  22.112  -0.578  1.00  0.00    -0.013 C 
HETATM   20  C7  UNL     1      26.424  23.239   0.423  1.00  0.00     0.020 C 
HETATM   21  C8  UNL     1      27.575  21.124   0.049  1.00  0.00     0.020 C 
HETATM   22  C9  UNL     1      25.298  21.440  -0.762  1.00  0.00     0.020 C 
ENDBRANCH   3  19
TORSDOF 7
ENDMDL
MODEL 5
REMARK VINA RESULT: -5.587889238      3.793      6.413
REMARK  7 active torsions:
REMARK  status: ('A' for Active; 'I' for Inactive)
REMARK    1  A    between atoms: C2_2  and  C3_3 
REMARK    2  A    between atoms: C3_3  and  N1_4 
REMARK    3  A    between atoms: C4_5  and  O1_6 
REMARK    4  A    between atoms: C5_8  and  C6_9 
REMARK    5  A    between atoms: C10_14  and  N2_15 
REMARK    6  A    between atoms: N2_15  and  N3_17 
REMARK    7  A    between atoms: C11_19  and  C13_21 
ROOT
HETATM    1  N1  UNL     1      28.551  25.729  -4.450  1.00  0.00    -0.303 N 
HETATM    2  C4  UNL     1      28.638  26.951  -3.944  1.00  0.00     0.158 A 
HETATM    3  C5  UNL     1      28.933  27.977  -4.780  1.00  0.00     0.045 A 
HETATM    4  S1  UNL     1      29.084  27.202  -6.270  1.00  0.00    -0.052 SA
HETATM    5  C10 UNL     1      28.754  25.552  -5.741  1.00  0.00     0.168 A 
ENDROOT
BRANCH   5   6
HETATM    6  N2  UNL     1      28.778  24.549  -6.546  1.00  0.00    -0.280 N 
ATOM      7  H2  UNL     1      27.855  24.248  -6.859  1.00  0.00     0.189 HD
BRANCH   6   8
HETATM    8  N3  UNL     1      29.775  23.834  -7.045  1.00  0.00    -0.306 N 
HETATM    9  C11 UNL     1      30.208  22.679  -6.724  1.00  0.00     0.013 C 
HETATM   10  C12 UNL     1      29.596  21.899  -5.643  1.00  0.00     0.066 C 
ATOM     11  H3  UNL     1      30.279  24.282  -7.810  1.00  0.00     0.186 HD
BRANCH   9  12
HETATM   12  C13 UNL     1      31.360  22.096  -7.458  1.00  0.00     0.168 C 
HETATM   13 CL1  UNL     1      32.490  21.299  -6.313  1.00  0.00    -0.124 Cl
ENDBRANCH   9  12
ENDBRANCH   6   8
ENDBRANCH   5   6
BRANCH   1  14
HETATM   14  C3  UNL     1      28.236  24.572  -3.547  1.00  0.00     0.160 C 
BRANCH  14  15
HETATM   15  C2  UNL     1      27.116  23.783  -4.085  1.00  0.00    -0.017 C 
HETATM   16  C1  UNL     1      26.376  22.961  -3.379  1.00  0.00     0.008 C 
ENDBRANCH  14  15
ENDBRANCH   1  14
BRANCH   2  17
HETATM   17  O1  UNL     1      28.434  27.232  -2.555  1.00  0.00    -0.345 OA
ATOM     18  H1  UNL     1      28.754  28.023  -2.138  1.00  0.00     0.219 HD
ENDBRANCH   2  17
BRANCH   3  19
HETATM   19  C6  UNL     1      29.097  29.433  -4.520  1.00  0.00    -0.013 C 
HETATM   20  C7  UNL     1      28.675  30.201  -5.760  1.00  0.00     0.020 C 
HETATM   21  C8  UNL     1      30.548  29.780  -4.261  1.00  0.00     0.020 C 
HETATM   22  C9  UNL     1      28.281  29.928  -3.377  1.00  0.00     0.020 C 
ENDBRANCH   3  19
TORSDOF 7
ENDMDL
