MODEL 1
REMARK VINA RESULT: -7.255941973      0.000      0.000
REMARK  9 active torsions:
REMARK  status: ('A' for Active; 'I' for Inactive)
REMARK    1  A    between atoms: C2_2  and  C3_3 
REMARK    2  A    between atoms: C3_3  and  S1_4 
REMARK    3  A    between atoms: C3_3  and  C11_19 
REMARK    4  A    between atoms: S1_4  and  S2_5 
REMARK    5  A    between atoms: S2_5  and  C4_6 
REMARK    6  A    between atoms: C5_11  and  C6_12 
REMARK    7  A    between atoms: C9_15  and  C10_16 
REMARK    8  A    between atoms: C11_19  and  O3_20 
REMARK    9  A    between atoms: N3_22  and  O4_24 
ROOT
HETATM    1  C4  UNL     1      27.354  28.844   6.545  1.00  0.00     0.114 A 
HETATM    2  N1  UNL     1      27.445  28.701   5.237  1.00  0.00    -0.292 N 
ATOM      3  H1  UNL     1      28.332  28.709   4.732  1.00  0.00     0.187 HD
HETATM    4  N2  UNL     1      26.278  28.546   4.647  1.00  0.00    -0.302 N 
ATOM      5  H2  UNL     1      26.123  28.420   3.646  1.00  0.00     0.186 HD
HETATM    6  C5  UNL     1      25.324  28.583   5.594  1.00  0.00     0.049 A 
HETATM    7  C9  UNL     1      25.969  28.770   6.803  1.00  0.00     0.100 A 
ENDROOT
BRANCH   1   8
HETATM    8  S2  UNL     1      28.508  29.082   7.861  1.00  0.00    -0.036 SA
BRANCH   8   9
HETATM    9  S1  UNL     1      30.377  28.334   7.235  1.00  0.00    -0.078 SA
BRANCH   9  10
HETATM   10  C3  UNL     1      30.573  26.660   7.750  1.00  0.00     0.135 C 
BRANCH  10  11
HETATM   11  C2  UNL     1      31.833  26.070   7.084  1.00  0.00     0.020 C 
HETATM   12  C1  UNL     1      31.950  26.721   5.721  1.00  0.00     0.006 C 
ENDBRANCH  10  11
BRANCH  10  13
HETATM   13  C11 UNL     1      30.527  26.350   9.169  1.00  0.00     0.150 C 
HETATM   14  N3  UNL     1      31.154  25.317   9.616  1.00  0.00    -0.250 N 
ATOM     15  H3  UNL     1      31.673  24.736   8.958  1.00  0.00     0.196 HD
BRANCH  13  16
HETATM   16  O3  UNL     1      29.832  27.124  10.072  1.00  0.00    -0.347 OA
ATOM     17  H3  UNL     1      30.259  27.573  10.792  1.00  0.00     0.219 HD
ENDBRANCH  13  16
BRANCH  14  18
HETATM   18  O4  UNL     1      31.151  24.967  10.945  1.00  0.00    -0.288 OA
ATOM     19  H4  UNL     1      31.622  24.212  11.276  1.00  0.00     0.244 HD
ENDBRANCH  14  18
ENDBRANCH  10  13
ENDBRANCH   9  10
ENDBRANCH   8   9
ENDBRANCH   1   8
BRANCH   7  20
HETATM   20  C10 UNL     1      25.310  28.866   8.085  1.00  0.00     0.214 C 
HETATM   21  O1  UNL     1      25.133  27.848   8.769  1.00  0.00    -0.644 OA
HETATM   22  O2  UNL     1      24.883  30.086   8.539  1.00  0.00    -0.644 OA
ENDBRANCH   7  20
BRANCH   6  23
HETATM   23  C6  UNL     1      23.885  28.450   5.368  1.00  0.00     0.030 C 
HETATM   24  C7  UNL     1      23.170  29.740   5.717  1.00  0.00     0.016 C 
HETATM   25  C8  UNL     1      23.515  28.077   3.974  1.00  0.00     0.016 C 
ENDBRANCH   6  23
TORSDOF 9
ENDMDL
MODEL 2
REMARK VINA RESULT: -7.151410318      3.313      7.690
REMARK  9 active torsions:
REMARK  status: ('A' for Active; 'I' for Inactive)
REMARK    1  A    between atoms: C2_2  and  C3_3 
REMARK    2  A    between atoms: C3_3  and  S1_4 
REMARK    3  A    between atoms: C3_3  and  C11_19 
REMARK    4  A    between atoms: S1_4  and  S2_5 
REMARK    5  A    between atoms: S2_5  and  C4_6 
REMARK    6  A    between atoms: C5_11  and  C6_12 
REMARK    7  A    between atoms: C9_15  and  C10_16 
REMARK    8  A    between atoms: C11_19  and  O3_20 
REMARK    9  A    between atoms: N3_22  and  O4_24 
ROOT
HETATM    1  C4  UNL     1      25.367  28.902   6.421  1.00  0.00     0.114 A 
HETATM    2  N1  UNL     1      25.589  28.541   5.172  1.00  0.00    -0.292 N 
ATOM      3  H1  UNL     1      24.844  28.299   4.518  1.00  0.00     0.187 HD
HETATM    4  N2  UNL     1      26.866  28.523   4.853  1.00  0.00    -0.302 N 
ATOM      5  H2  UNL     1      27.254  28.273   3.943  1.00  0.00     0.186 HD
HETATM    6  C5  UNL     1      27.571  28.892   5.937  1.00  0.00     0.049 A 
HETATM    7  C9  UNL     1      26.655  29.138   6.944  1.00  0.00     0.100 A 
ENDROOT
BRANCH   1   8
HETATM    8  S2  UNL     1      23.930  29.116   7.426  1.00  0.00    -0.036 SA
BRANCH   8   9
HETATM    9  S1  UNL     1      22.291  29.484   6.153  1.00  0.00    -0.078 SA
BRANCH   9  10
HETATM   10  C3  UNL     1      22.099  31.216   5.884  1.00  0.00     0.135 C 
BRANCH  10  11
HETATM   11  C2  UNL     1      21.150  31.441   4.689  1.00  0.00     0.020 C 
HETATM   12  C1  UNL     1      21.350  30.270   3.749  1.00  0.00     0.006 C 
ENDBRANCH  10  11
BRANCH  10  13
HETATM   13  C11 UNL     1      21.748  32.068   7.008  1.00  0.00     0.150 C 
HETATM   14  N3  UNL     1      21.074  33.147   6.805  1.00  0.00    -0.250 N 
ATOM     15  H3  UNL     1      20.799  33.380   5.850  1.00  0.00     0.196 HD
BRANCH  13  16
HETATM   16  O3  UNL     1      22.110  31.768   8.303  1.00  0.00    -0.347 OA
ATOM     17  H3  UNL     1      21.841  32.299   9.043  1.00  0.00     0.219 HD
ENDBRANCH  13  16
BRANCH  14  18
HETATM   18  O4  UNL     1      20.710  33.997   7.822  1.00  0.00    -0.288 OA
ATOM     19  H4  UNL     1      19.813  34.086   8.118  1.00  0.00     0.244 HD
ENDBRANCH  14  18
ENDBRANCH  10  13
ENDBRANCH   9  10
ENDBRANCH   8   9
ENDBRANCH   1   8
BRANCH   7  20
HETATM   20  C10 UNL     1      26.994  29.562   8.283  1.00  0.00     0.214 C 
HETATM   21  O1  UNL     1      27.148  30.766   8.532  1.00  0.00    -0.644 OA
HETATM   22  O2  UNL     1      27.144  28.628   9.274  1.00  0.00    -0.644 OA
ENDBRANCH   7  20
BRANCH   6  23
HETATM   23  C6  UNL     1      29.028  29.004   6.016  1.00  0.00     0.030 C 
HETATM   24  C7  UNL     1      29.586  27.995   7.000  1.00  0.00     0.016 C 
HETATM   25  C8  UNL     1      29.728  28.819   4.714  1.00  0.00     0.016 C 
ENDBRANCH   6  23
TORSDOF 9
ENDMDL
MODEL 3
REMARK VINA RESULT: -6.832197602      2.691      3.556
REMARK  9 active torsions:
REMARK  status: ('A' for Active; 'I' for Inactive)
REMARK    1  A    between atoms: C2_2  and  C3_3 
REMARK    2  A    between atoms: C3_3  and  S1_4 
REMARK    3  A    between atoms: C3_3  and  C11_19 
REMARK    4  A    between atoms: S1_4  and  S2_5 
REMARK    5  A    between atoms: S2_5  and  C4_6 
REMARK    6  A    between atoms: C5_11  and  C6_12 
REMARK    7  A    between atoms: C9_15  and  C10_16 
REMARK    8  A    between atoms: C11_19  and  O3_20 
REMARK    9  A    between atoms: N3_22  and  O4_24 
ROOT
HETATM    1  C4  UNL     1      29.188  28.581   6.220  1.00  0.00     0.114 A 
HETATM    2  N1  UNL     1      28.583  28.567   5.048  1.00  0.00    -0.292 N 
ATOM      3  H1  UNL     1      29.078  28.442   4.164  1.00  0.00     0.187 HD
HETATM    4  N2  UNL     1      27.279  28.731   5.131  1.00  0.00    -0.302 N 
ATOM      5  H2  UNL     1      26.626  28.752   4.347  1.00  0.00     0.186 HD
HETATM    6  C5  UNL     1      26.959  28.865   6.430  1.00  0.00     0.049 A 
HETATM    7  C9  UNL     1      28.140  28.777   7.144  1.00  0.00     0.100 A 
ENDROOT
BRANCH   1   8
HETATM    8  S2  UNL     1      30.858  28.421   6.769  1.00  0.00    -0.036 SA
BRANCH   8   9
HETATM    9  S1  UNL     1      31.790  26.933   5.602  1.00  0.00    -0.078 SA
BRANCH   9  10
HETATM   10  C3  UNL     1      32.344  25.608   6.624  1.00  0.00     0.135 C 
BRANCH  10  11
HETATM   11  C2  UNL     1      31.303  25.355   7.733  1.00  0.00     0.020 C 
HETATM   12  C1  UNL     1      31.999  24.549   8.809  1.00  0.00     0.006 C 
ENDBRANCH  10  11
BRANCH  10  13
HETATM   13  C11 UNL     1      32.768  24.367   5.999  1.00  0.00     0.150 C 
HETATM   14  N3  UNL     1      31.979  23.763   5.179  1.00  0.00    -0.250 N 
ATOM     15  H3  UNL     1      31.066  24.175   4.986  1.00  0.00     0.196 HD
BRANCH  13  16
HETATM   16  O3  UNL     1      33.998  23.797   6.248  1.00  0.00    -0.347 OA
ATOM     17  H3  UNL     1      34.766  23.998   5.728  1.00  0.00     0.219 HD
ENDBRANCH  13  16
BRANCH  14  18
HETATM   18  O4  UNL     1      32.317  22.586   4.555  1.00  0.00    -0.288 OA
ATOM     19  H4  UNL     1      31.948  21.749   4.808  1.00  0.00     0.244 HD
ENDBRANCH  14  18
ENDBRANCH  10  13
ENDBRANCH   9  10
ENDBRANCH   8   9
ENDBRANCH   1   8
BRANCH   7  20
HETATM   20  C10 UNL     1      28.244  28.869   8.582  1.00  0.00     0.214 C 
HETATM   21  O1  UNL     1      27.800  29.863   9.173  1.00  0.00    -0.644 OA
HETATM   22  O2  UNL     1      28.837  27.854   9.286  1.00  0.00    -0.644 OA
ENDBRANCH   7  20
BRANCH   6  23
HETATM   23  C6  UNL     1      25.612  29.068   6.964  1.00  0.00     0.030 C 
HETATM   24  C7  UNL     1      24.569  28.761   5.908  1.00  0.00     0.016 C 
HETATM   25  C8  UNL     1      25.302  28.253   8.173  1.00  0.00     0.016 C 
ENDBRANCH   6  23
TORSDOF 9
ENDMDL
MODEL 4
REMARK VINA RESULT: -6.645100904      1.795      2.174
REMARK  9 active torsions:
REMARK  status: ('A' for Active; 'I' for Inactive)
REMARK    1  A    between atoms: C2_2  and  C3_3 
REMARK    2  A    between atoms: C3_3  and  S1_4 
REMARK    3  A    between atoms: C3_3  and  C11_19 
REMARK    4  A    between atoms: S1_4  and  S2_5 
REMARK    5  A    between atoms: S2_5  and  C4_6 
REMARK    6  A    between atoms: C5_11  and  C6_12 
REMARK    7  A    between atoms: C9_15  and  C10_16 
REMARK    8  A    between atoms: C11_19  and  O3_20 
REMARK    9  A    between atoms: N3_22  and  O4_24 
ROOT
HETATM    1  C4  UNL     1      27.153  28.782   6.342  1.00  0.00     0.114 A 
HETATM    2  N1  UNL     1      27.121  28.647   5.031  1.00  0.00    -0.292 N 
ATOM      3  H1  UNL     1      27.959  28.622   4.449  1.00  0.00     0.187 HD
HETATM    4  N2  UNL     1      25.901  28.547   4.545  1.00  0.00    -0.302 N 
ATOM      5  H2  UNL     1      25.653  28.437   3.562  1.00  0.00     0.186 HD
HETATM    6  C5  UNL     1      25.037  28.616   5.574  1.00  0.00     0.049 A 
HETATM    7  C9  UNL     1      25.794  28.765   6.721  1.00  0.00     0.100 A 
ENDROOT
BRANCH   1   8
HETATM    8  S2  UNL     1      28.427  28.958   7.551  1.00  0.00    -0.036 SA
BRANCH   8   9
HETATM    9  S1  UNL     1      30.273  28.543   6.622  1.00  0.00    -0.078 SA
BRANCH   9  10
HETATM   10  C3  UNL     1      31.087  27.210   7.439  1.00  0.00     0.135 C 
BRANCH  10  11
HETATM   11  C2  UNL     1      30.086  26.506   8.378  1.00  0.00     0.020 C 
HETATM   12  C1  UNL     1      30.557  26.767   9.792  1.00  0.00     0.006 C 
ENDBRANCH  10  11
BRANCH  10  13
HETATM   13  C11 UNL     1      31.838  26.251   6.647  1.00  0.00     0.150 C 
HETATM   14  N3  UNL     1      31.760  24.995   6.923  1.00  0.00    -0.250 N 
ATOM     15  H3  UNL     1      31.167  24.700   7.698  1.00  0.00     0.196 HD
BRANCH  13  16
HETATM   16  O3  UNL     1      32.643  26.632   5.595  1.00  0.00    -0.347 OA
ATOM     17  H3  UNL     1      32.303  26.772   4.719  1.00  0.00     0.219 HD
ENDBRANCH  13  16
BRANCH  14  18
HETATM   18  O4  UNL     1      32.444  24.037   6.214  1.00  0.00    -0.288 OA
ATOM     19  H4  UNL     1      33.062  23.442   6.622  1.00  0.00     0.244 HD
ENDBRANCH  14  18
ENDBRANCH  10  13
ENDBRANCH   9  10
ENDBRANCH   8   9
ENDBRANCH   1   8
BRANCH   7  20
HETATM   20  C10 UNL     1      25.256  28.878   8.057  1.00  0.00     0.214 C 
HETATM   21  O1  UNL     1      25.191  27.877   8.786  1.00  0.00    -0.644 OA
HETATM   22  O2  UNL     1      24.818  30.093   8.513  1.00  0.00    -0.644 OA
ENDBRANCH   7  20
BRANCH   6  23
HETATM   23  C6  UNL     1      23.579  28.547   5.476  1.00  0.00     0.030 C 
HETATM   24  C7  UNL     1      22.961  29.898   5.777  1.00  0.00     0.016 C 
HETATM   25  C8  UNL     1      23.075  28.092   4.150  1.00  0.00     0.016 C 
ENDBRANCH   6  23
TORSDOF 9
ENDMDL
MODEL 5
REMARK VINA RESULT: -6.565857590      3.959      7.957
REMARK  9 active torsions:
REMARK  status: ('A' for Active; 'I' for Inactive)
REMARK    1  A    between atoms: C2_2  and  C3_3 
REMARK    2  A    between atoms: C3_3  and  S1_4 
REMARK    3  A    between atoms: C3_3  and  C11_19 
REMARK    4  A    between atoms: S1_4  and  S2_5 
REMARK    5  A    between atoms: S2_5  and  C4_6 
REMARK    6  A    between atoms: C5_11  and  C6_12 
REMARK    7  A    between atoms: C9_15  and  C10_16 
REMARK    8  A    between atoms: C11_19  and  O3_20 
REMARK    9  A    between atoms: N3_22  and  O4_24 
ROOT
HETATM    1  C4  UNL     1      24.134  28.825   5.692  1.00  0.00     0.114 A 
HETATM    2  N1  UNL     1      24.785  28.646   4.558  1.00  0.00    -0.292 N 
ATOM      3  H1  UNL     1      24.322  28.566   3.653  1.00  0.00     0.187 HD
HETATM    4  N2  UNL     1      26.092  28.582   4.711  1.00  0.00    -0.302 N 
ATOM      5  H2  UNL     1      26.777  28.448   3.968  1.00  0.00     0.186 HD
HETATM    6  C5  UNL     1      26.364  28.724   6.020  1.00  0.00     0.049 A 
HETATM    7  C9  UNL     1      25.152  28.878   6.667  1.00  0.00     0.100 A 
ENDROOT
BRANCH   1   8
HETATM    8  S2  UNL     1      22.436  28.987   6.147  1.00  0.00    -0.036 SA
BRANCH   8   9
HETATM    9  S1  UNL     1      21.518  30.312   4.789  1.00  0.00    -0.078 SA
BRANCH   9  10
HETATM   10  C3  UNL     1      21.785  31.983   5.285  1.00  0.00     0.135 C 
BRANCH  10  11
HETATM   11  C2  UNL     1      20.980  32.919   4.361  1.00  0.00     0.020 C 
HETATM   12  C1  UNL     1      20.082  32.036   3.521  1.00  0.00     0.006 C 
ENDBRANCH  10  11
BRANCH  10  13
HETATM   13  C11 UNL     1      21.612  32.338   6.683  1.00  0.00     0.150 C 
HETATM   14  N3  UNL     1      20.978  33.415   6.994  1.00  0.00    -0.250 N 
ATOM     15  H3  UNL     1      20.607  33.999   6.244  1.00  0.00     0.196 HD
BRANCH  13  16
HETATM   16  O3  UNL     1      22.105  31.561   7.709  1.00  0.00    -0.347 OA
ATOM     17  H3  UNL     1      22.707  31.900   8.360  1.00  0.00     0.219 HD
ENDBRANCH  13  16
BRANCH  14  18
HETATM   18  O4  UNL     1      20.780  33.810   8.295  1.00  0.00    -0.288 OA
ATOM     19  H4  UNL     1      21.324  33.505   9.011  1.00  0.00     0.244 HD
ENDBRANCH  14  18
ENDBRANCH  10  13
ENDBRANCH   9  10
ENDBRANCH   8   9
ENDBRANCH   1   8
BRANCH   7  20
HETATM   20  C10 UNL     1      24.992  29.061   8.091  1.00  0.00     0.214 C 
HETATM   21  O1  UNL     1      25.396  28.193   8.878  1.00  0.00    -0.644 OA
HETATM   22  O2  UNL     1      24.394  30.199   8.566  1.00  0.00    -0.644 OA
ENDBRANCH   7  20
BRANCH   6  23
HETATM   23  C6  UNL     1      27.697  28.711   6.625  1.00  0.00     0.030 C 
HETATM   24  C7  UNL     1      28.764  28.900   5.564  1.00  0.00     0.016 C 
HETATM   25  C8  UNL     1      27.902  29.745   7.678  1.00  0.00     0.016 C 
ENDBRANCH   6  23
TORSDOF 9
ENDMDL
