MODEL 1
REMARK VINA RESULT: -7.104455661      0.000      0.000
REMARK  10 active torsions:
REMARK  status: ('A' for Active; 'I' for Inactive)
REMARK    1  A    between atoms: C1_2  and  C2_3 
REMARK    2  A    between atoms: C1_2  and  C7_16 
REMARK    3  A    between atoms: C2_3  and  O2_4 
REMARK    4  A    between atoms: C2_3  and  N1_6 
REMARK    5  A    between atoms: N2_8  and  C3_10 
REMARK    6  A    between atoms: C7_16  and  C8_17 
REMARK    7  A    between atoms: C7_16  and  C15_24 
REMARK    8  A    between atoms: C8_17  and  C9_18 
REMARK    9  A    between atoms: C15_24  and  O3_25 
REMARK   10  A    between atoms: N4_27  and  O4_29 
ROOT
HETATM    1  O1  UNL     1      31.174  27.190   7.758  1.00  0.00    -0.292 OA
HETATM    2  C1  UNL     1      31.145  27.227   6.512  1.00  0.00     0.188 C 
ENDROOT
BRANCH   2   3
HETATM    3  C2  UNL     1      32.042  26.272   5.847  1.00  0.00     0.304 C 
BRANCH   3   4
HETATM    4  O2  UNL     1      33.252  26.765   5.436  1.00  0.00    -0.368 OA
ATOM      5  H2  UNL     1      33.502  26.571   4.540  1.00  0.00     0.212 HD
ENDBRANCH   3   4
BRANCH   3   6
HETATM    6  N1  UNL     1      32.270  25.141   6.715  1.00  0.00    -0.299 N 
HETATM    7  N2  UNL     1      32.583  24.028   6.224  1.00  0.00    -0.287 N 
ATOM      8  H2  UNL     1      32.743  23.228   6.837  1.00  0.00     0.188 HD
ATOM      9  H1  UNL     1      32.179  25.246   7.725  1.00  0.00     0.183 HD
BRANCH   7  10
HETATM   10  C3  UNL     1      32.712  23.881   4.833  1.00  0.00     0.119 A 
HETATM   11  C4  UNL     1      31.731  23.486   3.943  1.00  0.00     0.051 A 
HETATM   12  C5  UNL     1      32.284  23.477   2.702  1.00  0.00     0.021 A 
HETATM   13  C6  UNL     1      33.590  23.858   2.798  1.00  0.00     0.090 A 
HETATM   14  N3  UNL     1      33.829  24.096   4.083  1.00  0.00    -0.351 N 
ATOM     15  H3  UNL     1      34.728  24.399   4.458  1.00  0.00     0.166 HD
ENDBRANCH   7  10
ENDBRANCH   3   6
ENDBRANCH   2   3
BRANCH   2  16
HETATM   16  C7  UNL     1      30.233  28.198   5.906  1.00  0.00     0.137 C 
BRANCH  16  17
HETATM   17  C8  UNL     1      29.503  28.948   6.968  1.00  0.00     0.025 C 
BRANCH  17  18
HETATM   18  C9  UNL     1      28.083  28.495   7.209  1.00  0.00    -0.013 C 
HETATM   19  C10 UNL     1      27.615  29.243   8.439  1.00  0.00     0.005 C 
HETATM   20  C11 UNL     1      26.173  29.059   8.745  1.00  0.00     0.000 C 
HETATM   21  C12 UNL     1      25.269  29.308   7.560  1.00  0.00     0.000 C 
HETATM   22  C13 UNL     1      25.780  28.708   6.296  1.00  0.00     0.000 C 
HETATM   23  C14 UNL     1      27.245  28.964   6.037  1.00  0.00     0.005 C 
ENDBRANCH  17  18
ENDBRANCH  16  17
BRANCH  16  24
HETATM   24  C15 UNL     1      30.845  29.106   4.928  1.00  0.00     0.147 C 
HETATM   25  N4  UNL     1      30.379  29.311   3.738  1.00  0.00    -0.250 N 
ATOM     26  H4  UNL     1      30.833  29.951   3.086  1.00  0.00     0.196 HD
BRANCH  24  27
HETATM   27  O3  UNL     1      31.989  29.804   5.261  1.00  0.00    -0.348 OA
ATOM     28  H3  UNL     1      31.944  30.740   5.417  1.00  0.00     0.219 HD
ENDBRANCH  24  27
BRANCH  25  29
HETATM   29  O4  UNL     1      29.238  28.619   3.399  1.00  0.00    -0.288 OA
ATOM     30  H4  UNL     1      28.420  29.099   3.456  1.00  0.00     0.244 HD
ENDBRANCH  25  29
ENDBRANCH  16  24
ENDBRANCH   2  16
TORSDOF 10
ENDMDL
MODEL 2
REMARK VINA RESULT: -7.011869355      1.865      2.334
REMARK  10 active torsions:
REMARK  status: ('A' for Active; 'I' for Inactive)
REMARK    1  A    between atoms: C1_2  and  C2_3 
REMARK    2  A    between atoms: C1_2  and  C7_16 
REMARK    3  A    between atoms: C2_3  and  O2_4 
REMARK    4  A    between atoms: C2_3  and  N1_6 
REMARK    5  A    between atoms: N2_8  and  C3_10 
REMARK    6  A    between atoms: C7_16  and  C8_17 
REMARK    7  A    between atoms: C7_16  and  C15_24 
REMARK    8  A    between atoms: C8_17  and  C9_18 
REMARK    9  A    between atoms: C15_24  and  O3_25 
REMARK   10  A    between atoms: N4_27  and  O4_29 
ROOT
HETATM    1  O1  UNL     1      30.632  28.227   8.630  1.00  0.00    -0.292 OA
HETATM    2  C1  UNL     1      30.791  27.507   7.623  1.00  0.00     0.188 C 
ENDROOT
BRANCH   2   3
HETATM    3  C2  UNL     1      31.475  26.232   7.880  1.00  0.00     0.304 C 
BRANCH   3   4
HETATM    4  O2  UNL     1      31.351  25.724   9.146  1.00  0.00    -0.368 OA
ATOM      5  H2  UNL     1      32.136  25.344   9.524  1.00  0.00     0.212 HD
ENDBRANCH   3   4
BRANCH   3   6
HETATM    6  N1  UNL     1      31.016  25.242   6.934  1.00  0.00    -0.299 N 
HETATM    7  N2  UNL     1      31.849  24.536   6.314  1.00  0.00    -0.287 N 
ATOM      8  H2  UNL     1      31.526  23.837   5.644  1.00  0.00     0.188 HD
ATOM      9  H1  UNL     1      30.017  25.116   6.771  1.00  0.00     0.183 HD
BRANCH   7  10
HETATM   10  C3  UNL     1      33.226  24.705   6.539  1.00  0.00     0.119 A 
HETATM   11  C4  UNL     1      34.161  25.189   5.644  1.00  0.00     0.051 A 
HETATM   12  C5  UNL     1      35.367  25.185   6.271  1.00  0.00     0.021 A 
HETATM   13  C6  UNL     1      35.203  24.709   7.540  1.00  0.00     0.090 A 
HETATM   14  N3  UNL     1      33.913  24.427   7.681  1.00  0.00    -0.351 N 
ATOM     15  H3  UNL     1      33.493  24.051   8.532  1.00  0.00     0.166 HD
ENDBRANCH   7  10
ENDBRANCH   3   6
ENDBRANCH   2   3
BRANCH   2  16
HETATM   16  C7  UNL     1      30.280  28.030   6.355  1.00  0.00     0.137 C 
BRANCH  16  17
HETATM   17  C8  UNL     1      29.233  29.061   6.611  1.00  0.00     0.025 C 
BRANCH  17  18
HETATM   18  C9  UNL     1      27.849  28.514   6.864  1.00  0.00    -0.013 C 
HETATM   19  C10 UNL     1      27.327  29.257   8.076  1.00  0.00     0.005 C 
HETATM   20  C11 UNL     1      25.902  28.980   8.387  1.00  0.00     0.000 C 
HETATM   21  C12 UNL     1      24.984  29.134   7.198  1.00  0.00     0.000 C 
HETATM   22  C13 UNL     1      25.537  28.540   5.948  1.00  0.00     0.000 C 
HETATM   23  C14 UNL     1      26.980  28.893   5.682  1.00  0.00     0.005 C 
ENDBRANCH  17  18
ENDBRANCH  16  17
BRANCH  16  24
HETATM   24  C15 UNL     1      31.302  28.521   5.423  1.00  0.00     0.147 C 
HETATM   25  N4  UNL     1      31.794  27.820   4.451  1.00  0.00    -0.250 N 
ATOM     26  H4  UNL     1      32.504  28.196   3.823  1.00  0.00     0.196 HD
BRANCH  24  27
HETATM   27  O3  UNL     1      31.796  29.804   5.556  1.00  0.00    -0.348 OA
ATOM     28  H3  UNL     1      32.728  29.942   5.668  1.00  0.00     0.219 HD
ENDBRANCH  24  27
BRANCH  25  29
HETATM   29  O4  UNL     1      31.307  26.539   4.312  1.00  0.00    -0.288 OA
ATOM     30  H4  UNL     1      30.814  26.359   3.520  1.00  0.00     0.244 HD
ENDBRANCH  25  29
ENDBRANCH  16  24
ENDBRANCH   2  16
TORSDOF 10
ENDMDL
MODEL 3
REMARK VINA RESULT: -6.936534092      1.853      3.027
REMARK  10 active torsions:
REMARK  status: ('A' for Active; 'I' for Inactive)
REMARK    1  A    between atoms: C1_2  and  C2_3 
REMARK    2  A    between atoms: C1_2  and  C7_16 
REMARK    3  A    between atoms: C2_3  and  O2_4 
REMARK    4  A    between atoms: C2_3  and  N1_6 
REMARK    5  A    between atoms: N2_8  and  C3_10 
REMARK    6  A    between atoms: C7_16  and  C8_17 
REMARK    7  A    between atoms: C7_16  and  C15_24 
REMARK    8  A    between atoms: C8_17  and  C9_18 
REMARK    9  A    between atoms: C15_24  and  O3_25 
REMARK   10  A    between atoms: N4_27  and  O4_29 
ROOT
HETATM    1  O1  UNL     1      29.617  27.941   1.920  1.00  0.00    -0.292 OA
HETATM    2  C1  UNL     1      30.295  27.959   2.966  1.00  0.00     0.188 C 
ENDROOT
BRANCH   2   3
HETATM    3  C2  UNL     1      31.339  26.927   3.042  1.00  0.00     0.304 C 
BRANCH   3   4
HETATM    4  O2  UNL     1      31.427  26.078   1.971  1.00  0.00    -0.368 OA
ATOM      5  H2  UNL     1      32.289  25.722   1.788  1.00  0.00     0.212 HD
ENDBRANCH   3   4
BRANCH   3   6
HETATM    6  N1  UNL     1      32.623  27.556   3.246  1.00  0.00    -0.299 N 
HETATM    7  N2  UNL     1      33.350  27.196   4.205  1.00  0.00    -0.287 N 
ATOM      8  H2  UNL     1      34.257  27.641   4.350  1.00  0.00     0.188 HD
ATOM      9  H1  UNL     1      32.938  28.290   2.612  1.00  0.00     0.183 HD
BRANCH   7  10
HETATM   10  C3  UNL     1      32.919  26.183   5.077  1.00  0.00     0.119 A 
HETATM   11  C4  UNL     1      32.147  26.337   6.214  1.00  0.00     0.051 A 
HETATM   12  C5  UNL     1      31.968  25.104   6.755  1.00  0.00     0.021 A 
HETATM   13  C6  UNL     1      32.611  24.183   5.981  1.00  0.00     0.090 A 
HETATM   14  N3  UNL     1      33.176  24.849   4.980  1.00  0.00    -0.351 N 
ATOM     15  H3  UNL     1      33.728  24.419   4.237  1.00  0.00     0.166 HD
ENDBRANCH   7  10
ENDBRANCH   3   6
ENDBRANCH   2   3
BRANCH   2  16
HETATM   16  C7  UNL     1      29.959  28.992   3.948  1.00  0.00     0.137 C 
BRANCH  16  17
HETATM   17  C8  UNL     1      29.491  28.360   5.216  1.00  0.00     0.025 C 
BRANCH  17  18
HETATM   18  C9  UNL     1      28.359  29.079   5.907  1.00  0.00    -0.013 C 
HETATM   19  C10 UNL     1      27.086  28.491   5.335  1.00  0.00     0.005 C 
HETATM   20  C11 UNL     1      25.849  28.954   6.014  1.00  0.00     0.000 C 
HETATM   21  C12 UNL     1      25.901  28.821   7.518  1.00  0.00     0.000 C 
HETATM   22  C13 UNL     1      27.201  29.255   8.101  1.00  0.00     0.000 C 
HETATM   23  C14 UNL     1      28.413  28.719   7.378  1.00  0.00     0.005 C 
ENDBRANCH  17  18
ENDBRANCH  16  17
BRANCH  16  24
HETATM   24  C15 UNL     1      31.011  29.984   4.198  1.00  0.00     0.147 C 
HETATM   25  N4  UNL     1      31.288  30.964   3.398  1.00  0.00    -0.250 N 
ATOM     26  H4  UNL     1      32.027  31.636   3.606  1.00  0.00     0.196 HD
BRANCH  24  27
HETATM   27  O3  UNL     1      31.775  29.904   5.346  1.00  0.00    -0.348 OA
ATOM     28  H3  UNL     1      32.722  29.903   5.284  1.00  0.00     0.219 HD
ENDBRANCH  24  27
BRANCH  25  29
HETATM   29  O4  UNL     1      30.530  31.051   2.251  1.00  0.00    -0.288 OA
ATOM     30  H4  UNL     1      30.858  30.582   1.492  1.00  0.00     0.244 HD
ENDBRANCH  25  29
ENDBRANCH  16  24
ENDBRANCH   2  16
TORSDOF 10
ENDMDL
MODEL 4
REMARK VINA RESULT: -6.887859470      5.965      9.991
REMARK  10 active torsions:
REMARK  status: ('A' for Active; 'I' for Inactive)
REMARK    1  A    between atoms: C1_2  and  C2_3 
REMARK    2  A    between atoms: C1_2  and  C7_16 
REMARK    3  A    between atoms: C2_3  and  O2_4 
REMARK    4  A    between atoms: C2_3  and  N1_6 
REMARK    5  A    between atoms: N2_8  and  C3_10 
REMARK    6  A    between atoms: C7_16  and  C8_17 
REMARK    7  A    between atoms: C7_16  and  C15_24 
REMARK    8  A    between atoms: C8_17  and  C9_18 
REMARK    9  A    between atoms: C15_24  and  O3_25 
REMARK   10  A    between atoms: N4_27  and  O4_29 
ROOT
HETATM    1  O1  UNL     1      23.631  30.395   7.944  1.00  0.00    -0.292 OA
HETATM    2  C1  UNL     1      23.148  30.178   6.814  1.00  0.00     0.188 C 
ENDROOT
BRANCH   2   3
HETATM    3  C2  UNL     1      21.868  30.851   6.552  1.00  0.00     0.304 C 
BRANCH   3   4
HETATM    4  O2  UNL     1      20.797  30.421   7.290  1.00  0.00    -0.368 OA
ATOM      5  H2  UNL     1      19.990  30.911   7.184  1.00  0.00     0.212 HD
ENDBRANCH   3   4
BRANCH   3   6
HETATM    6  N1  UNL     1      22.025  32.273   6.743  1.00  0.00    -0.299 N 
HETATM    7  N2  UNL     1      21.511  33.075   5.923  1.00  0.00    -0.287 N 
ATOM      8  H2  UNL     1      21.623  34.080   6.057  1.00  0.00     0.188 HD
ATOM      9  H1  UNL     1      22.551  32.626   7.542  1.00  0.00     0.183 HD
BRANCH   7  10
HETATM   10  C3  UNL     1      20.784  32.591   4.823  1.00  0.00     0.119 A 
HETATM   11  C4  UNL     1      21.170  31.597   3.943  1.00  0.00     0.051 A 
HETATM   12  C5  UNL     1      20.172  31.447   3.033  1.00  0.00     0.021 A 
HETATM   13  C6  UNL     1      19.171  32.327   3.326  1.00  0.00     0.090 A 
HETATM   14  N3  UNL     1      19.556  33.004   4.402  1.00  0.00    -0.351 N 
ATOM     15  H3  UNL     1      19.006  33.736   4.853  1.00  0.00     0.166 HD
ENDBRANCH   7  10
ENDBRANCH   3   6
ENDBRANCH   2   3
BRANCH   2  16
HETATM   16  C7  UNL     1      23.917  29.302   5.929  1.00  0.00     0.137 C 
BRANCH  16  17
HETATM   17  C8  UNL     1      24.889  28.497   6.724  1.00  0.00     0.025 C 
BRANCH  17  18
HETATM   18  C9  UNL     1      26.252  29.124   6.889  1.00  0.00    -0.013 C 
HETATM   19  C10 UNL     1      26.790  28.601   8.204  1.00  0.00     0.005 C 
HETATM   20  C11 UNL     1      28.203  28.974   8.469  1.00  0.00     0.000 C 
HETATM   21  C12 UNL     1      29.134  28.665   7.321  1.00  0.00     0.000 C 
HETATM   22  C13 UNL     1      28.570  29.033   5.993  1.00  0.00     0.000 C 
HETATM   23  C14 UNL     1      27.141  28.592   5.783  1.00  0.00     0.005 C 
ENDBRANCH  17  18
ENDBRANCH  16  17
BRANCH  16  24
HETATM   24  C15 UNL     1      23.117  28.454   5.038  1.00  0.00     0.147 C 
HETATM   25  N4  UNL     1      23.545  27.977   3.912  1.00  0.00    -0.250 N 
ATOM     26  H4  UNL     1      22.958  27.390   3.319  1.00  0.00     0.196 HD
BRANCH  24  27
HETATM   27  O3  UNL     1      21.822  28.121   5.384  1.00  0.00    -0.348 OA
ATOM     28  H3  UNL     1      21.508  27.235   5.246  1.00  0.00     0.219 HD
ENDBRANCH  24  27
BRANCH  25  29
HETATM   29  O4  UNL     1      24.835  28.305   3.560  1.00  0.00    -0.288 OA
ATOM     30  H4  UNL     1      25.018  29.230   3.441  1.00  0.00     0.244 HD
ENDBRANCH  25  29
ENDBRANCH  16  24
ENDBRANCH   2  16
TORSDOF 10
ENDMDL
MODEL 5
REMARK VINA RESULT: -6.868735302      2.221      3.157
REMARK  10 active torsions:
REMARK  status: ('A' for Active; 'I' for Inactive)
REMARK    1  A    between atoms: C1_2  and  C2_3 
REMARK    2  A    between atoms: C1_2  and  C7_16 
REMARK    3  A    between atoms: C2_3  and  O2_4 
REMARK    4  A    between atoms: C2_3  and  N1_6 
REMARK    5  A    between atoms: N2_8  and  C3_10 
REMARK    6  A    between atoms: C7_16  and  C8_17 
REMARK    7  A    between atoms: C7_16  and  C15_24 
REMARK    8  A    between atoms: C8_17  and  C9_18 
REMARK    9  A    between atoms: C15_24  and  O3_25 
REMARK   10  A    between atoms: N4_27  and  O4_29 
ROOT
HETATM    1  O1  UNL     1      29.658  27.990   2.072  1.00  0.00    -0.292 OA
HETATM    2  C1  UNL     1      30.565  28.198   2.902  1.00  0.00     0.188 C 
ENDROOT
BRANCH   2   3
HETATM    3  C2  UNL     1      31.502  27.081   3.084  1.00  0.00     0.304 C 
BRANCH   3   4
HETATM    4  O2  UNL     1      31.501  26.126   2.103  1.00  0.00    -0.368 OA
ATOM      5  H2  UNL     1      32.296  26.054   1.587  1.00  0.00     0.212 HD
ENDBRANCH   3   4
BRANCH   3   6
HETATM    6  N1  UNL     1      32.842  27.597   3.232  1.00  0.00    -0.299 N 
HETATM    7  N2  UNL     1      33.625  27.075   4.066  1.00  0.00    -0.287 N 
ATOM      8  H2  UNL     1      34.572  27.440   4.171  1.00  0.00     0.188 HD
ATOM      9  H1  UNL     1      33.153  28.382   2.661  1.00  0.00     0.183 HD
BRANCH   7  10
HETATM   10  C3  UNL     1      33.200  25.991   4.852  1.00  0.00     0.119 A 
HETATM   11  C4  UNL     1      32.599  26.051   6.095  1.00  0.00     0.051 A 
HETATM   12  C5  UNL     1      32.356  24.775   6.493  1.00  0.00     0.021 A 
HETATM   13  C6  UNL     1      32.794  23.919   5.524  1.00  0.00     0.090 A 
HETATM   14  N3  UNL     1      33.297  24.667   4.548  1.00  0.00    -0.351 N 
ATOM     15  H3  UNL     1      33.701  24.299   3.687  1.00  0.00     0.166 HD
ENDBRANCH   7  10
ENDBRANCH   3   6
ENDBRANCH   2   3
BRANCH   2  16
HETATM   16  C7  UNL     1      30.564  29.506   3.561  1.00  0.00     0.137 C 
BRANCH  16  17
HETATM   17  C8  UNL     1      30.879  29.349   5.010  1.00  0.00     0.025 C 
BRANCH  17  18
HETATM   18  C9  UNL     1      29.843  28.598   5.810  1.00  0.00    -0.013 C 
HETATM   19  C10 UNL     1      30.359  28.573   7.234  1.00  0.00     0.005 C 
HETATM   20  C11 UNL     1      29.394  28.019   8.216  1.00  0.00     0.000 C 
HETATM   21  C12 UNL     1      28.021  28.641   8.130  1.00  0.00     0.000 C 
HETATM   22  C13 UNL     1      27.543  28.817   6.730  1.00  0.00     0.000 C 
HETATM   23  C14 UNL     1      28.568  29.416   5.797  1.00  0.00     0.005 C 
ENDBRANCH  17  18
ENDBRANCH  16  17
BRANCH  16  24
HETATM   24  C15 UNL     1      31.414  30.524   2.931  1.00  0.00     0.147 C 
HETATM   25  N4  UNL     1      31.136  31.109   1.810  1.00  0.00    -0.250 N 
ATOM     26  H4  UNL     1      31.752  31.813   1.404  1.00  0.00     0.196 HD
BRANCH  24  27
HETATM   27  O3  UNL     1      32.592  30.909   3.541  1.00  0.00    -0.348 OA
ATOM     28  H3  UNL     1      33.031  31.704   3.262  1.00  0.00     0.219 HD
ENDBRANCH  24  27
BRANCH  25  29
HETATM   29  O4  UNL     1      29.963  30.730   1.196  1.00  0.00    -0.288 OA
ATOM     30  H4  UNL     1      29.713  31.223   0.423  1.00  0.00     0.244 HD
ENDBRANCH  25  29
ENDBRANCH  16  24
ENDBRANCH   2  16
TORSDOF 10
ENDMDL
