MODEL 1
REMARK VINA RESULT: -9.253717410      0.000      0.000
REMARK  17 active torsions:
REMARK  status: ('A' for Active; 'I' for Inactive)
REMARK       I    between atoms: C1_2  and  N5_24 
REMARK    1  A    between atoms: N2_3  and  C2_5 
REMARK    2  A    between atoms: C2_5  and  C3_6 
REMARK    3  A    between atoms: C3_6  and  C4_7 
REMARK    4  A    between atoms: C4_7  and  C5_8 
REMARK    5  A    between atoms: C5_8  and  S1_9 
REMARK    6  A    between atoms: S1_9  and  C6_10 
REMARK    7  A    between atoms: C6_10  and  C7_11 
REMARK    8  A    between atoms: C7_11  and  N3_12 
REMARK    9  A    between atoms: N3_12  and  C8_14 
REMARK   10  A    between atoms: C8_14  and  N4_16 
REMARK   11  A    between atoms: N4_16  and  C9_18 
REMARK   12  A    between atoms: N5_24  and  C15_26 
REMARK   13  A    between atoms: C15_26  and  C16_27 
REMARK   14  A    between atoms: C16_27  and  C17_28 
REMARK   15  A    between atoms: C17_28  and  N6_29 
REMARK       I    between atoms: N6_29  and  C18_31 
REMARK   16  A    between atoms: C18_31  and  C19_33 
REMARK   17  A    between atoms: N7_38  and  O2_39 
ROOT
HETATM    1  N1  UNL     1      21.974  17.079  33.398  1.00  0.00    -0.064 NA
HETATM    2  C1  UNL     1      22.263  18.164  34.270  1.00  0.00     0.183 C 
HETATM    3  N2  UNL     1      23.111  17.948  35.227  1.00  0.00    -0.365 N 
ATOM      4  H2  UNL     1      23.533  17.025  35.320  1.00  0.00     0.162 HD
HETATM    5  N5  UNL     1      21.712  19.456  34.144  1.00  0.00    -0.365 N 
ATOM      6  H5  UNL     1      22.353  20.243  34.049  1.00  0.00     0.162 HD
ENDROOT
BRANCH   3   7
HETATM    7  C2  UNL     1      23.473  18.999  36.173  1.00  0.00     0.122 C 
BRANCH   7   8
HETATM    8  C3  UNL     1      23.480  18.417  37.547  1.00  0.00     0.020 C 
BRANCH   8   9
HETATM    9  C4  UNL     1      24.431  19.175  38.466  1.00  0.00     0.012 C 
BRANCH   9  10
HETATM   10  C5  UNL     1      23.679  19.780  39.613  1.00  0.00     0.074 C 
BRANCH  10  11
HETATM   11  S1  UNL     1      24.261  19.175  41.173  1.00  0.00    -0.164 SA
BRANCH  11  12
HETATM   12  C6  UNL     1      25.581  17.982  41.159  1.00  0.00     0.118 C 
BRANCH  12  13
HETATM   13  C7  UNL     1      25.207  16.561  41.007  1.00  0.00     0.073 C 
BRANCH  13  14
HETATM   14  N3  UNL     1      26.083  15.689  40.328  1.00  0.00    -0.346 N 
ATOM     15  H3  UNL     1      26.861  15.401  40.921  1.00  0.00     0.167 HD
BRANCH  14  16
HETATM   16  C8  UNL     1      26.162  15.125  39.071  1.00  0.00     0.171 C 
HETATM   17  S2  UNL     1      25.315  13.641  38.961  1.00  0.00    -0.041 SA
BRANCH  16  18
HETATM   18  N4  UNL     1      26.764  15.484  37.892  1.00  0.00    -0.362 N 
ATOM     19  H4  UNL     1      27.781  15.406  37.931  1.00  0.00     0.162 HD
BRANCH  18  20
HETATM   20  C9  UNL     1      26.295  15.944  36.615  1.00  0.00     0.083 C 
HETATM   21  C10 UNL     1      26.515  14.995  35.510  1.00  0.00     0.025 C 
HETATM   22  C11 UNL     1      27.492  15.311  34.464  1.00  0.00     0.002 C 
HETATM   23  C12 UNL     1      28.155  16.646  34.501  1.00  0.00     0.000 C 
HETATM   24  C13 UNL     1      28.277  17.196  35.903  1.00  0.00     0.002 C 
HETATM   25  C14 UNL     1      26.855  17.330  36.396  1.00  0.00     0.025 C 
ENDBRANCH  18  20
ENDBRANCH  16  18
ENDBRANCH  14  16
ENDBRANCH  13  14
ENDBRANCH  12  13
ENDBRANCH  11  12
ENDBRANCH  10  11
ENDBRANCH   9  10
ENDBRANCH   8   9
ENDBRANCH   7   8
ENDBRANCH   3   7
BRANCH   5  26
HETATM   26  C15 UNL     1      20.323  19.725  34.143  1.00  0.00     0.123 C 
BRANCH  26  27
HETATM   27  C16 UNL     1      19.782  20.777  35.027  1.00  0.00     0.039 C 
BRANCH  27  28
HETATM   28  C17 UNL     1      18.360  21.165  34.899  1.00  0.00     0.124 C 
BRANCH  28  29
HETATM   29  N6  UNL     1      17.518  20.318  35.721  1.00  0.00    -0.357 N 
HETATM   30  C18 UNL     1      17.212  20.617  37.069  1.00  0.00     0.253 C 
HETATM   31  O1  UNL     1      17.719  21.690  37.546  1.00  0.00    -0.268 OA
ATOM     32  H6  UNL     1      17.130  19.469  35.309  1.00  0.00     0.162 HD
BRANCH  30  33
HETATM   33  C19 UNL     1      16.368  19.771  37.900  1.00  0.00     0.050 A 
HETATM   34  C20 UNL     1      16.817  18.692  38.622  1.00  0.00     0.023 A 
HETATM   35  C21 UNL     1      15.955  17.919  39.405  1.00  0.00     0.065 A 
HETATM   36  C22 UNL     1      14.614  18.225  39.472  1.00  0.00     0.214 A 
HETATM   37  F1  UNL     1      13.738  17.502  40.221  1.00  0.00    -0.184 F 
HETATM   38  N7  UNL     1      14.190  19.289  38.756  1.00  0.00    -0.208 N 
HETATM   39  C23 UNL     1      15.004  20.043  37.998  1.00  0.00     0.142 A 
BRANCH  38  40
HETATM   40  O2  UNL     1      12.830  19.582  38.837  1.00  0.00    -0.281 OA
ATOM     41  H2  UNL     1      12.527  20.315  38.314  1.00  0.00     0.245 HD
ENDBRANCH  38  40
ENDBRANCH  30  33
ENDBRANCH  28  29
ENDBRANCH  27  28
ENDBRANCH  26  27
ENDBRANCH   5  26
TORSDOF 17
ENDMDL
MODEL 2
REMARK VINA RESULT: -9.099364835      2.019      4.183
REMARK  17 active torsions:
REMARK  status: ('A' for Active; 'I' for Inactive)
REMARK       I    between atoms: C1_2  and  N5_24 
REMARK    1  A    between atoms: N2_3  and  C2_5 
REMARK    2  A    between atoms: C2_5  and  C3_6 
REMARK    3  A    between atoms: C3_6  and  C4_7 
REMARK    4  A    between atoms: C4_7  and  C5_8 
REMARK    5  A    between atoms: C5_8  and  S1_9 
REMARK    6  A    between atoms: S1_9  and  C6_10 
REMARK    7  A    between atoms: C6_10  and  C7_11 
REMARK    8  A    between atoms: C7_11  and  N3_12 
REMARK    9  A    between atoms: N3_12  and  C8_14 
REMARK   10  A    between atoms: C8_14  and  N4_16 
REMARK   11  A    between atoms: N4_16  and  C9_18 
REMARK   12  A    between atoms: N5_24  and  C15_26 
REMARK   13  A    between atoms: C15_26  and  C16_27 
REMARK   14  A    between atoms: C16_27  and  C17_28 
REMARK   15  A    between atoms: C17_28  and  N6_29 
REMARK       I    between atoms: N6_29  and  C18_31 
REMARK   16  A    between atoms: C18_31  and  C19_33 
REMARK   17  A    between atoms: N7_38  and  O2_39 
ROOT
HETATM    1  N1  UNL     1      19.268  16.556  34.112  1.00  0.00    -0.064 NA
HETATM    2  C1  UNL     1      20.472  16.915  34.776  1.00  0.00     0.183 C 
HETATM    3  N2  UNL     1      21.208  15.951  35.235  1.00  0.00    -0.365 N 
ATOM      4  H2  UNL     1      20.904  14.986  35.108  1.00  0.00     0.162 HD
HETATM    5  N5  UNL     1      20.927  18.239  34.940  1.00  0.00    -0.365 N 
ATOM      6  H5  UNL     1      21.850  18.478  34.577  1.00  0.00     0.162 HD
ENDROOT
BRANCH   3   7
HETATM    7  C2  UNL     1      22.464  16.218  35.931  1.00  0.00     0.122 C 
BRANCH   7   8
HETATM    8  C3  UNL     1      23.548  15.439  35.266  1.00  0.00     0.020 C 
BRANCH   8   9
HETATM    9  C4  UNL     1      24.185  14.441  36.228  1.00  0.00     0.012 C 
BRANCH   9  10
HETATM   10  C5  UNL     1      25.648  14.723  36.382  1.00  0.00     0.074 C 
BRANCH  10  11
HETATM   11  S1  UNL     1      26.413  15.101  34.829  1.00  0.00    -0.164 SA
BRANCH  11  12
HETATM   12  C6  UNL     1      27.716  16.313  34.821  1.00  0.00     0.118 C 
BRANCH  12  13
HETATM   13  C7  UNL     1      27.330  17.720  34.588  1.00  0.00     0.073 C 
BRANCH  13  14
HETATM   14  N3  UNL     1      25.979  18.095  34.736  1.00  0.00    -0.346 N 
ATOM     15  H3  UNL     1      25.408  17.759  33.960  1.00  0.00     0.167 HD
BRANCH  14  16
HETATM   16  C8  UNL     1      25.228  18.798  35.655  1.00  0.00     0.171 C 
HETATM   17  S2  UNL     1      24.133  19.887  34.916  1.00  0.00    -0.041 SA
BRANCH  16  18
HETATM   18  N4  UNL     1      25.159  18.821  37.026  1.00  0.00    -0.362 N 
ATOM     19  H4  UNL     1      26.017  19.167  37.455  1.00  0.00     0.162 HD
BRANCH  18  20
HETATM   20  C9  UNL     1      24.158  18.470  37.994  1.00  0.00     0.083 C 
HETATM   21  C10 UNL     1      23.684  19.600  38.812  1.00  0.00     0.025 C 
HETATM   22  C11 UNL     1      24.021  19.658  40.237  1.00  0.00     0.002 C 
HETATM   23  C12 UNL     1      24.750  18.502  40.835  1.00  0.00     0.000 C 
HETATM   24  C13 UNL     1      25.625  17.785  39.833  1.00  0.00     0.002 C 
HETATM   25  C14 UNL     1      24.674  17.282  38.772  1.00  0.00     0.025 C 
ENDBRANCH  18  20
ENDBRANCH  16  18
ENDBRANCH  14  16
ENDBRANCH  13  14
ENDBRANCH  12  13
ENDBRANCH  11  12
ENDBRANCH  10  11
ENDBRANCH   9  10
ENDBRANCH   8   9
ENDBRANCH   7   8
ENDBRANCH   3   7
BRANCH   5  26
HETATM   26  C15 UNL     1      20.181  19.257  35.579  1.00  0.00     0.123 C 
BRANCH  26  27
HETATM   27  C16 UNL     1      19.892  20.513  34.857  1.00  0.00     0.039 C 
BRANCH  27  28
HETATM   28  C17 UNL     1      18.518  21.062  34.887  1.00  0.00     0.124 C 
BRANCH  28  29
HETATM   29  N6  UNL     1      17.655  20.245  35.717  1.00  0.00    -0.357 N 
HETATM   30  C18 UNL     1      17.310  20.597  37.044  1.00  0.00     0.253 C 
HETATM   31  O1  UNL     1      17.801  21.689  37.492  1.00  0.00    -0.268 OA
ATOM     32  H6  UNL     1      17.280  19.380  35.328  1.00  0.00     0.162 HD
BRANCH  30  33
HETATM   33  C19 UNL     1      16.444  19.781  37.883  1.00  0.00     0.050 A 
HETATM   34  C20 UNL     1      16.853  18.666  38.574  1.00  0.00     0.023 A 
HETATM   35  C21 UNL     1      15.972  17.927  39.367  1.00  0.00     0.065 A 
HETATM   36  C22 UNL     1      14.652  18.302  39.477  1.00  0.00     0.214 A 
HETATM   37  F1  UNL     1      13.758  17.613  40.238  1.00  0.00    -0.184 F 
HETATM   38  N7  UNL     1      14.267  19.401  38.791  1.00  0.00    -0.208 N 
HETATM   39  C23 UNL     1      15.100  20.124  38.025  1.00  0.00     0.142 A 
BRANCH  38  40
HETATM   40  O2  UNL     1      12.928  19.765  38.915  1.00  0.00    -0.281 OA
ATOM     41  H2  UNL     1      12.302  19.230  38.442  1.00  0.00     0.245 HD
ENDBRANCH  38  40
ENDBRANCH  30  33
ENDBRANCH  28  29
ENDBRANCH  27  28
ENDBRANCH  26  27
ENDBRANCH   5  26
TORSDOF 17
ENDMDL
MODEL 3
REMARK VINA RESULT: -9.045307139      1.579      2.130
REMARK  17 active torsions:
REMARK  status: ('A' for Active; 'I' for Inactive)
REMARK       I    between atoms: C1_2  and  N5_24 
REMARK    1  A    between atoms: N2_3  and  C2_5 
REMARK    2  A    between atoms: C2_5  and  C3_6 
REMARK    3  A    between atoms: C3_6  and  C4_7 
REMARK    4  A    between atoms: C4_7  and  C5_8 
REMARK    5  A    between atoms: C5_8  and  S1_9 
REMARK    6  A    between atoms: S1_9  and  C6_10 
REMARK    7  A    between atoms: C6_10  and  C7_11 
REMARK    8  A    between atoms: C7_11  and  N3_12 
REMARK    9  A    between atoms: N3_12  and  C8_14 
REMARK   10  A    between atoms: C8_14  and  N4_16 
REMARK   11  A    between atoms: N4_16  and  C9_18 
REMARK   12  A    between atoms: N5_24  and  C15_26 
REMARK   13  A    between atoms: C15_26  and  C16_27 
REMARK   14  A    between atoms: C16_27  and  C17_28 
REMARK   15  A    between atoms: C17_28  and  N6_29 
REMARK       I    between atoms: N6_29  and  C18_31 
REMARK   16  A    between atoms: C18_31  and  C19_33 
REMARK   17  A    between atoms: N7_38  and  O2_39 
ROOT
HETATM    1  N1  UNL     1      21.364  17.833  33.429  1.00  0.00    -0.064 NA
HETATM    2  C1  UNL     1      22.248  18.458  34.351  1.00  0.00     0.183 C 
HETATM    3  N2  UNL     1      22.896  17.687  35.168  1.00  0.00    -0.365 N 
ATOM      4  H2  UNL     1      22.753  16.678  35.123  1.00  0.00     0.162 HD
HETATM    5  N5  UNL     1      22.482  19.846  34.415  1.00  0.00    -0.365 N 
ATOM      6  H5  UNL     1      23.441  20.176  34.310  1.00  0.00     0.162 HD
ENDROOT
BRANCH   3   7
HETATM    7  C2  UNL     1      23.827  18.233  36.152  1.00  0.00     0.122 C 
BRANCH   7   8
HETATM    8  C3  UNL     1      23.208  18.114  37.504  1.00  0.00     0.020 C 
BRANCH   8   9
HETATM    9  C4  UNL     1      22.961  19.486  38.124  1.00  0.00     0.012 C 
BRANCH   9  10
HETATM   10  C5  UNL     1      24.173  19.947  38.875  1.00  0.00     0.074 C 
BRANCH  10  11
HETATM   11  S1  UNL     1      24.088  19.514  40.591  1.00  0.00    -0.164 SA
BRANCH  11  12
HETATM   12  C6  UNL     1      25.205  18.264  41.186  1.00  0.00     0.118 C 
BRANCH  12  13
HETATM   13  C7  UNL     1      25.324  17.026  40.388  1.00  0.00     0.073 C 
BRANCH  13  14
HETATM   14  N3  UNL     1      26.193  17.006  39.278  1.00  0.00    -0.346 N 
ATOM     15  H3  UNL     1      26.842  17.793  39.294  1.00  0.00     0.167 HD
BRANCH  14  16
HETATM   16  C8  UNL     1      26.394  16.200  38.176  1.00  0.00     0.171 C 
HETATM   17  S2  UNL     1      27.206  17.013  36.906  1.00  0.00    -0.041 SA
BRANCH  16  18
HETATM   18  N4  UNL     1      26.093  14.897  37.869  1.00  0.00    -0.362 N 
ATOM     19  H4  UNL     1      26.924  14.338  37.677  1.00  0.00     0.162 HD
BRANCH  18  20
HETATM   20  C9  UNL     1      24.878  14.140  37.755  1.00  0.00     0.083 C 
HETATM   21  C10 UNL     1      25.013  12.720  38.126  1.00  0.00     0.025 C 
HETATM   22  C11 UNL     1      24.913  11.686  37.092  1.00  0.00     0.002 C 
HETATM   23  C12 UNL     1      24.568  12.110  35.704  1.00  0.00     0.000 C 
HETATM   24  C13 UNL     1      25.035  13.513  35.392  1.00  0.00     0.002 C 
HETATM   25  C14 UNL     1      24.309  14.396  36.380  1.00  0.00     0.025 C 
ENDBRANCH  18  20
ENDBRANCH  16  18
ENDBRANCH  14  16
ENDBRANCH  13  14
ENDBRANCH  12  13
ENDBRANCH  11  12
ENDBRANCH  10  11
ENDBRANCH   9  10
ENDBRANCH   8   9
ENDBRANCH   7   8
ENDBRANCH   3   7
BRANCH   5  26
HETATM   26  C15 UNL     1      21.466  20.810  34.615  1.00  0.00     0.123 C 
BRANCH  26  27
HETATM   27  C16 UNL     1      20.356  20.519  35.544  1.00  0.00     0.039 C 
BRANCH  27  28
HETATM   28  C17 UNL     1      18.963  20.713  35.085  1.00  0.00     0.124 C 
BRANCH  28  29
HETATM   29  N6  UNL     1      18.039  19.953  35.904  1.00  0.00    -0.357 N 
HETATM   30  C18 UNL     1      17.446  20.476  37.078  1.00  0.00     0.253 C 
HETATM   31  O1  UNL     1      17.764  21.673  37.395  1.00  0.00    -0.268 OA
ATOM     32  H6  UNL     1      17.807  19.001  35.623  1.00  0.00     0.162 HD
BRANCH  30  33
HETATM   33  C19 UNL     1      16.518  19.719  37.905  1.00  0.00     0.050 A 
HETATM   34  C20 UNL     1      16.851  18.592  38.618  1.00  0.00     0.023 A 
HETATM   35  C21 UNL     1      15.913  17.911  39.398  1.00  0.00     0.065 A 
HETATM   36  C22 UNL     1      14.613  18.358  39.472  1.00  0.00     0.214 A 
HETATM   37  F1  UNL     1      13.667  17.727  40.219  1.00  0.00    -0.184 F 
HETATM   38  N7  UNL     1      14.304  19.466  38.765  1.00  0.00    -0.208 N 
HETATM   39  C23 UNL     1      15.192  20.135  38.011  1.00  0.00     0.142 A 
BRANCH  38  40
HETATM   40  O2  UNL     1      12.983  19.903  38.853  1.00  0.00    -0.281 OA
ATOM     41  H2  UNL     1      12.842  20.836  38.745  1.00  0.00     0.245 HD
ENDBRANCH  38  40
ENDBRANCH  30  33
ENDBRANCH  28  29
ENDBRANCH  27  28
ENDBRANCH  26  27
ENDBRANCH   5  26
TORSDOF 17
ENDMDL
MODEL 4
REMARK VINA RESULT: -9.042762862      1.709      3.425
REMARK  17 active torsions:
REMARK  status: ('A' for Active; 'I' for Inactive)
REMARK       I    between atoms: C1_2  and  N5_24 
REMARK    1  A    between atoms: N2_3  and  C2_5 
REMARK    2  A    between atoms: C2_5  and  C3_6 
REMARK    3  A    between atoms: C3_6  and  C4_7 
REMARK    4  A    between atoms: C4_7  and  C5_8 
REMARK    5  A    between atoms: C5_8  and  S1_9 
REMARK    6  A    between atoms: S1_9  and  C6_10 
REMARK    7  A    between atoms: C6_10  and  C7_11 
REMARK    8  A    between atoms: C7_11  and  N3_12 
REMARK    9  A    between atoms: N3_12  and  C8_14 
REMARK   10  A    between atoms: C8_14  and  N4_16 
REMARK   11  A    between atoms: N4_16  and  C9_18 
REMARK   12  A    between atoms: N5_24  and  C15_26 
REMARK   13  A    between atoms: C15_26  and  C16_27 
REMARK   14  A    between atoms: C16_27  and  C17_28 
REMARK   15  A    between atoms: C17_28  and  N6_29 
REMARK       I    between atoms: N6_29  and  C18_31 
REMARK   16  A    between atoms: C18_31  and  C19_33 
REMARK   17  A    between atoms: N7_38  and  O2_39 
ROOT
HETATM    1  N1  UNL     1      19.407  16.639  34.152  1.00  0.00    -0.064 NA
HETATM    2  C1  UNL     1      20.780  16.723  34.514  1.00  0.00     0.183 C 
HETATM    3  N2  UNL     1      21.263  15.762  35.238  1.00  0.00    -0.365 N 
ATOM      4  H2  UNL     1      20.655  14.993  35.519  1.00  0.00     0.162 HD
HETATM    5  N5  UNL     1      21.647  17.760  34.116  1.00  0.00    -0.365 N 
ATOM      6  H5  UNL     1      22.494  17.509  33.606  1.00  0.00     0.162 HD
ENDROOT
BRANCH   3   7
HETATM    7  C2  UNL     1      22.661  15.757  35.661  1.00  0.00     0.122 C 
BRANCH   7   8
HETATM    8  C3  UNL     1      23.066  14.349  35.940  1.00  0.00     0.020 C 
BRANCH   8   9
HETATM    9  C4  UNL     1      24.324  13.970  35.166  1.00  0.00     0.012 C 
BRANCH   9  10
HETATM   10  C5  UNL     1      25.349  15.058  35.268  1.00  0.00     0.074 C 
BRANCH  10  11
HETATM   11  S1  UNL     1      26.611  14.665  36.447  1.00  0.00    -0.164 SA
BRANCH  11  12
HETATM   12  C6  UNL     1      26.118  13.838  37.944  1.00  0.00     0.118 C 
BRANCH  12  13
HETATM   13  C7  UNL     1      25.615  14.680  39.048  1.00  0.00     0.073 C 
BRANCH  13  14
HETATM   14  N3  UNL     1      26.158  15.969  39.231  1.00  0.00    -0.346 N 
ATOM     15  H3  UNL     1      27.177  15.944  39.285  1.00  0.00     0.167 HD
BRANCH  14  16
HETATM   16  C8  UNL     1      25.672  17.254  39.355  1.00  0.00     0.171 C 
HETATM   17  S2  UNL     1      25.337  17.676  40.980  1.00  0.00    -0.041 SA
BRANCH  16  18
HETATM   18  N4  UNL     1      25.397  18.269  38.473  1.00  0.00    -0.362 N 
ATOM     19  H4  UNL     1      26.060  19.041  38.546  1.00  0.00     0.162 HD
BRANCH  18  20
HETATM   20  C9  UNL     1      24.393  18.495  37.472  1.00  0.00     0.083 C 
HETATM   21  C10 UNL     1      24.917  18.582  36.097  1.00  0.00     0.025 C 
HETATM   22  C11 UNL     1      24.893  19.865  35.390  1.00  0.00     0.002 C 
HETATM   23  C12 UNL     1      24.233  21.024  36.058  1.00  0.00     0.000 C 
HETATM   24  C13 UNL     1      24.299  20.941  37.565  1.00  0.00     0.002 C 
HETATM   25  C14 UNL     1      23.560  19.672  37.920  1.00  0.00     0.025 C 
ENDBRANCH  18  20
ENDBRANCH  16  18
ENDBRANCH  14  16
ENDBRANCH  13  14
ENDBRANCH  12  13
ENDBRANCH  11  12
ENDBRANCH  10  11
ENDBRANCH   9  10
ENDBRANCH   8   9
ENDBRANCH   7   8
ENDBRANCH   3   7
BRANCH   5  26
HETATM   26  C15 UNL     1      21.413  19.130  34.380  1.00  0.00     0.123 C 
BRANCH  26  27
HETATM   27  C16 UNL     1      20.899  19.541  35.702  1.00  0.00     0.039 C 
BRANCH  27  28
HETATM   28  C17 UNL     1      19.657  20.342  35.776  1.00  0.00     0.124 C 
BRANCH  28  29
HETATM   29  N6  UNL     1      18.641  19.649  36.542  1.00  0.00    -0.357 N 
HETATM   30  C18 UNL     1      17.612  20.325  37.240  1.00  0.00     0.253 C 
HETATM   31  O1  UNL     1      17.614  21.601  37.165  1.00  0.00    -0.268 OA
ATOM     32  H6  UNL     1      18.669  18.630  36.581  1.00  0.00     0.162 HD
BRANCH  30  33
HETATM   33  C19 UNL     1      16.589  19.635  38.012  1.00  0.00     0.050 A 
HETATM   34  C20 UNL     1      16.784  18.452  38.683  1.00  0.00     0.023 A 
HETATM   35  C21 UNL     1      15.760  17.840  39.411  1.00  0.00     0.065 A 
HETATM   36  C22 UNL     1      14.511  18.417  39.474  1.00  0.00     0.214 A 
HETATM   37  F1  UNL     1      13.485  17.858  40.171  1.00  0.00    -0.184 F 
HETATM   38  N7  UNL     1      14.337  19.579  38.808  1.00  0.00    -0.208 N 
HETATM   39  C23 UNL     1      15.310  20.182  38.104  1.00  0.00     0.142 A 
BRANCH  38  40
HETATM   40  O2  UNL     1      13.067  20.147  38.885  1.00  0.00    -0.281 OA
ATOM     41  H2  UNL     1      12.960  20.993  38.466  1.00  0.00     0.245 HD
ENDBRANCH  38  40
ENDBRANCH  30  33
ENDBRANCH  28  29
ENDBRANCH  27  28
ENDBRANCH  26  27
ENDBRANCH   5  26
TORSDOF 17
ENDMDL
MODEL 5
REMARK VINA RESULT: -9.038516501      4.059      9.518
REMARK  17 active torsions:
REMARK  status: ('A' for Active; 'I' for Inactive)
REMARK       I    between atoms: C1_2  and  N5_24 
REMARK    1  A    between atoms: N2_3  and  C2_5 
REMARK    2  A    between atoms: C2_5  and  C3_6 
REMARK    3  A    between atoms: C3_6  and  C4_7 
REMARK    4  A    between atoms: C4_7  and  C5_8 
REMARK    5  A    between atoms: C5_8  and  S1_9 
REMARK    6  A    between atoms: S1_9  and  C6_10 
REMARK    7  A    between atoms: C6_10  and  C7_11 
REMARK    8  A    between atoms: C7_11  and  N3_12 
REMARK    9  A    between atoms: N3_12  and  C8_14 
REMARK   10  A    between atoms: C8_14  and  N4_16 
REMARK   11  A    between atoms: N4_16  and  C9_18 
REMARK   12  A    between atoms: N5_24  and  C15_26 
REMARK   13  A    between atoms: C15_26  and  C16_27 
REMARK   14  A    between atoms: C16_27  and  C17_28 
REMARK   15  A    between atoms: C17_28  and  N6_29 
REMARK       I    between atoms: N6_29  and  C18_31 
REMARK   16  A    between atoms: C18_31  and  C19_33 
REMARK   17  A    between atoms: N7_38  and  O2_39 
ROOT
HETATM    1  N1  UNL     1      24.258  11.871  33.993  1.00  0.00    -0.064 NA
HETATM    2  C1  UNL     1      23.637  12.762  34.910  1.00  0.00     0.183 C 
HETATM    3  N2  UNL     1      22.618  13.440  34.483  1.00  0.00    -0.365 N 
ATOM      4  H2  UNL     1      22.302  13.315  33.522  1.00  0.00     0.162 HD
HETATM    5  N5  UNL     1      24.038  12.932  36.251  1.00  0.00    -0.365 N 
ATOM      6  H5  UNL     1      23.347  12.770  36.983  1.00  0.00     0.162 HD
ENDROOT
BRANCH   3   7
HETATM    7  C2  UNL     1      21.913  14.380  35.350  1.00  0.00     0.122 C 
BRANCH   7   8
HETATM    8  C3  UNL     1      22.229  15.767  34.900  1.00  0.00     0.020 C 
BRANCH   8   9
HETATM    9  C4  UNL     1      22.824  16.596  36.033  1.00  0.00     0.012 C 
BRANCH   9  10
HETATM   10  C5  UNL     1      23.715  17.669  35.486  1.00  0.00     0.074 C 
BRANCH  10  11
HETATM   11  S1  UNL     1      23.088  19.288  35.833  1.00  0.00    -0.164 SA
BRANCH  11  12
HETATM   12  C6  UNL     1      21.647  19.413  36.870  1.00  0.00     0.118 C 
BRANCH  12  13
HETATM   13  C7  UNL     1      20.329  19.374  36.205  1.00  0.00     0.073 C 
BRANCH  13  14
HETATM   14  N3  UNL     1      19.187  19.792  36.919  1.00  0.00    -0.346 N 
ATOM     15  H3  UNL     1      19.345  19.772  37.927  1.00  0.00     0.167 HD
BRANCH  14  16
HETATM   16  C8  UNL     1      17.912  20.220  36.611  1.00  0.00     0.171 C 
HETATM   17  S2  UNL     1      17.874  21.239  35.236  1.00  0.00    -0.041 SA
BRANCH  16  18
HETATM   18  N4  UNL     1      16.670  20.013  37.156  1.00  0.00    -0.362 N 
ATOM     19  H4  UNL     1      15.948  19.884  36.447  1.00  0.00     0.162 HD
BRANCH  18  20
HETATM   20  C9  UNL     1      16.152  19.936  38.493  1.00  0.00     0.083 C 
HETATM   21  C10 UNL     1      16.385  18.643  39.160  1.00  0.00     0.025 C 
HETATM   22  C11 UNL     1      15.254  17.752  39.435  1.00  0.00     0.002 C 
HETATM   23  C12 UNL     1      13.881  18.242  39.121  1.00  0.00     0.000 C 
HETATM   24  C13 UNL     1      13.862  19.230  37.979  1.00  0.00     0.002 C 
HETATM   25  C14 UNL     1      14.711  20.388  38.450  1.00  0.00     0.025 C 
ENDBRANCH  18  20
ENDBRANCH  16  18
ENDBRANCH  14  16
ENDBRANCH  13  14
ENDBRANCH  12  13
ENDBRANCH  11  12
ENDBRANCH  10  11
ENDBRANCH   9  10
ENDBRANCH   8   9
ENDBRANCH   7   8
ENDBRANCH   3   7
BRANCH   5  26
HETATM   26  C15 UNL     1      25.343  13.314  36.642  1.00  0.00     0.123 C 
BRANCH  26  27
HETATM   27  C16 UNL     1      25.888  14.613  36.197  1.00  0.00     0.039 C 
BRANCH  27  28
HETATM   28  C17 UNL     1      26.851  15.326  37.065  1.00  0.00     0.124 C 
BRANCH  28  29
HETATM   29  N6  UNL     1      26.214  16.447  37.729  1.00  0.00    -0.357 N 
HETATM   30  C18 UNL     1      25.844  16.419  39.095  1.00  0.00     0.253 C 
HETATM   31  O1  UNL     1      26.098  15.342  39.735  1.00  0.00    -0.268 OA
ATOM     32  H6  UNL     1      26.026  17.291  37.189  1.00  0.00     0.162 HD
BRANCH  30  33
HETATM   33  C19 UNL     1      25.204  17.541  39.767  1.00  0.00     0.050 A 
HETATM   34  C20 UNL     1      24.669  18.632  39.126  1.00  0.00     0.023 A 
HETATM   35  C21 UNL     1      24.064  19.676  39.830  1.00  0.00     0.065 A 
HETATM   36  C22 UNL     1      23.989  19.637  41.204  1.00  0.00     0.214 A 
HETATM   37  F1  UNL     1      23.409  20.631  41.932  1.00  0.00    -0.184 F 
HETATM   38  N7  UNL     1      24.521  18.557  41.818  1.00  0.00    -0.208 N 
HETATM   39  C23 UNL     1      25.105  17.544  41.158  1.00  0.00     0.142 A 
BRANCH  38  40
HETATM   40  O2  UNL     1      24.434  18.537  43.209  1.00  0.00    -0.281 OA
ATOM     41  H2  UNL     1      23.966  17.803  43.589  1.00  0.00     0.245 HD
ENDBRANCH  38  40
ENDBRANCH  30  33
ENDBRANCH  28  29
ENDBRANCH  27  28
ENDBRANCH  26  27
ENDBRANCH   5  26
TORSDOF 17
ENDMDL
