MODEL 1
REMARK VINA RESULT: -8.412295755      0.000      0.000
REMARK  13 active torsions:
REMARK  status: ('A' for Active; 'I' for Inactive)
REMARK    1  A    between atoms: O1_2  and  C2_3 
REMARK    2  A    between atoms: C2_3  and  C3_4 
REMARK    3  A    between atoms: C7_10  and  N2_11 
REMARK    4  A    between atoms: N2_11  and  C8_13 
REMARK    5  A    between atoms: C8_13  and  C9_14 
REMARK    6  A    between atoms: C9_14  and  C10_15 
REMARK    7  A    between atoms: C10_15  and  N3_16 
REMARK    8  A    between atoms: N3_16  and  C11_18 
REMARK    9  A    between atoms: C11_18  and  C12_19 
REMARK   10  A    between atoms: C12_19  and  N4_20 
REMARK   11  A    between atoms: N4_20  and  C13_23 
REMARK   12  A    between atoms: C13_23  and  C14_24 
REMARK   13  A    between atoms: C14_24  and  N5_25 
REMARK       I    between atoms: N5_25  and  C15_27 
ROOT
HETATM    1  C9  UNL     1     -21.342 -20.697 -45.057  1.00  0.00     0.064 C 
ENDROOT
BRANCH   1   2
HETATM    2  C8  UNL     1     -22.562 -21.608 -45.131  1.00  0.00     0.143 C 
BRANCH   2   3
HETATM    3  N2  UNL     1     -23.777 -20.918 -44.772  1.00  0.00    -0.226 N 
ATOM      4  H2  UNL     1     -24.383 -20.514 -45.486  1.00  0.00     0.177 HD
BRANCH   3   5
HETATM    5  C7  UNL     1     -24.080 -20.825 -43.501  1.00  0.00     0.679 A 
HETATM    6  N1  UNL     1     -24.892 -21.609 -42.772  1.00  0.00    -0.190 N 
HETATM    7  C6  UNL     1     -24.947 -21.183 -41.492  1.00  0.00     0.076 A 
ATOM      8  H1  UNL     1     -25.399 -22.415 -43.136  1.00  0.00     0.184 HD
HETATM    9  C5  UNL     1     -25.631 -21.657 -40.393  1.00  0.00     0.033 A 
HETATM   10  C16 UNL     1     -24.127 -20.071 -41.407  1.00  0.00     0.077 A 
HETATM   11  C4  UNL     1     -25.504 -21.017 -39.176  1.00  0.00     0.012 A 
HETATM   12  C3  UNL     1     -24.674 -19.896 -39.104  1.00  0.00    -0.032 A 
HETATM   13  C17 UNL     1     -23.989 -19.420 -40.199  1.00  0.00     0.041 A 
HETATM   14  N8  UNL     1     -23.622 -19.886 -42.637  1.00  0.00    -0.190 N 
ATOM     15  H8  UNL     1     -22.979 -19.135 -42.889  1.00  0.00     0.184 HD
BRANCH  12  16
HETATM   16  C2  UNL     1     -24.536 -19.219 -37.795  1.00  0.00     0.205 C 
BRANCH  16  17
HETATM   17  O1  UNL     1     -24.539 -20.145 -36.784  1.00  0.00    -0.391 OA
HETATM   18  C1  UNL     1     -23.500 -19.893 -35.914  1.00  0.00     0.201 C 
ENDBRANCH  16  17
ENDBRANCH  12  16
ENDBRANCH   3   5
ENDBRANCH   2   3
ENDBRANCH   1   2
BRANCH   1  19
HETATM   19  C10 UNL     1     -20.269 -21.197 -46.003  1.00  0.00     0.057 C 
BRANCH  19  20
HETATM   20  N3  UNL     1     -19.027 -21.488 -45.427  1.00  0.00    -0.401 N 
ATOM     21  H3  UNL     1     -18.375 -22.130 -45.878  1.00  0.00     0.158 HD
BRANCH  20  22
HETATM   22  C11 UNL     1     -18.706 -20.863 -44.197  1.00  0.00     0.146 C 
BRANCH  22  23
HETATM   23  C12 UNL     1     -17.351 -21.097 -43.630  1.00  0.00     0.251 C 
BRANCH  23  24
HETATM   24  N4  UNL     1     -16.822 -20.099 -42.762  1.00  0.00    -0.072 N 
ATOM     25  H42 UNL     1     -15.962 -20.430 -42.324  1.00  0.00     0.277 HD
ATOM     26  H41 UNL     1     -16.453 -19.317 -43.303  1.00  0.00     0.277 HD
BRANCH  24  27
HETATM   27  C13 UNL     1     -17.733 -19.629 -41.771  1.00  0.00     0.252 C 
BRANCH  27  28
HETATM   28  C14 UNL     1     -17.127 -19.592 -40.362  1.00  0.00     0.150 C 
BRANCH  28  29
HETATM   29  N5  UNL     1     -16.881 -21.001 -40.009  1.00  0.00    -0.363 N 
HETATM   30  C15 UNL     1     -15.565 -21.510 -39.861  1.00  0.00     0.181 C 
HETATM   31  N6  UNL     1     -15.350 -22.529 -39.121  1.00  0.00    -0.374 N 
HETATM   32  N7  UNL     1     -14.474 -20.869 -40.553  1.00  0.00    -0.064 NA
ATOM     33  H62 UNL     1     -16.123 -22.983 -38.632  1.00  0.00     0.158 HD
ATOM     34  H61 UNL     1     -14.404 -22.896 -39.015  1.00  0.00     0.158 HD
ATOM     35  H5  UNL     1     -17.676 -21.624 -39.867  1.00  0.00     0.162 HD
ENDBRANCH  28  29
ENDBRANCH  27  28
ENDBRANCH  24  27
ENDBRANCH  23  24
ENDBRANCH  22  23
ENDBRANCH  20  22
ENDBRANCH  19  20
ENDBRANCH   1  19
TORSDOF 13
ENDMDL
MODEL 2
REMARK VINA RESULT: -8.406800931      1.074      1.340
REMARK  13 active torsions:
REMARK  status: ('A' for Active; 'I' for Inactive)
REMARK    1  A    between atoms: O1_2  and  C2_3 
REMARK    2  A    between atoms: C2_3  and  C3_4 
REMARK    3  A    between atoms: C7_10  and  N2_11 
REMARK    4  A    between atoms: N2_11  and  C8_13 
REMARK    5  A    between atoms: C8_13  and  C9_14 
REMARK    6  A    between atoms: C9_14  and  C10_15 
REMARK    7  A    between atoms: C10_15  and  N3_16 
REMARK    8  A    between atoms: N3_16  and  C11_18 
REMARK    9  A    between atoms: C11_18  and  C12_19 
REMARK   10  A    between atoms: C12_19  and  N4_20 
REMARK   11  A    between atoms: N4_20  and  C13_23 
REMARK   12  A    between atoms: C13_23  and  C14_24 
REMARK   13  A    between atoms: C14_24  and  N5_25 
REMARK       I    between atoms: N5_25  and  C15_27 
ROOT
HETATM    1  C9  UNL     1     -21.439 -22.026 -46.122  1.00  0.00     0.064 C 
ENDROOT
BRANCH   1   2
HETATM    2  C8  UNL     1     -22.745 -21.573 -45.481  1.00  0.00     0.143 C 
BRANCH   2   3
HETATM    3  N2  UNL     1     -22.565 -20.413 -44.643  1.00  0.00    -0.226 N 
ATOM      4  H2  UNL     1     -22.025 -19.610 -44.965  1.00  0.00     0.177 HD
BRANCH   3   5
HETATM    5  C7  UNL     1     -23.115 -20.421 -43.453  1.00  0.00     0.679 A 
HETATM    6  N1  UNL     1     -24.177 -21.122 -43.024  1.00  0.00    -0.190 N 
HETATM    7  C6  UNL     1     -24.437 -20.853 -41.728  1.00  0.00     0.076 A 
ATOM      8  H1  UNL     1     -24.715 -21.770 -43.601  1.00  0.00     0.184 HD
HETATM    9  C5  UNL     1     -25.407 -21.322 -40.866  1.00  0.00     0.033 A 
HETATM   10  C16 UNL     1     -23.489 -19.933 -41.314  1.00  0.00     0.077 A 
HETATM   11  C4  UNL     1     -25.444 -20.870 -39.562  1.00  0.00     0.012 A 
HETATM   12  C3  UNL     1     -24.482 -19.941 -39.158  1.00  0.00    -0.032 A 
HETATM   13  C17 UNL     1     -23.512 -19.472 -40.015  1.00  0.00     0.041 A 
HETATM   14  N8  UNL     1     -22.710 -19.696 -42.382  1.00  0.00    -0.190 N 
ATOM     15  H8  UNL     1     -21.918 -19.054 -42.386  1.00  0.00     0.184 HD
BRANCH  12  16
HETATM   16  C2  UNL     1     -24.523 -19.467 -37.757  1.00  0.00     0.205 C 
BRANCH  16  17
HETATM   17  O1  UNL     1     -25.596 -18.634 -37.573  1.00  0.00    -0.391 OA
HETATM   18  C1  UNL     1     -25.249 -17.341 -37.905  1.00  0.00     0.201 C 
ENDBRANCH  16  17
ENDBRANCH  12  16
ENDBRANCH   3   5
ENDBRANCH   2   3
ENDBRANCH   1   2
BRANCH   1  19
HETATM   19  C10 UNL     1     -20.351 -21.007 -45.850  1.00  0.00     0.057 C 
BRANCH  19  20
HETATM   20  N3  UNL     1     -19.106 -21.521 -45.469  1.00  0.00    -0.401 N 
ATOM     21  H3  UNL     1     -18.551 -22.085 -46.112  1.00  0.00     0.158 HD
BRANCH  20  22
HETATM   22  C11 UNL     1     -18.644 -21.233 -44.161  1.00  0.00     0.146 C 
BRANCH  22  23
HETATM   23  C12 UNL     1     -19.036 -19.933 -43.555  1.00  0.00     0.251 C 
BRANCH  23  24
HETATM   24  N4  UNL     1     -18.352 -19.527 -42.373  1.00  0.00    -0.072 N 
ATOM     25  H42 UNL     1     -17.835 -18.663 -42.542  1.00  0.00     0.277 HD
ATOM     26  H41 UNL     1     -19.018 -19.200 -41.673  1.00  0.00     0.277 HD
BRANCH  24  27
HETATM   27  C13 UNL     1     -17.493 -20.517 -41.815  1.00  0.00     0.252 C 
BRANCH  27  28
HETATM   28  C14 UNL     1     -16.068 -20.008 -41.564  1.00  0.00     0.150 C 
BRANCH  28  29
HETATM   29  N5  UNL     1     -15.338 -21.159 -41.005  1.00  0.00    -0.363 N 
HETATM   30  C15 UNL     1     -15.426 -21.497 -39.630  1.00  0.00     0.181 C 
HETATM   31  N6  UNL     1     -15.215 -22.698 -39.249  1.00  0.00    -0.374 N 
HETATM   32  N7  UNL     1     -15.758 -20.475 -38.668  1.00  0.00    -0.064 NA
ATOM     33  H62 UNL     1     -14.980 -23.421 -39.930  1.00  0.00     0.158 HD
ATOM     34  H61 UNL     1     -15.278 -22.941 -38.260  1.00  0.00     0.158 HD
ATOM     35  H5  UNL     1     -14.755 -21.726 -41.622  1.00  0.00     0.162 HD
ENDBRANCH  28  29
ENDBRANCH  27  28
ENDBRANCH  24  27
ENDBRANCH  23  24
ENDBRANCH  22  23
ENDBRANCH  20  22
ENDBRANCH  19  20
ENDBRANCH   1  19
TORSDOF 13
ENDMDL
MODEL 3
REMARK VINA RESULT: -8.304209244      1.442      1.738
REMARK  13 active torsions:
REMARK  status: ('A' for Active; 'I' for Inactive)
REMARK    1  A    between atoms: O1_2  and  C2_3 
REMARK    2  A    between atoms: C2_3  and  C3_4 
REMARK    3  A    between atoms: C7_10  and  N2_11 
REMARK    4  A    between atoms: N2_11  and  C8_13 
REMARK    5  A    between atoms: C8_13  and  C9_14 
REMARK    6  A    between atoms: C9_14  and  C10_15 
REMARK    7  A    between atoms: C10_15  and  N3_16 
REMARK    8  A    between atoms: N3_16  and  C11_18 
REMARK    9  A    between atoms: C11_18  and  C12_19 
REMARK   10  A    between atoms: C12_19  and  N4_20 
REMARK   11  A    between atoms: N4_20  and  C13_23 
REMARK   12  A    between atoms: C13_23  and  C14_24 
REMARK   13  A    between atoms: C14_24  and  N5_25 
REMARK       I    between atoms: N5_25  and  C15_27 
ROOT
HETATM    1  C9  UNL     1     -20.798 -21.624 -46.220  1.00  0.00     0.064 C 
ENDROOT
BRANCH   1   2
HETATM    2  C8  UNL     1     -22.057 -21.987 -45.441  1.00  0.00     0.143 C 
BRANCH   2   3
HETATM    3  N2  UNL     1     -22.826 -20.821 -45.079  1.00  0.00    -0.226 N 
ATOM      4  H2  UNL     1     -22.994 -20.073 -45.751  1.00  0.00     0.177 HD
BRANCH   3   5
HETATM    5  C7  UNL     1     -23.303 -20.751 -43.861  1.00  0.00     0.679 A 
HETATM    6  N1  UNL     1     -24.349 -21.407 -43.330  1.00  0.00    -0.190 N 
HETATM    7  C6  UNL     1     -24.525 -21.060 -42.038  1.00  0.00     0.076 A 
ATOM      8  H1  UNL     1     -24.930 -22.076 -43.835  1.00  0.00     0.184 HD
HETATM    9  C5  UNL     1     -25.449 -21.461 -41.095  1.00  0.00     0.033 A 
HETATM   10  C16 UNL     1     -23.541 -20.136 -41.735  1.00  0.00     0.077 A 
HETATM   11  C4  UNL     1     -25.401 -20.935 -39.819  1.00  0.00     0.012 A 
HETATM   12  C3  UNL     1     -24.401 -20.004 -39.527  1.00  0.00    -0.032 A 
HETATM   13  C17 UNL     1     -23.478 -19.602 -40.465  1.00  0.00     0.041 A 
HETATM   14  N8  UNL     1     -22.824 -19.975 -42.859  1.00  0.00    -0.190 N 
ATOM     15  H8  UNL     1     -22.023 -19.349 -42.946  1.00  0.00     0.184 HD
BRANCH  12  16
HETATM   16  C2  UNL     1     -24.351 -19.451 -38.156  1.00  0.00     0.205 C 
BRANCH  16  17
HETATM   17  O1  UNL     1     -24.319 -20.468 -37.238  1.00  0.00    -0.391 OA
HETATM   18  C1  UNL     1     -23.741 -20.027 -36.066  1.00  0.00     0.201 C 
ENDBRANCH  16  17
ENDBRANCH  12  16
ENDBRANCH   3   5
ENDBRANCH   2   3
ENDBRANCH   1   2
BRANCH   1  19
HETATM   19  C10 UNL     1     -19.856 -20.833 -45.337  1.00  0.00     0.057 C 
BRANCH  19  20
HETATM   20  N3  UNL     1     -18.743 -21.527 -44.847  1.00  0.00    -0.401 N 
ATOM     21  H3  UNL     1     -18.553 -22.487 -45.134  1.00  0.00     0.158 HD
BRANCH  20  22
HETATM   22  C11 UNL     1     -17.889 -20.852 -43.941  1.00  0.00     0.146 C 
BRANCH  22  23
HETATM   23  C12 UNL     1     -18.518 -20.049 -42.858  1.00  0.00     0.251 C 
BRANCH  23  24
HETATM   24  N4  UNL     1     -17.786 -19.896 -41.645  1.00  0.00    -0.072 N 
ATOM     25  H42 UNL     1     -17.382 -18.961 -41.591  1.00  0.00     0.277 HD
ATOM     26  H41 UNL     1     -18.423 -19.858 -40.849  1.00  0.00     0.277 HD
BRANCH  24  27
HETATM   27  C13 UNL     1     -16.782 -20.884 -41.429  1.00  0.00     0.252 C 
BRANCH  27  28
HETATM   28  C14 UNL     1     -15.368 -20.296 -41.328  1.00  0.00     0.150 C 
BRANCH  28  29
HETATM   29  N5  UNL     1     -15.500 -19.119 -40.451  1.00  0.00    -0.363 N 
HETATM   30  C15 UNL     1     -14.393 -18.279 -40.167  1.00  0.00     0.181 C 
HETATM   31  N6  UNL     1     -14.580 -17.059 -39.836  1.00  0.00    -0.374 N 
HETATM   32  N7  UNL     1     -13.055 -18.812 -40.256  1.00  0.00    -0.064 NA
ATOM     33  H62 UNL     1     -15.527 -16.682 -39.773  1.00  0.00     0.158 HD
ATOM     34  H61 UNL     1     -13.784 -16.455 -39.632  1.00  0.00     0.158 HD
ATOM     35  H5  UNL     1     -16.408 -18.904 -40.040  1.00  0.00     0.162 HD
ENDBRANCH  28  29
ENDBRANCH  27  28
ENDBRANCH  24  27
ENDBRANCH  23  24
ENDBRANCH  22  23
ENDBRANCH  20  22
ENDBRANCH  19  20
ENDBRANCH   1  19
TORSDOF 13
ENDMDL
MODEL 4
REMARK VINA RESULT: -8.156095805      2.646      4.270
REMARK  13 active torsions:
REMARK  status: ('A' for Active; 'I' for Inactive)
REMARK    1  A    between atoms: O1_2  and  C2_3 
REMARK    2  A    between atoms: C2_3  and  C3_4 
REMARK    3  A    between atoms: C7_10  and  N2_11 
REMARK    4  A    between atoms: N2_11  and  C8_13 
REMARK    5  A    between atoms: C8_13  and  C9_14 
REMARK    6  A    between atoms: C9_14  and  C10_15 
REMARK    7  A    between atoms: C10_15  and  N3_16 
REMARK    8  A    between atoms: N3_16  and  C11_18 
REMARK    9  A    between atoms: C11_18  and  C12_19 
REMARK   10  A    between atoms: C12_19  and  N4_20 
REMARK   11  A    between atoms: N4_20  and  C13_23 
REMARK   12  A    between atoms: C13_23  and  C14_24 
REMARK   13  A    between atoms: C14_24  and  N5_25 
REMARK       I    between atoms: N5_25  and  C15_27 
ROOT
HETATM    1  C9  UNL     1     -21.608 -22.313 -45.549  1.00  0.00     0.064 C 
ENDROOT
BRANCH   1   2
HETATM    2  C8  UNL     1     -22.863 -21.464 -45.384  1.00  0.00     0.143 C 
BRANCH   2   3
HETATM    3  N2  UNL     1     -22.644 -20.334 -44.514  1.00  0.00    -0.226 N 
ATOM      4  H2  UNL     1     -22.062 -19.550 -44.808  1.00  0.00     0.177 HD
BRANCH   3   5
HETATM    5  C7  UNL     1     -23.214 -20.345 -43.335  1.00  0.00     0.679 A 
HETATM    6  N1  UNL     1     -24.183 -21.156 -42.878  1.00  0.00    -0.190 N 
HETATM    7  C6  UNL     1     -24.504 -20.847 -41.604  1.00  0.00     0.076 A 
ATOM      8  H1  UNL     1     -24.617 -21.902 -43.421  1.00  0.00     0.184 HD
HETATM    9  C5  UNL     1     -25.422 -21.390 -40.729  1.00  0.00     0.033 A 
HETATM   10  C16 UNL     1     -23.697 -19.785 -41.235  1.00  0.00     0.077 A 
HETATM   11  C4  UNL     1     -25.547 -20.870 -39.455  1.00  0.00     0.012 A 
HETATM   12  C3  UNL     1     -24.726 -19.798 -39.097  1.00  0.00    -0.032 A 
HETATM   13  C17 UNL     1     -23.809 -19.255 -39.967  1.00  0.00     0.041 A 
HETATM   14  N8  UNL     1     -22.933 -19.510 -42.304  1.00  0.00    -0.190 N 
ATOM     15  H8  UNL     1     -22.233 -18.769 -42.337  1.00  0.00     0.184 HD
BRANCH  12  16
HETATM   16  C2  UNL     1     -24.861 -19.252 -37.728  1.00  0.00     0.205 C 
BRANCH  16  17
HETATM   17  O1  UNL     1     -24.655 -20.242 -36.803  1.00  0.00    -0.391 OA
HETATM   18  C1  UNL     1     -23.533 -19.959 -36.054  1.00  0.00     0.201 C 
ENDBRANCH  16  17
ENDBRANCH  12  16
ENDBRANCH   3   5
ENDBRANCH   2   3
ENDBRANCH   1   2
BRANCH   1  19
HETATM   19  C10 UNL     1     -20.508 -21.488 -46.185  1.00  0.00     0.057 C 
BRANCH  19  20
HETATM   20  N3  UNL     1     -19.274 -21.494 -45.525  1.00  0.00    -0.401 N 
ATOM     21  H3  UNL     1     -18.401 -21.607 -46.040  1.00  0.00     0.158 HD
BRANCH  20  22
HETATM   22  C11 UNL     1     -19.277 -21.338 -44.117  1.00  0.00     0.146 C 
BRANCH  22  23
HETATM   23  C12 UNL     1     -18.733 -20.073 -43.556  1.00  0.00     0.251 C 
BRANCH  23  24
HETATM   24  N4  UNL     1     -18.965 -18.875 -44.292  1.00  0.00    -0.072 N 
ATOM     25  H42 UNL     1     -18.103 -18.334 -44.370  1.00  0.00     0.277 HD
ATOM     26  H41 UNL     1     -19.128 -19.090 -45.276  1.00  0.00     0.277 HD
BRANCH  24  27
HETATM   27  C13 UNL     1     -20.017 -18.059 -43.783  1.00  0.00     0.252 C 
BRANCH  27  28
HETATM   28  C14 UNL     1     -20.093 -16.683 -44.456  1.00  0.00     0.150 C 
BRANCH  28  29
HETATM   29  N5  UNL     1     -21.457 -16.195 -44.187  1.00  0.00    -0.363 N 
HETATM   30  C15 UNL     1     -22.552 -16.561 -45.011  1.00  0.00     0.181 C 
HETATM   31  N6  UNL     1     -23.740 -16.555 -44.541  1.00  0.00    -0.374 N 
HETATM   32  N7  UNL     1     -22.313 -16.942 -46.382  1.00  0.00    -0.064 NA
ATOM     33  H62 UNL     1     -23.910 -16.285 -43.572  1.00  0.00     0.158 HD
ATOM     34  H61 UNL     1     -24.528 -16.818 -45.134  1.00  0.00     0.158 HD
ATOM     35  H5  UNL     1     -21.618 -15.580 -43.389  1.00  0.00     0.162 HD
ENDBRANCH  28  29
ENDBRANCH  27  28
ENDBRANCH  24  27
ENDBRANCH  23  24
ENDBRANCH  22  23
ENDBRANCH  20  22
ENDBRANCH  19  20
ENDBRANCH   1  19
TORSDOF 13
ENDMDL
MODEL 5
REMARK VINA RESULT: -8.141806467      1.698      2.051
REMARK  13 active torsions:
REMARK  status: ('A' for Active; 'I' for Inactive)
REMARK    1  A    between atoms: O1_2  and  C2_3 
REMARK    2  A    between atoms: C2_3  and  C3_4 
REMARK    3  A    between atoms: C7_10  and  N2_11 
REMARK    4  A    between atoms: N2_11  and  C8_13 
REMARK    5  A    between atoms: C8_13  and  C9_14 
REMARK    6  A    between atoms: C9_14  and  C10_15 
REMARK    7  A    between atoms: C10_15  and  N3_16 
REMARK    8  A    between atoms: N3_16  and  C11_18 
REMARK    9  A    between atoms: C11_18  and  C12_19 
REMARK   10  A    between atoms: C12_19  and  N4_20 
REMARK   11  A    between atoms: N4_20  and  C13_23 
REMARK   12  A    between atoms: C13_23  and  C14_24 
REMARK   13  A    between atoms: C14_24  and  N5_25 
REMARK       I    between atoms: N5_25  and  C15_27 
ROOT
HETATM    1  C9  UNL     1     -21.753 -21.979 -45.851  1.00  0.00     0.064 C 
ENDROOT
BRANCH   1   2
HETATM    2  C8  UNL     1     -22.907 -21.475 -44.992  1.00  0.00     0.143 C 
BRANCH   2   3
HETATM    3  N2  UNL     1     -22.608 -20.207 -44.373  1.00  0.00    -0.226 N 
ATOM      4  H2  UNL     1     -21.938 -19.562 -44.792  1.00  0.00     0.177 HD
BRANCH   3   5
HETATM    5  C7  UNL     1     -23.223 -19.906 -43.255  1.00  0.00     0.679 A 
HETATM    6  N1  UNL     1     -23.812 -20.732 -42.374  1.00  0.00    -0.190 N 
HETATM    7  C6  UNL     1     -24.339 -20.035 -41.345  1.00  0.00     0.076 A 
ATOM      8  H1  UNL     1     -23.855 -21.746 -42.469  1.00  0.00     0.184 HD
HETATM    9  C5  UNL     1     -25.026 -20.436 -40.218  1.00  0.00     0.033 A 
HETATM   10  C16 UNL     1     -24.070 -18.700 -41.588  1.00  0.00     0.077 A 
HETATM   11  C4  UNL     1     -25.462 -19.493 -39.307  1.00  0.00     0.012 A 
HETATM   12  C3  UNL     1     -25.184 -18.149 -39.566  1.00  0.00    -0.032 A 
HETATM   13  C17 UNL     1     -24.497 -17.746 -40.688  1.00  0.00     0.041 A 
HETATM   14  N8  UNL     1     -23.397 -18.661 -42.749  1.00  0.00    -0.190 N 
ATOM     15  H8  UNL     1     -23.060 -17.807 -43.192  1.00  0.00     0.184 HD
BRANCH  12  16
HETATM   16  C2  UNL     1     -25.646 -17.146 -38.582  1.00  0.00     0.205 C 
BRANCH  16  17
HETATM   17  O1  UNL     1     -27.007 -17.220 -38.438  1.00  0.00    -0.391 OA
HETATM   18  C1  UNL     1     -27.621 -16.375 -39.339  1.00  0.00     0.201 C 
ENDBRANCH  16  17
ENDBRANCH  12  16
ENDBRANCH   3   5
ENDBRANCH   2   3
ENDBRANCH   1   2
BRANCH   1  19
HETATM   19  C10 UNL     1     -20.588 -21.014 -45.767  1.00  0.00     0.057 C 
BRANCH  19  20
HETATM   20  N3  UNL     1     -19.330 -21.586 -45.545  1.00  0.00    -0.401 N 
ATOM     21  H3  UNL     1     -18.947 -22.280 -46.186  1.00  0.00     0.158 HD
BRANCH  20  22
HETATM   22  C11 UNL     1     -18.606 -21.169 -44.401  1.00  0.00     0.146 C 
BRANCH  22  23
HETATM   23  C12 UNL     1     -19.022 -19.905 -43.737  1.00  0.00     0.251 C 
BRANCH  23  24
HETATM   24  N4  UNL     1     -18.469 -19.625 -42.454  1.00  0.00    -0.072 N 
ATOM     25  H42 UNL     1     -18.039 -18.700 -42.448  1.00  0.00     0.277 HD
ATOM     26  H41 UNL     1     -19.212 -19.479 -41.771  1.00  0.00     0.277 HD
BRANCH  24  27
HETATM   27  C13 UNL     1     -17.546 -20.602 -41.979  1.00  0.00     0.252 C 
BRANCH  27  28
HETATM   28  C14 UNL     1     -16.177 -20.014 -41.616  1.00  0.00     0.150 C 
BRANCH  28  29
HETATM   29  N5  UNL     1     -15.404 -21.141 -41.065  1.00  0.00    -0.363 N 
HETATM   30  C15 UNL     1     -15.466 -21.480 -39.689  1.00  0.00     0.181 C 
HETATM   31  N6  UNL     1     -15.212 -22.673 -39.310  1.00  0.00    -0.374 N 
HETATM   32  N7  UNL     1     -15.818 -20.468 -38.723  1.00  0.00    -0.064 NA
ATOM     33  H62 UNL     1     -14.962 -23.389 -39.993  1.00  0.00     0.158 HD
ATOM     34  H61 UNL     1     -15.256 -22.917 -38.320  1.00  0.00     0.158 HD
ATOM     35  H5  UNL     1     -14.812 -21.690 -41.688  1.00  0.00     0.162 HD
ENDBRANCH  28  29
ENDBRANCH  27  28
ENDBRANCH  24  27
ENDBRANCH  23  24
ENDBRANCH  22  23
ENDBRANCH  20  22
ENDBRANCH  19  20
ENDBRANCH   1  19
TORSDOF 13
ENDMDL
