MODEL 1
REMARK VINA RESULT: -8.112901950      0.000      0.000
REMARK  14 active torsions:
REMARK  status: ('A' for Active; 'I' for Inactive)
REMARK    1  A    between atoms: C2_2  and  O1_3 
REMARK    2  A    between atoms: C2_2  and  C3_5 
REMARK    3  A    between atoms: C5_9  and  N2_10 
REMARK    4  A    between atoms: N2_10  and  C6_11 
REMARK    5  A    between atoms: C6_11  and  C7_12 
REMARK    6  A    between atoms: C7_12  and  C8_13 
REMARK    7  A    between atoms: C8_13  and  C9_14 
REMARK    8  A    between atoms: C9_14  and  C10_15 
REMARK    9  A    between atoms: C10_15  and  C11_16 
REMARK   10  A    between atoms: C11_16  and  N3_17 
REMARK   11  A    between atoms: N3_17  and  C13_19 
REMARK   12  A    between atoms: C13_19  and  C14_20 
REMARK   13  A    between atoms: C14_20  and  C15_21 
REMARK   14  A    between atoms: C15_21  and  N4_22 
ROOT
HETATM    1  C7  UNL     1     -19.861 -20.819 -44.406  1.00  0.00     0.033 C 
ENDROOT
BRANCH   1   2
HETATM    2  C6  UNL     1     -18.342 -21.162 -44.418  1.00  0.00     0.222 C 
BRANCH   2   3
HETATM    3  N2  UNL     1     -17.706 -20.769 -43.305  1.00  0.00    -0.416 NA
BRANCH   3   4
HETATM    4  C5  UNL     1     -17.120 -20.413 -42.304  1.00  0.00     0.245 C 
HETATM    5  N1  UNL     1     -17.706 -20.122 -40.999  1.00  0.00    -0.349 N 
HETATM    6  C4  UNL     1     -16.686 -20.352 -40.022  1.00  0.00     0.151 C 
ATOM      7  H1  UNL     1     -18.661 -19.814 -40.818  1.00  0.00     0.163 HD
HETATM    8  C3  UNL     1     -15.385 -20.396 -40.743  1.00  0.00     0.131 C 
HETATM    9  N7  UNL     1     -15.706 -20.139 -42.107  1.00  0.00    -0.342 N 
ATOM     10  H7  UNL     1     -15.054 -19.818 -42.824  1.00  0.00     0.164 HD
BRANCH   8  11
HETATM   11  C2  UNL     1     -14.383 -19.399 -40.188  1.00  0.00     0.138 C 
HETATM   12  C1  UNL     1     -14.669 -18.005 -40.653  1.00  0.00     0.041 C 
BRANCH  11  13
HETATM   13  O1  UNL     1     -13.124 -19.790 -40.663  1.00  0.00    -0.394 OA
ATOM     14  H1  UNL     1     -13.217 -20.593 -41.163  1.00  0.00     0.210 HD
ENDBRANCH  11  13
ENDBRANCH   8  11
ENDBRANCH   3   4
ENDBRANCH   2   3
ENDBRANCH   1   2
BRANCH   1  15
HETATM   15  C8  UNL     1     -20.535 -21.500 -45.541  1.00  0.00     0.003 C 
BRANCH  15  16
HETATM   16  C9  UNL     1     -21.995 -21.795 -45.337  1.00  0.00     0.002 C 
BRANCH  16  17
HETATM   17  C10 UNL     1     -22.611 -20.570 -44.704  1.00  0.00     0.020 C 
BRANCH  17  18
HETATM   18  C11 UNL     1     -23.722 -20.942 -43.729  1.00  0.00     0.121 C 
BRANCH  18  19
HETATM   19  N3  UNL     1     -23.447 -20.381 -42.454  1.00  0.00    -0.398 N 
HETATM   20  C12 UNL     1     -24.388 -20.556 -41.440  1.00  0.00     0.148 C 
BRANCH  19  21
HETATM   21  C13 UNL     1     -22.605 -19.268 -42.477  1.00  0.00     0.059 C 
BRANCH  21  22
HETATM   22  C14 UNL     1     -23.232 -17.948 -42.086  1.00  0.00     0.064 C 
BRANCH  22  23
HETATM   23  C15 UNL     1     -23.017 -17.033 -43.294  1.00  0.00     0.127 C 
BRANCH  23  24
HETATM   24  N4  UNL     1     -21.723 -17.117 -43.865  1.00  0.00    -0.367 N 
HETATM   25  C16 UNL     1     -21.364 -17.035 -45.078  1.00  0.00     0.196 C 
HETATM   26  N5  UNL     1     -19.948 -17.163 -45.333  1.00  0.00    -0.067 NA
HETATM   27  N6  UNL     1     -22.215 -16.832 -46.192  1.00  0.00    -0.067 NA
ATOM     28  H4  UNL     1     -20.965 -17.267 -43.199  1.00  0.00     0.161 HD
ENDBRANCH  23  24
ENDBRANCH  22  23
ENDBRANCH  21  22
ENDBRANCH  19  21
ENDBRANCH  18  19
ENDBRANCH  17  18
ENDBRANCH  16  17
ENDBRANCH  15  16
ENDBRANCH   1  15
TORSDOF 14
ENDMDL
MODEL 2
REMARK VINA RESULT: -8.070585958      2.853      4.530
REMARK  14 active torsions:
REMARK  status: ('A' for Active; 'I' for Inactive)
REMARK    1  A    between atoms: C2_2  and  O1_3 
REMARK    2  A    between atoms: C2_2  and  C3_5 
REMARK    3  A    between atoms: C5_9  and  N2_10 
REMARK    4  A    between atoms: N2_10  and  C6_11 
REMARK    5  A    between atoms: C6_11  and  C7_12 
REMARK    6  A    between atoms: C7_12  and  C8_13 
REMARK    7  A    between atoms: C8_13  and  C9_14 
REMARK    8  A    between atoms: C9_14  and  C10_15 
REMARK    9  A    between atoms: C10_15  and  C11_16 
REMARK   10  A    between atoms: C11_16  and  N3_17 
REMARK   11  A    between atoms: N3_17  and  C13_19 
REMARK   12  A    between atoms: C13_19  and  C14_20 
REMARK   13  A    between atoms: C14_20  and  C15_21 
REMARK   14  A    between atoms: C15_21  and  N4_22 
ROOT
HETATM    1  C7  UNL     1     -19.725 -19.476 -44.118  1.00  0.00     0.033 C 
ENDROOT
BRANCH   1   2
HETATM    2  C6  UNL     1     -18.958 -20.746 -43.648  1.00  0.00     0.222 C 
BRANCH   2   3
HETATM    3  N2  UNL     1     -18.068 -20.493 -42.677  1.00  0.00    -0.416 NA
BRANCH   3   4
HETATM    4  C5  UNL     1     -17.259 -20.276 -41.800  1.00  0.00     0.245 C 
HETATM    5  N1  UNL     1     -17.446 -20.470 -40.365  1.00  0.00    -0.349 N 
HETATM    6  C4  UNL     1     -16.150 -20.695 -39.801  1.00  0.00     0.151 C 
ATOM      7  H1  UNL     1     -18.332 -20.450 -39.860  1.00  0.00     0.163 HD
HETATM    8  C3  UNL     1     -15.148 -20.250 -40.807  1.00  0.00     0.131 C 
HETATM    9  N7  UNL     1     -15.912 -19.739 -41.894  1.00  0.00    -0.342 N 
ATOM     10  H7  UNL     1     -15.572 -19.103 -42.616  1.00  0.00     0.164 HD
BRANCH   8  11
HETATM   11  C2  UNL     1     -14.183 -19.221 -40.244  1.00  0.00     0.138 C 
HETATM   12  C1  UNL     1     -14.517 -17.835 -40.704  1.00  0.00     0.041 C 
BRANCH  11  13
HETATM   13  O1  UNL     1     -12.910 -19.565 -40.716  1.00  0.00    -0.394 OA
ATOM     14  H1  UNL     1     -12.312 -19.627 -39.979  1.00  0.00     0.210 HD
ENDBRANCH  11  13
ENDBRANCH   8  11
ENDBRANCH   3   4
ENDBRANCH   2   3
ENDBRANCH   1   2
BRANCH   1  15
HETATM   15  C8  UNL     1     -20.837 -19.187 -43.176  1.00  0.00     0.003 C 
BRANCH  15  16
HETATM   16  C9  UNL     1     -21.637 -17.953 -43.485  1.00  0.00     0.002 C 
BRANCH  16  17
HETATM   17  C10 UNL     1     -22.720 -17.852 -42.437  1.00  0.00     0.020 C 
BRANCH  17  18
HETATM   18  C11 UNL     1     -22.984 -19.198 -41.772  1.00  0.00     0.121 C 
BRANCH  18  19
HETATM   19  N3  UNL     1     -24.117 -19.097 -40.924  1.00  0.00    -0.398 N 
HETATM   20  C12 UNL     1     -24.717 -17.846 -40.772  1.00  0.00     0.148 C 
BRANCH  19  21
HETATM   21  C13 UNL     1     -24.175 -20.056 -39.911  1.00  0.00     0.059 C 
BRANCH  21  22
HETATM   22  C14 UNL     1     -24.607 -19.563 -38.548  1.00  0.00     0.064 C 
BRANCH  22  23
HETATM   23  C15 UNL     1     -23.883 -20.469 -37.550  1.00  0.00     0.127 C 
BRANCH  23  24
HETATM   24  N4  UNL     1     -22.525 -20.126 -37.332  1.00  0.00    -0.367 N 
HETATM   25  C16 UNL     1     -21.959 -19.678 -36.290  1.00  0.00     0.196 C 
HETATM   26  N5  UNL     1     -20.539 -19.428 -36.395  1.00  0.00    -0.067 NA
HETATM   27  N6  UNL     1     -22.583 -19.401 -35.050  1.00  0.00    -0.067 NA
ATOM     28  H4  UNL     1     -21.910 -20.261 -38.134  1.00  0.00     0.161 HD
ENDBRANCH  23  24
ENDBRANCH  22  23
ENDBRANCH  21  22
ENDBRANCH  19  21
ENDBRANCH  18  19
ENDBRANCH  17  18
ENDBRANCH  16  17
ENDBRANCH  15  16
ENDBRANCH   1  15
TORSDOF 14
ENDMDL
MODEL 3
REMARK VINA RESULT: -8.057282903      3.026      4.694
REMARK  14 active torsions:
REMARK  status: ('A' for Active; 'I' for Inactive)
REMARK    1  A    between atoms: C2_2  and  O1_3 
REMARK    2  A    between atoms: C2_2  and  C3_5 
REMARK    3  A    between atoms: C5_9  and  N2_10 
REMARK    4  A    between atoms: N2_10  and  C6_11 
REMARK    5  A    between atoms: C6_11  and  C7_12 
REMARK    6  A    between atoms: C7_12  and  C8_13 
REMARK    7  A    between atoms: C8_13  and  C9_14 
REMARK    8  A    between atoms: C9_14  and  C10_15 
REMARK    9  A    between atoms: C10_15  and  C11_16 
REMARK   10  A    between atoms: C11_16  and  N3_17 
REMARK   11  A    between atoms: N3_17  and  C13_19 
REMARK   12  A    between atoms: C13_19  and  C14_20 
REMARK   13  A    between atoms: C14_20  and  C15_21 
REMARK   14  A    between atoms: C15_21  and  N4_22 
ROOT
HETATM    1  C7  UNL     1     -20.653 -20.088 -45.074  1.00  0.00     0.033 C 
ENDROOT
BRANCH   1   2
HETATM    2  C6  UNL     1     -19.443 -21.068 -45.051  1.00  0.00     0.222 C 
BRANCH   2   3
HETATM    3  N2  UNL     1     -18.644 -20.892 -43.989  1.00  0.00    -0.416 NA
BRANCH   3   4
HETATM    4  C5  UNL     1     -17.926 -20.742 -43.023  1.00  0.00     0.245 C 
HETATM    5  N1  UNL     1     -16.572 -21.258 -42.845  1.00  0.00    -0.349 N 
HETATM    6  C4  UNL     1     -15.907 -20.382 -41.929  1.00  0.00     0.151 C 
ATOM      7  H1  UNL     1     -16.174 -22.086 -43.290  1.00  0.00     0.163 HD
HETATM    8  C3  UNL     1     -16.956 -19.575 -41.250  1.00  0.00     0.131 C 
HETATM    9  N7  UNL     1     -18.192 -20.056 -41.769  1.00  0.00    -0.342 N 
ATOM     10  H7  UNL     1     -19.108 -19.940 -41.335  1.00  0.00     0.164 HD
BRANCH   8  11
HETATM   11  C2  UNL     1     -16.882 -19.688 -39.737  1.00  0.00     0.138 C 
HETATM   12  C1  UNL     1     -15.579 -20.273 -39.286  1.00  0.00     0.041 C 
BRANCH  11  13
HETATM   13  O1  UNL     1     -17.925 -20.538 -39.347  1.00  0.00    -0.394 OA
ATOM     14  H1  UNL     1     -17.916 -20.625 -38.401  1.00  0.00     0.210 HD
ENDBRANCH  11  13
ENDBRANCH   8  11
ENDBRANCH   3   4
ENDBRANCH   2   3
ENDBRANCH   1   2
BRANCH   1  15
HETATM   15  C8  UNL     1     -21.557 -20.384 -43.933  1.00  0.00     0.003 C 
BRANCH  15  16
HETATM   16  C9  UNL     1     -21.560 -19.360 -42.833  1.00  0.00     0.002 C 
BRANCH  16  17
HETATM   17  C10 UNL     1     -23.005 -19.059 -42.511  1.00  0.00     0.020 C 
BRANCH  17  18
HETATM   18  C11 UNL     1     -23.322 -19.335 -41.046  1.00  0.00     0.121 C 
BRANCH  18  19
HETATM   19  N3  UNL     1     -24.199 -20.447 -40.949  1.00  0.00    -0.398 N 
HETATM   20  C12 UNL     1     -24.674 -21.016 -42.131  1.00  0.00     0.148 C 
BRANCH  19  21
HETATM   21  C13 UNL     1     -24.943 -20.502 -39.769  1.00  0.00     0.059 C 
BRANCH  21  22
HETATM   22  C14 UNL     1     -24.522 -19.553 -38.669  1.00  0.00     0.064 C 
BRANCH  22  23
HETATM   23  C15 UNL     1     -23.847 -20.437 -37.619  1.00  0.00     0.127 C 
BRANCH  23  24
HETATM   24  N4  UNL     1     -22.488 -20.116 -37.374  1.00  0.00    -0.367 N 
HETATM   25  C16 UNL     1     -21.937 -19.669 -36.323  1.00  0.00     0.196 C 
HETATM   26  N5  UNL     1     -20.511 -19.444 -36.399  1.00  0.00    -0.067 NA
HETATM   27  N6  UNL     1     -22.582 -19.374 -35.098  1.00  0.00    -0.067 NA
ATOM     28  H4  UNL     1     -21.859 -20.266 -38.162  1.00  0.00     0.161 HD
ENDBRANCH  23  24
ENDBRANCH  22  23
ENDBRANCH  21  22
ENDBRANCH  19  21
ENDBRANCH  18  19
ENDBRANCH  17  18
ENDBRANCH  16  17
ENDBRANCH  15  16
ENDBRANCH   1  15
TORSDOF 14
ENDMDL
MODEL 4
REMARK VINA RESULT: -8.033943670      2.660      4.365
REMARK  14 active torsions:
REMARK  status: ('A' for Active; 'I' for Inactive)
REMARK    1  A    between atoms: C2_2  and  O1_3 
REMARK    2  A    between atoms: C2_2  and  C3_5 
REMARK    3  A    between atoms: C5_9  and  N2_10 
REMARK    4  A    between atoms: N2_10  and  C6_11 
REMARK    5  A    between atoms: C6_11  and  C7_12 
REMARK    6  A    between atoms: C7_12  and  C8_13 
REMARK    7  A    between atoms: C8_13  and  C9_14 
REMARK    8  A    between atoms: C9_14  and  C10_15 
REMARK    9  A    between atoms: C10_15  and  C11_16 
REMARK   10  A    between atoms: C11_16  and  N3_17 
REMARK   11  A    between atoms: N3_17  and  C13_19 
REMARK   12  A    between atoms: C13_19  and  C14_20 
REMARK   13  A    between atoms: C14_20  and  C15_21 
REMARK   14  A    between atoms: C15_21  and  N4_22 
ROOT
HETATM    1  C7  UNL     1     -19.454 -19.954 -44.629  1.00  0.00     0.033 C 
ENDROOT
BRANCH   1   2
HETATM    2  C6  UNL     1     -18.459 -21.052 -44.152  1.00  0.00     0.222 C 
BRANCH   2   3
HETATM    3  N2  UNL     1     -17.732 -20.677 -43.089  1.00  0.00    -0.416 NA
BRANCH   3   4
HETATM    4  C5  UNL     1     -17.084 -20.330 -42.125  1.00  0.00     0.245 C 
HETATM    5  N1  UNL     1     -17.575 -20.109 -40.768  1.00  0.00    -0.349 N 
HETATM    6  C4  UNL     1     -16.473 -20.326 -39.883  1.00  0.00     0.151 C 
ATOM      7  H1  UNL     1     -18.526 -19.849 -40.502  1.00  0.00     0.163 HD
HETATM    8  C3  UNL     1     -15.233 -20.289 -40.705  1.00  0.00     0.131 C 
HETATM    9  N7  UNL     1     -15.671 -20.001 -42.029  1.00  0.00    -0.342 N 
ATOM     10  H7  UNL     1     -15.092 -19.627 -42.781  1.00  0.00     0.164 HD
BRANCH   8  11
HETATM   11  C2  UNL     1     -14.231 -19.268 -40.193  1.00  0.00     0.138 C 
HETATM   12  C1  UNL     1     -14.540 -17.889 -40.688  1.00  0.00     0.041 C 
BRANCH  11  13
HETATM   13  O1  UNL     1     -12.977 -19.659 -40.679  1.00  0.00    -0.394 OA
ATOM     14  H1  UNL     1     -12.491 -20.080 -39.980  1.00  0.00     0.210 HD
ENDBRANCH  11  13
ENDBRANCH   8  11
ENDBRANCH   3   4
ENDBRANCH   2   3
ENDBRANCH   1   2
BRANCH   1  15
HETATM   15  C8  UNL     1     -20.791 -20.199 -44.031  1.00  0.00     0.003 C 
BRANCH  15  16
HETATM   16  C9  UNL     1     -21.109 -19.382 -42.811  1.00  0.00     0.002 C 
BRANCH  16  17
HETATM   17  C10 UNL     1     -22.608 -19.192 -42.781  1.00  0.00     0.020 C 
BRANCH  17  18
HETATM   18  C11 UNL     1     -23.176 -19.434 -41.387  1.00  0.00     0.121 C 
BRANCH  18  19
HETATM   19  N3  UNL     1     -24.084 -20.525 -41.425  1.00  0.00    -0.398 N 
HETATM   20  C12 UNL     1     -24.391 -21.083 -42.666  1.00  0.00     0.148 C 
BRANCH  19  21
HETATM   21  C13 UNL     1     -24.996 -20.561 -40.369  1.00  0.00     0.059 C 
BRANCH  21  22
HETATM   22  C14 UNL     1     -24.698 -19.652 -39.198  1.00  0.00     0.064 C 
BRANCH  22  23
HETATM   23  C15 UNL     1     -24.260 -20.587 -38.069  1.00  0.00     0.127 C 
BRANCH  23  24
HETATM   24  N4  UNL     1     -22.984 -20.290 -37.529  1.00  0.00    -0.367 N 
HETATM   25  C16 UNL     1     -22.672 -19.824 -36.392  1.00  0.00     0.196 C 
HETATM   26  N5  UNL     1     -21.261 -19.634 -36.147  1.00  0.00    -0.067 NA
HETATM   27  N6  UNL     1     -23.571 -19.475 -35.354  1.00  0.00    -0.067 NA
ATOM     28  H4  UNL     1     -22.197 -20.480 -38.149  1.00  0.00     0.161 HD
ENDBRANCH  23  24
ENDBRANCH  22  23
ENDBRANCH  21  22
ENDBRANCH  19  21
ENDBRANCH  18  19
ENDBRANCH  17  18
ENDBRANCH  16  17
ENDBRANCH  15  16
ENDBRANCH   1  15
TORSDOF 14
ENDMDL
MODEL 5
REMARK VINA RESULT: -7.918715680      0.847      1.018
REMARK  14 active torsions:
REMARK  status: ('A' for Active; 'I' for Inactive)
REMARK    1  A    between atoms: C2_2  and  O1_3 
REMARK    2  A    between atoms: C2_2  and  C3_5 
REMARK    3  A    between atoms: C5_9  and  N2_10 
REMARK    4  A    between atoms: N2_10  and  C6_11 
REMARK    5  A    between atoms: C6_11  and  C7_12 
REMARK    6  A    between atoms: C7_12  and  C8_13 
REMARK    7  A    between atoms: C8_13  and  C9_14 
REMARK    8  A    between atoms: C9_14  and  C10_15 
REMARK    9  A    between atoms: C10_15  and  C11_16 
REMARK   10  A    between atoms: C11_16  and  N3_17 
REMARK   11  A    between atoms: N3_17  and  C13_19 
REMARK   12  A    between atoms: C13_19  and  C14_20 
REMARK   13  A    between atoms: C14_20  and  C15_21 
REMARK   14  A    between atoms: C15_21  and  N4_22 
ROOT
HETATM    1  C7  UNL     1     -19.407 -20.951 -44.206  1.00  0.00     0.033 C 
ENDROOT
BRANCH   1   2
HETATM    2  C6  UNL     1     -19.478 -19.794 -43.166  1.00  0.00     0.222 C 
BRANCH   2   3
HETATM    3  N2  UNL     1     -18.450 -19.798 -42.305  1.00  0.00    -0.416 NA
BRANCH   3   4
HETATM    4  C5  UNL     1     -17.514 -19.807 -41.533  1.00  0.00     0.245 C 
HETATM    5  N1  UNL     1     -17.491 -20.368 -40.186  1.00  0.00    -0.349 N 
HETATM    6  C4  UNL     1     -16.133 -20.719 -39.901  1.00  0.00     0.151 C 
ATOM      7  H1  UNL     1     -18.292 -20.488 -39.564  1.00  0.00     0.163 HD
HETATM    8  C3  UNL     1     -15.279 -20.019 -40.898  1.00  0.00     0.131 C 
HETATM    9  N7  UNL     1     -16.180 -19.251 -41.689  1.00  0.00    -0.342 N 
ATOM     10  H7  UNL     1     -15.933 -18.446 -42.266  1.00  0.00     0.164 HD
BRANCH   8  11
HETATM   11  C2  UNL     1     -14.211 -19.161 -40.242  1.00  0.00     0.138 C 
HETATM   12  C1  UNL     1     -14.348 -17.718 -40.618  1.00  0.00     0.041 C 
BRANCH  11  13
HETATM   13  O1  UNL     1     -12.976 -19.638 -40.701  1.00  0.00    -0.394 OA
ATOM     14  H1  UNL     1     -12.320 -19.498 -40.028  1.00  0.00     0.210 HD
ENDBRANCH  11  13
ENDBRANCH   8  11
ENDBRANCH   3   4
ENDBRANCH   2   3
ENDBRANCH   1   2
BRANCH   1  15
HETATM   15  C8  UNL     1     -20.327 -20.663 -45.336  1.00  0.00     0.003 C 
BRANCH  15  16
HETATM   16  C9  UNL     1     -21.211 -21.805 -45.752  1.00  0.00     0.002 C 
BRANCH  16  17
HETATM   17  C10 UNL     1     -22.517 -21.649 -45.009  1.00  0.00     0.020 C 
BRANCH  17  18
HETATM   18  C11 UNL     1     -22.822 -20.185 -44.713  1.00  0.00     0.121 C 
BRANCH  18  19
HETATM   19  N3  UNL     1     -23.628 -20.091 -43.548  1.00  0.00    -0.398 N 
HETATM   20  C12 UNL     1     -24.317 -21.230 -43.131  1.00  0.00     0.148 C 
BRANCH  19  21
HETATM   21  C13 UNL     1     -24.111 -18.811 -43.275  1.00  0.00     0.059 C 
BRANCH  21  22
HETATM   22  C14 UNL     1     -23.251 -17.948 -42.379  1.00  0.00     0.064 C 
BRANCH  22  23
HETATM   23  C15 UNL     1     -22.877 -16.736 -43.233  1.00  0.00     0.127 C 
BRANCH  23  24
HETATM   24  N4  UNL     1     -21.593 -16.814 -43.826  1.00  0.00    -0.367 N 
HETATM   25  C16 UNL     1     -21.266 -16.872 -45.050  1.00  0.00     0.196 C 
HETATM   26  N5  UNL     1     -19.850 -16.944 -45.328  1.00  0.00    -0.067 NA
HETATM   27  N6  UNL     1     -22.152 -16.873 -46.155  1.00  0.00    -0.067 NA
ATOM     28  H4  UNL     1     -20.813 -16.826 -43.169  1.00  0.00     0.161 HD
ENDBRANCH  23  24
ENDBRANCH  22  23
ENDBRANCH  21  22
ENDBRANCH  19  21
ENDBRANCH  18  19
ENDBRANCH  17  18
ENDBRANCH  16  17
ENDBRANCH  15  16
ENDBRANCH   1  15
TORSDOF 14
ENDMDL
