MODEL 1
REMARK VINA RESULT: -9.354193465      0.000      0.000
REMARK  13 active torsions:
REMARK  status: ('A' for Active; 'I' for Inactive)
REMARK    1  A    between atoms: N1_1  and  C1_4 
REMARK    2  A    between atoms: C6_12  and  N3_13 
REMARK    3  A    between atoms: N3_13  and  C7_15 
REMARK    4  A    between atoms: C7_15  and  O2_16 
REMARK    5  A    between atoms: C7_15  and  C8_18 
REMARK    6  A    between atoms: C8_18  and  O3_19 
REMARK    7  A    between atoms: C8_18  and  C10_27 
REMARK    8  A    between atoms: O3_19  and  C9_20 
REMARK       I    between atoms: C9_20  and  N4_22 
REMARK    9  A    between atoms: N4_22  and  N5_24 
REMARK   10  A    between atoms: C10_27  and  O5_28 
REMARK   11  A    between atoms: C10_27  and  C11_30 
REMARK   12  A    between atoms: C11_30  and  N6_31 
REMARK   13  A    between atoms: C12_35  and  C13_36 
ROOT
HETATM    1  C8  UNL     1      63.482  21.855  89.744  1.00  0.00     0.212 C 
ENDROOT
BRANCH   1   2
HETATM    2  C7  UNL     1      64.257  23.038  89.253  1.00  0.00     0.251 C 
BRANCH   2   3
HETATM    3  N3  UNL     1      65.670  22.805  89.480  1.00  0.00    -0.348 N 
ATOM      4  H3  UNL     1      66.070  21.898  89.244  1.00  0.00     0.163 HD
BRANCH   3   5
HETATM    5  C6  UNL     1      66.519  23.827  90.029  1.00  0.00     0.104 A 
HETATM    6  C5  UNL     1      67.309  23.595  91.131  1.00  0.00     0.049 A 
HETATM    7  C4  UNL     1      68.132  24.591  91.658  1.00  0.00     0.025 A 
HETATM    8  C3  UNL     1      68.170  25.845  91.077  1.00  0.00     0.077 A 
HETATM    9  C2  UNL     1      68.972  26.860  91.569  1.00  0.00     0.273 A 
HETATM   10  C15 UNL     1      67.364  26.043  89.973  1.00  0.00     0.138 A 
HETATM   11  N2  UNL     1      68.966  28.060  90.960  1.00  0.00    -0.156 N 
HETATM   12  O1  UNL     1      69.702  26.651  92.586  1.00  0.00    -0.267 OA
HETATM   13  C1  UNL     1      68.177  28.243  89.885  1.00  0.00     0.680 A 
ATOM     14  H2  UNL     1      69.551  28.820  91.308  1.00  0.00     0.187 HD
HETATM   15  N14 UNL     1      67.393  27.260  89.399  1.00  0.00    -0.176 N 
ATOM     16  H14 UNL     1      66.811  27.442  88.581  1.00  0.00     0.186 HD
HETATM   17  N13 UNL     1      66.567  25.050  89.476  1.00  0.00    -0.328 N 
ATOM     18  H13 UNL     1      65.989  25.245  88.658  1.00  0.00     0.169 HD
BRANCH  13  19
HETATM   19  N1  UNL     1      68.172  29.393  89.303  1.00  0.00    -0.234 N 
ATOM     20  H12 UNL     1      69.010  29.973  89.344  1.00  0.00     0.174 HD
ATOM     21  H11 UNL     1      67.328  29.696  88.816  1.00  0.00     0.174 HD
ENDBRANCH  13  19
ENDBRANCH   3   5
ENDBRANCH   2   3
BRANCH   2  22
HETATM   22  O2  UNL     1      63.987  23.379  87.939  1.00  0.00    -0.374 OA
ATOM     23  H2  UNL     1      63.552  24.221  87.869  1.00  0.00     0.212 HD
ENDBRANCH   2  22
ENDBRANCH   1   2
BRANCH   1  24
HETATM   24  O3  UNL     1      64.149  20.674  89.345  1.00  0.00    -0.290 OA
BRANCH  24  25
HETATM   25  C9  UNL     1      63.635  19.856  88.354  1.00  0.00     0.379 C 
HETATM   26  O4  UNL     1      63.625  20.323  87.175  1.00  0.00    -0.237 OA
HETATM   27  N4  UNL     1      63.137  18.550  88.611  1.00  0.00    -0.252 N 
ATOM     28  H4  UNL     1      63.145  18.176  89.559  1.00  0.00     0.191 HD
BRANCH  27  29
HETATM   29  N5  UNL     1      62.635  17.784  87.561  1.00  0.00    -0.341 N 
ATOM     30  H52 UNL     1      62.669  18.157  86.613  1.00  0.00     0.177 HD
ATOM     31  H51 UNL     1      62.241  16.862  87.751  1.00  0.00     0.177 HD
ENDBRANCH  27  29
ENDBRANCH  24  25
ENDBRANCH   1  24
BRANCH   1  32
HETATM   32  C10 UNL     1      63.331  21.796  91.237  1.00  0.00     0.173 C 
BRANCH  32  33
HETATM   33  O5  UNL     1      63.650  22.980  91.876  1.00  0.00    -0.391 OA
ATOM     34  H5  UNL     1      64.307  22.882  92.555  1.00  0.00     0.210 HD
ENDBRANCH  32  33
BRANCH  32  35
HETATM   35  C11 UNL     1      64.154  20.661  91.813  1.00  0.00     0.201 C 
BRANCH  35  36
HETATM   36  N6  UNL     1      63.250  19.559  92.066  1.00  0.00    -0.214 N 
HETATM   37  N7  UNL     1      63.466  18.267  91.898  1.00  0.00    -0.003 NA
HETATM   38  N8  UNL     1      62.374  17.571  92.247  1.00  0.00    -0.264 N 
HETATM   39  C12 UNL     1      61.449  18.450  92.646  1.00  0.00     0.180 A 
ATOM     40  H8  UNL     1      62.269  16.557  92.215  1.00  0.00     0.186 HD
HETATM   41  N12 UNL     1      62.015  19.659  92.524  1.00  0.00    -0.266 N 
ATOM     42  H12 UNL     1      61.554  20.540  92.754  1.00  0.00     0.190 HD
BRANCH  39  43
HETATM   43  C13 UNL     1      60.085  18.182  93.125  1.00  0.00     0.171 A 
HETATM   44  N9  UNL     1      59.704  17.230  93.994  1.00  0.00    -0.289 N 
HETATM   45  C14 UNL     1      58.370  17.307  94.180  1.00  0.00     0.340 A 
ATOM     46  H9  UNL     1      60.325  16.557  94.443  1.00  0.00     0.172 HD
HETATM   47  O6  UNL     1      57.617  16.613  94.902  1.00  0.00    -0.245 OA
HETATM   48  N10 UNL     1      57.952  18.339  93.392  1.00  0.00    -0.250 N 
HETATM   49  N11 UNL     1      58.986  18.857  92.765  1.00  0.00    -0.278 N 
ATOM     50  H10 UNL     1      56.988  18.659  93.303  1.00  0.00     0.192 HD
ATOM     51  H11 UNL     1      58.955  19.641  92.113  1.00  0.00     0.189 HD
ENDBRANCH  39  43
ENDBRANCH  35  36
ENDBRANCH  32  35
ENDBRANCH   1  32
TORSDOF 13
ENDMDL
MODEL 2
REMARK VINA RESULT: -9.110031056      1.102      1.514
REMARK  13 active torsions:
REMARK  status: ('A' for Active; 'I' for Inactive)
REMARK    1  A    between atoms: N1_1  and  C1_4 
REMARK    2  A    between atoms: C6_12  and  N3_13 
REMARK    3  A    between atoms: N3_13  and  C7_15 
REMARK    4  A    between atoms: C7_15  and  O2_16 
REMARK    5  A    between atoms: C7_15  and  C8_18 
REMARK    6  A    between atoms: C8_18  and  O3_19 
REMARK    7  A    between atoms: C8_18  and  C10_27 
REMARK    8  A    between atoms: O3_19  and  C9_20 
REMARK       I    between atoms: C9_20  and  N4_22 
REMARK    9  A    between atoms: N4_22  and  N5_24 
REMARK   10  A    between atoms: C10_27  and  O5_28 
REMARK   11  A    between atoms: C10_27  and  C11_30 
REMARK   12  A    between atoms: C11_30  and  N6_31 
REMARK   13  A    between atoms: C12_35  and  C13_36 
ROOT
HETATM    1  C8  UNL     1      63.384  21.621  89.702  1.00  0.00     0.212 C 
ENDROOT
BRANCH   1   2
HETATM    2  C7  UNL     1      64.205  22.829  89.374  1.00  0.00     0.251 C 
BRANCH   2   3
HETATM    3  N3  UNL     1      65.591  22.563  89.704  1.00  0.00    -0.348 N 
ATOM      4  H3  UNL     1      65.964  21.623  89.573  1.00  0.00     0.163 HD
BRANCH   3   5
HETATM    5  C6  UNL     1      66.452  23.596  90.211  1.00  0.00     0.104 A 
HETATM    6  C5  UNL     1      67.225  23.407  91.334  1.00  0.00     0.049 A 
HETATM    7  C4  UNL     1      68.060  24.415  91.820  1.00  0.00     0.025 A 
HETATM    8  C3  UNL     1      68.128  25.636  91.175  1.00  0.00     0.077 A 
HETATM    9  C2  UNL     1      68.943  26.660  91.625  1.00  0.00     0.273 A 
HETATM   10  C15 UNL     1      67.340  25.791  90.052  1.00  0.00     0.138 A 
HETATM   11  N2  UNL     1      68.967  27.827  90.955  1.00  0.00    -0.156 N 
HETATM   12  O1  UNL     1      69.657  26.491  92.661  1.00  0.00    -0.267 OA
HETATM   13  C1  UNL     1      68.194  27.968  89.862  1.00  0.00     0.680 A 
ATOM     14  H2  UNL     1      69.562  28.593  91.271  1.00  0.00     0.187 HD
HETATM   15  N14 UNL     1      67.399  26.976  89.417  1.00  0.00    -0.176 N 
ATOM     16  H14 UNL     1      66.830  27.126  88.583  1.00  0.00     0.186 HD
HETATM   17  N13 UNL     1      66.530  24.788  89.596  1.00  0.00    -0.328 N 
ATOM     18  H13 UNL     1      65.967  24.951  88.762  1.00  0.00     0.169 HD
BRANCH  13  19
HETATM   19  N1  UNL     1      68.218  29.087  89.221  1.00  0.00    -0.234 N 
ATOM     20  H12 UNL     1      69.085  29.622  89.192  1.00  0.00     0.174 HD
ATOM     21  H11 UNL     1      67.367  29.409  88.760  1.00  0.00     0.174 HD
ENDBRANCH  13  19
ENDBRANCH   3   5
ENDBRANCH   2   3
BRANCH   2  22
HETATM   22  O2  UNL     1      64.052  23.274  88.073  1.00  0.00    -0.374 OA
ATOM     23  H2  UNL     1      63.596  22.643  87.529  1.00  0.00     0.212 HD
ENDBRANCH   2  22
ENDBRANCH   1   2
BRANCH   1  24
HETATM   24  O3  UNL     1      64.053  20.471  89.224  1.00  0.00    -0.290 OA
BRANCH  24  25
HETATM   25  C9  UNL     1      63.565  19.746  88.151  1.00  0.00     0.379 C 
HETATM   26  O4  UNL     1      63.607  20.307  87.015  1.00  0.00    -0.237 OA
HETATM   27  N4  UNL     1      63.036  18.433  88.281  1.00  0.00    -0.252 N 
ATOM     28  H4  UNL     1      63.002  17.983  89.195  1.00  0.00     0.191 HD
BRANCH  27  29
HETATM   29  N5  UNL     1      62.562  17.765  87.154  1.00  0.00    -0.341 N 
ATOM     30  H52 UNL     1      63.144  17.050  86.719  1.00  0.00     0.177 HD
ATOM     31  H51 UNL     1      61.643  17.998  86.778  1.00  0.00     0.177 HD
ENDBRANCH  27  29
ENDBRANCH  24  25
ENDBRANCH   1  24
BRANCH   1  32
HETATM   32  C10 UNL     1      63.148  21.418  91.171  1.00  0.00     0.173 C 
BRANCH  32  33
HETATM   33  O5  UNL     1      63.751  22.372  91.969  1.00  0.00    -0.391 OA
ATOM     34  H5  UNL     1      64.699  22.369  91.919  1.00  0.00     0.210 HD
ENDBRANCH  32  33
BRANCH  32  35
HETATM   35  C11 UNL     1      63.594  20.033  91.598  1.00  0.00     0.201 C 
BRANCH  35  36
HETATM   36  N6  UNL     1      62.406  19.293  91.966  1.00  0.00    -0.214 N 
HETATM   37  N7  UNL     1      61.148  19.557  91.661  1.00  0.00    -0.003 NA
HETATM   38  N8  UNL     1      60.343  18.628  92.194  1.00  0.00    -0.264 N 
HETATM   39  C12 UNL     1      61.115  17.756  92.850  1.00  0.00     0.180 A 
ATOM     40  H8  UNL     1      59.327  18.591  92.113  1.00  0.00     0.186 HD
HETATM   41  N12 UNL     1      62.374  18.190  92.692  1.00  0.00    -0.266 N 
ATOM     42  H12 UNL     1      63.198  17.730  93.082  1.00  0.00     0.190 HD
BRANCH  39  43
HETATM   43  C13 UNL     1      60.705  16.559  93.600  1.00  0.00     0.171 A 
HETATM   44  N9  UNL     1      59.592  15.829  93.413  1.00  0.00    -0.289 N 
HETATM   45  C14 UNL     1      59.576  14.811  94.299  1.00  0.00     0.340 A 
ATOM     46  H9  UNL     1      58.873  16.015  92.714  1.00  0.00     0.172 HD
HETATM   47  O6  UNL     1      58.728  13.904  94.467  1.00  0.00    -0.245 OA
HETATM   48  N10 UNL     1      60.719  14.948  95.031  1.00  0.00    -0.250 N 
HETATM   49  N11 UNL     1      61.388  15.997  94.605  1.00  0.00    -0.278 N 
ATOM     50  H10 UNL     1      61.008  14.332  95.791  1.00  0.00     0.192 HD
ATOM     51  H11 UNL     1      62.278  16.327  94.978  1.00  0.00     0.189 HD
ENDBRANCH  39  43
ENDBRANCH  35  36
ENDBRANCH  32  35
ENDBRANCH   1  32
TORSDOF 13
ENDMDL
MODEL 3
REMARK VINA RESULT: -9.076817169      3.601      6.424
REMARK  13 active torsions:
REMARK  status: ('A' for Active; 'I' for Inactive)
REMARK    1  A    between atoms: N1_1  and  C1_4 
REMARK    2  A    between atoms: C6_12  and  N3_13 
REMARK    3  A    between atoms: N3_13  and  C7_15 
REMARK    4  A    between atoms: C7_15  and  O2_16 
REMARK    5  A    between atoms: C7_15  and  C8_18 
REMARK    6  A    between atoms: C8_18  and  O3_19 
REMARK    7  A    between atoms: C8_18  and  C10_27 
REMARK    8  A    between atoms: O3_19  and  C9_20 
REMARK       I    between atoms: C9_20  and  N4_22 
REMARK    9  A    between atoms: N4_22  and  N5_24 
REMARK   10  A    between atoms: C10_27  and  O5_28 
REMARK   11  A    between atoms: C10_27  and  C11_30 
REMARK   12  A    between atoms: C11_30  and  N6_31 
REMARK   13  A    between atoms: C12_35  and  C13_36 
ROOT
HETATM    1  C8  UNL     1      62.214  18.441  94.580  1.00  0.00     0.212 C 
ENDROOT
BRANCH   1   2
HETATM    2  C7  UNL     1      63.671  18.777  94.643  1.00  0.00     0.251 C 
BRANCH   2   3
HETATM    3  N3  UNL     1      63.831  20.213  94.533  1.00  0.00    -0.348 N 
ATOM      4  H3  UNL     1      63.624  20.802  95.340  1.00  0.00     0.163 HD
BRANCH   3   5
HETATM    5  C6  UNL     1      64.276  20.827  93.312  1.00  0.00     0.104 A 
HETATM    6  C5  UNL     1      65.204  21.843  93.309  1.00  0.00     0.049 A 
HETATM    7  C4  UNL     1      65.631  22.433  92.119  1.00  0.00     0.025 A 
HETATM    8  C3  UNL     1      65.126  22.004  90.906  1.00  0.00     0.077 A 
HETATM    9  C2  UNL     1      65.524  22.563  89.704  1.00  0.00     0.273 A 
HETATM   10  C15 UNL     1      64.198  20.982  90.945  1.00  0.00     0.138 A 
HETATM   11  N2  UNL     1      64.997  22.102  88.555  1.00  0.00    -0.156 N 
HETATM   12  O1  UNL     1      66.379  23.501  89.696  1.00  0.00    -0.267 OA
HETATM   13  C1  UNL     1      64.092  21.106  88.605  1.00  0.00     0.680 A 
ATOM     14  H2  UNL     1      65.279  22.501  87.659  1.00  0.00     0.187 HD
HETATM   15  N14 UNL     1      63.699  20.556  89.770  1.00  0.00    -0.176 N 
ATOM     16  H14 UNL     1      63.011  19.803  89.762  1.00  0.00     0.186 HD
HETATM   17  N13 UNL     1      63.795  20.421  92.125  1.00  0.00    -0.328 N 
ATOM     18  H13 UNL     1      63.106  19.669  92.103  1.00  0.00     0.169 HD
BRANCH  13  19
HETATM   19  N1  UNL     1      63.587  20.666  87.503  1.00  0.00    -0.234 N 
ATOM     20  H12 UNL     1      63.891  21.076  86.620  1.00  0.00     0.174 HD
ATOM     21  H11 UNL     1      62.894  19.918  87.542  1.00  0.00     0.174 HD
ENDBRANCH  13  19
ENDBRANCH   3   5
ENDBRANCH   2   3
BRANCH   2  22
HETATM   22  O2  UNL     1      64.318  18.261  95.752  1.00  0.00    -0.374 OA
ATOM     23  H2  UNL     1      64.022  17.384  95.965  1.00  0.00     0.212 HD
ENDBRANCH   2  22
ENDBRANCH   1   2
BRANCH   1  24
HETATM   24  O3  UNL     1      61.904  17.993  93.275  1.00  0.00    -0.290 OA
BRANCH  24  25
HETATM   25  C9  UNL     1      60.908  18.592  92.524  1.00  0.00     0.379 C 
HETATM   26  O4  UNL     1      61.248  19.064  91.397  1.00  0.00    -0.237 OA
HETATM   27  N4  UNL     1      59.561  18.691  92.964  1.00  0.00    -0.252 N 
ATOM     28  H4  UNL     1      59.289  18.311  93.871  1.00  0.00     0.191 HD
BRANCH  27  29
HETATM   29  N5  UNL     1      58.613  19.309  92.151  1.00  0.00    -0.341 N 
ATOM     30  H52 UNL     1      58.640  20.321  92.038  1.00  0.00     0.177 HD
ATOM     31  H51 UNL     1      57.905  18.744  91.681  1.00  0.00     0.177 HD
ENDBRANCH  27  29
ENDBRANCH  24  25
ENDBRANCH   1  24
BRANCH   1  32
HETATM   32  C10 UNL     1      61.790  17.360  95.532  1.00  0.00     0.173 C 
BRANCH  32  33
HETATM   33  O5  UNL     1      61.449  16.173  94.911  1.00  0.00    -0.391 OA
ATOM     34  H5  UNL     1      62.056  15.463  95.084  1.00  0.00     0.210 HD
ENDBRANCH  32  33
BRANCH  32  35
HETATM   35  C11 UNL     1      60.643  17.833  96.403  1.00  0.00     0.201 C 
BRANCH  35  36
HETATM   36  N6  UNL     1      59.532  16.934  96.178  1.00  0.00    -0.214 N 
HETATM   37  N7  UNL     1      58.672  16.928  95.176  1.00  0.00    -0.003 NA
HETATM   38  N8  UNL     1      57.790  15.932  95.335  1.00  0.00    -0.264 N 
HETATM   39  C12 UNL     1      58.104  15.294  96.467  1.00  0.00     0.180 A 
ATOM     40  H8  UNL     1      57.019  15.702  94.707  1.00  0.00     0.186 HD
HETATM   41  N12 UNL     1      59.176  15.931  96.960  1.00  0.00    -0.266 N 
ATOM     42  H12 UNL     1      59.653  15.675  97.825  1.00  0.00     0.190 HD
BRANCH  39  43
HETATM   43  C13 UNL     1      57.437  14.133  97.074  1.00  0.00     0.171 A 
HETATM   44  N9  UNL     1      57.597  13.671  98.327  1.00  0.00    -0.289 N 
HETATM   45  C14 UNL     1      56.811  12.589  98.504  1.00  0.00     0.340 A 
ATOM     46  H9  UNL     1      58.214  14.075  99.031  1.00  0.00     0.172 HD
HETATM   47  O6  UNL     1      56.658  11.862  99.513  1.00  0.00    -0.245 OA
HETATM   48  N10 UNL     1      56.167  12.408  97.315  1.00  0.00    -0.250 N 
HETATM   49  N11 UNL     1      56.548  13.337  96.465  1.00  0.00    -0.278 N 
ATOM     50  H10 UNL     1      55.495  11.668  97.116  1.00  0.00     0.192 HD
ATOM     51  H11 UNL     1      56.222  13.435  95.504  1.00  0.00     0.189 HD
ENDBRANCH  39  43
ENDBRANCH  35  36
ENDBRANCH  32  35
ENDBRANCH   1  32
TORSDOF 13
ENDMDL
MODEL 4
REMARK VINA RESULT: -8.986985567      3.398      7.179
REMARK  13 active torsions:
REMARK  status: ('A' for Active; 'I' for Inactive)
REMARK    1  A    between atoms: N1_1  and  C1_4 
REMARK    2  A    between atoms: C6_12  and  N3_13 
REMARK    3  A    between atoms: N3_13  and  C7_15 
REMARK    4  A    between atoms: C7_15  and  O2_16 
REMARK    5  A    between atoms: C7_15  and  C8_18 
REMARK    6  A    between atoms: C8_18  and  O3_19 
REMARK    7  A    between atoms: C8_18  and  C10_27 
REMARK    8  A    between atoms: O3_19  and  C9_20 
REMARK       I    between atoms: C9_20  and  N4_22 
REMARK    9  A    between atoms: N4_22  and  N5_24 
REMARK   10  A    between atoms: C10_27  and  O5_28 
REMARK   11  A    between atoms: C10_27  and  C11_30 
REMARK   12  A    between atoms: C11_30  and  N6_31 
REMARK   13  A    between atoms: C12_35  and  C13_36 
ROOT
HETATM    1  C8  UNL     1      60.428  17.886  93.851  1.00  0.00     0.212 C 
ENDROOT
BRANCH   1   2
HETATM    2  C7  UNL     1      60.097  18.835  94.960  1.00  0.00     0.251 C 
BRANCH   2   3
HETATM    3  N3  UNL     1      61.323  19.238  95.621  1.00  0.00    -0.348 N 
ATOM      4  H3  UNL     1      61.558  18.831  96.526  1.00  0.00     0.163 HD
BRANCH   3   5
HETATM    5  C6  UNL     1      62.213  20.197  95.028  1.00  0.00     0.104 A 
HETATM    6  C5  UNL     1      63.472  19.847  94.598  1.00  0.00     0.049 A 
HETATM    7  C4  UNL     1      64.331  20.785  94.022  1.00  0.00     0.025 A 
HETATM    8  C3  UNL     1      63.929  22.099  93.872  1.00  0.00     0.077 A 
HETATM    9  C2  UNL     1      64.751  23.059  93.307  1.00  0.00     0.273 A 
HETATM   10  C15 UNL     1      62.660  22.416  94.315  1.00  0.00     0.138 A 
HETATM   11  N2  UNL     1      64.304  24.323  93.187  1.00  0.00    -0.156 N 
HETATM   12  O1  UNL     1      65.913  22.741  92.909  1.00  0.00    -0.267 OA
HETATM   13  C1  UNL     1      63.065  24.621  93.622  1.00  0.00     0.680 A 
ATOM     14  H2  UNL     1      64.894  25.044  92.772  1.00  0.00     0.187 HD
HETATM   15  N14 UNL     1      62.259  23.693  94.173  1.00  0.00    -0.176 N 
ATOM     16  H14 UNL     1      61.327  23.963  94.488  1.00  0.00     0.186 HD
HETATM   17  N13 UNL     1      61.838  21.479  94.875  1.00  0.00    -0.328 N 
ATOM     18  H13 UNL     1      60.909  21.761  95.187  1.00  0.00     0.169 HD
BRANCH  13  19
HETATM   19  N1  UNL     1      62.638  25.833  93.507  1.00  0.00    -0.234 N 
ATOM     20  H12 UNL     1      63.315  26.592  93.445  1.00  0.00     0.174 HD
ATOM     21  H11 UNL     1      61.632  26.001  93.482  1.00  0.00     0.174 HD
ENDBRANCH  13  19
ENDBRANCH   3   5
ENDBRANCH   2   3
BRANCH   2  22
HETATM   22  O2  UNL     1      59.337  19.920  94.560  1.00  0.00    -0.374 OA
ATOM     23  H2  UNL     1      58.435  19.681  94.382  1.00  0.00     0.212 HD
ENDBRANCH   2  22
ENDBRANCH   1   2
BRANCH   1  24
HETATM   24  O3  UNL     1      59.254  17.190  93.480  1.00  0.00    -0.290 OA
BRANCH  24  25
HETATM   25  C9  UNL     1      59.048  15.873  93.852  1.00  0.00     0.379 C 
HETATM   26  O4  UNL     1      59.524  14.981  93.085  1.00  0.00    -0.237 OA
HETATM   27  N4  UNL     1      58.343  15.503  95.028  1.00  0.00    -0.252 N 
ATOM     28  H4  UNL     1      57.961  16.221  95.644  1.00  0.00     0.191 HD
BRANCH  27  29
HETATM   29  N5  UNL     1      58.175  14.154  95.338  1.00  0.00    -0.341 N 
ATOM     30  H52 UNL     1      57.949  13.498  94.591  1.00  0.00     0.177 HD
ATOM     31  H51 UNL     1      58.281  13.840  96.302  1.00  0.00     0.177 HD
ENDBRANCH  27  29
ENDBRANCH  24  25
ENDBRANCH   1  24
BRANCH   1  32
HETATM   32  C10 UNL     1      60.961  18.547  92.613  1.00  0.00     0.173 C 
BRANCH  32  33
HETATM   33  O5  UNL     1      59.976  19.041  91.778  1.00  0.00    -0.391 OA
ATOM     34  H5  UNL     1      60.314  19.515  91.027  1.00  0.00     0.210 HD
ENDBRANCH  32  33
BRANCH  32  35
HETATM   35  C11 UNL     1      61.860  17.599  91.845  1.00  0.00     0.201 C 
BRANCH  35  36
HETATM   36  N6  UNL     1      62.451  18.352  90.759  1.00  0.00    -0.214 N 
HETATM   37  N7  UNL     1      62.630  17.978  89.504  1.00  0.00    -0.003 NA
HETATM   38  N8  UNL     1      63.213  18.966  88.811  1.00  0.00    -0.264 N 
HETATM   39  C12 UNL     1      63.405  19.988  89.652  1.00  0.00     0.180 A 
ATOM     40  H8  UNL     1      63.464  18.943  87.823  1.00  0.00     0.186 HD
HETATM   41  N12 UNL     1      62.928  19.581  90.837  1.00  0.00    -0.266 N 
ATOM     42  H12 UNL     1      62.932  20.146  91.687  1.00  0.00     0.190 HD
BRANCH  39  43
HETATM   43  C13 UNL     1      64.009  21.299  89.370  1.00  0.00     0.171 A 
HETATM   44  N9  UNL     1      65.061  21.856  89.995  1.00  0.00    -0.289 N 
HETATM   45  C14 UNL     1      65.312  23.063  89.449  1.00  0.00     0.340 A 
ATOM     46  H9  UNL     1      65.586  21.433  90.760  1.00  0.00     0.172 HD
HETATM   47  O6  UNL     1      66.196  23.906  89.731  1.00  0.00    -0.245 OA
HETATM   48  N10 UNL     1      64.376  23.222  88.470  1.00  0.00    -0.250 N 
HETATM   49  N11 UNL     1      63.600  22.160  88.430  1.00  0.00    -0.278 N 
ATOM     50  H10 UNL     1      64.290  24.037  87.863  1.00  0.00     0.192 HD
ATOM     51  H11 UNL     1      62.818  22.017  87.791  1.00  0.00     0.189 HD
ENDBRANCH  39  43
ENDBRANCH  35  36
ENDBRANCH  32  35
ENDBRANCH   1  32
TORSDOF 13
ENDMDL
MODEL 5
REMARK VINA RESULT: -8.972042517      3.659      8.033
REMARK  13 active torsions:
REMARK  status: ('A' for Active; 'I' for Inactive)
REMARK    1  A    between atoms: N1_1  and  C1_4 
REMARK    2  A    between atoms: C6_12  and  N3_13 
REMARK    3  A    between atoms: N3_13  and  C7_15 
REMARK    4  A    between atoms: C7_15  and  O2_16 
REMARK    5  A    between atoms: C7_15  and  C8_18 
REMARK    6  A    between atoms: C8_18  and  O3_19 
REMARK    7  A    between atoms: C8_18  and  C10_27 
REMARK    8  A    between atoms: O3_19  and  C9_20 
REMARK       I    between atoms: C9_20  and  N4_22 
REMARK    9  A    between atoms: N4_22  and  N5_24 
REMARK   10  A    between atoms: C10_27  and  O5_28 
REMARK   11  A    between atoms: C10_27  and  C11_30 
REMARK   12  A    between atoms: C11_30  and  N6_31 
REMARK   13  A    between atoms: C12_35  and  C13_36 
ROOT
HETATM    1  C8  UNL     1      61.617  18.183  93.615  1.00  0.00     0.212 C 
ENDROOT
BRANCH   1   2
HETATM    2  C7  UNL     1      61.749  16.921  92.822  1.00  0.00     0.251 C 
BRANCH   2   3
HETATM    3  N3  UNL     1      62.988  16.961  92.070  1.00  0.00    -0.348 N 
ATOM      4  H3  UNL     1      63.792  16.431  92.405  1.00  0.00     0.163 HD
BRANCH   3   5
HETATM    5  C6  UNL     1      63.107  17.732  90.863  1.00  0.00     0.104 A 
HETATM    6  C5  UNL     1      62.862  17.182  89.626  1.00  0.00     0.049 A 
HETATM    7  C4  UNL     1      62.979  17.938  88.458  1.00  0.00     0.025 A 
HETATM    8  C3  UNL     1      63.347  19.269  88.522  1.00  0.00     0.077 A 
HETATM    9  C2  UNL     1      63.474  20.051  87.388  1.00  0.00     0.273 A 
HETATM   10  C15 UNL     1      63.585  19.789  89.779  1.00  0.00     0.138 A 
HETATM   11  N2  UNL     1      63.835  21.342  87.514  1.00  0.00    -0.156 N 
HETATM   12  O1  UNL     1      63.250  19.549  86.245  1.00  0.00    -0.267 OA
HETATM   13  C1  UNL     1      64.065  21.839  88.744  1.00  0.00     0.680 A 
ATOM     14  H2  UNL     1      63.933  21.935  86.689  1.00  0.00     0.187 HD
HETATM   15  N14 UNL     1      63.943  21.084  89.853  1.00  0.00    -0.176 N 
ATOM     16  H14 UNL     1      64.126  21.501  90.766  1.00  0.00     0.186 HD
HETATM   17  N13 UNL     1      63.463  19.027  90.908  1.00  0.00    -0.328 N 
ATOM     18  H13 UNL     1      63.650  19.456  91.814  1.00  0.00     0.169 HD
BRANCH  13  19
HETATM   19  N1  UNL     1      64.411  23.075  88.863  1.00  0.00    -0.234 N 
ATOM     20  H12 UNL     1      64.267  23.708  88.076  1.00  0.00     0.174 HD
ATOM     21  H11 UNL     1      64.823  23.390  89.742  1.00  0.00     0.174 HD
ENDBRANCH  13  19
ENDBRANCH   3   5
ENDBRANCH   2   3
BRANCH   2  22
HETATM   22  O2  UNL     1      61.634  15.768  93.579  1.00  0.00    -0.374 OA
ATOM     23  H2  UNL     1      61.649  14.984  93.043  1.00  0.00     0.212 HD
ENDBRANCH   2  22
ENDBRANCH   1   2
BRANCH   1  24
HETATM   24  O3  UNL     1      60.420  18.127  94.366  1.00  0.00    -0.290 OA
BRANCH  24  25
HETATM   25  C9  UNL     1      59.189  18.364  93.779  1.00  0.00     0.379 C 
HETATM   26  O4  UNL     1      58.178  17.842  94.340  1.00  0.00    -0.237 OA
HETATM   27  N4  UNL     1      59.030  19.150  92.606  1.00  0.00    -0.252 N 
ATOM     28  H4  UNL     1      59.843  19.569  92.156  1.00  0.00     0.191 HD
BRANCH  27  29
HETATM   29  N5  UNL     1      57.757  19.344  92.073  1.00  0.00    -0.341 N 
ATOM     30  H52 UNL     1      56.970  19.490  92.705  1.00  0.00     0.177 HD
ATOM     31  H51 UNL     1      57.627  19.340  91.061  1.00  0.00     0.177 HD
ENDBRANCH  27  29
ENDBRANCH  24  25
ENDBRANCH   1  24
BRANCH   1  32
HETATM   32  C10 UNL     1      62.738  18.420  94.586  1.00  0.00     0.173 C 
BRANCH  32  33
HETATM   33  O5  UNL     1      62.712  17.578  95.682  1.00  0.00    -0.391 OA
ATOM     34  H5  UNL     1      61.930  17.666  96.214  1.00  0.00     0.210 HD
ENDBRANCH  32  33
BRANCH  32  35
HETATM   35  C11 UNL     1      62.751  19.864  95.046  1.00  0.00     0.201 C 
BRANCH  35  36
HETATM   36  N6  UNL     1      63.907  20.497  94.446  1.00  0.00    -0.214 N 
HETATM   37  N7  UNL     1      64.074  20.878  93.192  1.00  0.00    -0.003 NA
HETATM   38  N8  UNL     1      65.288  21.423  93.038  1.00  0.00    -0.264 N 
HETATM   39  C12 UNL     1      65.900  21.385  94.226  1.00  0.00     0.180 A 
ATOM     40  H8  UNL     1      65.675  21.800  92.172  1.00  0.00     0.186 HD
HETATM   41  N12 UNL     1      65.028  20.812  95.068  1.00  0.00    -0.266 N 
ATOM     42  H12 UNL     1      65.207  20.642  96.058  1.00  0.00     0.190 HD
BRANCH  39  43
HETATM   43  C13 UNL     1      67.246  21.863  94.574  1.00  0.00     0.171 A 
HETATM   44  N9  UNL     1      68.330  21.879  93.778  1.00  0.00    -0.289 N 
HETATM   45  C14 UNL     1      69.374  22.391  94.462  1.00  0.00     0.340 A 
ATOM     46  H9  UNL     1      68.358  21.556  92.812  1.00  0.00     0.172 HD
HETATM   47  O6  UNL     1      70.558  22.582  94.099  1.00  0.00    -0.245 OA
HETATM   48  N10 UNL     1      68.887  22.686  95.702  1.00  0.00    -0.250 N 
HETATM   49  N11 UNL     1      67.613  22.366  95.759  1.00  0.00    -0.278 N 
ATOM     50  H10 UNL     1      69.428  23.092  96.466  1.00  0.00     0.192 HD
ATOM     51  H11 UNL     1      67.005  22.482  96.571  1.00  0.00     0.189 HD
ENDBRANCH  39  43
ENDBRANCH  35  36
ENDBRANCH  32  35
ENDBRANCH   1  32
TORSDOF 13
ENDMDL
