MODEL 1
REMARK VINA RESULT: -8.400399617      0.000      0.000
REMARK  17 active torsions:
REMARK  status: ('A' for Active; 'I' for Inactive)
REMARK    1  A    between atoms: N1_1  and  N2_4 
REMARK    2  A    between atoms: N2_4  and  O1_5 
REMARK    3  A    between atoms: O1_5  and  C1_6 
REMARK    4  A    between atoms: C1_6  and  C2_8 
REMARK    5  A    between atoms: C2_8  and  C3_9 
REMARK    6  A    between atoms: C3_9  and  C17_37 
REMARK    7  A    between atoms: C4_10  and  O3_11 
REMARK    8  A    between atoms: O3_11  and  C5_12 
REMARK    9  A    between atoms: C7_14  and  O4_15 
REMARK   10  A    between atoms: C10_19  and  O5_20 
REMARK   11  A    between atoms: C12_24  and  O7_25 
REMARK   12  A    between atoms: C12_24  and  O8_27 
REMARK   13  A    between atoms: C13_29  and  O9_30 
REMARK   14  A    between atoms: C17_37  and  N4_38 
REMARK   15  A    between atoms: C17_37  and  C18_42 
REMARK   16  A    between atoms: C18_42  and  C19_44 
REMARK   17  A    between atoms: C19_44  and  O12_45 
ROOT
HETATM    1  C5  UNL     1      62.258  19.924  94.091  1.00  0.00     0.160 A 
HETATM    2  C6  UNL     1      62.566  19.883  92.812  1.00  0.00     0.072 A 
HETATM    3  C7  UNL     1      62.432  18.874  91.838  1.00  0.00     0.096 A 
HETATM    4  C8  UNL     1      62.833  19.067  90.525  1.00  0.00     0.066 A 
HETATM    5  C9  UNL     1      63.377  20.277  90.162  1.00  0.00     0.050 A 
HETATM    6  C10 UNL     1      63.514  21.271  91.108  1.00  0.00     0.114 A 
HETATM    7  C11 UNL     1      63.111  21.090  92.440  1.00  0.00     0.125 A 
HETATM    8  O6  UNL     1      63.153  21.933  93.536  1.00  0.00    -0.281 OA
HETATM    9  C12 UNL     1      62.619  21.246  94.625  1.00  0.00     0.338 A 
HETATM   10  C13 UNL     1      63.768  20.496  88.914  1.00  0.00     0.081 A 
HETATM   11  C14 UNL     1      63.641  19.465  87.863  1.00  0.00     0.068 A 
HETATM   12  C15 UNL     1      63.130  18.276  88.124  1.00  0.00     0.100 A 
HETATM   13  N3  UNL     1      63.032  17.332  87.083  1.00  0.00    -0.098 NA
HETATM   14  C16 UNL     1      62.700  18.032  89.492  1.00  0.00     0.210 A 
HETATM   15  O10 UNL     1      62.205  16.921  89.803  1.00  0.00    -0.285 OA
ENDROOT
BRANCH   1  16
HETATM   16  O3  UNL     1      61.683  18.845  94.767  1.00  0.00    -0.317 OA
BRANCH  16  17
HETATM   17  C4  UNL     1      60.323  18.633  94.860  1.00  0.00     0.148 C 
HETATM   18  C3  UNL     1      59.780  17.418  95.071  1.00  0.00    -0.011 C 
BRANCH  18  19
HETATM   19  C2  UNL     1      60.709  16.311  95.199  1.00  0.00     0.151 C 
BRANCH  19  20
HETATM   20  C1  UNL     1      60.705  15.266  94.188  1.00  0.00     0.283 C 
HETATM   21  O2  UNL     1      61.393  14.240  94.263  1.00  0.00    -0.263 OA
BRANCH  20  22
HETATM   22  O1  UNL     1      59.892  15.374  93.042  1.00  0.00    -0.186 OA
BRANCH  22  23
HETATM   23  N2  UNL     1      58.911  14.416  92.796  1.00  0.00     0.022 NA
BRANCH  23  24
HETATM   24  N1  UNL     1      58.690  13.603  93.900  1.00  0.00    -0.322 N 
ATOM     25  H12 UNL     1      57.928  13.753  94.560  1.00  0.00     0.174 HD
ATOM     26  H11 UNL     1      59.376  12.850  93.963  1.00  0.00     0.174 HD
ENDBRANCH  23  24
ENDBRANCH  22  23
ENDBRANCH  20  22
ENDBRANCH  19  20
ENDBRANCH  18  19
BRANCH  18  27
HETATM   27  C17 UNL     1      58.323  17.336  95.188  1.00  0.00     0.286 C 
BRANCH  27  28
HETATM   28  N4  UNL     1      57.670  17.127  93.935  1.00  0.00    -0.064 N 
ATOM     29  H43 UNL     1      56.790  17.642  93.895  1.00  0.00     0.275 HD
ATOM     30  H42 UNL     1      58.172  17.596  93.181  1.00  0.00     0.275 HD
ATOM     31  H41 UNL     1      57.525  16.142  93.717  1.00  0.00     0.275 HD
ENDBRANCH  27  28
BRANCH  27  32
HETATM   32  C18 UNL     1      57.885  16.376  96.237  1.00  0.00     0.184 C 
HETATM   33  O11 UNL     1      57.624  15.243  95.909  1.00  0.00    -0.293 OA
BRANCH  32  34
HETATM   34  C19 UNL     1      57.757  16.755  97.655  1.00  0.00     0.245 C 
BRANCH  34  35
HETATM   35  O12 UNL     1      56.454  16.561  98.118  1.00  0.00    -0.394 OA
ATOM     36  H12 UNL     1      56.275  17.096  98.882  1.00  0.00     0.209 HD
ENDBRANCH  34  35
ENDBRANCH  32  34
ENDBRANCH  27  32
ENDBRANCH  18  27
ENDBRANCH  16  17
ENDBRANCH   1  16
BRANCH   9  37
HETATM   37  O7  UNL     1      61.443  21.922  94.986  1.00  0.00    -0.338 OA
ATOM     38  H7  UNL     1      60.889  21.327  95.478  1.00  0.00     0.216 HD
ENDBRANCH   9  37
BRANCH   9  39
HETATM   39  O8  UNL     1      63.497  21.168  95.704  1.00  0.00    -0.338 OA
ATOM     40  H8  UNL     1      63.124  21.517  96.505  1.00  0.00     0.216 HD
ENDBRANCH   9  39
BRANCH   3  41
HETATM   41  O4  UNL     1      61.901  17.652  92.130  1.00  0.00    -0.359 OA
ATOM     42  H4  UNL     1      60.963  17.501  92.145  1.00  0.00     0.217 HD
ENDBRANCH   3  41
BRANCH   6  43
HETATM   43  O5  UNL     1      64.062  22.490  90.741  1.00  0.00    -0.357 OA
ATOM     44  H5  UNL     1      64.533  23.005  91.387  1.00  0.00     0.217 HD
ENDBRANCH   6  43
BRANCH  10  45
HETATM   45  O9  UNL     1      64.308  21.743  88.628  1.00  0.00    -0.360 OA
ATOM     46  H9  UNL     1      63.929  22.224  87.902  1.00  0.00     0.217 HD
ENDBRANCH  10  45
TORSDOF 17
ENDMDL
MODEL 2
REMARK VINA RESULT: -8.240153841      2.420      3.857
REMARK  17 active torsions:
REMARK  status: ('A' for Active; 'I' for Inactive)
REMARK    1  A    between atoms: N1_1  and  N2_4 
REMARK    2  A    between atoms: N2_4  and  O1_5 
REMARK    3  A    between atoms: O1_5  and  C1_6 
REMARK    4  A    between atoms: C1_6  and  C2_8 
REMARK    5  A    between atoms: C2_8  and  C3_9 
REMARK    6  A    between atoms: C3_9  and  C17_37 
REMARK    7  A    between atoms: C4_10  and  O3_11 
REMARK    8  A    between atoms: O3_11  and  C5_12 
REMARK    9  A    between atoms: C7_14  and  O4_15 
REMARK   10  A    between atoms: C10_19  and  O5_20 
REMARK   11  A    between atoms: C12_24  and  O7_25 
REMARK   12  A    between atoms: C12_24  and  O8_27 
REMARK   13  A    between atoms: C13_29  and  O9_30 
REMARK   14  A    between atoms: C17_37  and  N4_38 
REMARK   15  A    between atoms: C17_37  and  C18_42 
REMARK   16  A    between atoms: C18_42  and  C19_44 
REMARK   17  A    between atoms: C19_44  and  O12_45 
ROOT
HETATM    1  C5  UNL     1      62.336  19.186  92.778  1.00  0.00     0.160 A 
HETATM    2  C6  UNL     1      63.187  20.087  92.336  1.00  0.00     0.072 A 
HETATM    3  C7  UNL     1      63.999  21.027  92.999  1.00  0.00     0.096 A 
HETATM    4  C8  UNL     1      64.835  21.890  92.306  1.00  0.00     0.066 A 
HETATM    5  C9  UNL     1      64.872  21.827  90.933  1.00  0.00     0.050 A 
HETATM    6  C10 UNL     1      64.080  20.911  90.273  1.00  0.00     0.114 A 
HETATM    7  C11 UNL     1      63.230  20.031  90.962  1.00  0.00     0.125 A 
HETATM    8  O6  UNL     1      62.364  19.049  90.513  1.00  0.00    -0.281 OA
HETATM    9  C12 UNL     1      61.762  18.469  91.628  1.00  0.00     0.338 A 
HETATM   10  C13 UNL     1      65.662  22.636  90.240  1.00  0.00     0.081 A 
HETATM   11  C14 UNL     1      66.532  23.632  90.898  1.00  0.00     0.068 A 
HETATM   12  C15 UNL     1      66.559  23.760  92.212  1.00  0.00     0.100 A 
HETATM   13  N3  UNL     1      67.408  24.727  92.786  1.00  0.00    -0.098 NA
HETATM   14  C16 UNL     1      65.693  22.875  92.976  1.00  0.00     0.210 A 
HETATM   15  O10 UNL     1      65.674  22.948  94.230  1.00  0.00    -0.285 OA
ENDROOT
BRANCH   1  16
HETATM   16  O3  UNL     1      62.070  18.995  94.136  1.00  0.00    -0.317 OA
BRANCH  16  17
HETATM   17  C4  UNL     1      60.801  18.961  94.674  1.00  0.00     0.148 C 
HETATM   18  C3  UNL     1      60.255  17.848  95.204  1.00  0.00    -0.011 C 
BRANCH  18  19
HETATM   19  C2  UNL     1      61.079  16.654  95.183  1.00  0.00     0.151 C 
BRANCH  19  20
HETATM   20  C1  UNL     1      60.810  15.628  94.189  1.00  0.00     0.283 C 
HETATM   21  O2  UNL     1      61.348  14.514  94.195  1.00  0.00    -0.263 OA
BRANCH  20  22
HETATM   22  O1  UNL     1      59.896  15.861  93.141  1.00  0.00    -0.186 OA
BRANCH  22  23
HETATM   23  N2  UNL     1      58.634  15.275  93.180  1.00  0.00     0.022 NA
BRANCH  23  24
HETATM   24  N1  UNL     1      58.698  13.922  93.489  1.00  0.00    -0.322 N 
ATOM     25  H12 UNL     1      58.771  13.191  92.782  1.00  0.00     0.174 HD
ATOM     26  H11 UNL     1      58.663  13.758  94.495  1.00  0.00     0.174 HD
ENDBRANCH  23  24
ENDBRANCH  22  23
ENDBRANCH  20  22
ENDBRANCH  19  20
ENDBRANCH  18  19
BRANCH  18  27
HETATM   27  C17 UNL     1      58.913  17.957  95.778  1.00  0.00     0.286 C 
BRANCH  27  28
HETATM   28  N4  UNL     1      57.873  17.783  94.814  1.00  0.00    -0.064 N 
ATOM     29  H43 UNL     1      57.046  18.322  95.070  1.00  0.00     0.275 HD
ATOM     30  H42 UNL     1      58.110  18.248  93.937  1.00  0.00     0.275 HD
ATOM     31  H41 UNL     1      57.635  16.805  94.654  1.00  0.00     0.275 HD
ENDBRANCH  27  28
BRANCH  27  32
HETATM   32  C18 UNL     1      58.734  17.104  96.984  1.00  0.00     0.184 C 
HETATM   33  O11 UNL     1      59.452  17.295  97.936  1.00  0.00    -0.293 OA
BRANCH  32  34
HETATM   34  C19 UNL     1      57.719  16.039  97.058  1.00  0.00     0.245 C 
BRANCH  34  35
HETATM   35  O12 UNL     1      57.788  15.192  95.951  1.00  0.00    -0.394 OA
ATOM     36  H12 UNL     1      58.327  14.429  96.131  1.00  0.00     0.209 HD
ENDBRANCH  34  35
ENDBRANCH  32  34
ENDBRANCH  27  32
ENDBRANCH  18  27
ENDBRANCH  16  17
ENDBRANCH   1  16
BRANCH   9  37
HETATM   37  O7  UNL     1      62.196  17.134  91.667  1.00  0.00    -0.338 OA
ATOM     38  H7  UNL     1      61.498  16.578  91.342  1.00  0.00     0.216 HD
ENDBRANCH   9  37
BRANCH   9  39
HETATM   39  O8  UNL     1      60.370  18.537  91.593  1.00  0.00    -0.338 OA
ATOM     40  H8  UNL     1      59.958  17.844  92.096  1.00  0.00     0.216 HD
ENDBRANCH   9  39
BRANCH   3  41
HETATM   41  O4  UNL     1      64.010  21.143  94.358  1.00  0.00    -0.359 OA
ATOM     42  H4  UNL     1      63.357  21.649  94.826  1.00  0.00     0.217 HD
ENDBRANCH   3  41
BRANCH   6  43
HETATM   43  O5  UNL     1      64.118  20.848  88.889  1.00  0.00    -0.357 OA
ATOM     44  H5  UNL     1      64.660  20.193  88.465  1.00  0.00     0.217 HD
ENDBRANCH   6  43
BRANCH  10  45
HETATM   45  O9  UNL     1      65.642  22.510  88.856  1.00  0.00    -0.360 OA
ATOM     46  H9  UNL     1      65.381  23.274  88.356  1.00  0.00     0.217 HD
ENDBRANCH  10  45
TORSDOF 17
ENDMDL
MODEL 3
REMARK VINA RESULT: -8.119686392      2.852      4.456
REMARK  17 active torsions:
REMARK  status: ('A' for Active; 'I' for Inactive)
REMARK    1  A    between atoms: N1_1  and  N2_4 
REMARK    2  A    between atoms: N2_4  and  O1_5 
REMARK    3  A    between atoms: O1_5  and  C1_6 
REMARK    4  A    between atoms: C1_6  and  C2_8 
REMARK    5  A    between atoms: C2_8  and  C3_9 
REMARK    6  A    between atoms: C3_9  and  C17_37 
REMARK    7  A    between atoms: C4_10  and  O3_11 
REMARK    8  A    between atoms: O3_11  and  C5_12 
REMARK    9  A    between atoms: C7_14  and  O4_15 
REMARK   10  A    between atoms: C10_19  and  O5_20 
REMARK   11  A    between atoms: C12_24  and  O7_25 
REMARK   12  A    between atoms: C12_24  and  O8_27 
REMARK   13  A    between atoms: C13_29  and  O9_30 
REMARK   14  A    between atoms: C17_37  and  N4_38 
REMARK   15  A    between atoms: C17_37  and  C18_42 
REMARK   16  A    between atoms: C18_42  and  C19_44 
REMARK   17  A    between atoms: C19_44  and  O12_45 
ROOT
HETATM    1  C5  UNL     1      61.811  19.803  93.000  1.00  0.00     0.160 A 
HETATM    2  C6  UNL     1      62.765  20.551  92.488  1.00  0.00     0.072 A 
HETATM    3  C7  UNL     1      63.611  21.525  93.053  1.00  0.00     0.096 A 
HETATM    4  C8  UNL     1      64.562  22.195  92.299  1.00  0.00     0.066 A 
HETATM    5  C9  UNL     1      64.684  21.901  90.961  1.00  0.00     0.050 A 
HETATM    6  C10 UNL     1      63.860  20.950  90.397  1.00  0.00     0.114 A 
HETATM    7  C11 UNL     1      62.893  20.264  91.149  1.00  0.00     0.125 A 
HETATM    8  O6  UNL     1      61.977  19.289  90.797  1.00  0.00    -0.281 OA
HETATM    9  C12 UNL     1      61.255  18.949  91.939  1.00  0.00     0.338 A 
HETATM   10  C13 UNL     1      65.586  22.521  90.212  1.00  0.00     0.081 A 
HETATM   11  C14 UNL     1      66.494  23.545  90.768  1.00  0.00     0.068 A 
HETATM   12  C15 UNL     1      66.446  23.888  92.041  1.00  0.00     0.100 A 
HETATM   13  N3  UNL     1      67.336  24.870  92.518  1.00  0.00    -0.098 NA
HETATM   14  C16 UNL     1      65.458  23.210  92.867  1.00  0.00     0.210 A 
HETATM   15  O10 UNL     1      65.363  23.493  94.087  1.00  0.00    -0.285 OA
ENDROOT
BRANCH   1  16
HETATM   16  O3  UNL     1      61.442  19.862  94.346  1.00  0.00    -0.317 OA
BRANCH  16  17
HETATM   17  C4  UNL     1      61.667  18.845  95.251  1.00  0.00     0.148 C 
HETATM   18  C3  UNL     1      60.682  18.079  95.758  1.00  0.00    -0.011 C 
BRANCH  18  19
HETATM   19  C2  UNL     1      59.337  18.375  95.303  1.00  0.00     0.151 C 
BRANCH  19  20
HETATM   20  C1  UNL     1      58.608  17.365  94.551  1.00  0.00     0.283 C 
HETATM   21  O2  UNL     1      57.491  16.945  94.878  1.00  0.00    -0.263 OA
BRANCH  20  22
HETATM   22  O1  UNL     1      59.155  16.801  93.382  1.00  0.00    -0.186 OA
BRANCH  22  23
HETATM   23  N2  UNL     1      59.627  15.491  93.400  1.00  0.00     0.022 NA
BRANCH  23  24
HETATM   24  N1  UNL     1      58.639  14.578  93.057  1.00  0.00    -0.322 N 
ATOM     25  H12 UNL     1      57.861  14.340  93.673  1.00  0.00     0.174 HD
ATOM     26  H11 UNL     1      58.789  14.183  92.129  1.00  0.00     0.174 HD
ENDBRANCH  23  24
ENDBRANCH  22  23
ENDBRANCH  20  22
ENDBRANCH  19  20
ENDBRANCH  18  19
BRANCH  18  27
HETATM   27  C17 UNL     1      61.060  17.007  96.681  1.00  0.00     0.286 C 
BRANCH  27  28
HETATM   28  N4  UNL     1      61.603  15.862  96.020  1.00  0.00    -0.064 N 
ATOM     29  H43 UNL     1      61.006  15.575  95.244  1.00  0.00     0.275 HD
ATOM     30  H42 UNL     1      62.446  16.108  95.501  1.00  0.00     0.275 HD
ATOM     31  H41 UNL     1      61.779  15.081  96.652  1.00  0.00     0.275 HD
ENDBRANCH  27  28
BRANCH  27  32
HETATM   32  C18 UNL     1      61.913  17.489  97.801  1.00  0.00     0.184 C 
HETATM   33  O11 UNL     1      61.400  18.151  98.672  1.00  0.00    -0.293 OA
BRANCH  32  34
HETATM   34  C19 UNL     1      63.354  17.192  97.885  1.00  0.00     0.245 C 
BRANCH  34  35
HETATM   35  O12 UNL     1      63.579  15.852  98.204  1.00  0.00    -0.394 OA
ATOM     36  H12 UNL     1      64.461  15.717  98.534  1.00  0.00     0.209 HD
ENDBRANCH  34  35
ENDBRANCH  32  34
ENDBRANCH  27  32
ENDBRANCH  18  27
ENDBRANCH  16  17
ENDBRANCH   1  16
BRANCH   9  37
HETATM   37  O7  UNL     1      61.567  17.611  92.227  1.00  0.00    -0.338 OA
ATOM     38  H7  UNL     1      61.606  17.125  91.411  1.00  0.00     0.216 HD
ENDBRANCH   9  37
BRANCH   9  39
HETATM   39  O8  UNL     1      59.879  19.115  91.784  1.00  0.00    -0.338 OA
ATOM     40  H8  UNL     1      59.456  18.342  91.429  1.00  0.00     0.216 HD
ENDBRANCH   9  39
BRANCH   3  41
HETATM   41  O4  UNL     1      63.543  21.864  94.373  1.00  0.00    -0.359 OA
ATOM     42  H4  UNL     1      64.195  21.575  95.001  1.00  0.00     0.217 HD
ENDBRANCH   3  41
BRANCH   6  43
HETATM   43  O5  UNL     1      63.983  20.654  89.048  1.00  0.00    -0.357 OA
ATOM     44  H5  UNL     1      63.466  21.137  88.414  1.00  0.00     0.217 HD
ENDBRANCH   6  43
BRANCH  10  45
HETATM   45  O9  UNL     1      65.646  22.168  88.869  1.00  0.00    -0.360 OA
ATOM     46  H9  UNL     1      66.491  22.232  88.441  1.00  0.00     0.217 HD
ENDBRANCH  10  45
TORSDOF 17
ENDMDL
MODEL 4
REMARK VINA RESULT: -8.063096264      2.720      4.162
REMARK  17 active torsions:
REMARK  status: ('A' for Active; 'I' for Inactive)
REMARK    1  A    between atoms: N1_1  and  N2_4 
REMARK    2  A    between atoms: N2_4  and  O1_5 
REMARK    3  A    between atoms: O1_5  and  C1_6 
REMARK    4  A    between atoms: C1_6  and  C2_8 
REMARK    5  A    between atoms: C2_8  and  C3_9 
REMARK    6  A    between atoms: C3_9  and  C17_37 
REMARK    7  A    between atoms: C4_10  and  O3_11 
REMARK    8  A    between atoms: O3_11  and  C5_12 
REMARK    9  A    between atoms: C7_14  and  O4_15 
REMARK   10  A    between atoms: C10_19  and  O5_20 
REMARK   11  A    between atoms: C12_24  and  O7_25 
REMARK   12  A    between atoms: C12_24  and  O8_27 
REMARK   13  A    between atoms: C13_29  and  O9_30 
REMARK   14  A    between atoms: C17_37  and  N4_38 
REMARK   15  A    between atoms: C17_37  and  C18_42 
REMARK   16  A    between atoms: C18_42  and  C19_44 
REMARK   17  A    between atoms: C19_44  and  O12_45 
ROOT
HETATM    1  C5  UNL     1      62.811  19.421  92.512  1.00  0.00     0.160 A 
HETATM    2  C6  UNL     1      63.648  20.381  92.179  1.00  0.00     0.072 A 
HETATM    3  C7  UNL     1      64.417  21.275  92.949  1.00  0.00     0.096 A 
HETATM    4  C8  UNL     1      65.246  22.219  92.362  1.00  0.00     0.066 A 
HETATM    5  C9  UNL     1      65.318  22.287  90.990  1.00  0.00     0.050 A 
HETATM    6  C10 UNL     1      64.567  21.417  90.227  1.00  0.00     0.114 A 
HETATM    7  C11 UNL     1      63.726  20.456  90.808  1.00  0.00     0.125 A 
HETATM    8  O6  UNL     1      62.898  19.499  90.246  1.00  0.00    -0.281 OA
HETATM    9  C12 UNL     1      62.286  18.801  91.285  1.00  0.00     0.338 A 
HETATM   10  C13 UNL     1      66.102  23.176  90.397  1.00  0.00     0.081 A 
HETATM   11  C14 UNL     1      66.928  24.128  91.168  1.00  0.00     0.068 A 
HETATM   12  C15 UNL     1      66.920  24.133  92.489  1.00  0.00     0.100 A 
HETATM   13  N3  UNL     1      67.727  25.062  93.173  1.00  0.00    -0.098 NA
HETATM   14  C16 UNL     1      66.060  23.159  93.143  1.00  0.00     0.210 A 
HETATM   15  O10 UNL     1      66.009  23.113  94.397  1.00  0.00    -0.285 OA
ENDROOT
BRANCH   1  16
HETATM   16  O3  UNL     1      62.519  19.096  93.839  1.00  0.00    -0.317 OA
BRANCH  16  17
HETATM   17  C4  UNL     1      61.269  19.235  94.407  1.00  0.00     0.148 C 
HETATM   18  C3  UNL     1      60.590  18.207  94.952  1.00  0.00    -0.011 C 
BRANCH  18  19
HETATM   19  C2  UNL     1      61.243  16.912  94.915  1.00  0.00     0.151 C 
BRANCH  19  20
HETATM   20  C1  UNL     1      60.865  15.960  93.882  1.00  0.00     0.283 C 
HETATM   21  O2  UNL     1      60.851  16.233  92.675  1.00  0.00    -0.263 OA
BRANCH  20  22
HETATM   22  O1  UNL     1      60.488  14.645  94.216  1.00  0.00    -0.186 OA
BRANCH  22  23
HETATM   23  N2  UNL     1      59.638  13.933  93.374  1.00  0.00     0.022 NA
BRANCH  23  24
HETATM   24  N1  UNL     1      58.535  14.685  92.992  1.00  0.00    -0.322 N 
ATOM     25  H12 UNL     1      58.599  15.504  92.387  1.00  0.00     0.174 HD
ATOM     26  H11 UNL     1      57.668  14.320  93.388  1.00  0.00     0.174 HD
ENDBRANCH  23  24
ENDBRANCH  22  23
ENDBRANCH  20  22
ENDBRANCH  19  20
ENDBRANCH  18  19
BRANCH  18  27
HETATM   27  C17 UNL     1      59.289  18.497  95.557  1.00  0.00     0.286 C 
BRANCH  27  28
HETATM   28  N4  UNL     1      58.785  19.789  95.215  1.00  0.00    -0.064 N 
ATOM     29  H43 UNL     1      59.021  20.026  94.251  1.00  0.00     0.275 HD
ATOM     30  H42 UNL     1      57.768  19.773  95.139  1.00  0.00     0.275 HD
ATOM     31  H41 UNL     1      59.091  20.521  95.855  1.00  0.00     0.275 HD
ENDBRANCH  27  28
BRANCH  27  32
HETATM   32  C18 UNL     1      58.298  17.410  95.334  1.00  0.00     0.184 C 
HETATM   33  O11 UNL     1      57.700  17.382  94.285  1.00  0.00    -0.293 OA
BRANCH  32  34
HETATM   34  C19 UNL     1      58.018  16.372  96.342  1.00  0.00     0.245 C 
BRANCH  34  35
HETATM   35  O12 UNL     1      57.915  15.109  95.757  1.00  0.00    -0.394 OA
ATOM     36  H12 UNL     1      58.076  14.419  96.391  1.00  0.00     0.209 HD
ENDBRANCH  34  35
ENDBRANCH  32  34
ENDBRANCH  27  32
ENDBRANCH  18  27
ENDBRANCH  16  17
ENDBRANCH   1  16
BRANCH   9  37
HETATM   37  O7  UNL     1      62.755  17.480  91.212  1.00  0.00    -0.338 OA
ATOM     38  H7  UNL     1      62.061  16.894  91.490  1.00  0.00     0.216 HD
ENDBRANCH   9  37
BRANCH   9  39
HETATM   39  O8  UNL     1      60.894  18.837  91.220  1.00  0.00    -0.338 OA
ATOM     40  H8  UNL     1      60.492  18.045  91.558  1.00  0.00     0.216 HD
ENDBRANCH   9  39
BRANCH   3  41
HETATM   41  O4  UNL     1      64.393  21.262  94.312  1.00  0.00    -0.359 OA
ATOM     42  H4  UNL     1      63.704  21.690  94.808  1.00  0.00     0.217 HD
ENDBRANCH   3  41
BRANCH   6  43
HETATM   43  O5  UNL     1      64.641  21.486  88.845  1.00  0.00    -0.357 OA
ATOM     44  H5  UNL     1      64.007  21.012  88.318  1.00  0.00     0.217 HD
ENDBRANCH   6  43
BRANCH  10  45
HETATM   45  O9  UNL     1      66.119  23.181  89.008  1.00  0.00    -0.360 OA
ATOM     46  H9  UNL     1      66.961  23.064  88.584  1.00  0.00     0.217 HD
ENDBRANCH  10  45
TORSDOF 17
ENDMDL
MODEL 5
REMARK VINA RESULT: -7.975344378      2.559      3.936
REMARK  17 active torsions:
REMARK  status: ('A' for Active; 'I' for Inactive)
REMARK    1  A    between atoms: N1_1  and  N2_4 
REMARK    2  A    between atoms: N2_4  and  O1_5 
REMARK    3  A    between atoms: O1_5  and  C1_6 
REMARK    4  A    between atoms: C1_6  and  C2_8 
REMARK    5  A    between atoms: C2_8  and  C3_9 
REMARK    6  A    between atoms: C3_9  and  C17_37 
REMARK    7  A    between atoms: C4_10  and  O3_11 
REMARK    8  A    between atoms: O3_11  and  C5_12 
REMARK    9  A    between atoms: C7_14  and  O4_15 
REMARK   10  A    between atoms: C10_19  and  O5_20 
REMARK   11  A    between atoms: C12_24  and  O7_25 
REMARK   12  A    between atoms: C12_24  and  O8_27 
REMARK   13  A    between atoms: C13_29  and  O9_30 
REMARK   14  A    between atoms: C17_37  and  N4_38 
REMARK   15  A    between atoms: C17_37  and  C18_42 
REMARK   16  A    between atoms: C18_42  and  C19_44 
REMARK   17  A    between atoms: C19_44  and  O12_45 
ROOT
HETATM    1  C5  UNL     1      62.625  18.743  93.039  1.00  0.00     0.160 A 
HETATM    2  C6  UNL     1      63.291  19.657  92.367  1.00  0.00     0.072 A 
HETATM    3  C7  UNL     1      64.175  20.676  92.776  1.00  0.00     0.096 A 
HETATM    4  C8  UNL     1      64.770  21.536  91.866  1.00  0.00     0.066 A 
HETATM    5  C9  UNL     1      64.490  21.392  90.527  1.00  0.00     0.050 A 
HETATM    6  C10 UNL     1      63.626  20.400  90.116  1.00  0.00     0.114 A 
HETATM    7  C11 UNL     1      63.017  19.521  91.026  1.00  0.00     0.125 A 
HETATM    8  O6  UNL     1      62.134  18.472  90.841  1.00  0.00    -0.281 OA
HETATM    9  C12 UNL     1      61.846  17.930  92.092  1.00  0.00     0.338 A 
HETATM   10  C13 UNL     1      65.045  22.196  89.630  1.00  0.00     0.081 A 
HETATM   11  C14 UNL     1      65.980  23.273  90.017  1.00  0.00     0.068 A 
HETATM   12  C15 UNL     1      66.304  23.481  91.280  1.00  0.00     0.100 A 
HETATM   13  N3  UNL     1      67.200  24.522  91.592  1.00  0.00    -0.098 NA
HETATM   14  C16 UNL     1      65.697  22.602  92.267  1.00  0.00     0.210 A 
HETATM   15  O10 UNL     1      65.965  22.749  93.485  1.00  0.00    -0.285 OA
ENDROOT
BRANCH   1  16
HETATM   16  O3  UNL     1      62.695  18.621  94.429  1.00  0.00    -0.317 OA
BRANCH  16  17
HETATM   17  C4  UNL     1      61.637  18.871  95.278  1.00  0.00     0.148 C 
HETATM   18  C3  UNL     1      61.024  17.908  95.994  1.00  0.00    -0.011 C 
BRANCH  18  19
HETATM   19  C2  UNL     1      61.536  16.561  95.832  1.00  0.00     0.151 C 
BRANCH  19  20
HETATM   20  C1  UNL     1      60.666  15.538  95.273  1.00  0.00     0.283 C 
HETATM   21  O2  UNL     1      59.855  14.889  95.946  1.00  0.00    -0.263 OA
BRANCH  20  22
HETATM   22  O1  UNL     1      60.705  15.229  93.899  1.00  0.00    -0.186 OA
BRANCH  22  23
HETATM   23  N2  UNL     1      59.531  15.248  93.151  1.00  0.00     0.022 NA
BRANCH  23  24
HETATM   24  N1  UNL     1      58.565  16.067  93.721  1.00  0.00    -0.322 N 
ATOM     25  H12 UNL     1      58.174  16.882  93.248  1.00  0.00     0.174 HD
ATOM     26  H11 UNL     1      58.302  15.754  94.655  1.00  0.00     0.174 HD
ENDBRANCH  23  24
ENDBRANCH  22  23
ENDBRANCH  20  22
ENDBRANCH  19  20
ENDBRANCH  18  19
BRANCH  18  27
HETATM   27  C17 UNL     1      59.938  18.314  96.888  1.00  0.00     0.286 C 
BRANCH  27  28
HETATM   28  N4  UNL     1      60.277  19.428  97.715  1.00  0.00    -0.064 N 
ATOM     29  H43 UNL     1      60.373  19.141  98.689  1.00  0.00     0.275 HD
ATOM     30  H42 UNL     1      61.233  19.735  97.536  1.00  0.00     0.275 HD
ATOM     31  H41 UNL     1      59.623  20.205  97.628  1.00  0.00     0.275 HD
ENDBRANCH  27  28
BRANCH  27  32
HETATM   32  C18 UNL     1      58.645  18.493  96.175  1.00  0.00     0.184 C 
HETATM   33  O11 UNL     1      57.791  17.649  96.310  1.00  0.00    -0.293 OA
BRANCH  32  34
HETATM   34  C19 UNL     1      58.370  19.655  95.312  1.00  0.00     0.245 C 
BRANCH  34  35
HETATM   35  O12 UNL     1      58.336  19.291  93.964  1.00  0.00    -0.394 OA
ATOM     36  H12 UNL     1      58.798  19.921  93.423  1.00  0.00     0.209 HD
ENDBRANCH  34  35
ENDBRANCH  32  34
ENDBRANCH  27  32
ENDBRANCH  18  27
ENDBRANCH  16  17
ENDBRANCH   1  16
BRANCH   9  37
HETATM   37  O7  UNL     1      62.360  16.624  92.090  1.00  0.00    -0.338 OA
ATOM     38  H7  UNL     1      61.714  16.042  92.474  1.00  0.00     0.216 HD
ENDBRANCH   9  37
BRANCH   9  39
HETATM   39  O8  UNL     1      60.483  17.926  92.383  1.00  0.00    -0.338 OA
ATOM     40  H8  UNL     1      60.239  18.606  93.001  1.00  0.00     0.216 HD
ENDBRANCH   9  39
BRANCH   3  41
HETATM   41  O4  UNL     1      64.495  20.873  94.087  1.00  0.00    -0.359 OA
ATOM     42  H4  UNL     1      65.373  20.726  94.419  1.00  0.00     0.217 HD
ENDBRANCH   3  41
BRANCH   6  43
HETATM   43  O5  UNL     1      63.345  20.255  88.767  1.00  0.00    -0.357 OA
ATOM     44  H5  UNL     1      63.935  19.753  88.217  1.00  0.00     0.217 HD
ENDBRANCH   6  43
BRANCH  10  45
HETATM   45  O9  UNL     1      64.712  21.987  88.298  1.00  0.00    -0.360 OA
ATOM     46  H9  UNL     1      64.188  22.655  87.872  1.00  0.00     0.217 HD
ENDBRANCH  10  45
TORSDOF 17
ENDMDL
