MODEL 1
REMARK VINA RESULT: -8.127478421      0.000      0.000
REMARK  12 active torsions:
REMARK  status: ('A' for Active; 'I' for Inactive)
REMARK    1  A    between atoms: C2_10  and  C3_11 
REMARK       I    between atoms: N5_15  and  C5_17 
REMARK       I    between atoms: C5_17  and  N6_18 
REMARK       I    between atoms: C5_17  and  N7_22 
REMARK    2  A    between atoms: N8_28  and  C8_29 
REMARK    3  A    between atoms: C9_30  and  O2_31 
REMARK    4  A    between atoms: C10_34  and  C11_35 
REMARK    5  A    between atoms: C11_35  and  C12_36 
REMARK    6  A    between atoms: C12_36  and  C13_37 
REMARK    7  A    between atoms: C12_36  and  O5_40 
REMARK    8  A    between atoms: C13_37  and  O4_38 
REMARK    9  A    between atoms: O5_40  and  N9_41 
REMARK   10  A    between atoms: C14_44  and  O6_45 
REMARK   11  A    between atoms: C14_44  and  C15_47 
REMARK   12  A    between atoms: C15_47  and  O7_48 
ROOT
HETATM    1  C3  UNL     1      63.147  19.371  90.153  1.00  0.00     0.141 A 
HETATM    2  N4  UNL     1      63.831  20.112  91.076  1.00  0.00    -0.326 N 
ATOM      3  H4  UNL     1      64.480  20.827  90.746  1.00  0.00     0.169 HD
HETATM    4  C4  UNL     1      63.680  19.936  92.401  1.00  0.00     0.121 A 
HETATM    5  N5  UNL     1      64.304  20.613  93.290  1.00  0.00    -0.326 N 
ATOM      6  H5  UNL     1      64.128  20.412  94.275  1.00  0.00     0.164 HD
HETATM    7  C5  UNL     1      65.257  21.659  92.946  1.00  0.00     0.481 C 
HETATM    8  N6  UNL     1      65.724  22.337  94.114  1.00  0.00    -0.033 N 
ATOM      9  H61 UNL     1      66.391  23.069  93.873  1.00  0.00     0.278 HD
ATOM     10  H62 UNL     1      66.112  21.685  94.796  1.00  0.00     0.278 HD
ATOM     11  H63 UNL     1      64.950  22.703  94.670  1.00  0.00     0.278 HD
HETATM   12  N7  UNL     1      64.635  22.655  92.079  1.00  0.00    -0.033 N 
ATOM     13  H71 UNL     1      65.302  23.387  91.838  1.00  0.00     0.278 HD
ATOM     14  H72 UNL     1      63.784  23.038  92.492  1.00  0.00     0.278 HD
ATOM     15  H73 UNL     1      64.222  22.229  91.249  1.00  0.00     0.278 HD
HETATM   16  C6  UNL     1      62.797  18.967  92.831  1.00  0.00     0.070 A 
HETATM   17  C7  UNL     1      62.417  18.541  94.085  1.00  0.00     0.130 A 
HETATM   18  N8  UNL     1      61.519  17.561  93.971  1.00  0.00    -0.288 N 
HETATM   19  N10 UNL     1      61.325  17.358  92.657  1.00  0.00    -0.282 N 
ATOM     20  H10 UNL     1      60.688  16.665  92.266  1.00  0.00     0.189 HD
HETATM   21  C16 UNL     1      62.085  18.195  91.927  1.00  0.00     0.137 A 
HETATM   22  N11 UNL     1      62.301  18.442  90.633  1.00  0.00    -0.325 N 
ATOM     23  H11 UNL     1      61.785  17.882  89.955  1.00  0.00     0.169 HD
ENDROOT
BRANCH  18  24
HETATM   24  C8  UNL     1      60.866  16.838  94.981  1.00  0.00     0.201 C 
HETATM   25  C9  UNL     1      61.012  15.355  94.981  1.00  0.00     0.285 C 
HETATM   26  O3  UNL     1      59.782  14.804  95.389  1.00  0.00    -0.351 OA
HETATM   27  C10 UNL     1      59.099  15.840  95.959  1.00  0.00     0.166 C 
HETATM   28  C14 UNL     1      59.345  16.970  95.003  1.00  0.00     0.132 C 
BRANCH  25  29
HETATM   29  O2  UNL     1      61.339  14.787  93.784  1.00  0.00    -0.369 OA
ATOM     30  H2  UNL     1      61.092  13.877  93.674  1.00  0.00     0.212 HD
ENDBRANCH  25  29
BRANCH  27  31
HETATM   31  C11 UNL     1      57.737  15.628  96.402  1.00  0.00     0.072 C 
BRANCH  31  32
HETATM   32  C12 UNL     1      57.409  14.534  97.332  1.00  0.00     0.177 C 
BRANCH  32  33
HETATM   33  C13 UNL     1      56.568  14.973  98.509  1.00  0.00     0.198 C 
BRANCH  33  34
HETATM   34  O4  UNL     1      55.936  16.190  98.271  1.00  0.00    -0.398 OA
ATOM     35  H4  UNL     1      56.349  16.903  98.745  1.00  0.00     0.209 HD
ENDBRANCH  33  34
ENDBRANCH  32  33
BRANCH  32  36
HETATM   36  O5  UNL     1      56.607  13.610  96.623  1.00  0.00    -0.280 OA
BRANCH  36  37
HETATM   37  N9  UNL     1      56.207  12.592  97.411  1.00  0.00    -0.311 N 
ATOM     38  H92 UNL     1      55.228  12.395  97.620  1.00  0.00     0.184 HD
ATOM     39  H91 UNL     1      57.000  12.055  97.763  1.00  0.00     0.184 HD
ENDBRANCH  36  37
ENDBRANCH  32  36
ENDBRANCH  31  32
ENDBRANCH  27  31
BRANCH  28  40
HETATM   40  O6  UNL     1      58.918  16.757  93.719  1.00  0.00    -0.383 OA
ATOM     41  H6  UNL     1      59.066  15.837  93.535  1.00  0.00     0.210 HD
ENDBRANCH  28  40
BRANCH  28  42
HETATM   42  C15 UNL     1      58.922  18.307  95.559  1.00  0.00     0.207 C 
BRANCH  42  43
HETATM   43  O7  UNL     1      58.136  18.992  94.645  1.00  0.00    -0.398 OA
ATOM     44  H7  UNL     1      58.261  18.647  93.768  1.00  0.00     0.209 HD
ENDBRANCH  42  43
ENDBRANCH  28  42
ENDBRANCH  18  24
BRANCH   1  45
HETATM   45  C2  UNL     1      63.337  19.590  88.728  1.00  0.00     0.146 A 
HETATM   46  C1  UNL     1      63.929  20.634  88.062  1.00  0.00     0.154 A 
HETATM   47  N1  UNL     1      64.457  21.677  88.613  1.00  0.00    -0.382 N 
HETATM   48  N2  UNL     1      63.860  20.377  86.721  1.00  0.00    -0.224 N 
ATOM     49  H12 UNL     1      64.897  22.452  88.118  1.00  0.00     0.157 HD
ATOM     50  H11 UNL     1      64.508  21.869  89.613  1.00  0.00     0.157 HD
HETATM   51  O1  UNL     1      63.254  19.231  86.591  1.00  0.00    -0.155 OA
ATOM     52  H2  UNL     1      64.214  20.968  85.968  1.00  0.00     0.198 HD
HETATM   53  N3  UNL     1      62.933  18.742  87.775  1.00  0.00    -0.234 N 
ATOM     54  H3  UNL     1      62.452  17.858  87.937  1.00  0.00     0.197 HD
ENDBRANCH   1  45
TORSDOF 12
ENDMDL
MODEL 2
REMARK VINA RESULT: -8.126158553      2.149      3.743
REMARK  12 active torsions:
REMARK  status: ('A' for Active; 'I' for Inactive)
REMARK    1  A    between atoms: C2_10  and  C3_11 
REMARK       I    between atoms: N5_15  and  C5_17 
REMARK       I    between atoms: C5_17  and  N6_18 
REMARK       I    between atoms: C5_17  and  N7_22 
REMARK    2  A    between atoms: N8_28  and  C8_29 
REMARK    3  A    between atoms: C9_30  and  O2_31 
REMARK    4  A    between atoms: C10_34  and  C11_35 
REMARK    5  A    between atoms: C11_35  and  C12_36 
REMARK    6  A    between atoms: C12_36  and  C13_37 
REMARK    7  A    between atoms: C12_36  and  O5_40 
REMARK    8  A    between atoms: C13_37  and  O4_38 
REMARK    9  A    between atoms: O5_40  and  N9_41 
REMARK   10  A    between atoms: C14_44  and  O6_45 
REMARK   11  A    between atoms: C14_44  and  C15_47 
REMARK   12  A    between atoms: C15_47  and  O7_48 
ROOT
HETATM    1  C3  UNL     1      63.595  20.538  90.943  1.00  0.00     0.141 A 
HETATM    2  N4  UNL     1      63.486  19.383  90.220  1.00  0.00    -0.326 N 
ATOM      3  H4  UNL     1      64.005  19.301  89.346  1.00  0.00     0.169 HD
HETATM    4  C4  UNL     1      62.720  18.350  90.618  1.00  0.00     0.121 A 
HETATM    5  N5  UNL     1      62.595  17.256  89.965  1.00  0.00    -0.326 N 
ATOM      6  H5  UNL     1      61.992  16.525  90.341  1.00  0.00     0.164 HD
HETATM    7  C5  UNL     1      63.284  17.020  88.703  1.00  0.00     0.481 C 
HETATM    8  N6  UNL     1      63.071  15.684  88.242  1.00  0.00    -0.033 N 
ATOM      9  H61 UNL     1      63.553  15.519  87.359  1.00  0.00     0.278 HD
ATOM     10  H62 UNL     1      62.077  15.466  88.174  1.00  0.00     0.278 HD
ATOM     11  H63 UNL     1      63.334  14.997  88.947  1.00  0.00     0.278 HD
HETATM   12  N7  UNL     1      64.723  17.205  88.863  1.00  0.00    -0.033 N 
ATOM     13  H71 UNL     1      65.205  17.039  87.980  1.00  0.00     0.278 HD
ATOM     14  H72 UNL     1      65.099  16.626  89.614  1.00  0.00     0.278 HD
ATOM     15  H73 UNL     1      64.947  18.122  89.250  1.00  0.00     0.278 HD
HETATM   16  C6  UNL     1      62.025  18.475  91.803  1.00  0.00     0.070 A 
HETATM   17  C7  UNL     1      61.173  17.630  92.480  1.00  0.00     0.130 A 
HETATM   18  N8  UNL     1      60.752  18.222  93.599  1.00  0.00    -0.288 N 
HETATM   19  N10 UNL     1      61.327  19.435  93.640  1.00  0.00    -0.282 N 
ATOM     20  H10 UNL     1      61.188  20.116  94.387  1.00  0.00     0.189 HD
HETATM   21  C16 UNL     1      62.110  19.631  92.565  1.00  0.00     0.137 A 
HETATM   22  N11 UNL     1      62.894  20.601  92.089  1.00  0.00    -0.325 N 
ATOM     23  H11 UNL     1      62.968  21.457  92.638  1.00  0.00     0.169 HD
ENDROOT
BRANCH  18  24
HETATM   24  C8  UNL     1      59.881  17.732  94.584  1.00  0.00     0.201 C 
HETATM   25  C9  UNL     1      58.509  18.311  94.650  1.00  0.00     0.285 C 
HETATM   26  O3  UNL     1      58.145  18.394  96.007  1.00  0.00    -0.351 OA
HETATM   27  C10 UNL     1      59.028  17.585  96.663  1.00  0.00     0.166 C 
HETATM   28  C14 UNL     1      60.341  17.934  96.026  1.00  0.00     0.132 C 
BRANCH  25  29
HETATM   29  O2  UNL     1      58.360  19.554  94.108  1.00  0.00    -0.369 OA
ATOM     30  H2  UNL     1      58.599  19.640  93.193  1.00  0.00     0.212 HD
ENDBRANCH  25  29
BRANCH  27  31
HETATM   31  C11 UNL     1      58.986  17.523  98.110  1.00  0.00     0.072 C 
BRANCH  31  32
HETATM   32  C12 UNL     1      58.516  16.309  98.799  1.00  0.00     0.177 C 
BRANCH  32  33
HETATM   33  C13 UNL     1      57.060  16.368  99.201  1.00  0.00     0.198 C 
BRANCH  33  34
HETATM   34  O4  UNL     1      56.213  16.287  98.100  1.00  0.00    -0.398 OA
ATOM     35  H4  UNL     1      55.954  15.392  97.916  1.00  0.00     0.209 HD
ENDBRANCH  33  34
ENDBRANCH  32  33
BRANCH  32  36
HETATM   36  O5  UNL     1      58.606  15.243  97.874  1.00  0.00    -0.280 OA
BRANCH  36  37
HETATM   37  N9  UNL     1      58.115  14.097  98.387  1.00  0.00    -0.311 N 
ATOM     38  H92 UNL     1      58.556  13.187  98.250  1.00  0.00     0.184 HD
ATOM     39  H91 UNL     1      57.260  14.259  98.919  1.00  0.00     0.184 HD
ENDBRANCH  36  37
ENDBRANCH  32  36
ENDBRANCH  31  32
ENDBRANCH  27  31
BRANCH  28  40
HETATM   40  O6  UNL     1      60.715  19.247  96.133  1.00  0.00    -0.383 OA
ATOM     41  H6  UNL     1      61.665  19.259  96.120  1.00  0.00     0.210 HD
ENDBRANCH  28  40
BRANCH  28  42
HETATM   42  C15 UNL     1      61.440  16.967  96.388  1.00  0.00     0.207 C 
BRANCH  42  43
HETATM   43  O7  UNL     1      61.078  15.668  96.064  1.00  0.00    -0.398 OA
ATOM     44  H7  UNL     1      60.943  15.581  95.127  1.00  0.00     0.209 HD
ENDBRANCH  42  43
ENDBRANCH  28  42
ENDBRANCH  18  24
BRANCH   1  45
HETATM   45  C2  UNL     1      64.433  21.633  90.481  1.00  0.00     0.146 A 
HETATM   46  C1  UNL     1      64.420  22.319  89.292  1.00  0.00     0.154 A 
HETATM   47  N1  UNL     1      63.614  22.103  88.306  1.00  0.00    -0.382 N 
HETATM   48  N2  UNL     1      65.407  23.265  89.336  1.00  0.00    -0.224 N 
ATOM     49  H12 UNL     1      63.604  22.613  87.423  1.00  0.00     0.157 HD
ATOM     50  H11 UNL     1      62.878  21.398  88.273  1.00  0.00     0.157 HD
HETATM   51  O1  UNL     1      65.984  23.149  90.499  1.00  0.00    -0.155 OA
ATOM     52  H2  UNL     1      65.646  23.931  88.601  1.00  0.00     0.198 HD
HETATM   53  N3  UNL     1      65.419  22.182  91.199  1.00  0.00    -0.234 N 
ATOM     54  H3  UNL     1      65.692  21.899  92.140  1.00  0.00     0.197 HD
ENDBRANCH   1  45
TORSDOF 12
ENDMDL
MODEL 3
REMARK VINA RESULT: -8.059789428      0.827      1.062
REMARK  12 active torsions:
REMARK  status: ('A' for Active; 'I' for Inactive)
REMARK    1  A    between atoms: C2_10  and  C3_11 
REMARK       I    between atoms: N5_15  and  C5_17 
REMARK       I    between atoms: C5_17  and  N6_18 
REMARK       I    between atoms: C5_17  and  N7_22 
REMARK    2  A    between atoms: N8_28  and  C8_29 
REMARK    3  A    between atoms: C9_30  and  O2_31 
REMARK    4  A    between atoms: C10_34  and  C11_35 
REMARK    5  A    between atoms: C11_35  and  C12_36 
REMARK    6  A    between atoms: C12_36  and  C13_37 
REMARK    7  A    between atoms: C12_36  and  O5_40 
REMARK    8  A    between atoms: C13_37  and  O4_38 
REMARK    9  A    between atoms: O5_40  and  N9_41 
REMARK   10  A    between atoms: C14_44  and  O6_45 
REMARK   11  A    between atoms: C14_44  and  C15_47 
REMARK   12  A    between atoms: C15_47  and  O7_48 
ROOT
HETATM    1  C3  UNL     1      63.120  19.271  90.247  1.00  0.00     0.141 A 
HETATM    2  N4  UNL     1      63.805  19.990  91.185  1.00  0.00    -0.326 N 
ATOM      3  H4  UNL     1      64.460  20.707  90.872  1.00  0.00     0.169 HD
HETATM    4  C4  UNL     1      63.649  19.790  92.507  1.00  0.00     0.121 A 
HETATM    5  N5  UNL     1      64.275  20.446  93.411  1.00  0.00    -0.326 N 
ATOM      6  H5  UNL     1      64.094  20.228  94.391  1.00  0.00     0.164 HD
HETATM    7  C5  UNL     1      65.236  21.492  93.089  1.00  0.00     0.481 C 
HETATM    8  N6  UNL     1      65.703  22.145  94.271  1.00  0.00    -0.033 N 
ATOM      9  H61 UNL     1      66.376  22.877  94.046  1.00  0.00     0.278 HD
ATOM     10  H62 UNL     1      66.084  21.478  94.942  1.00  0.00     0.278 HD
ATOM     11  H63 UNL     1      64.930  22.505  94.831  1.00  0.00     0.278 HD
HETATM   12  N7  UNL     1      64.623  22.508  92.239  1.00  0.00    -0.033 N 
ATOM     13  H71 UNL     1      65.295  23.240  92.014  1.00  0.00     0.278 HD
ATOM     14  H72 UNL     1      63.774  22.889  92.656  1.00  0.00     0.278 HD
ATOM     15  H73 UNL     1      64.210  22.101  91.399  1.00  0.00     0.278 HD
HETATM   16  C6  UNL     1      62.759  18.819  92.916  1.00  0.00     0.070 A 
HETATM   17  C7  UNL     1      62.371  18.372  94.160  1.00  0.00     0.130 A 
HETATM   18  N8  UNL     1      61.468  17.400  94.024  1.00  0.00    -0.288 N 
HETATM   19  N10 UNL     1      61.277  17.224  92.706  1.00  0.00    -0.282 N 
ATOM     20  H10 UNL     1      60.636  16.542  92.301  1.00  0.00     0.189 HD
HETATM   21  C16 UNL     1      62.044  18.069  91.995  1.00  0.00     0.137 A 
HETATM   22  N11 UNL     1      62.267  18.338  90.707  1.00  0.00    -0.325 N 
ATOM     23  H11 UNL     1      61.749  17.795  90.016  1.00  0.00     0.169 HD
ENDROOT
BRANCH  18  24
HETATM   24  C8  UNL     1      60.806  16.663  95.019  1.00  0.00     0.201 C 
HETATM   25  C9  UNL     1      60.955  15.180  95.001  1.00  0.00     0.285 C 
HETATM   26  O3  UNL     1      59.722  14.622  95.390  1.00  0.00    -0.351 OA
HETATM   27  C10 UNL     1      59.032  15.650  95.967  1.00  0.00     0.166 C 
HETATM   28  C14 UNL     1      59.285  16.793  95.029  1.00  0.00     0.132 C 
BRANCH  25  29
HETATM   29  O2  UNL     1      61.293  14.629  93.799  1.00  0.00    -0.369 OA
ATOM     30  H2  UNL     1      61.563  13.719  93.820  1.00  0.00     0.212 HD
ENDBRANCH  25  29
BRANCH  27  31
HETATM   31  C11 UNL     1      57.666  15.429  96.395  1.00  0.00     0.072 C 
BRANCH  31  32
HETATM   32  C12 UNL     1      57.370  14.589  97.567  1.00  0.00     0.177 C 
BRANCH  32  33
HETATM   33  C13 UNL     1      57.061  13.151  97.218  1.00  0.00     0.198 C 
BRANCH  33  34
HETATM   34  O4  UNL     1      56.127  13.054  96.191  1.00  0.00    -0.398 OA
ATOM     35  H4  UNL     1      56.335  13.631  95.466  1.00  0.00     0.209 HD
ENDBRANCH  33  34
ENDBRANCH  32  33
BRANCH  32  36
HETATM   36  O5  UNL     1      58.544  14.540  98.352  1.00  0.00    -0.280 OA
BRANCH  36  37
HETATM   37  N9  UNL     1      58.364  13.808  99.471  1.00  0.00    -0.311 N 
ATOM     38  H92 UNL     1      58.451  12.792  99.497  1.00  0.00     0.184 HD
ATOM     39  H91 UNL     1      58.135  14.396 100.272  1.00  0.00     0.184 HD
ENDBRANCH  36  37
ENDBRANCH  32  36
ENDBRANCH  31  32
ENDBRANCH  27  31
BRANCH  28  40
HETATM   40  O6  UNL     1      58.870  16.596  93.738  1.00  0.00    -0.383 OA
ATOM     41  H6  UNL     1      58.706  17.458  93.373  1.00  0.00     0.210 HD
ENDBRANCH  28  40
BRANCH  28  42
HETATM   42  C15 UNL     1      58.855  18.121  95.599  1.00  0.00     0.207 C 
BRANCH  42  43
HETATM   43  O7  UNL     1      58.116  18.838  94.670  1.00  0.00    -0.398 OA
ATOM     44  H7  UNL     1      58.497  19.696  94.526  1.00  0.00     0.209 HD
ENDBRANCH  42  43
ENDBRANCH  28  42
ENDBRANCH  18  24
BRANCH   1  45
HETATM   45  C2  UNL     1      63.316  19.515  88.827  1.00  0.00     0.146 A 
HETATM   46  C1  UNL     1      63.895  20.579  88.181  1.00  0.00     0.154 A 
HETATM   47  N1  UNL     1      64.402  21.622  88.752  1.00  0.00    -0.382 N 
HETATM   48  N2  UNL     1      63.840  20.342  86.835  1.00  0.00    -0.224 N 
ATOM     49  H12 UNL     1      64.833  22.412  88.272  1.00  0.00     0.157 HD
ATOM     50  H11 UNL     1      64.443  21.799  89.756  1.00  0.00     0.157 HD
HETATM   51  O1  UNL     1      63.254  19.188  86.684  1.00  0.00    -0.155 OA
ATOM     52  H2  UNL     1      64.190  20.950  86.094  1.00  0.00     0.198 HD
HETATM   53  N3  UNL     1      62.933  18.676  87.858  1.00  0.00    -0.234 N 
ATOM     54  H3  UNL     1      62.466  17.781  88.003  1.00  0.00     0.197 HD
ENDBRANCH   1  45
TORSDOF 12
ENDMDL
MODEL 4
REMARK VINA RESULT: -8.002814745      2.189      3.472
REMARK  12 active torsions:
REMARK  status: ('A' for Active; 'I' for Inactive)
REMARK    1  A    between atoms: C2_10  and  C3_11 
REMARK       I    between atoms: N5_15  and  C5_17 
REMARK       I    between atoms: C5_17  and  N6_18 
REMARK       I    between atoms: C5_17  and  N7_22 
REMARK    2  A    between atoms: N8_28  and  C8_29 
REMARK    3  A    between atoms: C9_30  and  O2_31 
REMARK    4  A    between atoms: C10_34  and  C11_35 
REMARK    5  A    between atoms: C11_35  and  C12_36 
REMARK    6  A    between atoms: C12_36  and  C13_37 
REMARK    7  A    between atoms: C12_36  and  O5_40 
REMARK    8  A    between atoms: C13_37  and  O4_38 
REMARK    9  A    between atoms: O5_40  and  N9_41 
REMARK   10  A    between atoms: C14_44  and  O6_45 
REMARK   11  A    between atoms: C14_44  and  C15_47 
REMARK   12  A    between atoms: C15_47  and  O7_48 
ROOT
HETATM    1  C3  UNL     1      63.837  20.841  91.084  1.00  0.00     0.141 A 
HETATM    2  N4  UNL     1      63.567  19.683  90.410  1.00  0.00    -0.326 N 
ATOM      3  H4  UNL     1      63.959  19.556  89.478  1.00  0.00     0.169 HD
HETATM    4  C4  UNL     1      62.803  18.705  90.930  1.00  0.00     0.121 A 
HETATM    5  N5  UNL     1      62.531  17.610  90.326  1.00  0.00    -0.326 N 
ATOM      6  H5  UNL     1      61.942  16.922  90.796  1.00  0.00     0.164 HD
HETATM    7  C5  UNL     1      63.031  17.312  88.991  1.00  0.00     0.481 C 
HETATM    8  N6  UNL     1      62.682  15.984  88.594  1.00  0.00    -0.033 N 
ATOM      9  H61 UNL     1      63.033  15.776  87.659  1.00  0.00     0.278 HD
ATOM     10  H62 UNL     1      61.678  15.824  88.662  1.00  0.00     0.278 HD
ATOM     11  H63 UNL     1      62.998  15.294  89.275  1.00  0.00     0.278 HD
HETATM   12  N7  UNL     1      64.486  17.414  88.954  1.00  0.00    -0.033 N 
ATOM     13  H71 UNL     1      64.837  17.205  88.020  1.00  0.00     0.278 HD
ATOM     14  H72 UNL     1      64.925  16.826  89.663  1.00  0.00     0.278 HD
ATOM     15  H73 UNL     1      64.812  18.322  89.287  1.00  0.00     0.278 HD
HETATM   16  C6  UNL     1      62.280  18.890  92.193  1.00  0.00     0.070 A 
HETATM   17  C7  UNL     1      61.479  18.108  92.997  1.00  0.00     0.130 A 
HETATM   18  N8  UNL     1      61.245  18.742  94.147  1.00  0.00    -0.288 N 
HETATM   19  N10 UNL     1      61.888  19.920  94.083  1.00  0.00    -0.282 N 
ATOM     20  H10 UNL     1      61.889  20.620  94.825  1.00  0.00     0.189 HD
HETATM   21  C16 UNL     1      62.532  20.051  92.909  1.00  0.00     0.137 A 
HETATM   22  N11 UNL     1      63.300  20.964  92.311  1.00  0.00    -0.325 N 
ATOM     23  H11 UNL     1      63.494  21.824  92.825  1.00  0.00     0.169 HD
ENDROOT
BRANCH  18  24
HETATM   24  C8  UNL     1      60.486  18.321  95.250  1.00  0.00     0.201 C 
HETATM   25  C9  UNL     1      61.215  17.767  96.425  1.00  0.00     0.285 C 
HETATM   26  O3  UNL     1      60.439  16.718  96.954  1.00  0.00    -0.351 OA
HETATM   27  C10 UNL     1      59.197  16.885  96.410  1.00  0.00     0.166 C 
HETATM   28  C14 UNL     1      59.498  17.191  94.972  1.00  0.00     0.132 C 
BRANCH  25  29
HETATM   29  O2  UNL     1      62.461  17.269  96.174  1.00  0.00    -0.369 OA
ATOM     30  H2  UNL     1      62.681  16.457  96.616  1.00  0.00     0.212 HD
ENDBRANCH  25  29
BRANCH  27  31
HETATM   31  C11 UNL     1      58.171  15.899  96.680  1.00  0.00     0.072 C 
BRANCH  31  32
HETATM   32  C12 UNL     1      58.372  14.484  96.322  1.00  0.00     0.177 C 
BRANCH  32  33
HETATM   33  C13 UNL     1      57.478  13.534  97.084  1.00  0.00     0.198 C 
BRANCH  33  34
HETATM   34  O4  UNL     1      56.502  12.970  96.268  1.00  0.00    -0.398 OA
ATOM     35  H4  UNL     1      56.830  12.216  95.791  1.00  0.00     0.209 HD
ENDBRANCH  33  34
ENDBRANCH  32  33
BRANCH  32  36
HETATM   36  O5  UNL     1      58.000  14.341  94.965  1.00  0.00    -0.280 OA
BRANCH  36  37
HETATM   37  N9  UNL     1      58.923  13.651  94.266  1.00  0.00    -0.311 N 
ATOM     38  H92 UNL     1      58.898  13.548  93.252  1.00  0.00     0.184 HD
ATOM     39  H91 UNL     1      59.637  13.254  94.876  1.00  0.00     0.184 HD
ENDBRANCH  36  37
ENDBRANCH  32  36
ENDBRANCH  31  32
ENDBRANCH  27  31
BRANCH  28  40
HETATM   40  O6  UNL     1      60.195  16.223  94.299  1.00  0.00    -0.383 OA
ATOM     41  H6  UNL     1      60.129  15.431  94.820  1.00  0.00     0.210 HD
ENDBRANCH  28  40
BRANCH  28  42
HETATM   42  C15 UNL     1      58.292  17.693  94.219  1.00  0.00     0.207 C 
BRANCH  42  43
HETATM   43  O7  UNL     1      57.780  16.700  93.396  1.00  0.00    -0.398 OA
ATOM     44  H7  UNL     1      58.400  16.477  92.712  1.00  0.00     0.209 HD
ENDBRANCH  42  43
ENDBRANCH  28  42
ENDBRANCH  18  24
BRANCH   1  45
HETATM   45  C2  UNL     1      64.667  21.876  90.490  1.00  0.00     0.146 A 
HETATM   46  C1  UNL     1      64.559  22.513  89.278  1.00  0.00     0.154 A 
HETATM   47  N1  UNL     1      63.647  22.293  88.390  1.00  0.00    -0.382 N 
HETATM   48  N2  UNL     1      65.584  23.413  89.177  1.00  0.00    -0.224 N 
ATOM     49  H12 UNL     1      63.567  22.766  87.490  1.00  0.00     0.157 HD
ATOM     50  H11 UNL     1      62.883  21.622  88.465  1.00  0.00     0.157 HD
HETATM   51  O1  UNL     1      66.272  23.319  90.280  1.00  0.00    -0.155 OA
ATOM     52  H2  UNL     1      65.772  24.037  88.393  1.00  0.00     0.198 HD
HETATM   53  N3  UNL     1      65.744  22.409  91.078  1.00  0.00    -0.234 N 
ATOM     54  H3  UNL     1      66.101  22.153  91.998  1.00  0.00     0.197 HD
ENDBRANCH   1  45
TORSDOF 12
ENDMDL
MODEL 5
REMARK VINA RESULT: -7.995716712      2.021      3.834
REMARK  12 active torsions:
REMARK  status: ('A' for Active; 'I' for Inactive)
REMARK    1  A    between atoms: C2_10  and  C3_11 
REMARK       I    between atoms: N5_15  and  C5_17 
REMARK       I    between atoms: C5_17  and  N6_18 
REMARK       I    between atoms: C5_17  and  N7_22 
REMARK    2  A    between atoms: N8_28  and  C8_29 
REMARK    3  A    between atoms: C9_30  and  O2_31 
REMARK    4  A    between atoms: C10_34  and  C11_35 
REMARK    5  A    between atoms: C11_35  and  C12_36 
REMARK    6  A    between atoms: C12_36  and  C13_37 
REMARK    7  A    between atoms: C12_36  and  O5_40 
REMARK    8  A    between atoms: C13_37  and  O4_38 
REMARK    9  A    between atoms: O5_40  and  N9_41 
REMARK   10  A    between atoms: C14_44  and  O6_45 
REMARK   11  A    between atoms: C14_44  and  C15_47 
REMARK   12  A    between atoms: C15_47  and  O7_48 
ROOT
HETATM    1  C3  UNL     1      63.951  20.839  91.011  1.00  0.00     0.141 A 
HETATM    2  N4  UNL     1      63.693  19.732  90.253  1.00  0.00    -0.326 N 
ATOM      3  H4  UNL     1      64.214  19.600  89.385  1.00  0.00     0.169 HD
HETATM    4  C4  UNL     1      62.780  18.809  90.606  1.00  0.00     0.121 A 
HETATM    5  N5  UNL     1      62.515  17.762  89.919  1.00  0.00    -0.326 N 
ATOM      6  H5  UNL     1      61.807  17.114  90.264  1.00  0.00     0.164 HD
HETATM    7  C5  UNL     1      63.190  17.463  88.663  1.00  0.00     0.481 C 
HETATM    8  N6  UNL     1      62.799  16.185  88.159  1.00  0.00    -0.033 N 
ATOM      9  H61 UNL     1      63.271  15.976  87.280  1.00  0.00     0.278 HD
ATOM     10  H62 UNL     1      61.786  16.112  88.067  1.00  0.00     0.278 HD
ATOM     11  H63 UNL     1      62.947  15.448  88.848  1.00  0.00     0.278 HD
HETATM   12  N7  UNL     1      64.637  17.437  88.853  1.00  0.00    -0.033 N 
ATOM     13  H71 UNL     1      65.109  17.228  87.974  1.00  0.00     0.278 HD
ATOM     14  H72 UNL     1      64.911  16.791  89.592  1.00  0.00     0.278 HD
ATOM     15  H73 UNL     1      64.980  18.302  89.271  1.00  0.00     0.278 HD
HETATM   16  C6  UNL     1      62.085  19.000  91.782  1.00  0.00     0.070 A 
HETATM   17  C7  UNL     1      61.108  18.267  92.420  1.00  0.00     0.130 A 
HETATM   18  N8  UNL     1      60.752  18.882  93.548  1.00  0.00    -0.288 N 
HETATM   19  N10 UNL     1      61.492  20.000  93.635  1.00  0.00    -0.282 N 
ATOM     20  H10 UNL     1      61.435  20.673  94.399  1.00  0.00     0.189 HD
HETATM   21  C16 UNL     1      62.318  20.110  92.580  1.00  0.00     0.137 A 
HETATM   22  N11 UNL     1      63.242  20.971  92.147  1.00  0.00    -0.325 N 
ATOM     23  H11 UNL     1      63.425  21.793  92.722  1.00  0.00     0.169 HD
ENDROOT
BRANCH  18  24
HETATM   24  C8  UNL     1      59.798  18.495  94.503  1.00  0.00     0.201 C 
HETATM   25  C9  UNL     1      59.074  19.570  95.238  1.00  0.00     0.285 C 
HETATM   26  O3  UNL     1      58.886  19.131  96.562  1.00  0.00    -0.351 OA
HETATM   27  C10 UNL     1      59.110  17.785  96.526  1.00  0.00     0.166 C 
HETATM   28  C14 UNL     1      60.337  17.671  95.670  1.00  0.00     0.132 C 
BRANCH  25  29
HETATM   29  O2  UNL     1      59.699  20.782  95.292  1.00  0.00    -0.369 OA
ATOM     30  H2  UNL     1      59.133  21.544  95.263  1.00  0.00     0.212 HD
ENDBRANCH  25  29
BRANCH  27  31
HETATM   31  C11 UNL     1      59.091  17.034  97.765  1.00  0.00     0.072 C 
BRANCH  31  32
HETATM   32  C12 UNL     1      58.182  15.888  97.937  1.00  0.00     0.177 C 
BRANCH  32  33
HETATM   33  C13 UNL     1      57.079  16.137  98.940  1.00  0.00     0.198 C 
BRANCH  33  34
HETATM   34  O4  UNL     1      55.828  16.202  98.333  1.00  0.00    -0.398 OA
ATOM     35  H4  UNL     1      55.330  15.403  98.460  1.00  0.00     0.209 HD
ENDBRANCH  33  34
ENDBRANCH  32  33
BRANCH  32  36
HETATM   36  O5  UNL     1      57.525  15.687  96.701  1.00  0.00    -0.280 OA
BRANCH  36  37
HETATM   37  N9  UNL     1      57.459  14.379  96.380  1.00  0.00    -0.311 N 
ATOM     38  H92 UNL     1      57.880  13.986  95.539  1.00  0.00     0.184 HD
ATOM     39  H91 UNL     1      56.942  13.846  97.079  1.00  0.00     0.184 HD
ENDBRANCH  36  37
ENDBRANCH  32  36
ENDBRANCH  31  32
ENDBRANCH  27  31
BRANCH  28  40
HETATM   40  O6  UNL     1      61.442  18.334  96.136  1.00  0.00    -0.383 OA
ATOM     41  H6  UNL     1      62.165  17.721  96.086  1.00  0.00     0.210 HD
ENDBRANCH  28  40
BRANCH  28  42
HETATM   42  C15 UNL     1      60.625  16.252  95.249  1.00  0.00     0.207 C 
BRANCH  42  43
HETATM   43  O7  UNL     1      59.553  15.722  94.546  1.00  0.00    -0.398 OA
ATOM     44  H7  UNL     1      59.750  14.844  94.244  1.00  0.00     0.209 HD
ENDBRANCH  42  43
ENDBRANCH  28  42
ENDBRANCH  18  24
BRANCH   1  45
HETATM   45  C2  UNL     1      64.945  21.816  90.596  1.00  0.00     0.146 A 
HETATM   46  C1  UNL     1      65.848  22.533  91.341  1.00  0.00     0.154 A 
HETATM   47  N1  UNL     1      65.987  22.469  92.624  1.00  0.00    -0.382 N 
HETATM   48  N2  UNL     1      66.570  23.324  90.490  1.00  0.00    -0.224 N 
ATOM     49  H12 UNL     1      66.658  23.003  93.178  1.00  0.00     0.157 HD
ATOM     50  H11 UNL     1      65.448  21.880  93.260  1.00  0.00     0.157 HD
HETATM   51  O1  UNL     1      66.118  23.089  89.290  1.00  0.00    -0.155 OA
ATOM     52  H2  UNL     1      67.316  23.971  90.744  1.00  0.00     0.198 HD
HETATM   53  N3  UNL     1      65.149  22.193  89.329  1.00  0.00    -0.234 N 
ATOM     54  H3  UNL     1      64.637  21.843  88.520  1.00  0.00     0.197 HD
ENDBRANCH   1  45
TORSDOF 12
ENDMDL
