MODEL 1
REMARK VINA RESULT: -4.872519172      0.000      0.000
REMARK  2 active torsions:
REMARK  status: ('A' for Active; 'I' for Inactive)
REMARK       I    between atoms: C1_2  and  N1_3 
REMARK    1  A    between atoms: C1_2  and  C5_9 
REMARK    2  A    between atoms: N1_3  and  C2_5 
ROOT
HETATM    1  O1  UNL     1     -25.306  41.250  15.785  1.00  0.00    -0.273 OA
HETATM    2  C1  UNL     1     -25.870  42.167  15.117  1.00  0.00     0.226 C 
HETATM    3  N1  UNL     1     -27.158  42.591  15.522  1.00  0.00    -0.353 N 
ATOM      4  H1  UNL     1     -27.636  43.329  15.005  1.00  0.00     0.163 HD
ENDROOT
BRANCH   2   5
HETATM    5  C5  UNL     1     -25.237  42.802  13.948  1.00  0.00     0.137 A 
HETATM    6  C6  UNL     1     -26.068  42.816  12.696  1.00  0.00     0.080 A 
HETATM    7  C7  UNL     1     -24.788  42.052  12.755  1.00  0.00     0.192 A 
HETATM    8  F2  UNL     1     -24.839  40.704  12.633  1.00  0.00    -0.225 F 
HETATM    9 CL1  UNL     1     -23.380  42.777  11.900  1.00  0.00    -0.082 Cl
ENDBRANCH   2   5
BRANCH   3  10
HETATM   10  C2  UNL     1     -27.812  41.972  16.685  1.00  0.00     0.121 A 
HETATM   11  C3  UNL     1     -28.395  42.869  17.746  1.00  0.00     0.067 A 
HETATM   12  C4  UNL     1     -29.289  42.190  16.763  1.00  0.00     0.195 A 
HETATM   13  F1  UNL     1     -29.901  42.992  15.831  1.00  0.00    -0.247 F 
ENDBRANCH   3  10
TORSDOF 2
ENDMDL
MODEL 2
REMARK VINA RESULT: -4.872383775      1.667      1.897
REMARK  2 active torsions:
REMARK  status: ('A' for Active; 'I' for Inactive)
REMARK       I    between atoms: C1_2  and  N1_3 
REMARK    1  A    between atoms: C1_2  and  C5_9 
REMARK    2  A    between atoms: N1_3  and  C2_5 
ROOT
HETATM    1  O1  UNL     1     -25.966  42.820  17.185  1.00  0.00    -0.273 OA
HETATM    2  C1  UNL     1     -26.338  42.410  16.046  1.00  0.00     0.226 C 
HETATM    3  N1  UNL     1     -27.726  42.375  15.770  1.00  0.00    -0.353 N 
ATOM      4  H1  UNL     1     -28.055  42.051  14.860  1.00  0.00     0.163 HD
ENDROOT
BRANCH   2   5
HETATM    5  C5  UNL     1     -25.386  41.974  15.010  1.00  0.00     0.137 A 
HETATM    6  C6  UNL     1     -24.567  43.069  14.386  1.00  0.00     0.080 A 
HETATM    7  C7  UNL     1     -25.543  42.286  13.572  1.00  0.00     0.192 A 
HETATM    8  F2  UNL     1     -26.605  42.937  13.041  1.00  0.00    -0.225 F 
HETATM    9 CL1  UNL     1     -24.851  41.053  12.458  1.00  0.00    -0.082 Cl
ENDBRANCH   2   5
BRANCH   3  10
HETATM   10  C2  UNL     1     -28.696  42.803  16.788  1.00  0.00     0.121 A 
HETATM   11  C3  UNL     1     -30.165  42.728  16.461  1.00  0.00     0.067 A 
HETATM   12  C4  UNL     1     -29.540  41.704  17.350  1.00  0.00     0.195 A 
HETATM   13  F1  UNL     1     -29.421  40.435  16.838  1.00  0.00    -0.247 F 
ENDBRANCH   3  10
TORSDOF 2
ENDMDL
MODEL 3
REMARK VINA RESULT: -4.871200694      4.488      5.833
REMARK  2 active torsions:
REMARK  status: ('A' for Active; 'I' for Inactive)
REMARK       I    between atoms: C1_2  and  N1_3 
REMARK    1  A    between atoms: C1_2  and  C5_9 
REMARK    2  A    between atoms: N1_3  and  C2_5 
ROOT
HETATM    1  O1  UNL     1     -23.377  42.728  17.192  1.00  0.00    -0.273 OA
HETATM    2  C1  UNL     1     -23.016  43.142  16.050  1.00  0.00     0.226 C 
HETATM    3  N1  UNL     1     -21.632  43.161  15.754  1.00  0.00    -0.353 N 
ATOM      4  H1  UNL     1     -21.312  43.488  14.843  1.00  0.00     0.163 HD
ENDROOT
BRANCH   2   5
HETATM    5  C5  UNL     1     -23.977  43.600  15.032  1.00  0.00     0.137 A 
HETATM    6  C6  UNL     1     -24.833  42.523  14.426  1.00  0.00     0.080 A 
HETATM    7  C7  UNL     1     -23.855  43.282  13.593  1.00  0.00     0.192 A 
HETATM    8  F2  UNL     1     -22.819  42.605  13.043  1.00  0.00    -0.225 F 
HETATM    9 CL1  UNL     1     -24.538  44.529  12.489  1.00  0.00    -0.082 Cl
ENDBRANCH   2   5
BRANCH   3  10
HETATM   10  C2  UNL     1     -20.653  42.711  16.755  1.00  0.00     0.121 A 
HETATM   11  C3  UNL     1     -19.186  42.803  16.420  1.00  0.00     0.067 A 
HETATM   12  C4  UNL     1     -19.810  43.799  17.340  1.00  0.00     0.195 A 
HETATM   13  F1  UNL     1     -19.939  45.081  16.862  1.00  0.00    -0.247 F 
ENDBRANCH   3  10
TORSDOF 2
ENDMDL
MODEL 4
REMARK VINA RESULT: -4.855406284      4.107      5.558
REMARK  2 active torsions:
REMARK  status: ('A' for Active; 'I' for Inactive)
REMARK       I    between atoms: C1_2  and  N1_3 
REMARK    1  A    between atoms: C1_2  and  C5_9 
REMARK    2  A    between atoms: N1_3  and  C2_5 
ROOT
HETATM    1  O1  UNL     1     -24.104  44.266  15.902  1.00  0.00    -0.273 OA
HETATM    2  C1  UNL     1     -23.518  43.390  15.198  1.00  0.00     0.226 C 
HETATM    3  N1  UNL     1     -22.205  43.010  15.565  1.00  0.00    -0.353 N 
ATOM      4  H1  UNL     1     -21.708  42.306  15.018  1.00  0.00     0.163 HD
ENDROOT
BRANCH   2   5
HETATM    5  C5  UNL     1     -24.149  42.761  14.025  1.00  0.00     0.137 A 
HETATM    6  C6  UNL     1     -23.335  42.791  12.762  1.00  0.00     0.080 A 
HETATM    7  C7  UNL     1     -24.634  43.521  12.852  1.00  0.00     0.192 A 
HETATM    8  F2  UNL     1     -24.619  44.871  12.755  1.00  0.00    -0.225 F 
HETATM    9 CL1  UNL     1     -26.034  42.774  12.002  1.00  0.00    -0.082 Cl
ENDBRANCH   2   5
BRANCH   3  10
HETATM   10  C2  UNL     1     -21.552  43.625  16.730  1.00  0.00     0.121 A 
HETATM   11  C3  UNL     1     -20.952  42.724  17.779  1.00  0.00     0.067 A 
HETATM   12  C4  UNL     1     -20.072  43.423  16.797  1.00  0.00     0.195 A 
HETATM   13  F1  UNL     1     -19.456  42.637  15.854  1.00  0.00    -0.247 F 
ENDBRANCH   3  10
TORSDOF 2
ENDMDL
MODEL 5
REMARK VINA RESULT: -4.593618554      4.367      5.278
REMARK  2 active torsions:
REMARK  status: ('A' for Active; 'I' for Inactive)
REMARK       I    between atoms: C1_2  and  N1_3 
REMARK    1  A    between atoms: C1_2  and  C5_9 
REMARK    2  A    between atoms: N1_3  and  C2_5 
ROOT
HETATM    1  O1  UNL     1     -24.566  43.609  16.545  1.00  0.00    -0.273 OA
HETATM    2  C1  UNL     1     -23.587  43.664  15.743  1.00  0.00     0.226 C 
HETATM    3  N1  UNL     1     -22.411  44.325  16.171  1.00  0.00    -0.353 N 
ATOM      4  H1  UNL     1     -21.606  44.385  15.547  1.00  0.00     0.163 HD
ENDROOT
BRANCH   2   5
HETATM    5  C5  UNL     1     -23.630  43.071  14.395  1.00  0.00     0.137 A 
HETATM    6  C6  UNL     1     -24.191  43.958  13.319  1.00  0.00     0.080 A 
HETATM    7  C7  UNL     1     -24.885  42.696  13.708  1.00  0.00     0.192 A 
HETATM    8  F2  UNL     1     -26.118  42.785  14.261  1.00  0.00    -0.225 F 
HETATM    9 CL1  UNL     1     -24.730  41.311  12.568  1.00  0.00    -0.082 Cl
ENDBRANCH   2   5
BRANCH   3  10
HETATM   10  C2  UNL     1     -22.343  44.927  17.511  1.00  0.00     0.121 A 
HETATM   11  C3  UNL     1     -21.032  44.889  18.253  1.00  0.00     0.067 A 
HETATM   12  C4  UNL     1     -21.492  46.153  17.604  1.00  0.00     0.195 A 
HETATM   13  F1  UNL     1     -20.788  46.570  16.501  1.00  0.00    -0.247 F 
ENDBRANCH   3  10
TORSDOF 2
ENDMDL
