MODEL 1
REMARK VINA RESULT: -6.567169443      0.000      0.000
REMARK  13 active torsions:
REMARK  status: ('A' for Active; 'I' for Inactive)
REMARK    1  A    between atoms: C2_2  and  O1_4 
REMARK    2  A    between atoms: C2_2  and  C4_6 
REMARK    3  A    between atoms: C4_6  and  O2_7 
REMARK    4  A    between atoms: C4_6  and  C5_9 
REMARK    5  A    between atoms: C7_13  and  O5_14 
REMARK    6  A    between atoms: O5_14  and  C8_15 
REMARK    7  A    between atoms: C9_18  and  N2_19 
REMARK    8  A    between atoms: N2_19  and  O6_21 
REMARK    9  A    between atoms: C12_26  and  O7_28 
REMARK   10  A    between atoms: C14_30  and  O8_31 
REMARK   11  A    between atoms: C15_33  and  O9_34 
REMARK   12  A    between atoms: C16_36  and  O10_37 
REMARK   13  A    between atoms: C16_36  and  C17_39 
ROOT
HETATM    1  C8  UNL     1       1.122 -36.511  13.618  1.00  0.00     0.251 C 
HETATM    2  N1  UNL     1       0.186 -35.638  12.998  1.00  0.00    -0.371 N 
ATOM      3  H1  UNL     1      -0.743 -35.477  13.387  1.00  0.00     0.158 HD
HETATM    4  C9  UNL     1       0.629 -35.001  11.793  1.00  0.00     0.221 C 
HETATM    5  C10 UNL     1       2.057 -34.606  11.798  1.00  0.00     0.173 C 
HETATM    6  C11 UNL     1       2.526 -34.033  10.558  1.00  0.00     0.071 C 
HETATM    7  N3  UNL     1       2.926 -33.549   9.561  1.00  0.00    -0.197 NA
HETATM    8  C12 UNL     1       2.977 -35.727  12.242  1.00  0.00     0.104 C 
HETATM    9  C13 UNL     1       4.382 -35.163  12.248  1.00  0.00     0.050 C 
HETATM   10  C14 UNL     1       2.537 -36.060  13.653  1.00  0.00     0.202 C 
ENDROOT
BRANCH   4  11
HETATM   11  N2  UNL     1       0.385 -35.932  10.715  1.00  0.00    -0.280 N 
ATOM     12  H2  UNL     1       1.133 -36.481  10.291  1.00  0.00     0.189 HD
BRANCH  11  13
HETATM   13  O6  UNL     1      -0.878 -36.024  10.312  1.00  0.00    -0.292 OA
ATOM     14  H6  UNL     1      -1.016 -36.504   9.504  1.00  0.00     0.244 HD
ENDBRANCH  11  13
ENDBRANCH   4  11
BRANCH   8  15
HETATM   15  O7  UNL     1       2.854 -36.816  11.391  1.00  0.00    -0.386 OA
ATOM     16  H7  UNL     1       2.563 -37.581  11.875  1.00  0.00     0.210 HD
ENDBRANCH   8  15
BRANCH  10  17
HETATM   17  O8  UNL     1       2.608 -34.889  14.404  1.00  0.00    -0.388 OA
ATOM     18  H8  UNL     1       3.378 -34.934  14.960  1.00  0.00     0.210 HD
ENDBRANCH  10  17
BRANCH   1  19
HETATM   19  O5  UNL     1       0.723 -36.722  14.956  1.00  0.00    -0.346 OA
BRANCH  19  20
HETATM   20  C7  UNL     1      -0.228 -37.734  15.042  1.00  0.00     0.256 C 
HETATM   21  C6  UNL     1      -0.855 -37.649  16.387  1.00  0.00     0.291 C 
HETATM   22  O3  UNL     1      -1.410 -38.775  16.917  1.00  0.00    -0.307 OA
HETATM   23  O4  UNL     1      -0.896 -36.579  17.062  1.00  0.00    -0.262 OA
HETATM   24  C5  UNL     1      -1.213 -40.091  16.487  1.00  0.00     0.211 C 
HETATM   25  C16 UNL     1      -0.409 -40.233  15.254  1.00  0.00     0.204 C 
HETATM   26  C15 UNL     1       0.489 -39.045  14.964  1.00  0.00     0.205 C 
BRANCH  24  27
HETATM   27  C4  UNL     1      -2.583 -40.747  16.389  1.00  0.00     0.184 C 
BRANCH  27  28
HETATM   28  C2  UNL     1      -3.173 -40.999  17.748  1.00  0.00     0.079 C 
HETATM   29  C1  UNL     1      -4.099 -42.209  17.744  1.00  0.00     0.048 C 
HETATM   30  C3  UNL     1      -2.175 -41.189  18.831  1.00  0.00     0.048 C 
BRANCH  28  31
HETATM   31  O1  UNL     1      -3.972 -39.901  18.065  1.00  0.00    -0.388 OA
ATOM     32  H1  UNL     1      -3.987 -39.354  17.289  1.00  0.00     0.210 HD
ENDBRANCH  28  31
ENDBRANCH  27  28
BRANCH  27  33
HETATM   33  O2  UNL     1      -2.503 -42.009  15.783  1.00  0.00    -0.390 OA
ATOM     34  H2  UNL     1      -2.326 -42.615  16.492  1.00  0.00     0.210 HD
ENDBRANCH  27  33
ENDBRANCH  24  27
BRANCH  25  35
HETATM   35  O10 UNL     1       0.480 -41.324  15.425  1.00  0.00    -0.374 OA
ATOM     36  H10 UNL     1       0.656 -41.702  14.572  1.00  0.00     0.211 HD
ENDBRANCH  25  35
BRANCH  25  37
HETATM   37  C17 UNL     1      -1.178 -40.516  14.032  1.00  0.00     0.214 C 
HETATM   38  O11 UNL     1      -0.993 -41.556  13.323  1.00  0.00    -0.646 OA
HETATM   39  O12 UNL     1      -2.185 -39.661  13.541  1.00  0.00    -0.646 OA
ENDBRANCH  25  37
BRANCH  26  40
HETATM   40  O9  UNL     1       1.578 -38.990  15.830  1.00  0.00    -0.389 OA
ATOM     41  H9  UNL     1       1.778 -39.877  16.104  1.00  0.00     0.210 HD
ENDBRANCH  26  40
ENDBRANCH  19  20
ENDBRANCH   1  19
TORSDOF 13
ENDMDL
MODEL 2
REMARK VINA RESULT: -6.312379155      2.726      7.950
REMARK  13 active torsions:
REMARK  status: ('A' for Active; 'I' for Inactive)
REMARK    1  A    between atoms: C2_2  and  O1_4 
REMARK    2  A    between atoms: C2_2  and  C4_6 
REMARK    3  A    between atoms: C4_6  and  O2_7 
REMARK    4  A    between atoms: C4_6  and  C5_9 
REMARK    5  A    between atoms: C7_13  and  O5_14 
REMARK    6  A    between atoms: O5_14  and  C8_15 
REMARK    7  A    between atoms: C9_18  and  N2_19 
REMARK    8  A    between atoms: N2_19  and  O6_21 
REMARK    9  A    between atoms: C12_26  and  O7_28 
REMARK   10  A    between atoms: C14_30  and  O8_31 
REMARK   11  A    between atoms: C15_33  and  O9_34 
REMARK   12  A    between atoms: C16_36  and  O10_37 
REMARK   13  A    between atoms: C16_36  and  C17_39 
ROOT
HETATM    1  C8  UNL     1      -0.685 -39.851  15.260  1.00  0.00     0.251 C 
HETATM    2  N1  UNL     1      -1.942 -39.673  14.618  1.00  0.00    -0.371 N 
ATOM      3  H1  UNL     1      -2.030 -39.189  13.724  1.00  0.00     0.158 HD
HETATM    4  C9  UNL     1      -3.076 -40.216  15.305  1.00  0.00     0.221 C 
HETATM    5  C10 UNL     1      -2.818 -41.502  15.994  1.00  0.00     0.173 C 
HETATM    6  C11 UNL     1      -3.936 -42.014  16.751  1.00  0.00     0.071 C 
HETATM    7  N3  UNL     1      -4.841 -42.458  17.361  1.00  0.00    -0.197 NA
HETATM    8  C12 UNL     1      -1.570 -41.468  16.855  1.00  0.00     0.104 C 
HETATM    9  C13 UNL     1      -1.408 -42.854  17.445  1.00  0.00     0.050 C 
HETATM   10  C14 UNL     1      -0.438 -41.170  15.894  1.00  0.00     0.202 C 
ENDROOT
BRANCH   4  11
HETATM   11  N2  UNL     1      -3.495 -39.224  16.269  1.00  0.00    -0.280 N 
ATOM     12  H2  UNL     1      -3.618 -39.443  17.257  1.00  0.00     0.189 HD
BRANCH  11  13
HETATM   13  O6  UNL     1      -3.710 -38.007  15.781  1.00  0.00    -0.292 OA
ATOM     14  H6  UNL     1      -4.620 -37.737  15.741  1.00  0.00     0.244 HD
ENDBRANCH  11  13
ENDBRANCH   4  11
BRANCH   8  15
HETATM   15  O7  UNL     1      -1.687 -40.493  17.835  1.00  0.00    -0.386 OA
ATOM     16  H7  UNL     1      -0.992 -40.585  18.476  1.00  0.00     0.210 HD
ENDBRANCH   8  15
BRANCH  10  17
HETATM   17  O8  UNL     1      -0.459 -42.148  14.902  1.00  0.00    -0.388 OA
ATOM     18  H8  UNL     1       0.054 -42.891  15.200  1.00  0.00     0.210 HD
ENDBRANCH  10  17
BRANCH   1  19
HETATM   19  O5  UNL     1       0.339 -39.652  14.307  1.00  0.00    -0.346 OA
BRANCH  19  20
HETATM   20  C7  UNL     1       0.332 -38.345  13.828  1.00  0.00     0.256 C 
HETATM   21  C6  UNL     1       0.592 -38.401  12.366  1.00  0.00     0.291 C 
HETATM   22  O3  UNL     1       1.139 -37.308  11.762  1.00  0.00    -0.307 OA
HETATM   23  O4  UNL     1       0.331 -39.416  11.658  1.00  0.00    -0.262 OA
HETATM   24  C5  UNL     1       1.766 -36.228  12.390  1.00  0.00     0.211 C 
HETATM   25  C16 UNL     1       1.710 -36.242  13.867  1.00  0.00     0.204 C 
HETATM   26  C15 UNL     1       1.477 -37.619  14.461  1.00  0.00     0.205 C 
BRANCH  24  27
HETATM   27  C4  UNL     1       1.195 -34.955  11.781  1.00  0.00     0.184 C 
BRANCH  27  28
HETATM   28  C2  UNL     1       1.606 -34.799  10.343  1.00  0.00     0.079 C 
HETATM   29  C1  UNL     1       0.452 -35.101   9.394  1.00  0.00     0.048 C 
HETATM   30  C3  UNL     1       2.148 -33.462   9.995  1.00  0.00     0.048 C 
BRANCH  28  31
HETATM   31  O1  UNL     1       2.582 -35.759  10.083  1.00  0.00    -0.388 OA
ATOM     32  H1  UNL     1       3.028 -35.912  10.908  1.00  0.00     0.210 HD
ENDBRANCH  28  31
ENDBRANCH  27  28
BRANCH  27  33
HETATM   33  O2  UNL     1       1.686 -33.812  12.429  1.00  0.00    -0.390 OA
ATOM     34  H2  UNL     1       0.965 -33.499  12.962  1.00  0.00     0.210 HD
ENDBRANCH  27  33
ENDBRANCH  24  27
BRANCH  25  35
HETATM   35  O10 UNL     1       2.976 -35.844  14.365  1.00  0.00    -0.374 OA
ATOM     36  H10 UNL     1       3.159 -34.967  14.048  1.00  0.00     0.211 HD
ENDBRANCH  25  35
BRANCH  25  37
HETATM   37  C17 UNL     1       0.725 -35.329  14.468  1.00  0.00     0.214 C 
HETATM   38  O11 UNL     1       1.022 -34.495  15.382  1.00  0.00    -0.646 OA
HETATM   39  O12 UNL     1      -0.631 -35.299  14.084  1.00  0.00    -0.646 OA
ENDBRANCH  25  37
BRANCH  26  40
HETATM   40  O9  UNL     1       2.605 -38.429  14.359  1.00  0.00    -0.389 OA
ATOM     41  H9  UNL     1       3.052 -38.205  13.552  1.00  0.00     0.210 HD
ENDBRANCH  26  40
ENDBRANCH  19  20
ENDBRANCH   1  19
TORSDOF 13
ENDMDL
MODEL 3
REMARK VINA RESULT: -6.295627588      2.472      8.017
REMARK  13 active torsions:
REMARK  status: ('A' for Active; 'I' for Inactive)
REMARK    1  A    between atoms: C2_2  and  O1_4 
REMARK    2  A    between atoms: C2_2  and  C4_6 
REMARK    3  A    between atoms: C4_6  and  O2_7 
REMARK    4  A    between atoms: C4_6  and  C5_9 
REMARK    5  A    between atoms: C7_13  and  O5_14 
REMARK    6  A    between atoms: O5_14  and  C8_15 
REMARK    7  A    between atoms: C9_18  and  N2_19 
REMARK    8  A    between atoms: N2_19  and  O6_21 
REMARK    9  A    between atoms: C12_26  and  O7_28 
REMARK   10  A    between atoms: C14_30  and  O8_31 
REMARK   11  A    between atoms: C15_33  and  O9_34 
REMARK   12  A    between atoms: C16_36  and  O10_37 
REMARK   13  A    between atoms: C16_36  and  C17_39 
ROOT
HETATM    1  C8  UNL     1      -0.102 -39.521  14.331  1.00  0.00     0.251 C 
HETATM    2  N1  UNL     1      -1.032 -38.475  14.582  1.00  0.00    -0.371 N 
ATOM      3  H1  UNL     1      -1.024 -37.604  14.050  1.00  0.00     0.158 HD
HETATM    4  C9  UNL     1      -1.980 -38.720  15.628  1.00  0.00     0.221 C 
HETATM    5  C10 UNL     1      -2.463 -40.119  15.702  1.00  0.00     0.173 C 
HETATM    6  C11 UNL     1      -3.361 -40.387  16.802  1.00  0.00     0.071 C 
HETATM    7  N3  UNL     1      -4.106 -40.624  17.682  1.00  0.00    -0.197 NA
HETATM    8  C12 UNL     1      -1.336 -41.133  15.682  1.00  0.00     0.104 C 
HETATM    9  C13 UNL     1      -1.980 -42.503  15.709  1.00  0.00     0.050 C 
HETATM   10  C14 UNL     1      -0.630 -40.909  14.361  1.00  0.00     0.202 C 
ENDROOT
BRANCH   4  11
HETATM   11  N2  UNL     1      -1.334 -38.362  16.870  1.00  0.00    -0.280 N 
ATOM     12  H2  UNL     1      -1.189 -39.036  17.621  1.00  0.00     0.189 HD
BRANCH  11  13
HETATM   13  O6  UNL     1      -0.943 -37.096  16.967  1.00  0.00    -0.292 OA
ATOM     14  H6  UNL     1      -1.099 -36.559  16.199  1.00  0.00     0.244 HD
ENDBRANCH  11  13
ENDBRANCH   4  11
BRANCH   8  15
HETATM   15  O7  UNL     1      -0.489 -40.932  16.762  1.00  0.00    -0.386 OA
ATOM     16  H7  UNL     1      -0.923 -40.414  17.430  1.00  0.00     0.210 HD
ENDBRANCH   8  15
BRANCH  10  17
HETATM   17  O8  UNL     1      -1.578 -41.042  13.348  1.00  0.00    -0.388 OA
ATOM     18  H8  UNL     1      -1.244 -41.652  12.702  1.00  0.00     0.210 HD
ENDBRANCH  10  17
BRANCH   1  19
HETATM   19  O5  UNL     1       0.466 -39.322  13.053  1.00  0.00    -0.346 OA
BRANCH  19  20
HETATM   20  C7  UNL     1       0.503 -37.971  12.725  1.00  0.00     0.256 C 
HETATM   21  C6  UNL     1       0.558 -37.869  11.243  1.00  0.00     0.291 C 
HETATM   22  O3  UNL     1       1.106 -36.751  10.689  1.00  0.00    -0.307 OA
HETATM   23  O4  UNL     1       0.119 -38.773  10.474  1.00  0.00    -0.262 OA
HETATM   24  C5  UNL     1       1.900 -35.798  11.334  1.00  0.00     0.211 C 
HETATM   25  C16 UNL     1       2.044 -35.985  12.793  1.00  0.00     0.204 C 
HETATM   26  C15 UNL     1       1.780 -37.404  13.261  1.00  0.00     0.205 C 
BRANCH  24  27
HETATM   27  C4  UNL     1       1.360 -34.426  10.955  1.00  0.00     0.184 C 
BRANCH  27  28
HETATM   28  C2  UNL     1       1.680 -34.082   9.527  1.00  0.00     0.079 C 
HETATM   29  C1  UNL     1       1.477 -32.597   9.248  1.00  0.00     0.048 C 
HETATM   30  C3  UNL     1       3.052 -34.447   9.094  1.00  0.00     0.048 C 
BRANCH  28  31
HETATM   31  O1  UNL     1       0.763 -34.755   8.721  1.00  0.00    -0.388 OA
ATOM     32  H1  UNL     1       0.730 -35.647   9.048  1.00  0.00     0.210 HD
ENDBRANCH  28  31
ENDBRANCH  27  28
BRANCH  27  33
HETATM   33  O2  UNL     1       1.956 -33.413  11.720  1.00  0.00    -0.390 OA
ATOM     34  H2  UNL     1       2.139 -32.712  11.106  1.00  0.00     0.210 HD
ENDBRANCH  27  33
ENDBRANCH  24  27
BRANCH  25  35
HETATM   35  O10 UNL     1       3.394 -35.735  13.143  1.00  0.00    -0.374 OA
ATOM     36  H10 UNL     1       3.493 -35.882  14.077  1.00  0.00     0.211 HD
ENDBRANCH  25  35
BRANCH  25  37
HETATM   37  C17 UNL     1       1.229 -35.086  13.625  1.00  0.00     0.214 C 
HETATM   38  O11 UNL     1       1.731 -34.295  14.486  1.00  0.00    -0.646 OA
HETATM   39  O12 UNL     1      -0.177 -35.022  13.540  1.00  0.00    -0.646 OA
ENDBRANCH  25  37
BRANCH  26  40
HETATM   40  O9  UNL     1       2.813 -38.269  12.911  1.00  0.00    -0.389 OA
ATOM     41  H9  UNL     1       3.605 -37.967  13.338  1.00  0.00     0.210 HD
ENDBRANCH  26  40
ENDBRANCH  19  20
ENDBRANCH   1  19
TORSDOF 13
ENDMDL
MODEL 4
REMARK VINA RESULT: -6.181714530      2.583      8.195
REMARK  13 active torsions:
REMARK  status: ('A' for Active; 'I' for Inactive)
REMARK    1  A    between atoms: C2_2  and  O1_4 
REMARK    2  A    between atoms: C2_2  and  C4_6 
REMARK    3  A    between atoms: C4_6  and  O2_7 
REMARK    4  A    between atoms: C4_6  and  C5_9 
REMARK    5  A    between atoms: C7_13  and  O5_14 
REMARK    6  A    between atoms: O5_14  and  C8_15 
REMARK    7  A    between atoms: C9_18  and  N2_19 
REMARK    8  A    between atoms: N2_19  and  O6_21 
REMARK    9  A    between atoms: C12_26  and  O7_28 
REMARK   10  A    between atoms: C14_30  and  O8_31 
REMARK   11  A    between atoms: C15_33  and  O9_34 
REMARK   12  A    between atoms: C16_36  and  O10_37 
REMARK   13  A    between atoms: C16_36  and  C17_39 
ROOT
HETATM    1  C8  UNL     1       0.417 -37.736  14.008  1.00  0.00     0.251 C 
HETATM    2  N1  UNL     1       0.677 -38.633  12.935  1.00  0.00    -0.371 N 
ATOM      3  H1  UNL     1       1.387 -38.441  12.228  1.00  0.00     0.158 HD
HETATM    4  C9  UNL     1      -0.122 -39.823  12.909  1.00  0.00     0.221 C 
HETATM    5  C10 UNL     1      -0.414 -40.394  14.245  1.00  0.00     0.173 C 
HETATM    6  C11 UNL     1      -1.281 -41.549  14.228  1.00  0.00     0.071 C 
HETATM    7  N3  UNL     1      -1.974 -42.502  14.235  1.00  0.00    -0.197 NA
HETATM    8  C12 UNL     1      -0.931 -39.361  15.227  1.00  0.00     0.104 C 
HETATM    9  C13 UNL     1      -1.130 -40.075  16.548  1.00  0.00     0.050 C 
HETATM   10  C14 UNL     1       0.182 -38.339  15.344  1.00  0.00     0.202 C 
ENDROOT
BRANCH   4  11
HETATM   11  N2  UNL     1      -1.359 -39.481  12.246  1.00  0.00    -0.280 N 
ATOM     12  H2  UNL     1      -2.269 -39.743  12.623  1.00  0.00     0.189 HD
BRANCH  11  13
HETATM   13  O6  UNL     1      -1.231 -38.803  11.110  1.00  0.00    -0.292 OA
ATOM     14  H6  UNL     1      -1.209 -37.857  11.199  1.00  0.00     0.244 HD
ENDBRANCH  11  13
ENDBRANCH   4  11
BRANCH   8  15
HETATM   15  O7  UNL     1      -2.106 -38.795  14.757  1.00  0.00    -0.386 OA
ATOM     16  H7  UNL     1      -2.822 -39.415  14.828  1.00  0.00     0.210 HD
ENDBRANCH   8  15
BRANCH  10  17
HETATM   17  O8  UNL     1       1.336 -39.016  15.733  1.00  0.00    -0.388 OA
ATOM     18  H8  UNL     1       1.792 -38.488  16.377  1.00  0.00     0.210 HD
ENDBRANCH  10  17
BRANCH   1  19
HETATM   19  O5  UNL     1       1.518 -36.860  14.139  1.00  0.00    -0.346 OA
BRANCH  19  20
HETATM   20  C7  UNL     1       1.963 -36.424  12.895  1.00  0.00     0.256 C 
HETATM   21  C6  UNL     1       3.444 -36.316  12.960  1.00  0.00     0.291 C 
HETATM   22  O3  UNL     1       4.070 -35.455  12.108  1.00  0.00    -0.307 OA
HETATM   23  O4  UNL     1       4.149 -36.985  13.770  1.00  0.00    -0.262 OA
HETATM   24  C5  UNL     1       3.477 -34.429  11.366  1.00  0.00     0.211 C 
HETATM   25  C16 UNL     1       2.002 -34.372  11.442  1.00  0.00     0.204 C 
HETATM   26  C15 UNL     1       1.421 -35.047  12.671  1.00  0.00     0.205 C 
BRANCH  24  27
HETATM   27  C4  UNL     1       4.001 -34.538   9.941  1.00  0.00     0.184 C 
BRANCH  27  28
HETATM   28  C2  UNL     1       5.502 -34.466   9.898  1.00  0.00     0.079 C 
HETATM   29  C1  UNL     1       6.132 -35.853   9.945  1.00  0.00     0.048 C 
HETATM   30  C3  UNL     1       6.055 -33.750   8.721  1.00  0.00     0.048 C 
BRANCH  28  31
HETATM   31  O1  UNL     1       5.921 -33.812  11.056  1.00  0.00    -0.388 OA
ATOM     32  H1  UNL     1       6.390 -33.039  10.767  1.00  0.00     0.210 HD
ENDBRANCH  28  31
ENDBRANCH  27  28
BRANCH  27  33
HETATM   33  O2  UNL     1       3.558 -33.468   9.150  1.00  0.00    -0.390 OA
ATOM     34  H2  UNL     1       4.345 -32.994   8.909  1.00  0.00     0.210 HD
ENDBRANCH  27  33
ENDBRANCH  24  27
BRANCH  25  35
HETATM   35  O10 UNL     1       1.613 -33.014  11.559  1.00  0.00    -0.374 OA
ATOM     36  H10 UNL     1       0.782 -32.980  12.018  1.00  0.00     0.211 HD
ENDBRANCH  25  35
BRANCH  25  37
HETATM   37  C17 UNL     1       1.292 -34.904  10.268  1.00  0.00     0.214 C 
HETATM   38  O11 UNL     1       0.641 -34.168   9.460  1.00  0.00    -0.646 OA
HETATM   39  O12 UNL     1       1.271 -36.274   9.937  1.00  0.00    -0.646 OA
ENDBRANCH  25  37
BRANCH  26  40
HETATM   40  O9  UNL     1       1.646 -34.306  13.828  1.00  0.00    -0.389 OA
ATOM     41  H9  UNL     1       2.271 -33.623  13.620  1.00  0.00     0.210 HD
ENDBRANCH  26  40
ENDBRANCH  19  20
ENDBRANCH   1  19
TORSDOF 13
ENDMDL
MODEL 5
REMARK VINA RESULT: -6.168955765      3.000      7.983
REMARK  13 active torsions:
REMARK  status: ('A' for Active; 'I' for Inactive)
REMARK    1  A    between atoms: C2_2  and  O1_4 
REMARK    2  A    between atoms: C2_2  and  C4_6 
REMARK    3  A    between atoms: C4_6  and  O2_7 
REMARK    4  A    between atoms: C4_6  and  C5_9 
REMARK    5  A    between atoms: C7_13  and  O5_14 
REMARK    6  A    between atoms: O5_14  and  C8_15 
REMARK    7  A    between atoms: C9_18  and  N2_19 
REMARK    8  A    between atoms: N2_19  and  O6_21 
REMARK    9  A    between atoms: C12_26  and  O7_28 
REMARK   10  A    between atoms: C14_30  and  O8_31 
REMARK   11  A    between atoms: C15_33  and  O9_34 
REMARK   12  A    between atoms: C16_36  and  O10_37 
REMARK   13  A    between atoms: C16_36  and  C17_39 
ROOT
HETATM    1  C8  UNL     1      -1.617 -40.252  15.434  1.00  0.00     0.251 C 
HETATM    2  N1  UNL     1      -2.292 -41.198  14.613  1.00  0.00    -0.371 N 
ATOM      3  H1  UNL     1      -2.012 -41.376  13.649  1.00  0.00     0.158 HD
HETATM    4  C9  UNL     1      -3.391 -41.883  15.227  1.00  0.00     0.221 C 
HETATM    5  C10 UNL     1      -3.186 -42.216  16.656  1.00  0.00     0.173 C 
HETATM    6  C11 UNL     1      -4.321 -42.839  17.297  1.00  0.00     0.071 C 
HETATM    7  N3  UNL     1      -5.229 -43.362  17.835  1.00  0.00    -0.197 NA
HETATM    8  C12 UNL     1      -2.703 -41.033  17.472  1.00  0.00     0.104 C 
HETATM    9  C13 UNL     1      -2.488 -41.535  18.885  1.00  0.00     0.050 C 
HETATM   10  C14 UNL     1      -1.380 -40.639  16.847  1.00  0.00     0.202 C 
ENDROOT
BRANCH   4  11
HETATM   11  N2  UNL     1      -4.547 -41.028  15.088  1.00  0.00    -0.280 N 
ATOM     12  H2  UNL     1      -5.460 -41.280  15.467  1.00  0.00     0.189 HD
BRANCH  11  13
HETATM   13  O6  UNL     1      -4.342 -39.890  14.432  1.00  0.00    -0.292 OA
ATOM     14  H6  UNL     1      -3.965 -39.980  13.565  1.00  0.00     0.244 HD
ENDBRANCH  11  13
ENDBRANCH   4  11
BRANCH   8  15
HETATM   15  O7  UNL     1      -3.628 -40.001  17.419  1.00  0.00    -0.386 OA
ATOM     16  H7  UNL     1      -3.940 -39.792  18.292  1.00  0.00     0.210 HD
ENDBRANCH   8  15
BRANCH  10  17
HETATM   17  O8  UNL     1      -0.555 -41.761  16.865  1.00  0.00    -0.388 OA
ATOM     18  H8  UNL     1       0.339 -41.475  17.014  1.00  0.00     0.210 HD
ENDBRANCH  10  17
BRANCH   1  19
HETATM   19  O5  UNL     1      -0.354 -39.981  14.862  1.00  0.00    -0.346 OA
BRANCH  19  20
HETATM   20  C7  UNL     1      -0.307 -38.694  14.335  1.00  0.00     0.256 C 
HETATM   21  C6  UNL     1      -0.180 -38.817  12.859  1.00  0.00     0.291 C 
HETATM   22  O3  UNL     1       0.390 -37.789  12.169  1.00  0.00    -0.307 OA
HETATM   23  O4  UNL     1      -0.576 -39.832  12.216  1.00  0.00    -0.262 OA
HETATM   24  C5  UNL     1       1.147 -36.740  12.699  1.00  0.00     0.211 C 
HETATM   25  C16 UNL     1       1.220 -36.702  14.175  1.00  0.00     0.204 C 
HETATM   26  C15 UNL     1       0.939 -38.037  14.840  1.00  0.00     0.205 C 
BRANCH  24  27
HETATM   27  C4  UNL     1       0.620 -35.448  12.091  1.00  0.00     0.184 C 
BRANCH  27  28
HETATM   28  C2  UNL     1       0.599 -35.513  10.589  1.00  0.00     0.079 C 
HETATM   29  C1  UNL     1       0.505 -34.125   9.968  1.00  0.00     0.048 C 
HETATM   30  C3  UNL     1       1.760 -36.210   9.982  1.00  0.00     0.048 C 
BRANCH  28  31
HETATM   31  O1  UNL     1      -0.568 -36.181  10.218  1.00  0.00    -0.388 OA
ATOM     32  H1  UNL     1      -1.134 -35.526   9.828  1.00  0.00     0.210 HD
ENDBRANCH  28  31
ENDBRANCH  27  28
BRANCH  27  33
HETATM   33  O2  UNL     1       1.451 -34.361  12.400  1.00  0.00    -0.390 OA
ATOM     34  H2  UNL     1       1.641 -34.448  13.327  1.00  0.00     0.210 HD
ENDBRANCH  27  33
ENDBRANCH  24  27
BRANCH  25  35
HETATM   35  O10 UNL     1       2.550 -36.386  14.548  1.00  0.00    -0.374 OA
ATOM     36  H10 UNL     1       2.994 -36.023  13.791  1.00  0.00     0.211 HD
ENDBRANCH  25  35
BRANCH  25  37
HETATM   37  C17 UNL     1       0.360 -35.698  14.820  1.00  0.00     0.214 C 
HETATM   38  O11 UNL     1       0.816 -34.633  15.348  1.00  0.00    -0.646 OA
HETATM   39  O12 UNL     1      -1.040 -35.826  14.910  1.00  0.00    -0.646 OA
ENDBRANCH  25  37
BRANCH  26  40
HETATM   40  O9  UNL     1       1.992 -38.933  14.675  1.00  0.00    -0.389 OA
ATOM     41  H9  UNL     1       2.435 -39.020  15.510  1.00  0.00     0.210 HD
ENDBRANCH  26  40
ENDBRANCH  19  20
ENDBRANCH   1  19
TORSDOF 13
ENDMDL
