MODEL 1
REMARK VINA RESULT: -6.269243145      0.000      0.000
REMARK  7 active torsions:
REMARK  status: ('A' for Active; 'I' for Inactive)
REMARK    1  A    between atoms: S1_3  and  C3_4 
REMARK    2  A    between atoms: C4_6  and  C5_7 
REMARK    3  A    between atoms: C5_7  and  O2_8 
REMARK    4  A    between atoms: C6_10  and  O3_11 
REMARK    5  A    between atoms: C7_13  and  O4_14 
REMARK    6  A    between atoms: C8_16  and  C9_17 
REMARK    7  A    between atoms: C9_17  and  O5_18 
ROOT
HETATM    1  C1  UNL     1       9.108  97.654  14.740  1.00  0.00     0.025 C 
HETATM    2  C2  UNL     1       8.577  97.908  13.678  1.00  0.00    -0.040 C 
HETATM    3  S1  UNL     1       7.786  98.258  12.134  1.00  0.00    -0.019 SA
ENDROOT
BRANCH   3   4
HETATM    4  C3  UNL     1       8.506  97.245  10.841  1.00  0.00     0.338 C 
HETATM    5  O1  UNL     1       9.620  96.519  11.244  1.00  0.00    -0.341 OA
HETATM    6  C4  UNL     1      10.109  95.869  10.112  1.00  0.00     0.180 C 
HETATM    7  C6  UNL     1      11.382  96.581   9.715  1.00  0.00     0.180 C 
HETATM    8  C7  UNL     1      11.033  97.817   8.934  1.00  0.00     0.180 C 
HETATM    9  C8  UNL     1      10.031  98.611   9.729  1.00  0.00     0.180 C 
HETATM   10  O6  UNL     1       8.820  97.931   9.697  1.00  0.00    -0.341 OA
BRANCH   6  11
HETATM   11  C5  UNL     1      10.367  94.413  10.442  1.00  0.00     0.198 C 
BRANCH  11  12
HETATM   12  O2  UNL     1       9.494  93.567   9.732  1.00  0.00    -0.398 OA
ATOM     13  H2  UNL     1       9.972  92.878   9.286  1.00  0.00     0.209 HD
ENDBRANCH  11  12
ENDBRANCH   6  11
BRANCH   7  14
HETATM   14  O3  UNL     1      12.158  95.702   8.960  1.00  0.00    -0.390 OA
ATOM     15  H3  UNL     1      12.926  96.170   8.654  1.00  0.00     0.210 HD
ENDBRANCH   7  14
BRANCH   8  16
HETATM   16  O4  UNL     1      10.434  97.364   7.740  1.00  0.00    -0.390 OA
ATOM     17  H4  UNL     1      11.149  97.195   7.138  1.00  0.00     0.210 HD
ENDBRANCH   8  16
BRANCH   9  18
HETATM   18  C9  UNL     1       9.766  99.979   9.131  1.00  0.00     0.198 C 
BRANCH  18  19
HETATM   19  O5  UNL     1       8.829  99.975   8.122  1.00  0.00    -0.398 OA
ATOM     20  H5  UNL     1       9.197 100.093   7.253  1.00  0.00     0.209 HD
ENDBRANCH  18  19
ENDBRANCH   9  18
ENDBRANCH   3   4
TORSDOF 7
ENDMDL
MODEL 2
REMARK VINA RESULT: -6.222502132      1.262      1.469
REMARK  7 active torsions:
REMARK  status: ('A' for Active; 'I' for Inactive)
REMARK    1  A    between atoms: S1_3  and  C3_4 
REMARK    2  A    between atoms: C4_6  and  C5_7 
REMARK    3  A    between atoms: C5_7  and  O2_8 
REMARK    4  A    between atoms: C6_10  and  O3_11 
REMARK    5  A    between atoms: C7_13  and  O4_14 
REMARK    6  A    between atoms: C8_16  and  C9_17 
REMARK    7  A    between atoms: C9_17  and  O5_18 
ROOT
HETATM    1  C1  UNL     1       5.419  99.202  12.008  1.00  0.00     0.025 C 
HETATM    2  C2  UNL     1       6.516  98.732  12.229  1.00  0.00    -0.040 C 
HETATM    3  S1  UNL     1       8.126  98.067  12.540  1.00  0.00    -0.019 SA
ENDROOT
BRANCH   3   4
HETATM    4  C3  UNL     1       8.679  97.128  11.115  1.00  0.00     0.338 C 
HETATM    5  O1  UNL     1       9.869  96.440  11.317  1.00  0.00    -0.341 OA
HETATM    6  C4  UNL     1      10.204  95.849  10.099  1.00  0.00     0.180 C 
HETATM    7  C6  UNL     1      11.372  96.629   9.541  1.00  0.00     0.180 C 
HETATM    8  C7  UNL     1      10.859  97.873   8.870  1.00  0.00     0.180 C 
HETATM    9  C8  UNL     1       9.961  98.596   9.838  1.00  0.00     0.180 C 
HETATM   10  O6  UNL     1       8.786  97.864   9.964  1.00  0.00    -0.341 OA
BRANCH   6  11
HETATM   11  C5  UNL     1      10.566  94.397  10.331  1.00  0.00     0.198 C 
BRANCH  11  12
HETATM   12  O2  UNL     1       9.531  93.540   9.911  1.00  0.00    -0.398 OA
ATOM     13  H2  UNL     1       9.854  92.884   9.303  1.00  0.00     0.209 HD
ENDBRANCH  11  12
ENDBRANCH   6  11
BRANCH   7  14
HETATM   14  O3  UNL     1      12.057  95.810   8.645  1.00  0.00    -0.390 OA
ATOM     15  H3  UNL     1      12.530  95.153   9.143  1.00  0.00     0.210 HD
ENDBRANCH   7  14
BRANCH   8  16
HETATM   16  O4  UNL     1      10.103  97.432   7.765  1.00  0.00    -0.390 OA
ATOM     17  H4  UNL     1      10.629  97.620   6.996  1.00  0.00     0.210 HD
ENDBRANCH   8  16
BRANCH   9  18
HETATM   18  C9  UNL     1       9.554  99.969   9.339  1.00  0.00     0.198 C 
BRANCH  18  19
HETATM   19  O5  UNL     1       8.280 100.341   9.705  1.00  0.00    -0.398 OA
ATOM     20  H5  UNL     1       7.600 100.003   9.133  1.00  0.00     0.209 HD
ENDBRANCH  18  19
ENDBRANCH   9  18
ENDBRANCH   3   4
TORSDOF 7
ENDMDL
MODEL 3
REMARK VINA RESULT: -5.848432702      1.226      3.776
REMARK  7 active torsions:
REMARK  status: ('A' for Active; 'I' for Inactive)
REMARK    1  A    between atoms: S1_3  and  C3_4 
REMARK    2  A    between atoms: C4_6  and  C5_7 
REMARK    3  A    between atoms: C5_7  and  O2_8 
REMARK    4  A    between atoms: C6_10  and  O3_11 
REMARK    5  A    between atoms: C7_13  and  O4_14 
REMARK    6  A    between atoms: C8_16  and  C9_17 
REMARK    7  A    between atoms: C9_17  and  O5_18 
ROOT
HETATM    1  C1  UNL     1       6.800  98.533  13.358  1.00  0.00     0.025 C 
HETATM    2  C2  UNL     1       7.887  98.005  13.239  1.00  0.00    -0.040 C 
HETATM    3  S1  UNL     1       9.482  97.257  13.075  1.00  0.00    -0.019 SA
ENDROOT
BRANCH   3   4
HETATM    4  C3  UNL     1      10.223  97.746  11.516  1.00  0.00     0.338 C 
HETATM    5  O1  UNL     1       9.342  98.369  10.641  1.00  0.00    -0.341 OA
HETATM    6  C4  UNL     1      10.043  98.594   9.456  1.00  0.00     0.180 C 
HETATM    7  C6  UNL     1       9.512  97.608   8.441  1.00  0.00     0.180 C 
HETATM    8  C7  UNL     1      10.175  96.275   8.655  1.00  0.00     0.180 C 
HETATM    9  C8  UNL     1      10.026  95.901  10.106  1.00  0.00     0.180 C 
HETATM   10  O6  UNL     1      10.857  96.729  10.851  1.00  0.00    -0.341 OA
BRANCH   6  11
HETATM   11  C5  UNL     1       9.822 100.024   9.009  1.00  0.00     0.198 C 
BRANCH  11  12
HETATM   12  O2  UNL     1       8.476 100.249   8.665  1.00  0.00    -0.398 OA
ATOM     13  H2  UNL     1       8.397 100.939   8.017  1.00  0.00     0.209 HD
ENDBRANCH  11  12
ENDBRANCH   6  11
BRANCH   7  14
HETATM   14  O3  UNL     1       9.774  98.109   7.166  1.00  0.00    -0.390 OA
ATOM     15  H3  UNL     1       9.834  97.376   6.564  1.00  0.00     0.210 HD
ENDBRANCH   7  14
BRANCH   8  16
HETATM   16  O4  UNL     1      11.539  96.469   8.357  1.00  0.00    -0.390 OA
ATOM     17  H4  UNL     1      11.992  96.466   9.192  1.00  0.00     0.210 HD
ENDBRANCH   8  16
BRANCH   9  18
HETATM   18  C9  UNL     1      10.476  94.481  10.389  1.00  0.00     0.198 C 
BRANCH  18  19
HETATM   19  O5  UNL     1       9.627  93.517   9.892  1.00  0.00    -0.398 OA
ATOM     20  H5  UNL     1       9.869  92.630  10.131  1.00  0.00     0.209 HD
ENDBRANCH  18  19
ENDBRANCH   9  18
ENDBRANCH   3   4
TORSDOF 7
ENDMDL
MODEL 4
REMARK VINA RESULT: -5.811525668      2.086      4.046
REMARK  7 active torsions:
REMARK  status: ('A' for Active; 'I' for Inactive)
REMARK    1  A    between atoms: S1_3  and  C3_4 
REMARK    2  A    between atoms: C4_6  and  C5_7 
REMARK    3  A    between atoms: C5_7  and  O2_8 
REMARK    4  A    between atoms: C6_10  and  O3_11 
REMARK    5  A    between atoms: C7_13  and  O4_14 
REMARK    6  A    between atoms: C8_16  and  C9_17 
REMARK    7  A    between atoms: C9_17  and  O5_18 
ROOT
HETATM    1  C1  UNL     1      10.547  92.108  11.347  1.00  0.00     0.025 C 
HETATM    2  C2  UNL     1      10.261  93.022  10.601  1.00  0.00    -0.040 C 
HETATM    3  S1  UNL     1       9.872  94.358   9.508  1.00  0.00    -0.019 SA
ENDROOT
BRANCH   3   4
HETATM    4  C3  UNL     1      10.046  95.919  10.373  1.00  0.00     0.338 C 
HETATM    5  O1  UNL     1       8.847  96.448  10.834  1.00  0.00    -0.341 OA
HETATM    6  C4  UNL     1       9.143  97.692  11.391  1.00  0.00     0.180 C 
HETATM    7  C6  UNL     1       8.616  98.736  10.432  1.00  0.00     0.180 C 
HETATM    8  C7  UNL     1       9.607  98.927   9.317  1.00  0.00     0.180 C 
HETATM    9  C8  UNL     1       9.932  97.575   8.738  1.00  0.00     0.180 C 
HETATM   10  O6  UNL     1      10.708  96.886   9.662  1.00  0.00    -0.341 OA
BRANCH   6  11
HETATM   11  C5  UNL     1       8.483  97.803  12.749  1.00  0.00     0.198 C 
BRANCH  11  12
HETATM   12  O2  UNL     1       9.269  97.200  13.748  1.00  0.00    -0.398 OA
ATOM     13  H2  UNL     1       9.822  97.839  14.183  1.00  0.00     0.209 HD
ENDBRANCH  11  12
ENDBRANCH   6  11
BRANCH   7  14
HETATM   14  O3  UNL     1       8.412  99.919  11.142  1.00  0.00    -0.390 OA
ATOM     15  H3  UNL     1       9.073 100.546  10.871  1.00  0.00     0.210 HD
ENDBRANCH   7  14
BRANCH   8  16
HETATM   16  O4  UNL     1      10.762  99.472   9.915  1.00  0.00    -0.390 OA
ATOM     17  H4  UNL     1      11.397  98.766   9.947  1.00  0.00     0.210 HD
ENDBRANCH   8  16
BRANCH   9  18
HETATM   18  C9  UNL     1      10.762  97.669   7.472  1.00  0.00     0.198 C 
BRANCH  18  19
HETATM   19  O5  UNL     1      12.121  97.668   7.694  1.00  0.00    -0.398 OA
ATOM     20  H5  UNL     1      12.642  97.624   6.901  1.00  0.00     0.209 HD
ENDBRANCH  18  19
ENDBRANCH   9  18
ENDBRANCH   3   4
TORSDOF 7
ENDMDL
MODEL 5
REMARK VINA RESULT: -5.690364778      2.232      4.459
REMARK  7 active torsions:
REMARK  status: ('A' for Active; 'I' for Inactive)
REMARK    1  A    between atoms: S1_3  and  C3_4 
REMARK    2  A    between atoms: C4_6  and  C5_7 
REMARK    3  A    between atoms: C5_7  and  O2_8 
REMARK    4  A    between atoms: C6_10  and  O3_11 
REMARK    5  A    between atoms: C7_13  and  O4_14 
REMARK    6  A    between atoms: C8_16  and  C9_17 
REMARK    7  A    between atoms: C9_17  and  O5_18 
ROOT
HETATM    1  C1  UNL     1       6.161 101.543   8.023  1.00  0.00     0.025 C 
HETATM    2  C2  UNL     1       7.222 101.026   8.310  1.00  0.00    -0.040 C 
HETATM    3  S1  UNL     1       8.763 100.254   8.709  1.00  0.00    -0.019 SA
ENDROOT
BRANCH   3   4
HETATM    4  C3  UNL     1       8.479  98.868   9.811  1.00  0.00     0.338 C 
HETATM    5  O1  UNL     1       8.714  99.151  11.151  1.00  0.00    -0.341 OA
HETATM    6  C4  UNL     1       8.543  97.958  11.851  1.00  0.00     0.180 C 
HETATM    7  C6  UNL     1       9.921  97.491  12.262  1.00  0.00     0.180 C 
HETATM    8  C7  UNL     1      10.571  96.791  11.100  1.00  0.00     0.180 C 
HETATM    9  C8  UNL     1      10.490  97.695   9.899  1.00  0.00     0.180 C 
HETATM   10  O6  UNL     1       9.167  97.731   9.475  1.00  0.00    -0.341 OA
BRANCH   6  11
HETATM   11  C5  UNL     1       7.659  98.208  13.056  1.00  0.00     0.198 C 
BRANCH  11  12
HETATM   12  O2  UNL     1       8.299  99.041  13.992  1.00  0.00    -0.398 OA
ATOM     13  H2  UNL     1       7.673  99.600  14.438  1.00  0.00     0.209 HD
ENDBRANCH  11  12
ENDBRANCH   6  11
BRANCH   7  14
HETATM   14  O3  UNL     1       9.786  96.642  13.359  1.00  0.00    -0.390 OA
ATOM     15  H3  UNL     1      10.177  95.804  13.138  1.00  0.00     0.210 HD
ENDBRANCH   7  14
BRANCH   8  16
HETATM   16  O4  UNL     1       9.803  95.632  10.869  1.00  0.00    -0.390 OA
ATOM     17  H4  UNL     1       9.662  95.595   9.929  1.00  0.00     0.210 HD
ENDBRANCH   8  16
BRANCH   9  18
HETATM   18  C9  UNL     1      11.299  97.176   8.725  1.00  0.00     0.198 C 
BRANCH  18  19
HETATM   19  O5  UNL     1      12.104  96.102   9.034  1.00  0.00    -0.398 OA
ATOM     20  H5  UNL     1      11.625  95.327   9.306  1.00  0.00     0.209 HD
ENDBRANCH  18  19
ENDBRANCH   9  18
ENDBRANCH   3   4
TORSDOF 7
ENDMDL
