MODEL 1
REMARK VINA RESULT: -6.038070955      0.000      0.000
REMARK  2 active torsions:
REMARK  status: ('A' for Active; 'I' for Inactive)
REMARK       I    between atoms: C1_4  and  N2_5 
REMARK       I    between atoms: C1_4  and  N3_12 
REMARK    1  A    between atoms: N2_5  and  C2_7 
REMARK    2  A    between atoms: C9_15  and  C10_16 
ROOT
HETATM    1  N1  UNL     1      10.389  -6.666   2.982  1.00  0.00    -0.235 N 
ATOM      2  H11 UNL     1      11.362  -6.430   2.788  1.00  0.00     0.174 HD
ATOM      3  H12 UNL     1      10.133  -7.120   3.859  1.00  0.00     0.174 HD
HETATM    4  C1  UNL     1       9.512  -6.371   2.093  1.00  0.00     0.670 C 
HETATM    5  N2  UNL     1       8.156  -6.699   2.364  1.00  0.00    -0.222 N 
ATOM      6  H2  UNL     1       7.609  -6.068   2.949  1.00  0.00     0.178 HD
HETATM    7  N3  UNL     1       9.868  -5.739   0.874  1.00  0.00    -0.218 N 
HETATM    8  C7  UNL     1       8.918  -5.008   0.078  1.00  0.00     0.142 C 
HETATM    9  C8  UNL     1       9.292  -4.961  -1.369  1.00  0.00     0.034 C 
HETATM   10  C9  UNL     1      10.712  -4.610  -1.638  1.00  0.00     0.078 C 
HETATM   11  C11 UNL     1      11.502  -4.504  -0.337  1.00  0.00     0.034 C 
HETATM   12  C12 UNL     1      11.233  -5.824   0.402  1.00  0.00     0.142 C 
ENDROOT
BRANCH   5  13
HETATM   13  C2  UNL     1       7.527  -7.872   1.853  1.00  0.00     0.099 C 
HETATM   14  C3  UNL     1       6.296  -7.582   1.021  1.00  0.00     0.026 C 
HETATM   15  C4  UNL     1       6.299  -8.584  -0.115  1.00  0.00     0.002 C 
HETATM   16  C5  UNL     1       7.437  -9.539   0.220  1.00  0.00     0.002 C 
HETATM   17  C6  UNL     1       8.426  -8.553   0.859  1.00  0.00     0.026 C 
ENDBRANCH   5  13
BRANCH  10  18
HETATM   18  C10 UNL     1      10.857  -3.368  -2.447  1.00  0.00     0.235 C 
HETATM   19  N4  UNL     1      12.113  -2.758  -2.679  1.00  0.00    -0.062 NA
HETATM   20  O1  UNL     1       9.851  -2.789  -2.974  1.00  0.00    -0.277 OA
ENDBRANCH  10  18
TORSDOF 2
ENDMDL
MODEL 2
REMARK VINA RESULT: -5.836447328      2.998      6.473
REMARK  2 active torsions:
REMARK  status: ('A' for Active; 'I' for Inactive)
REMARK       I    between atoms: C1_4  and  N2_5 
REMARK       I    between atoms: C1_4  and  N3_12 
REMARK    1  A    between atoms: N2_5  and  C2_7 
REMARK    2  A    between atoms: C9_15  and  C10_16 
ROOT
HETATM    1  N1  UNL     1       8.040  -5.312  -2.838  1.00  0.00    -0.235 N 
ATOM      2  H11 UNL     1       7.409  -6.050  -3.149  1.00  0.00     0.174 HD
ATOM      3  H12 UNL     1       8.178  -4.476  -3.407  1.00  0.00     0.174 HD
HETATM    4  C1  UNL     1       8.644  -5.473  -1.718  1.00  0.00     0.670 C 
HETATM    5  N2  UNL     1       9.524  -4.444  -1.284  1.00  0.00    -0.222 N 
ATOM      6  H2  UNL     1       9.127  -3.626  -0.822  1.00  0.00     0.178 HD
HETATM    7  N3  UNL     1       8.452  -6.635  -0.927  1.00  0.00    -0.218 N 
HETATM    8  C7  UNL     1       8.736  -6.663   0.484  1.00  0.00     0.142 C 
HETATM    9  C8  UNL     1       9.056  -8.036   0.980  1.00  0.00     0.034 C 
HETATM   10  C9  UNL     1       8.125  -9.101   0.525  1.00  0.00     0.078 C 
HETATM   11  C11 UNL     1       7.111  -8.546  -0.472  1.00  0.00     0.034 C 
HETATM   12  C12 UNL     1       7.952  -7.842  -1.548  1.00  0.00     0.142 C 
ENDROOT
BRANCH   5  13
HETATM   13  C2  UNL     1      10.936  -4.507  -1.465  1.00  0.00     0.099 C 
HETATM   14  C3  UNL     1      11.468  -3.460  -2.419  1.00  0.00     0.026 C 
HETATM   15  C4  UNL     1      12.802  -3.006  -1.861  1.00  0.00     0.002 C 
HETATM   16  C5  UNL     1      13.074  -3.955  -0.701  1.00  0.00     0.002 C 
HETATM   17  C6  UNL     1      11.641  -4.153  -0.184  1.00  0.00     0.026 C 
ENDBRANCH   5  13
BRANCH  10  18
HETATM   18  C10 UNL     1       7.435  -9.788   1.652  1.00  0.00     0.235 C 
HETATM   19  N4  UNL     1       7.141 -11.173   1.629  1.00  0.00    -0.062 NA
HETATM   20  O1  UNL     1       7.073  -9.160   2.700  1.00  0.00    -0.277 OA
ENDBRANCH  10  18
TORSDOF 2
ENDMDL
MODEL 3
REMARK VINA RESULT: -5.741160980      2.913      5.878
REMARK  2 active torsions:
REMARK  status: ('A' for Active; 'I' for Inactive)
REMARK       I    between atoms: C1_4  and  N2_5 
REMARK       I    between atoms: C1_4  and  N3_12 
REMARK    1  A    between atoms: N2_5  and  C2_7 
REMARK    2  A    between atoms: C9_15  and  C10_16 
ROOT
HETATM    1  N1  UNL     1      10.081  -6.069   2.397  1.00  0.00    -0.235 N 
ATOM      2  H11 UNL     1       9.376  -6.455   3.025  1.00  0.00     0.174 HD
ATOM      3  H12 UNL     1      10.865  -5.533   2.768  1.00  0.00     0.174 HD
HETATM    4  C1  UNL     1       9.945  -6.285   1.139  1.00  0.00     0.670 C 
HETATM    5  N2  UNL     1      10.927  -5.747   0.264  1.00  0.00    -0.222 N 
ATOM      6  H2  UNL     1      11.802  -6.257   0.141  1.00  0.00     0.178 HD
HETATM    7  N3  UNL     1       8.855  -7.031   0.623  1.00  0.00    -0.218 N 
HETATM    8  C7  UNL     1       8.895  -7.661  -0.670  1.00  0.00     0.142 C 
HETATM    9  C8  UNL     1       7.536  -7.847  -1.264  1.00  0.00     0.034 C 
HETATM   10  C9  UNL     1       6.520  -8.416  -0.340  1.00  0.00     0.078 C 
HETATM   11  C11 UNL     1       7.087  -8.560   1.070  1.00  0.00     0.034 C 
HETATM   12  C12 UNL     1       7.653  -7.174   1.416  1.00  0.00     0.142 C 
ENDROOT
BRANCH   5  13
HETATM   13  C2  UNL     1      10.743  -4.527  -0.450  1.00  0.00     0.099 C 
HETATM   14  C3  UNL     1      12.030  -3.948  -0.996  1.00  0.00     0.026 C 
HETATM   15  C4  UNL     1      11.694  -3.353  -2.348  1.00  0.00     0.002 C 
HETATM   16  C5  UNL     1      10.177  -3.445  -2.440  1.00  0.00     0.002 C 
HETATM   17  C6  UNL     1       9.951  -4.774  -1.704  1.00  0.00     0.026 C 
ENDBRANCH   5  13
BRANCH  10  18
HETATM   18  C10 UNL     1       5.962  -9.711  -0.819  1.00  0.00     0.235 C 
HETATM   19  N4  UNL     1       5.302  -9.837  -2.065  1.00  0.00    -0.062 NA
HETATM   20  O1  UNL     1       6.052 -10.777  -0.127  1.00  0.00    -0.277 OA
ENDBRANCH  10  18
TORSDOF 2
ENDMDL
MODEL 4
REMARK VINA RESULT: -5.688826173      2.528      5.941
REMARK  2 active torsions:
REMARK  status: ('A' for Active; 'I' for Inactive)
REMARK       I    between atoms: C1_4  and  N2_5 
REMARK       I    between atoms: C1_4  and  N3_12 
REMARK    1  A    between atoms: N2_5  and  C2_7 
REMARK    2  A    between atoms: C9_15  and  C10_16 
ROOT
HETATM    1  N1  UNL     1      11.878  -5.691   2.218  1.00  0.00    -0.235 N 
ATOM      2  H11 UNL     1      11.462  -6.041   3.080  1.00  0.00     0.174 HD
ATOM      3  H12 UNL     1      12.758  -5.175   2.241  1.00  0.00     0.174 HD
HETATM    4  C1  UNL     1      11.261  -5.922   1.117  1.00  0.00     0.670 C 
HETATM    5  N2  UNL     1      11.841  -5.433  -0.085  1.00  0.00    -0.222 N 
ATOM      6  H2  UNL     1      12.587  -5.975  -0.522  1.00  0.00     0.178 HD
HETATM    7  N3  UNL     1      10.037  -6.639   1.084  1.00  0.00    -0.218 N 
HETATM    8  C7  UNL     1       9.558  -7.292  -0.105  1.00  0.00     0.142 C 
HETATM    9  C8  UNL     1       8.071  -7.440  -0.123  1.00  0.00     0.034 C 
HETATM   10  C9  UNL     1       7.477  -7.958   1.138  1.00  0.00     0.078 C 
HETATM   11  C11 UNL     1       8.542  -8.098   2.223  1.00  0.00     0.034 C 
HETATM   12  C12 UNL     1       9.233  -6.727   2.283  1.00  0.00     0.142 C 
ENDROOT
BRANCH   5  13
HETATM   13  C2  UNL     1      11.426  -4.220  -0.707  1.00  0.00     0.099 C 
HETATM   14  C3  UNL     1      12.553  -3.476  -1.390  1.00  0.00     0.026 C 
HETATM   15  C4  UNL     1      11.971  -2.878  -2.654  1.00  0.00     0.002 C 
HETATM   16  C5  UNL     1      10.475  -3.144  -2.549  1.00  0.00     0.002 C 
HETATM   17  C6  UNL     1      10.501  -4.515  -1.856  1.00  0.00     0.026 C 
ENDBRANCH   5  13
BRANCH  10  18
HETATM   18  C10 UNL     1       6.745  -9.241   0.949  1.00  0.00     0.235 C 
HETATM   19  N4  UNL     1       7.018 -10.392   1.726  1.00  0.00    -0.062 NA
HETATM   20  O1  UNL     1       5.829  -9.367   0.071  1.00  0.00    -0.277 OA
ENDBRANCH  10  18
TORSDOF 2
ENDMDL
MODEL 5
REMARK VINA RESULT: -5.490274201      3.718      5.906
REMARK  2 active torsions:
REMARK  status: ('A' for Active; 'I' for Inactive)
REMARK       I    between atoms: C1_4  and  N2_5 
REMARK       I    between atoms: C1_4  and  N3_12 
REMARK    1  A    between atoms: N2_5  and  C2_7 
REMARK    2  A    between atoms: C9_15  and  C10_16 
ROOT
HETATM    1  N1  UNL     1       7.792  -8.710   1.247  1.00  0.00    -0.235 N 
ATOM      2  H11 UNL     1       6.923  -9.240   1.306  1.00  0.00     0.174 HD
ATOM      3  H12 UNL     1       8.379  -8.587   2.073  1.00  0.00     0.174 HD
HETATM    4  C1  UNL     1       8.116  -8.212   0.110  1.00  0.00     0.670 C 
HETATM    5  N2  UNL     1       9.327  -7.474   0.028  1.00  0.00    -0.222 N 
ATOM      6  H2  UNL     1      10.204  -7.985  -0.075  1.00  0.00     0.178 HD
HETATM    7  N3  UNL     1       7.300  -8.383  -1.039  1.00  0.00    -0.218 N 
HETATM    8  C7  UNL     1       7.812  -8.244  -2.376  1.00  0.00     0.142 C 
HETATM    9  C8  UNL     1       6.757  -7.859  -3.361  1.00  0.00     0.034 C 
HETATM   10  C9  UNL     1       5.497  -8.643  -3.269  1.00  0.00     0.078 C 
HETATM   11  C11 UNL     1       5.534  -9.594  -2.076  1.00  0.00     0.034 C 
HETATM   12  C12 UNL     1       5.900  -8.711  -0.873  1.00  0.00     0.142 C 
ENDROOT
BRANCH   5  13
HETATM   13  C2  UNL     1       9.371  -6.050   0.083  1.00  0.00     0.099 C 
HETATM   14  C3  UNL     1       9.497  -5.398  -1.277  1.00  0.00     0.026 C 
HETATM   15  C4  UNL     1       8.651  -4.142  -1.232  1.00  0.00     0.002 C 
HETATM   16  C5  UNL     1       8.223  -4.021   0.225  1.00  0.00     0.002 C 
HETATM   17  C6  UNL     1       8.056  -5.509   0.572  1.00  0.00     0.026 C 
ENDBRANCH   5  13
BRANCH  10  18
HETATM   18  C10 UNL     1       5.183  -9.382  -4.523  1.00  0.00     0.235 C 
HETATM   19  N4  UNL     1       3.870  -9.803  -4.847  1.00  0.00    -0.062 NA
HETATM   20  O1  UNL     1       6.086  -9.675  -5.374  1.00  0.00    -0.277 OA
ENDBRANCH  10  18
TORSDOF 2
ENDMDL
