MODEL 1
REMARK VINA RESULT: -7.406474861      0.000      0.000
REMARK  7 active torsions:
REMARK  status: ('A' for Active; 'I' for Inactive)
REMARK    1  A    between atoms: O1_2  and  C2_3 
REMARK    2  A    between atoms: C2_3  and  C3_5 
REMARK    3  A    between atoms: C6_10  and  C7_11 
REMARK    4  A    between atoms: C8_14  and  C9_15 
REMARK    5  A    between atoms: C13_20  and  O5_21 
REMARK    6  A    between atoms: O5_21  and  C14_22 
REMARK    7  A    between atoms: C21_29  and  O6_30 
ROOT
HETATM    1  C9  UNL     1     -15.847  10.369  -5.355  1.00  0.00     0.081 C 
HETATM    2  C10 UNL     1     -16.978  11.297  -4.938  1.00  0.00     0.074 C 
HETATM    3  N2  UNL     1     -17.819  12.082  -4.655  1.00  0.00    -0.196 NA
HETATM    4  C11 UNL     1     -15.765  10.709  -6.821  1.00  0.00     0.032 C 
HETATM    5  C12 UNL     1     -15.178  12.016  -7.196  1.00  0.00     0.034 C 
HETATM    6  C13 UNL     1     -14.052  12.517  -6.325  1.00  0.00     0.122 C 
HETATM    7  C19 UNL     1     -14.529  12.384  -4.882  1.00  0.00     0.034 C 
HETATM    8  C20 UNL     1     -14.737  10.915  -4.540  1.00  0.00     0.032 C 
ENDROOT
BRANCH   1   9
HETATM    9  C8  UNL     1     -16.232   9.002  -5.063  1.00  0.00     0.032 A 
HETATM   10  C6  UNL     1     -16.674   8.627  -3.806  1.00  0.00     0.120 A 
HETATM   11  N1  UNL     1     -16.963   7.300  -3.586  1.00  0.00    -0.353 N 
HETATM   12  C4  UNL     1     -16.868   6.312  -4.461  1.00  0.00     0.025 A 
ATOM     13  H1  UNL     1     -17.285   7.052  -2.651  1.00  0.00     0.166 HD
HETATM   14  C3  UNL     1     -16.433   6.642  -5.736  1.00  0.00     0.095 A 
HETATM   15  C5  UNL     1     -17.227   4.919  -4.040  1.00  0.00     0.069 C 
HETATM   16  C21 UNL     1     -16.122   7.969  -6.026  1.00  0.00     0.094 A 
BRANCH  10  17
HETATM   17  C7  UNL     1     -16.908   9.473  -2.692  1.00  0.00     0.227 C 
HETATM   18  O3  UNL     1     -18.171   9.649  -2.396  1.00  0.00    -0.643 OA
HETATM   19  O4  UNL     1     -16.117  10.148  -1.865  1.00  0.00    -0.643 OA
ENDBRANCH  10  17
BRANCH  14  20
HETATM   20  C2  UNL     1     -16.310   5.602  -6.729  1.00  0.00     0.297 C 
HETATM   21  O2  UNL     1     -15.263   4.993  -7.013  1.00  0.00    -0.259 OA
BRANCH  20  22
HETATM   22  O1  UNL     1     -17.421   5.185  -7.479  1.00  0.00    -0.322 OA
HETATM   23  C1  UNL     1     -17.691   5.646  -8.774  1.00  0.00     0.213 C 
ENDBRANCH  20  22
ENDBRANCH  14  20
BRANCH  16  24
HETATM   24  O6  UNL     1     -15.710   8.238  -7.278  1.00  0.00    -0.359 OA
ATOM     25  H6  UNL     1     -15.172   9.011  -7.396  1.00  0.00     0.217 HD
ENDBRANCH  16  24
ENDBRANCH   1   9
BRANCH   6  26
HETATM   26  O5  UNL     1     -13.784  13.811  -6.672  1.00  0.00    -0.381 OA
BRANCH  26  27
HETATM   27  C14 UNL     1     -12.699  13.975  -7.514  1.00  0.00     0.122 C 
HETATM   28  C15 UNL     1     -12.989  14.735  -8.757  1.00  0.00     0.032 C 
HETATM   29  C16 UNL     1     -11.996  14.194  -9.765  1.00  0.00     0.002 C 
HETATM   30  C17 UNL     1     -11.902  12.726  -9.403  1.00  0.00     0.002 C 
HETATM   31  C18 UNL     1     -12.028  12.687  -7.876  1.00  0.00     0.032 C 
ENDBRANCH  26  27
ENDBRANCH   6  26
TORSDOF 7
ENDMDL
MODEL 2
REMARK VINA RESULT: -7.354962693      2.989      7.421
REMARK  7 active torsions:
REMARK  status: ('A' for Active; 'I' for Inactive)
REMARK    1  A    between atoms: O1_2  and  C2_3 
REMARK    2  A    between atoms: C2_3  and  C3_5 
REMARK    3  A    between atoms: C6_10  and  C7_11 
REMARK    4  A    between atoms: C8_14  and  C9_15 
REMARK    5  A    between atoms: C13_20  and  O5_21 
REMARK    6  A    between atoms: O5_21  and  C14_22 
REMARK    7  A    between atoms: C21_29  and  O6_30 
ROOT
HETATM    1  C9  UNL     1     -15.655  12.540  -5.026  1.00  0.00     0.081 C 
HETATM    2  C10 UNL     1     -16.100  13.993  -5.046  1.00  0.00     0.074 C 
HETATM    3  N2  UNL     1     -16.479  15.116  -4.984  1.00  0.00    -0.196 NA
HETATM    4  C11 UNL     1     -14.994  12.494  -3.672  1.00  0.00     0.032 C 
HETATM    5  C12 UNL     1     -15.866  12.513  -2.475  1.00  0.00     0.034 C 
HETATM    6  C13 UNL     1     -17.190  11.800  -2.602  1.00  0.00     0.122 C 
HETATM    7  C19 UNL     1     -17.822  12.288  -3.902  1.00  0.00     0.034 C 
HETATM    8  C20 UNL     1     -16.967  11.855  -5.086  1.00  0.00     0.032 C 
ENDROOT
BRANCH   1   9
HETATM    9  C8  UNL     1     -14.769  12.306  -6.149  1.00  0.00     0.032 A 
HETATM   10  C6  UNL     1     -14.347  11.032  -6.485  1.00  0.00     0.120 A 
HETATM   11  N1  UNL     1     -13.457  10.894  -7.526  1.00  0.00    -0.353 N 
HETATM   12  C4  UNL     1     -12.944  11.864  -8.266  1.00  0.00     0.025 A 
ATOM     13  H1  UNL     1     -13.161   9.944  -7.750  1.00  0.00     0.166 HD
HETATM   14  C3  UNL     1     -13.343  13.158  -7.967  1.00  0.00     0.095 A 
HETATM   15  C5  UNL     1     -11.982  11.522  -9.363  1.00  0.00     0.069 C 
HETATM   16  C21 UNL     1     -14.243  13.369  -6.924  1.00  0.00     0.094 A 
BRANCH  10  17
HETATM   17  C7  UNL     1     -14.758   9.809  -5.896  1.00  0.00     0.227 C 
HETATM   18  O3  UNL     1     -15.437   9.021  -6.690  1.00  0.00    -0.643 OA
HETATM   19  O4  UNL     1     -14.611   9.273  -4.690  1.00  0.00    -0.643 OA
ENDBRANCH  10  17
BRANCH  14  20
HETATM   20  C2  UNL     1     -12.814  14.254  -8.743  1.00  0.00     0.297 C 
HETATM   21  O2  UNL     1     -12.490  15.368  -8.294  1.00  0.00    -0.259 OA
BRANCH  20  22
HETATM   22  O1  UNL     1     -12.618  14.130 -10.127  1.00  0.00    -0.322 OA
HETATM   23  C1  UNL     1     -11.370  14.293 -10.745  1.00  0.00     0.213 C 
ENDBRANCH  20  22
ENDBRANCH  14  20
BRANCH  16  24
HETATM   24  O6  UNL     1     -14.602  14.642  -6.679  1.00  0.00    -0.359 OA
ATOM     25  H6  UNL     1     -14.501  14.952  -5.787  1.00  0.00     0.217 HD
ENDBRANCH  16  24
ENDBRANCH   1   9
BRANCH   6  26
HETATM   26  O5  UNL     1     -17.947  12.102  -1.506  1.00  0.00    -0.381 OA
BRANCH  26  27
HETATM   27  C14 UNL     1     -18.856  11.126  -1.140  1.00  0.00     0.122 C 
HETATM   28  C15 UNL     1     -18.533   9.762  -1.634  1.00  0.00     0.032 C 
HETATM   29  C16 UNL     1     -19.883   9.086  -1.768  1.00  0.00     0.002 C 
HETATM   30  C17 UNL     1     -20.787  10.209  -2.233  1.00  0.00     0.002 C 
HETATM   31  C18 UNL     1     -20.267  11.458  -1.513  1.00  0.00     0.032 C 
ENDBRANCH  26  27
ENDBRANCH   6  26
TORSDOF 7
ENDMDL
MODEL 3
REMARK VINA RESULT: -7.316396882      3.524      7.187
REMARK  7 active torsions:
REMARK  status: ('A' for Active; 'I' for Inactive)
REMARK    1  A    between atoms: O1_2  and  C2_3 
REMARK    2  A    between atoms: C2_3  and  C3_5 
REMARK    3  A    between atoms: C6_10  and  C7_11 
REMARK    4  A    between atoms: C8_14  and  C9_15 
REMARK    5  A    between atoms: C13_20  and  O5_21 
REMARK    6  A    between atoms: O5_21  and  C14_22 
REMARK    7  A    between atoms: C21_29  and  O6_30 
ROOT
HETATM    1  C9  UNL     1     -15.606  13.241  -4.627  1.00  0.00     0.081 C 
HETATM    2  C10 UNL     1     -16.894  12.433  -4.621  1.00  0.00     0.074 C 
HETATM    3  N2  UNL     1     -17.928  11.855  -4.557  1.00  0.00    -0.196 NA
HETATM    4  C11 UNL     1     -16.178  14.631  -4.731  1.00  0.00     0.032 C 
HETATM    5  C12 UNL     1     -16.834  15.201  -3.532  1.00  0.00     0.034 C 
HETATM    6  C13 UNL     1     -16.240  14.816  -2.200  1.00  0.00     0.122 C 
HETATM    7  C19 UNL     1     -16.078  13.299  -2.220  1.00  0.00     0.034 C 
HETATM    8  C20 UNL     1     -15.068  12.902  -3.289  1.00  0.00     0.032 C 
ENDROOT
BRANCH   1   9
HETATM    9  C8  UNL     1     -14.798  12.824  -5.756  1.00  0.00     0.032 A 
HETATM   10  C6  UNL     1     -14.442  11.500  -5.942  1.00  0.00     0.120 A 
HETATM   11  N1  UNL     1     -13.621  11.188  -7.002  1.00  0.00    -0.353 N 
HETATM   12  C4  UNL     1     -13.120  12.029  -7.892  1.00  0.00     0.025 A 
ATOM     13  H1  UNL     1     -13.374  10.205  -7.114  1.00  0.00     0.166 HD
HETATM   14  C3  UNL     1     -13.455  13.368  -7.747  1.00  0.00     0.095 A 
HETATM   15  C5  UNL     1     -12.239  11.506  -8.985  1.00  0.00     0.069 C 
HETATM   16  C21 UNL     1     -14.282  13.752  -6.694  1.00  0.00     0.094 A 
BRANCH  10  17
HETATM   17  C7  UNL     1     -14.860  10.384  -5.173  1.00  0.00     0.227 C 
HETATM   18  O3  UNL     1     -15.692   9.580  -5.785  1.00  0.00    -0.643 OA
HETATM   19  O4  UNL     1     -14.595   9.963  -3.942  1.00  0.00    -0.643 OA
ENDBRANCH  10  17
BRANCH  14  20
HETATM   20  C2  UNL     1     -12.934  14.329  -8.691  1.00  0.00     0.297 C 
HETATM   21  O2  UNL     1     -12.684  15.522  -8.443  1.00  0.00    -0.259 OA
BRANCH  20  22
HETATM   22  O1  UNL     1     -12.662  13.962 -10.017  1.00  0.00    -0.322 OA
HETATM   23  C1  UNL     1     -11.487  14.327 -10.690  1.00  0.00     0.213 C 
ENDBRANCH  20  22
ENDBRANCH  14  20
BRANCH  16  24
HETATM   24  O6  UNL     1     -14.580  15.060  -6.601  1.00  0.00    -0.359 OA
ATOM     25  H6  UNL     1     -13.907  15.630  -6.247  1.00  0.00     0.217 HD
ENDBRANCH  16  24
ENDBRANCH   1   9
BRANCH   6  26
HETATM   26  O5  UNL     1     -17.086  15.239  -1.214  1.00  0.00    -0.381 OA
BRANCH  26  27
HETATM   27  C14 UNL     1     -16.461  15.682  -0.062  1.00  0.00     0.122 C 
HETATM   28  C15 UNL     1     -15.037  16.068  -0.238  1.00  0.00     0.032 C 
HETATM   29  C16 UNL     1     -14.411  15.810   1.117  1.00  0.00     0.002 C 
HETATM   30  C17 UNL     1     -15.134  14.570   1.601  1.00  0.00     0.002 C 
HETATM   31  C18 UNL     1     -16.568  14.720   1.080  1.00  0.00     0.032 C 
ENDBRANCH  26  27
ENDBRANCH   6  26
TORSDOF 7
ENDMDL
MODEL 4
REMARK VINA RESULT: -7.232070735      0.498      1.079
REMARK  7 active torsions:
REMARK  status: ('A' for Active; 'I' for Inactive)
REMARK    1  A    between atoms: O1_2  and  C2_3 
REMARK    2  A    between atoms: C2_3  and  C3_5 
REMARK    3  A    between atoms: C6_10  and  C7_11 
REMARK    4  A    between atoms: C8_14  and  C9_15 
REMARK    5  A    between atoms: C13_20  and  O5_21 
REMARK    6  A    between atoms: O5_21  and  C14_22 
REMARK    7  A    between atoms: C21_29  and  O6_30 
ROOT
HETATM    1  C9  UNL     1     -15.818  10.348  -5.411  1.00  0.00     0.081 C 
HETATM    2  C10 UNL     1     -16.963  11.266  -5.011  1.00  0.00     0.074 C 
HETATM    3  N2  UNL     1     -17.816  12.044  -4.740  1.00  0.00    -0.196 NA
HETATM    4  C11 UNL     1     -15.721  10.686  -6.877  1.00  0.00     0.032 C 
HETATM    5  C12 UNL     1     -15.141  11.998  -7.247  1.00  0.00     0.034 C 
HETATM    6  C13 UNL     1     -14.032  12.511  -6.363  1.00  0.00     0.122 C 
HETATM    7  C19 UNL     1     -14.526  12.378  -4.926  1.00  0.00     0.034 C 
HETATM    8  C20 UNL     1     -14.724  10.906  -4.583  1.00  0.00     0.032 C 
ENDROOT
BRANCH   1   9
HETATM    9  C8  UNL     1     -16.194   8.979  -5.121  1.00  0.00     0.032 A 
HETATM   10  C6  UNL     1     -16.599   8.592  -3.856  1.00  0.00     0.120 A 
HETATM   11  N1  UNL     1     -16.881   7.262  -3.641  1.00  0.00    -0.353 N 
HETATM   12  C4  UNL     1     -16.810   6.282  -4.527  1.00  0.00     0.025 A 
ATOM     13  H1  UNL     1     -17.175   7.004  -2.699  1.00  0.00     0.166 HD
HETATM   14  C3  UNL     1     -16.412   6.625  -5.811  1.00  0.00     0.095 A 
HETATM   15  C5  UNL     1     -17.156   4.885  -4.109  1.00  0.00     0.069 C 
HETATM   16  C21 UNL     1     -16.111   7.955  -6.097  1.00  0.00     0.094 A 
BRANCH  10  17
HETATM   17  C7  UNL     1     -16.802   9.426  -2.728  1.00  0.00     0.227 C 
HETATM   18  O3  UNL     1     -15.735   9.624  -1.995  1.00  0.00    -0.643 OA
HETATM   19  O4  UNL     1     -17.855  10.064  -2.231  1.00  0.00    -0.643 OA
ENDBRANCH  10  17
BRANCH  14  20
HETATM   20  C2  UNL     1     -16.318   5.594  -6.817  1.00  0.00     0.297 C 
HETATM   21  O2  UNL     1     -17.185   5.337  -7.672  1.00  0.00    -0.259 OA
BRANCH  20  22
HETATM   22  O1  UNL     1     -15.185   4.772  -6.904  1.00  0.00    -0.322 OA
HETATM   23  C1  UNL     1     -15.248   3.372  -6.900  1.00  0.00     0.213 C 
ENDBRANCH  20  22
ENDBRANCH  14  20
BRANCH  16  24
HETATM   24  O6  UNL     1     -15.736   8.236  -7.357  1.00  0.00    -0.359 OA
ATOM     25  H6  UNL     1     -15.147   7.620  -7.777  1.00  0.00     0.217 HD
ENDBRANCH  16  24
ENDBRANCH   1   9
BRANCH   6  26
HETATM   26  O5  UNL     1     -13.772  13.808  -6.708  1.00  0.00    -0.381 OA
BRANCH  26  27
HETATM   27  C14 UNL     1     -12.682  13.980  -7.542  1.00  0.00     0.122 C 
HETATM   28  C15 UNL     1     -12.971  14.720  -8.797  1.00  0.00     0.032 C 
HETATM   29  C16 UNL     1     -11.959  14.184  -9.788  1.00  0.00     0.002 C 
HETATM   30  C17 UNL     1     -11.844  12.722  -9.408  1.00  0.00     0.002 C 
HETATM   31  C18 UNL     1     -11.985  12.699  -7.882  1.00  0.00     0.032 C 
ENDBRANCH  26  27
ENDBRANCH   6  26
TORSDOF 7
ENDMDL
MODEL 5
REMARK VINA RESULT: -7.195284894      3.124      5.400
REMARK  7 active torsions:
REMARK  status: ('A' for Active; 'I' for Inactive)
REMARK    1  A    between atoms: O1_2  and  C2_3 
REMARK    2  A    between atoms: C2_3  and  C3_5 
REMARK    3  A    between atoms: C6_10  and  C7_11 
REMARK    4  A    between atoms: C8_14  and  C9_15 
REMARK    5  A    between atoms: C13_20  and  O5_21 
REMARK    6  A    between atoms: O5_21  and  C14_22 
REMARK    7  A    between atoms: C21_29  and  O6_30 
ROOT
HETATM    1  C9  UNL     1     -15.569  11.679  -4.855  1.00  0.00     0.081 C 
HETATM    2  C10 UNL     1     -15.023  10.920  -3.656  1.00  0.00     0.074 C 
HETATM    3  N2  UNL     1     -14.628  10.389  -2.672  1.00  0.00    -0.196 NA
HETATM    4  C11 UNL     1     -16.967  11.959  -4.364  1.00  0.00     0.032 C 
HETATM    5  C12 UNL     1     -17.137  12.985  -3.310  1.00  0.00     0.034 C 
HETATM    6  C13 UNL     1     -16.194  14.162  -3.366  1.00  0.00     0.122 C 
HETATM    7  C19 UNL     1     -14.791  13.586  -3.521  1.00  0.00     0.034 C 
HETATM    8  C20 UNL     1     -14.676  12.860  -4.856  1.00  0.00     0.032 C 
ENDROOT
BRANCH   1   9
HETATM    9  C8  UNL     1     -15.489  10.826  -6.024  1.00  0.00     0.032 A 
HETATM   10  C6  UNL     1     -15.274  11.348  -7.287  1.00  0.00     0.120 A 
HETATM   11  N1  UNL     1     -15.272  10.483  -8.358  1.00  0.00    -0.353 N 
HETATM   12  C4  UNL     1     -15.455   9.173  -8.321  1.00  0.00     0.025 A 
ATOM     13  H1  UNL     1     -15.113  10.895  -9.277  1.00  0.00     0.166 HD
HETATM   14  C3  UNL     1     -15.671   8.606  -7.073  1.00  0.00     0.095 A 
HETATM   15  C5  UNL     1     -15.420   8.388  -9.597  1.00  0.00     0.069 C 
HETATM   16  C21 UNL     1     -15.685   9.425  -5.946  1.00  0.00     0.094 A 
BRANCH  10  17
HETATM   17  C7  UNL     1     -15.010  12.700  -7.623  1.00  0.00     0.227 C 
HETATM   18  O3  UNL     1     -13.762  12.955  -7.924  1.00  0.00    -0.643 OA
HETATM   19  O4  UNL     1     -15.760  13.794  -7.696  1.00  0.00    -0.643 OA
ENDBRANCH  10  17
BRANCH  14  20
HETATM   20  C2  UNL     1     -15.876   7.180  -6.976  1.00  0.00     0.297 C 
HETATM   21  O2  UNL     1     -14.981   6.317  -7.008  1.00  0.00    -0.259 OA
BRANCH  20  22
HETATM   22  O1  UNL     1     -17.165   6.645  -6.829  1.00  0.00    -0.322 OA
HETATM   23  C1  UNL     1     -17.914   6.137  -7.900  1.00  0.00     0.213 C 
ENDBRANCH  20  22
ENDBRANCH  14  20
BRANCH  16  24
HETATM   24  O6  UNL     1     -15.893   8.825  -4.761  1.00  0.00    -0.359 OA
ATOM     25  H6  UNL     1     -16.558   9.204  -4.199  1.00  0.00     0.217 HD
ENDBRANCH  16  24
ENDBRANCH   1   9
BRANCH   6  26
HETATM   26  O5  UNL     1     -16.340  14.884  -2.214  1.00  0.00    -0.381 OA
BRANCH  26  27
HETATM   27  C14 UNL     1     -15.299  14.756  -1.313  1.00  0.00     0.122 C 
HETATM   28  C15 UNL     1     -15.623  13.958  -0.101  1.00  0.00     0.032 C 
HETATM   29  C16 UNL     1     -14.717  14.527   0.972  1.00  0.00     0.002 C 
HETATM   30  C17 UNL     1     -14.675  16.005   0.641  1.00  0.00     0.002 C 
HETATM   31  C18 UNL     1     -14.714  16.067  -0.890  1.00  0.00     0.032 C 
ENDBRANCH  26  27
ENDBRANCH   6  26
TORSDOF 7
ENDMDL
