MODEL 1
REMARK VINA RESULT: -7.839499711      0.000      0.000
REMARK  6 active torsions:
REMARK  status: ('A' for Active; 'I' for Inactive)
REMARK    1  A    between atoms: C2_2  and  O1_3 
REMARK    2  A    between atoms: O1_3  and  C3_4 
REMARK    3  A    between atoms: C3_4  and  C4_6 
REMARK    4  A    between atoms: C5_8  and  N1_9 
REMARK       I    between atoms: N1_9  and  C6_11 
REMARK    5  A    between atoms: C6_11  and  C7_13 
REMARK    6  A    between atoms: C7_13  and  C8_14 
ROOT
HETATM    1  C4  UNL     1     -13.588  13.307  -8.092  1.00  0.00     0.089 A 
HETATM    2  S1  UNL     1     -13.248  11.660  -8.165  1.00  0.00    -0.064 SA
HETATM    3  C5  UNL     1     -14.494  11.051  -7.074  1.00  0.00     0.099 A 
HETATM    4  C15 UNL     1     -15.106  12.200  -6.717  1.00  0.00     0.086 A 
HETATM    5  C16 UNL     1     -16.255  12.224  -5.780  1.00  0.00     0.103 C 
HETATM    6  N3  UNL     1     -17.162  12.282  -5.047  1.00  0.00    -0.191 NA
HETATM    7  C17 UNL     1     -14.645  13.372  -7.237  1.00  0.00    -0.015 A 
HETATM    8  C18 UNL     1     -15.227  14.757  -6.933  1.00  0.00     0.051 C 
ENDROOT
BRANCH   3   9
HETATM    9  N1  UNL     1     -14.633   9.672  -6.791  1.00  0.00    -0.320 N 
HETATM   10  C6  UNL     1     -15.105   8.904  -5.762  1.00  0.00     0.222 C 
HETATM   11  O3  UNL     1     -15.585   9.293  -4.701  1.00  0.00    -0.273 OA
ATOM     12  H1  UNL     1     -14.291   9.096  -7.560  1.00  0.00     0.169 HD
BRANCH  10  13
HETATM   13  C7  UNL     1     -15.016   7.376  -5.980  1.00  0.00     0.108 C 
BRANCH  13  14
HETATM   14  C8  UNL     1     -16.190   6.929  -6.815  1.00  0.00    -0.003 C 
HETATM   15  C9  UNL     1     -15.892   7.102  -8.295  1.00  0.00     0.007 C 
HETATM   16  C10 UNL     1     -17.101   7.389  -9.102  1.00  0.00     0.034 C 
HETATM   17  C11 UNL     1     -18.313   6.576  -8.823  1.00  0.00     0.196 C 
HETATM   18  C12 UNL     1     -18.435   5.372  -9.752  1.00  0.00     0.109 C 
HETATM   19  N2  UNL     1     -18.530   6.152  -7.507  1.00  0.00    -0.057 N 
HETATM   20  S2  UNL     1     -17.665   4.094  -8.674  1.00  0.00    -0.134 SA
HETATM   21  C13 UNL     1     -17.729   5.076  -7.122  1.00  0.00     0.247 C 
HETATM   22  C14 UNL     1     -16.349   5.425  -6.641  1.00  0.00     0.049 C 
ATOM     23  H22 UNL     1     -18.424   6.930  -6.856  1.00  0.00     0.279 HD
ATOM     24  H21 UNL     1     -19.516   5.936  -7.357  1.00  0.00     0.279 HD
ENDBRANCH  13  14
ENDBRANCH  10  13
ENDBRANCH   3   9
BRANCH   1  25
HETATM   25  C3  UNL     1     -12.900  14.421  -8.790  1.00  0.00     0.300 C 
HETATM   26  O2  UNL     1     -12.626  15.487  -8.231  1.00  0.00    -0.259 OA
BRANCH  25  27
HETATM   27  O1  UNL     1     -12.565  14.233 -10.112  1.00  0.00    -0.317 OA
BRANCH  27  28
HETATM   28  C2  UNL     1     -11.211  13.891 -10.422  1.00  0.00     0.174 C 
HETATM   29  C1  UNL     1     -11.311  12.817 -11.509  1.00  0.00     0.034 C 
ENDBRANCH  27  28
ENDBRANCH  25  27
ENDBRANCH   1  25
TORSDOF 6
ENDMDL
MODEL 2
REMARK VINA RESULT: -7.789546957      1.603      1.824
REMARK  6 active torsions:
REMARK  status: ('A' for Active; 'I' for Inactive)
REMARK    1  A    between atoms: C2_2  and  O1_3 
REMARK    2  A    between atoms: O1_3  and  C3_4 
REMARK    3  A    between atoms: C3_4  and  C4_6 
REMARK    4  A    between atoms: C5_8  and  N1_9 
REMARK       I    between atoms: N1_9  and  C6_11 
REMARK    5  A    between atoms: C6_11  and  C7_13 
REMARK    6  A    between atoms: C7_13  and  C8_14 
ROOT
HETATM    1  C4  UNL     1     -13.633  13.304  -7.947  1.00  0.00     0.089 A 
HETATM    2  S1  UNL     1     -13.260  11.669  -7.808  1.00  0.00    -0.064 SA
HETATM    3  C5  UNL     1     -14.500  11.178  -6.653  1.00  0.00     0.099 A 
HETATM    4  C15 UNL     1     -15.138  12.351  -6.448  1.00  0.00     0.086 A 
HETATM    5  C16 UNL     1     -16.294  12.469  -5.527  1.00  0.00     0.103 C 
HETATM    6  N3  UNL     1     -17.206  12.601  -4.811  1.00  0.00    -0.191 NA
HETATM    7  C17 UNL     1     -14.698  13.456  -7.111  1.00  0.00    -0.015 A 
HETATM    8  C18 UNL     1     -15.310  14.855  -6.989  1.00  0.00     0.051 C 
ENDROOT
BRANCH   3   9
HETATM    9  N1  UNL     1     -14.613   9.844  -6.197  1.00  0.00    -0.320 N 
HETATM   10  C6  UNL     1     -15.136   8.669  -6.661  1.00  0.00     0.222 C 
HETATM   11  O3  UNL     1     -15.704   8.477  -7.733  1.00  0.00    -0.273 OA
ATOM     12  H1  UNL     1     -14.193   9.727  -5.276  1.00  0.00     0.169 HD
BRANCH  10  13
HETATM   13  C7  UNL     1     -14.983   7.455  -5.716  1.00  0.00     0.108 C 
BRANCH  13  14
HETATM   14  C8  UNL     1     -16.014   6.416  -6.077  1.00  0.00    -0.003 C 
HETATM   15  C9  UNL     1     -15.356   5.068  -6.321  1.00  0.00     0.007 C 
HETATM   16  C10 UNL     1     -16.077   4.240  -7.315  1.00  0.00     0.034 C 
HETATM   17  C11 UNL     1     -17.557   4.175  -7.199  1.00  0.00     0.196 C 
HETATM   18  C12 UNL     1     -18.027   2.962  -6.402  1.00  0.00     0.109 C 
HETATM   19  N2  UNL     1     -18.230   5.309  -6.731  1.00  0.00    -0.057 N 
HETATM   20  S2  UNL     1     -18.208   3.752  -4.750  1.00  0.00    -0.134 SA
HETATM   21  C13 UNL     1     -18.137   5.488  -5.349  1.00  0.00     0.247 C 
HETATM   22  C14 UNL     1     -16.898   6.183  -4.860  1.00  0.00     0.049 C 
ATOM     23  H22 UNL     1     -17.913   6.144  -7.223  1.00  0.00     0.279 HD
ATOM     24  H21 UNL     1     -19.206   5.295  -7.026  1.00  0.00     0.279 HD
ENDBRANCH  13  14
ENDBRANCH  10  13
ENDBRANCH   3   9
BRANCH   1  25
HETATM   25  C3  UNL     1     -12.964  14.335  -8.779  1.00  0.00     0.300 C 
HETATM   26  O2  UNL     1     -12.730  15.474  -8.364  1.00  0.00    -0.259 OA
BRANCH  25  27
HETATM   27  O1  UNL     1     -12.600  13.982 -10.058  1.00  0.00    -0.317 OA
BRANCH  27  28
HETATM   28  C2  UNL     1     -11.212  13.755 -10.325  1.00  0.00     0.174 C 
HETATM   29  C1  UNL     1     -11.179  12.525 -11.238  1.00  0.00     0.034 C 
ENDBRANCH  27  28
ENDBRANCH  25  27
ENDBRANCH   1  25
TORSDOF 6
ENDMDL
MODEL 3
REMARK VINA RESULT: -7.770513197      3.629      5.315
REMARK  6 active torsions:
REMARK  status: ('A' for Active; 'I' for Inactive)
REMARK    1  A    between atoms: C2_2  and  O1_3 
REMARK    2  A    between atoms: O1_3  and  C3_4 
REMARK    3  A    between atoms: C3_4  and  C4_6 
REMARK    4  A    between atoms: C5_8  and  N1_9 
REMARK       I    between atoms: N1_9  and  C6_11 
REMARK    5  A    between atoms: C6_11  and  C7_13 
REMARK    6  A    between atoms: C7_13  and  C8_14 
ROOT
HETATM    1  C4  UNL     1     -12.353  13.187  -9.132  1.00  0.00     0.089 A 
HETATM    2  S1  UNL     1     -12.576  11.664  -8.453  1.00  0.00    -0.064 SA
HETATM    3  C5  UNL     1     -13.690  12.079  -7.149  1.00  0.00     0.099 A 
HETATM    4  C15 UNL     1     -13.817  13.411  -7.335  1.00  0.00     0.086 A 
HETATM    5  C16 UNL     1     -14.675  14.250  -6.465  1.00  0.00     0.103 C 
HETATM    6  N3  UNL     1     -15.340  14.943  -5.802  1.00  0.00    -0.191 NA
HETATM    7  C17 UNL     1     -13.131  13.993  -8.357  1.00  0.00    -0.015 A 
HETATM    8  C18 UNL     1     -13.167  15.487  -8.700  1.00  0.00     0.051 C 
ENDROOT
BRANCH   3   9
HETATM    9  N1  UNL     1     -14.195  11.105  -6.256  1.00  0.00    -0.320 N 
HETATM   10  C6  UNL     1     -14.804   9.884  -6.347  1.00  0.00     0.222 C 
HETATM   11  O3  UNL     1     -15.088   9.267  -7.371  1.00  0.00    -0.273 OA
ATOM     12  H1  UNL     1     -14.072  11.389  -5.285  1.00  0.00     0.169 HD
BRANCH  10  13
HETATM   13  C7  UNL     1     -15.165   9.221  -4.998  1.00  0.00     0.108 C 
BRANCH  13  14
HETATM   14  C8  UNL     1     -15.329  10.293  -3.951  1.00  0.00    -0.003 C 
HETATM   15  C9  UNL     1     -16.691  10.190  -3.286  1.00  0.00     0.007 C 
HETATM   16  C10 UNL     1     -17.218  11.499  -2.833  1.00  0.00     0.034 C 
HETATM   17  C11 UNL     1     -16.272  12.405  -2.131  1.00  0.00     0.196 C 
HETATM   18  C12 UNL     1     -16.351  12.269  -0.613  1.00  0.00     0.109 C 
HETATM   19  N2  UNL     1     -14.927  12.376  -2.515  1.00  0.00    -0.057 N 
HETATM   20  S2  UNL     1     -14.971  11.080  -0.356  1.00  0.00    -0.134 SA
HETATM   21  C13 UNL     1     -14.224  11.275  -2.024  1.00  0.00     0.247 C 
HETATM   22  C14 UNL     1     -14.344  10.010  -2.826  1.00  0.00     0.049 C 
ATOM     23  H22 UNL     1     -14.842  12.433  -3.530  1.00  0.00     0.279 HD
ATOM     24  H21 UNL     1     -14.460  13.244  -2.255  1.00  0.00     0.279 HD
ENDBRANCH  13  14
ENDBRANCH  10  13
ENDBRANCH   3   9
BRANCH   1  25
HETATM   25  C3  UNL     1     -11.512  13.564 -10.296  1.00  0.00     0.300 C 
HETATM   26  O2  UNL     1     -11.367  14.735 -10.658  1.00  0.00    -0.259 OA
BRANCH  25  27
HETATM   27  O1  UNL     1     -10.881  12.549 -10.978  1.00  0.00    -0.317 OA
BRANCH  27  28
HETATM   28  C2  UNL     1     -11.633  11.829 -11.960  1.00  0.00     0.174 C 
HETATM   29  C1  UNL     1     -11.268  10.358 -11.740  1.00  0.00     0.034 C 
ENDBRANCH  27  28
ENDBRANCH  25  27
ENDBRANCH   1  25
TORSDOF 6
ENDMDL
MODEL 4
REMARK VINA RESULT: -7.604583956      1.861      2.739
REMARK  6 active torsions:
REMARK  status: ('A' for Active; 'I' for Inactive)
REMARK    1  A    between atoms: C2_2  and  O1_3 
REMARK    2  A    between atoms: O1_3  and  C3_4 
REMARK    3  A    between atoms: C3_4  and  C4_6 
REMARK    4  A    between atoms: C5_8  and  N1_9 
REMARK       I    between atoms: N1_9  and  C6_11 
REMARK    5  A    between atoms: C6_11  and  C7_13 
REMARK    6  A    between atoms: C7_13  and  C8_14 
ROOT
HETATM    1  C4  UNL     1     -12.256  13.176  -9.131  1.00  0.00     0.089 A 
HETATM    2  S1  UNL     1     -12.372  11.674  -8.381  1.00  0.00    -0.064 SA
HETATM    3  C5  UNL     1     -13.473  12.083  -7.064  1.00  0.00     0.099 A 
HETATM    4  C15 UNL     1     -13.682  13.396  -7.303  1.00  0.00     0.086 A 
HETATM    5  C16 UNL     1     -14.562  14.224  -6.445  1.00  0.00     0.103 C 
HETATM    6  N3  UNL     1     -15.248  14.907  -5.792  1.00  0.00    -0.191 NA
HETATM    7  C17 UNL     1     -13.057  13.971  -8.368  1.00  0.00    -0.015 A 
HETATM    8  C18 UNL     1     -13.187  15.443  -8.773  1.00  0.00     0.051 C 
ENDROOT
BRANCH   3   9
HETATM    9  N1  UNL     1     -13.898  11.123  -6.116  1.00  0.00    -0.320 N 
HETATM   10  C6  UNL     1     -15.075  10.750  -5.528  1.00  0.00     0.222 C 
HETATM   11  O3  UNL     1     -16.189  11.230  -5.719  1.00  0.00    -0.273 OA
ATOM     12  H1  UNL     1     -13.118  10.558  -5.782  1.00  0.00     0.169 HD
BRANCH  10  13
HETATM   13  C7  UNL     1     -14.970   9.589  -4.513  1.00  0.00     0.108 C 
BRANCH  13  14
HETATM   14  C8  UNL     1     -15.295   8.293  -5.212  1.00  0.00    -0.003 C 
HETATM   15  C9  UNL     1     -16.649   7.767  -4.767  1.00  0.00     0.007 C 
HETATM   16  C10 UNL     1     -16.736   6.288  -4.794  1.00  0.00     0.034 C 
HETATM   17  C11 UNL     1     -16.186   5.597  -5.988  1.00  0.00     0.196 C 
HETATM   18  C12 UNL     1     -17.253   5.307  -7.039  1.00  0.00     0.109 C 
HETATM   19  N2  UNL     1     -15.075   6.165  -6.622  1.00  0.00    -0.057 N 
HETATM   20  S2  UNL     1     -17.007   6.777  -8.117  1.00  0.00    -0.134 SA
HETATM   21  C13 UNL     1     -15.383   7.273  -7.414  1.00  0.00     0.247 C 
HETATM   22  C14 UNL     1     -15.479   8.587  -6.694  1.00  0.00     0.049 C 
ATOM     23  H22 UNL     1     -14.354   6.401  -5.940  1.00  0.00     0.279 HD
ATOM     24  H21 UNL     1     -14.573   5.464  -7.166  1.00  0.00     0.279 HD
ENDBRANCH  13  14
ENDBRANCH  10  13
ENDBRANCH   3   9
BRANCH   1  25
HETATM   25  C3  UNL     1     -11.469  13.547 -10.333  1.00  0.00     0.300 C 
HETATM   26  O2  UNL     1     -11.345  14.716 -10.711  1.00  0.00    -0.259 OA
BRANCH  25  27
HETATM   27  O1  UNL     1     -10.863  12.530 -11.035  1.00  0.00    -0.317 OA
BRANCH  27  28
HETATM   28  C2  UNL     1     -11.649  11.811 -11.991  1.00  0.00     0.174 C 
HETATM   29  C1  UNL     1     -11.337  10.334 -11.731  1.00  0.00     0.034 C 
ENDBRANCH  27  28
ENDBRANCH  25  27
ENDBRANCH   1  25
TORSDOF 6
ENDMDL
MODEL 5
REMARK VINA RESULT: -7.502744915      1.734      2.338
REMARK  6 active torsions:
REMARK  status: ('A' for Active; 'I' for Inactive)
REMARK    1  A    between atoms: C2_2  and  O1_3 
REMARK    2  A    between atoms: O1_3  and  C3_4 
REMARK    3  A    between atoms: C3_4  and  C4_6 
REMARK    4  A    between atoms: C5_8  and  N1_9 
REMARK       I    between atoms: N1_9  and  C6_11 
REMARK    5  A    between atoms: C6_11  and  C7_13 
REMARK    6  A    between atoms: C7_13  and  C8_14 
ROOT
HETATM    1  C4  UNL     1     -12.588  13.183  -8.819  1.00  0.00     0.089 A 
HETATM    2  S1  UNL     1     -12.794  11.664  -8.125  1.00  0.00    -0.064 SA
HETATM    3  C5  UNL     1     -13.967  12.068  -6.870  1.00  0.00     0.099 A 
HETATM    4  C15 UNL     1     -14.123  13.393  -7.081  1.00  0.00     0.086 A 
HETATM    5  C16 UNL     1     -15.034  14.222  -6.257  1.00  0.00     0.103 C 
HETATM    6  N3  UNL     1     -15.742  14.906  -5.629  1.00  0.00    -0.191 NA
HETATM    7  C17 UNL     1     -13.415  13.979  -8.086  1.00  0.00    -0.015 A 
HETATM    8  C18 UNL     1     -13.478  15.465  -8.454  1.00  0.00     0.051 C 
ENDROOT
BRANCH   3   9
HETATM    9  N1  UNL     1     -14.478  11.094  -5.980  1.00  0.00    -0.320 N 
HETATM   10  C6  UNL     1     -15.678  10.813  -5.387  1.00  0.00     0.222 C 
HETATM   11  O3  UNL     1     -16.734  11.428  -5.511  1.00  0.00    -0.273 OA
ATOM     12  H1  UNL     1     -13.761  10.422  -5.710  1.00  0.00     0.169 HD
BRANCH  10  13
HETATM   13  C7  UNL     1     -15.685   9.575  -4.460  1.00  0.00     0.108 C 
BRANCH  13  14
HETATM   14  C8  UNL     1     -16.144   8.374  -5.246  1.00  0.00    -0.003 C 
HETATM   15  C9  UNL     1     -14.992   7.774  -6.033  1.00  0.00     0.007 C 
HETATM   16  C10 UNL     1     -15.422   7.131  -7.296  1.00  0.00     0.034 C 
HETATM   17  C11 UNL     1     -16.628   6.265  -7.242  1.00  0.00     0.196 C 
HETATM   18  C12 UNL     1     -16.280   4.792  -7.047  1.00  0.00     0.109 C 
HETATM   19  N2  UNL     1     -17.644   6.610  -6.343  1.00  0.00    -0.057 N 
HETATM   20  S2  UNL     1     -16.462   4.690  -5.219  1.00  0.00    -0.134 SA
HETATM   21  C13 UNL     1     -17.357   6.282  -5.017  1.00  0.00     0.247 C 
HETATM   22  C14 UNL     1     -16.529   7.281  -4.259  1.00  0.00     0.049 C 
ATOM     23  H22 UNL     1     -17.877   7.599  -6.426  1.00  0.00     0.279 HD
ATOM     24  H21 UNL     1     -18.532   6.199  -6.630  1.00  0.00     0.279 HD
ENDBRANCH  13  14
ENDBRANCH  10  13
ENDBRANCH   3   9
BRANCH   1  25
HETATM   25  C3  UNL     1     -11.714  13.565  -9.957  1.00  0.00     0.300 C 
HETATM   26  O2  UNL     1     -11.619  14.728 -10.360  1.00  0.00    -0.259 OA
BRANCH  25  27
HETATM   27  O1  UNL     1     -10.993  12.565 -10.568  1.00  0.00    -0.317 OA
BRANCH  27  28
HETATM   28  C2  UNL     1     -11.513  12.002 -11.777  1.00  0.00     0.174 C 
HETATM   29  C1  UNL     1     -11.502  10.487 -11.546  1.00  0.00     0.034 C 
ENDBRANCH  27  28
ENDBRANCH  25  27
ENDBRANCH   1  25
TORSDOF 6
ENDMDL
