MODEL 1
REMARK VINA RESULT: -8.285327574      0.000      0.000
REMARK  2 active torsions:
REMARK  status: ('A' for Active; 'I' for Inactive)
REMARK    1  A    between atoms: N1_2  and  N2_3 
REMARK       I    between atoms: N2_3  and  C2_5 
REMARK       I    between atoms: C2_5  and  N3_7 
REMARK    2  A    between atoms: C5_17  and  C6_18 
ROOT
HETATM    1  N2  UNL     1       2.783  10.422  15.705  1.00  0.00    -0.255 N 
ATOM      2  H2  UNL     1       3.569  10.413  16.355  1.00  0.00     0.187 HD
HETATM    3  C2  UNL     1       2.385  11.587  15.079  1.00  0.00     0.359 C 
HETATM    4  O1  UNL     1       1.380  11.474  14.285  1.00  0.00    -0.244 OA
HETATM    5  N3  UNL     1       2.939  12.882  15.198  1.00  0.00    -0.056 N 
HETATM    6  C3  UNL     1       3.983  13.238  15.954  1.00  0.00     0.691 A 
HETATM    7  N4  UNL     1       4.581  12.355  16.665  1.00  0.00    -0.234 N 
ATOM      8  H41 UNL     1       5.377  12.626  17.242  1.00  0.00     0.174 HD
ATOM      9  H42 UNL     1       4.228  11.399  16.627  1.00  0.00     0.174 HD
HETATM   10  N5  UNL     1       4.459  14.526  16.005  1.00  0.00    -0.174 N 
ATOM     11  H5  UNL     1       5.261  14.731  16.601  1.00  0.00     0.186 HD
HETATM   12  C4  UNL     1       3.913  15.508  15.309  1.00  0.00     0.156 A 
HETATM   13  N6  UNL     1       4.327  16.785  15.312  1.00  0.00    -0.323 N 
ATOM     14  H6  UNL     1       5.125  17.052  15.889  1.00  0.00     0.169 HD
HETATM   15  C5  UNL     1       3.710  17.718  14.566  1.00  0.00     0.156 A 
HETATM   16  N8  UNL     1       2.661  17.393  13.800  1.00  0.00    -0.282 N 
ATOM     17  H8  UNL     1       2.202  18.112  13.238  1.00  0.00     0.188 HD
HETATM   18  N9  UNL     1       2.215  16.152  13.764  1.00  0.00    -0.291 N 
ATOM     19  H9  UNL     1       1.415  15.907  13.181  1.00  0.00     0.187 HD
HETATM   20  C10 UNL     1       2.836  15.204  14.515  1.00  0.00     0.162 A 
HETATM   21  C11 UNL     1       2.385  13.911  14.484  1.00  0.00     0.302 A 
HETATM   22  O2  UNL     1       1.390  13.637  13.747  1.00  0.00    -0.264 OA
ENDROOT
BRANCH  15  23
HETATM   23  C6  UNL     1       4.180  19.119  14.568  1.00  0.00     0.120 A 
HETATM   24  N7  UNL     1       4.225  19.957  15.589  1.00  0.00    -0.351 N 
HETATM   25  C7  UNL     1       4.664  21.160  15.415  1.00  0.00     0.012 A 
ATOM     26  H7  UNL     1       3.915  19.655  16.512  1.00  0.00     0.166 HD
HETATM   27  C8  UNL     1       4.739  22.163  16.552  1.00  0.00     0.068 C 
HETATM   28  C9  UNL     1       5.069  21.518  14.154  1.00  0.00     0.076 A 
HETATM   29  S1  UNL     1       4.787  20.069  13.286  1.00  0.00    -0.079 SA
ENDBRANCH  15  23
BRANCH   1  30
HETATM   30  N1  UNL     1       2.052   9.227  15.412  1.00  0.00    -0.142 NA
HETATM   31  C1  UNL     1       2.740   8.050  15.890  1.00  0.00     0.159 C 
ENDBRANCH   1  30
TORSDOF 2
ENDMDL
MODEL 2
REMARK VINA RESULT: -8.144686963      2.873      8.342
REMARK  2 active torsions:
REMARK  status: ('A' for Active; 'I' for Inactive)
REMARK    1  A    between atoms: N1_2  and  N2_3 
REMARK       I    between atoms: N2_3  and  C2_5 
REMARK       I    between atoms: C2_5  and  N3_7 
REMARK    2  A    between atoms: C5_17  and  C6_18 
ROOT
HETATM    1  N2  UNL     1       3.293  18.475  15.316  1.00  0.00    -0.255 N 
ATOM      2  H2  UNL     1       4.003  18.511  16.048  1.00  0.00     0.187 HD
HETATM    3  C2  UNL     1       2.788  17.270  14.868  1.00  0.00     0.359 C 
HETATM    4  O1  UNL     1       1.900  17.351  13.942  1.00  0.00    -0.244 OA
HETATM    5  N3  UNL     1       3.121  15.965  15.295  1.00  0.00    -0.056 N 
HETATM    6  C3  UNL     1       4.006  15.635  16.241  1.00  0.00     0.691 A 
HETATM    7  N4  UNL     1       4.648  16.557  16.857  1.00  0.00    -0.234 N 
ATOM      8  H41 UNL     1       5.323  16.305  17.580  1.00  0.00     0.174 HD
ATOM      9  H42 UNL     1       4.457  17.523  16.594  1.00  0.00     0.174 HD
HETATM   10  N5  UNL     1       4.263  14.332  16.596  1.00  0.00    -0.174 N 
ATOM     11  H5  UNL     1       4.949  14.148  17.329  1.00  0.00     0.186 HD
HETATM   12  C4  UNL     1       3.654  13.310  16.022  1.00  0.00     0.156 A 
HETATM   13  N6  UNL     1       3.856  12.017  16.321  1.00  0.00    -0.323 N 
ATOM     14  H6  UNL     1       4.532  11.770  17.045  1.00  0.00     0.169 HD
HETATM   15  C5  UNL     1       3.185  11.042  15.684  1.00  0.00     0.156 A 
HETATM   16  N8  UNL     1       2.293  11.340  14.731  1.00  0.00    -0.282 N 
ATOM     17  H8  UNL     1       1.790  10.590  14.256  1.00  0.00     0.188 HD
HETATM   18  N9  UNL     1       2.059  12.596  14.400  1.00  0.00    -0.291 N 
ATOM     19  H9  UNL     1       1.381  12.820  13.672  1.00  0.00     0.187 HD
HETATM   20  C10 UNL     1       2.735  13.586  15.041  1.00  0.00     0.162 A 
HETATM   21  C11 UNL     1       2.498  14.894  14.710  1.00  0.00     0.302 A 
HETATM   22  O2  UNL     1       1.647  15.142  13.803  1.00  0.00    -0.264 OA
ENDROOT
BRANCH  15  23
HETATM   23  C6  UNL     1       3.408   9.622  16.028  1.00  0.00     0.120 A 
HETATM   24  N7  UNL     1       2.586   8.605  15.839  1.00  0.00    -0.351 N 
HETATM   25  C7  UNL     1       2.938   7.417  16.207  1.00  0.00     0.012 A 
ATOM     26  H7  UNL     1       1.676   8.757  15.405  1.00  0.00     0.166 HD
HETATM   27  C8  UNL     1       2.035   6.212  16.014  1.00  0.00     0.068 C 
HETATM   28  C9  UNL     1       4.172   7.265  16.787  1.00  0.00     0.076 A 
HETATM   29  S1  UNL     1       4.754   8.875  16.764  1.00  0.00    -0.079 SA
ENDBRANCH  15  23
BRANCH   1  30
HETATM   30  N1  UNL     1       2.785  19.671  14.718  1.00  0.00    -0.142 NA
HETATM   31  C1  UNL     1       3.563  20.829  15.097  1.00  0.00     0.159 C 
ENDBRANCH   1  30
TORSDOF 2
ENDMDL
MODEL 3
REMARK VINA RESULT: -7.651286187      2.962      8.208
REMARK  2 active torsions:
REMARK  status: ('A' for Active; 'I' for Inactive)
REMARK    1  A    between atoms: N1_2  and  N2_3 
REMARK       I    between atoms: N2_3  and  C2_5 
REMARK       I    between atoms: C2_5  and  N3_7 
REMARK    2  A    between atoms: C5_17  and  C6_18 
ROOT
HETATM    1  N2  UNL     1       3.752  18.711  15.239  1.00  0.00    -0.255 N 
ATOM      2  H2  UNL     1       4.573  18.674  15.843  1.00  0.00     0.187 HD
HETATM    3  C2  UNL     1       3.081  17.560  14.873  1.00  0.00     0.359 C 
HETATM    4  O1  UNL     1       2.064  17.732  14.106  1.00  0.00    -0.244 OA
HETATM    5  N3  UNL     1       3.368  16.224  15.232  1.00  0.00    -0.056 N 
HETATM    6  C3  UNL     1       4.365  15.804  16.018  1.00  0.00     0.691 A 
HETATM    7  N4  UNL     1       5.175  16.658  16.525  1.00  0.00    -0.234 N 
ATOM      8  H41 UNL     1       5.936  16.339  17.124  1.00  0.00     0.174 HD
ATOM      9  H42 UNL     1       5.025  17.643  16.302  1.00  0.00     0.174 HD
HETATM   10  N5  UNL     1       4.567  14.479  16.319  1.00  0.00    -0.174 N 
ATOM     11  H5  UNL     1       5.345  14.225  16.927  1.00  0.00     0.186 HD
HETATM   12  C4  UNL     1       3.787  13.521  15.848  1.00  0.00     0.156 A 
HETATM   13  N6  UNL     1       3.926  12.210  16.102  1.00  0.00    -0.323 N 
ATOM     14  H6  UNL     1       4.688  11.895  16.703  1.00  0.00     0.169 HD
HETATM   15  C5  UNL     1       3.080  11.307  15.579  1.00  0.00     0.156 A 
HETATM   16  N8  UNL     1       2.072  11.695  14.787  1.00  0.00    -0.282 N 
ATOM     17  H8  UNL     1       1.436  10.998  14.398  1.00  0.00     0.188 HD
HETATM   18  N9  UNL     1       1.894  12.972  14.506  1.00  0.00    -0.291 N 
ATOM     19  H9  UNL     1       1.127  13.265  13.901  1.00  0.00     0.187 HD
HETATM   20  C10 UNL     1       2.746  13.891  15.033  1.00  0.00     0.162 A 
HETATM   21  C11 UNL     1       2.570  15.220  14.752  1.00  0.00     0.302 A 
HETATM   22  O2  UNL     1       1.605  15.554  13.999  1.00  0.00    -0.264 OA
ENDROOT
BRANCH  15  23
HETATM   23  C6  UNL     1       3.236   9.867  15.874  1.00  0.00     0.120 A 
HETATM   24  N7  UNL     1       4.286   9.256  16.394  1.00  0.00    -0.351 N 
HETATM   25  C7  UNL     1       4.257   7.978  16.583  1.00  0.00     0.012 A 
ATOM     26  H7  UNL     1       5.116   9.792  16.646  1.00  0.00     0.166 HD
HETATM   27  C8  UNL     1       5.434   7.225  17.177  1.00  0.00     0.068 C 
HETATM   28  C9  UNL     1       3.118   7.303  16.228  1.00  0.00     0.076 A 
HETATM   29  S1  UNL     1       2.143   8.578  15.633  1.00  0.00    -0.079 SA
ENDBRANCH  15  23
BRANCH   1  30
HETATM   30  N1  UNL     1       3.256  19.956  14.739  1.00  0.00    -0.142 NA
HETATM   31  C1  UNL     1       3.887  21.082  15.390  1.00  0.00     0.159 C 
ENDBRANCH   1  30
TORSDOF 2
ENDMDL
MODEL 4
REMARK VINA RESULT: -7.539548627      3.500      8.427
REMARK  2 active torsions:
REMARK  status: ('A' for Active; 'I' for Inactive)
REMARK    1  A    between atoms: N1_2  and  N2_3 
REMARK       I    between atoms: N2_3  and  C2_5 
REMARK       I    between atoms: C2_5  and  N3_7 
REMARK    2  A    between atoms: C5_17  and  C6_18 
ROOT
HETATM    1  N2  UNL     1       4.748  18.502  14.402  1.00  0.00    -0.255 N 
ATOM      2  H2  UNL     1       4.310  18.835  13.543  1.00  0.00     0.187 HD
HETATM    3  C2  UNL     1       4.421  17.273  14.942  1.00  0.00     0.359 C 
HETATM    4  O1  UNL     1       5.037  16.963  16.027  1.00  0.00    -0.244 OA
HETATM    5  N3  UNL     1       3.502  16.316  14.456  1.00  0.00    -0.056 N 
HETATM    6  C3  UNL     1       2.755  16.414  13.351  1.00  0.00     0.691 A 
HETATM    7  N4  UNL     1       2.841  17.463  12.619  1.00  0.00    -0.234 N 
ATOM      8  H41 UNL     1       2.272  17.538  11.776  1.00  0.00     0.174 HD
ATOM      9  H42 UNL     1       3.486  18.195  12.916  1.00  0.00     0.174 HD
HETATM   10  N5  UNL     1       1.887  15.428  12.951  1.00  0.00    -0.174 N 
ATOM     11  H5  UNL     1       1.347  15.564  12.096  1.00  0.00     0.186 HD
HETATM   12  C4  UNL     1       1.726  14.309  13.634  1.00  0.00     0.156 A 
HETATM   13  N6  UNL     1       0.898  13.306  13.300  1.00  0.00    -0.323 N 
ATOM     14  H6  UNL     1       0.331  13.384  12.456  1.00  0.00     0.169 HD
HETATM   15  C5  UNL     1       0.803  12.200  14.058  1.00  0.00     0.156 A 
HETATM   16  N8  UNL     1       1.537  12.072  15.172  1.00  0.00    -0.282 N 
ATOM     17  H8  UNL     1       1.455  11.226  15.737  1.00  0.00     0.188 HD
HETATM   18  N9  UNL     1       2.364  13.030  15.543  1.00  0.00    -0.291 N 
ATOM     19  H9  UNL     1       2.920  12.931  16.393  1.00  0.00     0.187 HD
HETATM   20  C10 UNL     1       2.465  14.151  14.780  1.00  0.00     0.162 A 
HETATM   21  C11 UNL     1       3.323  15.151  15.153  1.00  0.00     0.302 A 
HETATM   22  O2  UNL     1       4.004  14.998  16.213  1.00  0.00    -0.264 OA
ENDROOT
BRANCH  15  23
HETATM   23  C6  UNL     1      -0.104  11.097  13.676  1.00  0.00     0.120 A 
HETATM   24  N7  UNL     1       0.175   9.807  13.604  1.00  0.00    -0.351 N 
HETATM   25  C7  UNL     1      -0.741   8.971  13.243  1.00  0.00     0.012 A 
ATOM     26  H7  UNL     1       1.111   9.473  13.832  1.00  0.00     0.166 HD
HETATM   27  C8  UNL     1      -0.477   7.479  13.144  1.00  0.00     0.068 C 
HETATM   28  C9  UNL     1      -1.984   9.470  12.947  1.00  0.00     0.076 A 
HETATM   29  S1  UNL     1      -1.746  11.144  13.212  1.00  0.00    -0.079 SA
ENDBRANCH  15  23
BRANCH   1  30
HETATM   30  N1  UNL     1       5.722  19.292  15.091  1.00  0.00    -0.142 NA
HETATM   31  C1  UNL     1       5.807  20.628  14.545  1.00  0.00     0.159 C 
ENDBRANCH   1  30
TORSDOF 2
ENDMDL
MODEL 5
REMARK VINA RESULT: -7.492874945      1.430      2.129
REMARK  2 active torsions:
REMARK  status: ('A' for Active; 'I' for Inactive)
REMARK    1  A    between atoms: N1_2  and  N2_3 
REMARK       I    between atoms: N2_3  and  C2_5 
REMARK       I    between atoms: C2_5  and  N3_7 
REMARK    2  A    between atoms: C5_17  and  C6_18 
ROOT
HETATM    1  N2  UNL     1       2.092  10.253  15.032  1.00  0.00    -0.255 N 
ATOM      2  H2  UNL     1       1.414  10.440  14.294  1.00  0.00     0.187 HD
HETATM    3  C2  UNL     1       2.903  11.254  15.531  1.00  0.00     0.359 C 
HETATM    4  O1  UNL     1       3.720  10.896  16.457  1.00  0.00    -0.244 OA
HETATM    5  N3  UNL     1       2.948  12.616  15.156  1.00  0.00    -0.056 N 
HETATM    6  C3  UNL     1       2.195  13.215  14.228  1.00  0.00     0.691 A 
HETATM    7  N4  UNL     1       1.327  12.531  13.580  1.00  0.00    -0.234 N 
ATOM      8  H41 UNL     1       0.752  12.988  12.871  1.00  0.00     0.174 HD
ATOM      9  H42 UNL     1       1.245  11.539  13.800  1.00  0.00     0.174 HD
HETATM   10  N5  UNL     1       2.305  14.552  13.931  1.00  0.00    -0.174 N 
ATOM     11  H5  UNL     1       1.699  14.948  13.212  1.00  0.00     0.186 HD
HETATM   12  C4  UNL     1       3.169  15.342  14.543  1.00  0.00     0.156 A 
HETATM   13  N6  UNL     1       3.327  16.654  14.303  1.00  0.00    -0.323 N 
ATOM     14  H6  UNL     1       2.750  17.107  13.595  1.00  0.00     0.169 HD
HETATM   15  C5  UNL     1       4.233  17.381  14.980  1.00  0.00     0.156 A 
HETATM   16  N8  UNL     1       5.003  16.810  15.916  1.00  0.00    -0.282 N 
ATOM     17  H8  UNL     1       5.685  17.374  16.423  1.00  0.00     0.188 HD
HETATM   18  N9  UNL     1       4.886  15.524  16.187  1.00  0.00    -0.291 N 
ATOM     19  H9  UNL     1       5.475  15.091  16.898  1.00  0.00     0.187 HD
HETATM   20  C10 UNL     1       3.972  14.784  15.506  1.00  0.00     0.162 A 
HETATM   21  C11 UNL     1       3.839  13.448  15.781  1.00  0.00     0.302 A 
HETATM   22  O2  UNL     1       4.583  12.939  16.673  1.00  0.00    -0.264 OA
ENDROOT
BRANCH  15  23
HETATM   23  C6  UNL     1       4.391  18.826  14.716  1.00  0.00     0.120 A 
HETATM   24  N7  UNL     1       4.405  19.813  15.595  1.00  0.00    -0.351 N 
HETATM   25  C7  UNL     1       4.550  21.032  15.191  1.00  0.00     0.012 A 
ATOM     26  H7  UNL     1       4.302  19.613  16.590  1.00  0.00     0.166 HD
HETATM   27  C8  UNL     1       4.574  22.204  16.156  1.00  0.00     0.068 C 
HETATM   28  C9  UNL     1       4.683  21.248  13.843  1.00  0.00     0.076 A 
HETATM   29  S1  UNL     1       4.591  19.650  13.235  1.00  0.00    -0.079 SA
ENDBRANCH  15  23
BRANCH   1  30
HETATM   30  N1  UNL     1       2.239   8.942  15.587  1.00  0.00    -0.142 NA
HETATM   31  C1  UNL     1       1.676   7.930  14.721  1.00  0.00     0.159 C 
ENDBRANCH   1  30
TORSDOF 2
ENDMDL
