MODEL 1
REMARK VINA RESULT: -6.856173582      0.000      0.000
REMARK  11 active torsions:
REMARK  status: ('A' for Active; 'I' for Inactive)
REMARK    1  A    between atoms: C2_2  and  O1_3 
REMARK    2  A    between atoms: O1_3  and  N1_4 
REMARK    3  A    between atoms: C4_8  and  C5_9 
REMARK    4  A    between atoms: C4_8  and  C6_12 
REMARK    5  A    between atoms: C5_9  and  O3_10 
REMARK    6  A    between atoms: C6_12  and  O4_13 
REMARK    7  A    between atoms: N2_15  and  O5_16 
REMARK    8  A    between atoms: C8_18  and  C9_19 
REMARK    9  A    between atoms: C9_19  and  C10_20 
REMARK   10  A    between atoms: C11_21  and  N3_22 
REMARK   11  A    between atoms: C12_27  and  N5_28 
ROOT
HETATM    1  N1  UNL     1      29.481   3.024 -28.026  1.00  0.00    -0.243 N 
ATOM      2  H1  UNL     1      28.743   2.973 -28.728  1.00  0.00     0.196 HD
HETATM    3  C3  UNL     1      29.123   2.630 -26.905  1.00  0.00     0.194 C 
HETATM    4  O2  UNL     1      27.866   2.127 -26.618  1.00  0.00    -0.294 OA
HETATM    5  C4  UNL     1      27.628   2.212 -25.248  1.00  0.00     0.210 C 
HETATM    6  N2  UNL     1      28.937   1.970 -24.706  1.00  0.00    -0.214 N 
HETATM    7  C8  UNL     1      29.867   2.571 -25.613  1.00  0.00     0.114 C 
ENDROOT
BRANCH   7   8
HETATM    8  C9  UNL     1      31.067   3.059 -25.397  1.00  0.00     0.057 C 
BRANCH   8   9
HETATM    9  C10 UNL     1      31.378   4.096 -24.480  1.00  0.00     0.086 A 
HETATM   10  C11 UNL     1      31.356   5.419 -24.860  1.00  0.00     0.204 A 
HETATM   11  N4  UNL     1      31.625   6.398 -23.974  1.00  0.00    -0.170 N 
HETATM   12  C12 UNL     1      31.920   6.110 -22.708  1.00  0.00     0.680 A 
ATOM     13  H4  UNL     1      31.604   7.371 -24.277  1.00  0.00     0.186 HD
HETATM   14  N6  UNL     1      31.955   4.835 -22.282  1.00  0.00    -0.155 N 
HETATM   15  C13 UNL     1      31.692   3.856 -23.130  1.00  0.00     0.273 A 
ATOM     16  H6  UNL     1      32.183   4.625 -21.310  1.00  0.00     0.187 HD
HETATM   17  O8  UNL     1      31.705   2.668 -22.740  1.00  0.00    -0.267 OA
BRANCH  10  18
HETATM   18  N3  UNL     1      31.121   5.763 -26.201  1.00  0.00    -0.096 N 
HETATM   19  O6  UNL     1      32.066   5.890 -26.999  1.00  0.00    -0.530 OA
HETATM   20  O7  UNL     1      29.829   5.987 -26.677  1.00  0.00    -0.530 OA
ENDBRANCH  10  18
BRANCH  12  21
HETATM   21  N5  UNL     1      32.186   7.075 -21.877  1.00  0.00    -0.234 N 
ATOM     22  H52 UNL     1      33.153   7.368 -21.737  1.00  0.00     0.174 HD
ATOM     23  H51 UNL     1      31.424   7.534 -21.379  1.00  0.00     0.174 HD
ENDBRANCH  12  21
ENDBRANCH   8   9
ENDBRANCH   7   8
BRANCH   6  24
HETATM   24  O5  UNL     1      29.330   1.247 -23.609  1.00  0.00    -0.280 OA
HETATM   25  C7  UNL     1      29.891   0.043 -24.080  1.00  0.00     0.238 C 
ENDBRANCH   6  24
BRANCH   1  26
HETATM   26  O1  UNL     1      30.615   3.495 -28.493  1.00  0.00    -0.279 OA
BRANCH  26  27
HETATM   27  C2  UNL     1      31.410   2.557 -29.301  1.00  0.00     0.197 C 
HETATM   28  C1  UNL     1      32.812   3.173 -29.213  1.00  0.00     0.036 C 
ENDBRANCH  26  27
ENDBRANCH   1  26
BRANCH   5  29
HETATM   29  C5  UNL     1      27.073   3.578 -24.924  1.00  0.00     0.230 C 
BRANCH  29  30
HETATM   30  O3  UNL     1      26.146   3.987 -25.910  1.00  0.00    -0.396 OA
ATOM     31  H3  UNL     1      25.333   3.502 -25.829  1.00  0.00     0.209 HD
ENDBRANCH  29  30
ENDBRANCH   5  29
BRANCH   5  32
HETATM   32  C6  UNL     1      26.640   1.117 -24.839  1.00  0.00     0.230 C 
BRANCH  32  33
HETATM   33  O4  UNL     1      25.357   1.596 -24.759  1.00  0.00    -0.396 OA
ATOM     34  H4  UNL     1      24.745   0.920 -24.490  1.00  0.00     0.209 HD
ENDBRANCH  32  33
ENDBRANCH   5  32
TORSDOF 11
ENDMDL
MODEL 2
REMARK VINA RESULT: -6.713589204      2.334      4.805
REMARK  11 active torsions:
REMARK  status: ('A' for Active; 'I' for Inactive)
REMARK    1  A    between atoms: C2_2  and  O1_3 
REMARK    2  A    between atoms: O1_3  and  N1_4 
REMARK    3  A    between atoms: C4_8  and  C5_9 
REMARK    4  A    between atoms: C4_8  and  C6_12 
REMARK    5  A    between atoms: C5_9  and  O3_10 
REMARK    6  A    between atoms: C6_12  and  O4_13 
REMARK    7  A    between atoms: N2_15  and  O5_16 
REMARK    8  A    between atoms: C8_18  and  C9_19 
REMARK    9  A    between atoms: C9_19  and  C10_20 
REMARK   10  A    between atoms: C11_21  and  N3_22 
REMARK   11  A    between atoms: C12_27  and  N5_28 
ROOT
HETATM    1  N1  UNL     1      32.245   1.353 -27.464  1.00  0.00    -0.243 N 
ATOM      2  H1  UNL     1      33.239   1.136 -27.542  1.00  0.00     0.196 HD
HETATM    3  C3  UNL     1      31.912   1.737 -26.332  1.00  0.00     0.194 C 
HETATM    4  O2  UNL     1      32.787   1.902 -25.274  1.00  0.00    -0.294 OA
HETATM    5  C4  UNL     1      32.080   1.883 -24.073  1.00  0.00     0.210 C 
HETATM    6  N2  UNL     1      30.848   2.521 -24.446  1.00  0.00    -0.214 N 
HETATM    7  C8  UNL     1      30.574   2.117 -25.790  1.00  0.00     0.114 C 
ENDROOT
BRANCH   7   8
HETATM    8  C9  UNL     1      29.429   1.997 -26.423  1.00  0.00     0.057 C 
BRANCH   8   9
HETATM    9  C10 UNL     1      28.173   2.446 -25.939  1.00  0.00     0.086 A 
HETATM   10  C11 UNL     1      27.577   3.582 -26.439  1.00  0.00     0.204 A 
HETATM   11  N4  UNL     1      26.371   3.984 -25.992  1.00  0.00    -0.170 N 
HETATM   12  C12 UNL     1      25.725   3.293 -25.057  1.00  0.00     0.680 A 
ATOM     13  H4  UNL     1      25.949   4.829 -26.376  1.00  0.00     0.186 HD
HETATM   14  N6  UNL     1      26.259   2.175 -24.534  1.00  0.00    -0.155 N 
HETATM   15  C13 UNL     1      27.440   1.757 -24.956  1.00  0.00     0.273 A 
ATOM     16  H6  UNL     1      25.756   1.653 -23.817  1.00  0.00     0.187 HD
HETATM   17  O8  UNL     1      27.938   0.710 -24.489  1.00  0.00    -0.267 OA
BRANCH  10  18
HETATM   18  N3  UNL     1      28.256   4.380 -27.374  1.00  0.00    -0.096 N 
HETATM   19  O6  UNL     1      28.692   5.500 -27.056  1.00  0.00    -0.530 OA
HETATM   20  O7  UNL     1      28.449   3.952 -28.688  1.00  0.00    -0.530 OA
ENDBRANCH  10  18
BRANCH  12  21
HETATM   21  N5  UNL     1      24.566   3.710 -24.637  1.00  0.00    -0.234 N 
ATOM     22  H52 UNL     1      23.773   3.728 -25.278  1.00  0.00     0.174 HD
ATOM     23  H51 UNL     1      24.461   4.007 -23.667  1.00  0.00     0.174 HD
ENDBRANCH  12  21
ENDBRANCH   8   9
ENDBRANCH   7   8
BRANCH   6  24
HETATM   24  O5  UNL     1      30.068   3.423 -23.767  1.00  0.00    -0.280 OA
HETATM   25  C7  UNL     1      30.429   4.710 -24.214  1.00  0.00     0.238 C 
ENDBRANCH   6  24
BRANCH   1  26
HETATM   26  O1  UNL     1      31.581   1.169 -28.583  1.00  0.00    -0.279 OA
BRANCH  26  27
HETATM   27  C2  UNL     1      31.583   2.302 -29.520  1.00  0.00     0.197 C 
HETATM   28  C1  UNL     1      30.626   1.812 -30.612  1.00  0.00     0.036 C 
ENDBRANCH  26  27
ENDBRANCH   1  26
BRANCH   5  29
HETATM   29  C5  UNL     1      31.916   0.453 -23.616  1.00  0.00     0.230 C 
BRANCH  29  30
HETATM   30  O3  UNL     1      30.666   0.272 -22.981  1.00  0.00    -0.396 OA
ATOM     31  H3  UNL     1      30.028  -0.081 -23.590  1.00  0.00     0.209 HD
ENDBRANCH  29  30
ENDBRANCH   5  29
BRANCH   5  32
HETATM   32  C6  UNL     1      32.842   2.700 -23.026  1.00  0.00     0.230 C 
BRANCH  32  33
HETATM   33  O4  UNL     1      32.154   2.772 -21.841  1.00  0.00    -0.396 OA
ATOM     34  H4  UNL     1      32.645   3.244 -21.178  1.00  0.00     0.209 HD
ENDBRANCH  32  33
ENDBRANCH   5  32
TORSDOF 11
ENDMDL
MODEL 3
REMARK VINA RESULT: -6.708441435      2.223      3.568
REMARK  11 active torsions:
REMARK  status: ('A' for Active; 'I' for Inactive)
REMARK    1  A    between atoms: C2_2  and  O1_3 
REMARK    2  A    between atoms: O1_3  and  N1_4 
REMARK    3  A    between atoms: C4_8  and  C5_9 
REMARK    4  A    between atoms: C4_8  and  C6_12 
REMARK    5  A    between atoms: C5_9  and  O3_10 
REMARK    6  A    between atoms: C6_12  and  O4_13 
REMARK    7  A    between atoms: N2_15  and  O5_16 
REMARK    8  A    between atoms: C8_18  and  C9_19 
REMARK    9  A    between atoms: C9_19  and  C10_20 
REMARK   10  A    between atoms: C11_21  and  N3_22 
REMARK   11  A    between atoms: C12_27  and  N5_28 
ROOT
HETATM    1  N1  UNL     1      27.778   2.443 -28.680  1.00  0.00    -0.243 N 
ATOM      2  H1  UNL     1      27.018   1.785 -28.854  1.00  0.00     0.196 HD
HETATM    3  C3  UNL     1      28.124   2.493 -27.489  1.00  0.00     0.194 C 
HETATM    4  O2  UNL     1      27.579   1.715 -26.484  1.00  0.00    -0.294 OA
HETATM    5  C4  UNL     1      27.825   2.307 -25.247  1.00  0.00     0.210 C 
HETATM    6  N2  UNL     1      29.121   2.891 -25.452  1.00  0.00    -0.214 N 
HETATM    7  C8  UNL     1      29.155   3.333 -26.812  1.00  0.00     0.114 C 
ENDROOT
BRANCH   7   8
HETATM    8  C9  UNL     1      29.840   4.304 -27.371  1.00  0.00     0.057 C 
BRANCH   8   9
HETATM    9  C10 UNL     1      31.232   4.274 -27.648  1.00  0.00     0.086 A 
HETATM   10  C11 UNL     1      32.111   5.106 -26.991  1.00  0.00     0.204 A 
HETATM   11  N4  UNL     1      33.434   5.048 -27.242  1.00  0.00    -0.170 N 
HETATM   12  C12 UNL     1      33.924   4.186 -28.128  1.00  0.00     0.680 A 
ATOM     13  H4  UNL     1      34.067   5.675 -26.745  1.00  0.00     0.186 HD
HETATM   14  N6  UNL     1      33.111   3.349 -28.797  1.00  0.00    -0.155 N 
HETATM   15  C13 UNL     1      31.810   3.383 -28.570  1.00  0.00     0.273 A 
ATOM     16  H6  UNL     1      33.497   2.693 -29.476  1.00  0.00     0.187 HD
HETATM   17  O8  UNL     1      31.047   2.597 -29.173  1.00  0.00    -0.267 OA
BRANCH  10  18
HETATM   18  N3  UNL     1      31.629   6.079 -26.102  1.00  0.00    -0.096 N 
HETATM   19  O6  UNL     1      31.323   7.214 -26.507  1.00  0.00    -0.530 OA
HETATM   20  O7  UNL     1      31.492   5.813 -24.739  1.00  0.00    -0.530 OA
ENDBRANCH  10  18
BRANCH  12  21
HETATM   21  N5  UNL     1      35.204   4.160 -28.357  1.00  0.00    -0.234 N 
ATOM     22  H52 UNL     1      35.825   3.681 -27.704  1.00  0.00     0.174 HD
ATOM     23  H51 UNL     1      35.575   4.612 -29.193  1.00  0.00     0.174 HD
ENDBRANCH  12  21
ENDBRANCH   8   9
ENDBRANCH   7   8
BRANCH   6  24
HETATM   24  O5  UNL     1      30.206   2.974 -24.616  1.00  0.00    -0.280 OA
HETATM   25  C7  UNL     1      31.082   1.925 -24.962  1.00  0.00     0.238 C 
ENDBRANCH   6  24
BRANCH   1  26
HETATM   26  O1  UNL     1      28.189   3.064 -29.762  1.00  0.00    -0.279 OA
BRANCH  26  27
HETATM   27  C2  UNL     1      27.943   2.364 -31.032  1.00  0.00     0.197 C 
HETATM   28  C1  UNL     1      28.294   0.916 -30.670  1.00  0.00     0.036 C 
ENDBRANCH  26  27
ENDBRANCH   1  26
BRANCH   5  29
HETATM   29  C5  UNL     1      26.738   3.314 -24.953  1.00  0.00     0.230 C 
BRANCH  29  30
HETATM   30  O3  UNL     1      25.525   2.661 -24.634  1.00  0.00    -0.396 OA
ATOM     31  H3  UNL     1      24.799   3.273 -24.655  1.00  0.00     0.209 HD
ENDBRANCH  29  30
ENDBRANCH   5  29
BRANCH   5  32
HETATM   32  C6  UNL     1      27.861   1.223 -24.166  1.00  0.00     0.230 C 
BRANCH  32  33
HETATM   33  O4  UNL     1      27.203   0.087 -24.566  1.00  0.00    -0.396 OA
ATOM     34  H4  UNL     1      27.621  -0.314 -25.321  1.00  0.00     0.209 HD
ENDBRANCH  32  33
ENDBRANCH   5  32
TORSDOF 11
ENDMDL
MODEL 4
REMARK VINA RESULT: -6.617823125      2.202      5.253
REMARK  11 active torsions:
REMARK  status: ('A' for Active; 'I' for Inactive)
REMARK    1  A    between atoms: C2_2  and  O1_3 
REMARK    2  A    between atoms: O1_3  and  N1_4 
REMARK    3  A    between atoms: C4_8  and  C5_9 
REMARK    4  A    between atoms: C4_8  and  C6_12 
REMARK    5  A    between atoms: C5_9  and  O3_10 
REMARK    6  A    between atoms: C6_12  and  O4_13 
REMARK    7  A    between atoms: N2_15  and  O5_16 
REMARK    8  A    between atoms: C8_18  and  C9_19 
REMARK    9  A    between atoms: C9_19  and  C10_20 
REMARK   10  A    between atoms: C11_21  and  N3_22 
REMARK   11  A    between atoms: C12_27  and  N5_28 
ROOT
HETATM    1  N1  UNL     1      31.144   3.760 -23.708  1.00  0.00    -0.243 N 
ATOM      2  H1  UNL     1      31.081   3.593 -22.704  1.00  0.00     0.196 HD
HETATM    3  C3  UNL     1      30.215   3.249 -24.353  1.00  0.00     0.194 C 
HETATM    4  O2  UNL     1      29.163   2.551 -23.787  1.00  0.00    -0.294 OA
HETATM    5  C4  UNL     1      28.571   1.735 -24.749  1.00  0.00     0.210 C 
HETATM    6  N2  UNL     1      28.703   2.534 -25.936  1.00  0.00    -0.214 N 
HETATM    7  C8  UNL     1      29.950   3.225 -25.821  1.00  0.00     0.114 C 
ENDROOT
BRANCH   7   8
HETATM    8  C9  UNL     1      30.761   3.671 -26.753  1.00  0.00     0.057 C 
BRANCH   8   9
HETATM    9  C10 UNL     1      31.322   2.889 -27.797  1.00  0.00     0.086 A 
HETATM   10  C11 UNL     1      32.460   2.140 -27.599  1.00  0.00     0.204 A 
HETATM   11  N4  UNL     1      32.968   1.380 -28.588  1.00  0.00    -0.170 N 
HETATM   12  C12 UNL     1      32.381   1.332 -29.782  1.00  0.00     0.680 A 
ATOM     13  H4  UNL     1      33.812   0.834 -28.420  1.00  0.00     0.186 HD
HETATM   14  N6  UNL     1      31.266   2.042 -30.030  1.00  0.00    -0.155 N 
HETATM   15  C13 UNL     1      30.746   2.795 -29.077  1.00  0.00     0.273 A 
ATOM     16  H6  UNL     1      30.825   1.999 -30.948  1.00  0.00     0.187 HD
HETATM   17  O8  UNL     1      29.700   3.445 -29.291  1.00  0.00    -0.267 OA
BRANCH  10  18
HETATM   18  N3  UNL     1      33.150   2.218 -26.379  1.00  0.00    -0.096 N 
HETATM   19  O6  UNL     1      34.066   3.044 -26.218  1.00  0.00    -0.530 OA
HETATM   20  O7  UNL     1      32.845   1.366 -25.316  1.00  0.00    -0.530 OA
ENDBRANCH  10  18
BRANCH  12  21
HETATM   21  N5  UNL     1      32.899   0.597 -30.722  1.00  0.00    -0.234 N 
ATOM     22  H52 UNL     1      33.587  -0.119 -30.482  1.00  0.00     0.174 HD
ATOM     23  H51 UNL     1      32.607   0.737 -31.688  1.00  0.00     0.174 HD
ENDBRANCH  12  21
ENDBRANCH   8   9
ENDBRANCH   7   8
BRANCH   6  24
HETATM   24  O5  UNL     1      27.832   2.739 -26.976  1.00  0.00    -0.280 OA
HETATM   25  C7  UNL     1      27.334   4.052 -26.853  1.00  0.00     0.238 C 
ENDBRANCH   6  24
BRANCH   1  26
HETATM   26  O1  UNL     1      32.193   4.473 -24.054  1.00  0.00    -0.279 OA
BRANCH  26  27
HETATM   27  C2  UNL     1      31.997   5.930 -24.068  1.00  0.00     0.197 C 
HETATM   28  C1  UNL     1      31.585   6.209 -22.618  1.00  0.00     0.036 C 
ENDBRANCH  26  27
ENDBRANCH   1  26
BRANCH   5  29
HETATM   29  C5  UNL     1      29.311   0.421 -24.810  1.00  0.00     0.230 C 
BRANCH  29  30
HETATM   30  O3  UNL     1      28.551  -0.610 -24.210  1.00  0.00    -0.396 OA
ATOM     31  H3  UNL     1      28.918  -0.851 -23.368  1.00  0.00     0.209 HD
ENDBRANCH  29  30
ENDBRANCH   5  29
BRANCH   5  32
HETATM   32  C6  UNL     1      27.101   1.510 -24.384  1.00  0.00     0.230 C 
BRANCH  32  33
HETATM   33  O4  UNL     1      26.433   0.827 -25.369  1.00  0.00    -0.396 OA
ATOM     34  H4  UNL     1      26.538  -0.114 -25.277  1.00  0.00     0.209 HD
ENDBRANCH  32  33
ENDBRANCH   5  32
TORSDOF 11
ENDMDL
MODEL 5
REMARK VINA RESULT: -6.617516461      1.946      5.262
REMARK  11 active torsions:
REMARK  status: ('A' for Active; 'I' for Inactive)
REMARK    1  A    between atoms: C2_2  and  O1_3 
REMARK    2  A    between atoms: O1_3  and  N1_4 
REMARK    3  A    between atoms: C4_8  and  C5_9 
REMARK    4  A    between atoms: C4_8  and  C6_12 
REMARK    5  A    between atoms: C5_9  and  O3_10 
REMARK    6  A    between atoms: C6_12  and  O4_13 
REMARK    7  A    between atoms: N2_15  and  O5_16 
REMARK    8  A    between atoms: C8_18  and  C9_19 
REMARK    9  A    between atoms: C9_19  and  C10_20 
REMARK   10  A    between atoms: C11_21  and  N3_22 
REMARK   11  A    between atoms: C12_27  and  N5_28 
ROOT
HETATM    1  N1  UNL     1      31.158   4.461 -24.094  1.00  0.00    -0.243 N 
ATOM      2  H1  UNL     1      31.549   4.335 -23.160  1.00  0.00     0.196 HD
HETATM    3  C3  UNL     1      30.332   3.589 -24.403  1.00  0.00     0.194 C 
HETATM    4  O2  UNL     1      29.931   2.561 -23.569  1.00  0.00    -0.294 OA
HETATM    5  C4  UNL     1      29.386   1.527 -24.328  1.00  0.00     0.210 C 
HETATM    6  N2  UNL     1      28.738   2.249 -25.388  1.00  0.00    -0.214 N 
HETATM    7  C8  UNL     1      29.563   3.384 -25.666  1.00  0.00     0.114 C 
ENDROOT
BRANCH   7   8
HETATM    8  C9  UNL     1      29.720   4.066 -26.777  1.00  0.00     0.057 C 
BRANCH   8   9
HETATM    9  C10 UNL     1      30.106   3.520 -28.029  1.00  0.00     0.086 A 
HETATM   10  C11 UNL     1      31.430   3.306 -28.341  1.00  0.00     0.204 A 
HETATM   11  N4  UNL     1      31.782   2.760 -29.521  1.00  0.00    -0.170 N 
HETATM   12  C12 UNL     1      30.860   2.412 -30.415  1.00  0.00     0.680 A 
ATOM     13  H4  UNL     1      32.769   2.612 -29.732  1.00  0.00     0.186 HD
HETATM   14  N6  UNL     1      29.552   2.597 -30.162  1.00  0.00    -0.155 N 
HETATM   15  C13 UNL     1      29.178   3.129 -29.012  1.00  0.00     0.273 A 
ATOM     16  H6  UNL     1      28.853   2.328 -30.855  1.00  0.00     0.187 HD
HETATM   17  O8  UNL     1      27.964   3.289 -28.760  1.00  0.00    -0.267 OA
BRANCH  10  18
HETATM   18  N3  UNL     1      32.437   3.724 -27.457  1.00  0.00    -0.096 N 
HETATM   19  O6  UNL     1      32.952   4.850 -27.568  1.00  0.00    -0.530 OA
HETATM   20  O7  UNL     1      32.903   2.890 -26.440  1.00  0.00    -0.530 OA
ENDBRANCH  10  18
BRANCH  12  21
HETATM   21  N5  UNL     1      31.230   1.897 -31.551  1.00  0.00    -0.234 N 
ATOM     22  H52 UNL     1      31.611   0.951 -31.575  1.00  0.00     0.174 HD
ATOM     23  H51 UNL     1      31.128   2.441 -32.407  1.00  0.00     0.174 HD
ENDBRANCH  12  21
ENDBRANCH   8   9
ENDBRANCH   7   8
BRANCH   6  24
HETATM   24  O5  UNL     1      27.534   2.034 -26.009  1.00  0.00    -0.280 OA
HETATM   25  C7  UNL     1      26.617   2.963 -25.476  1.00  0.00     0.238 C 
ENDBRANCH   6  24
BRANCH   1  26
HETATM   26  O1  UNL     1      31.633   5.513 -24.721  1.00  0.00    -0.279 OA
BRANCH  26  27
HETATM   27  C2  UNL     1      32.414   6.449 -23.898  1.00  0.00     0.197 C 
HETATM   28  C1  UNL     1      31.592   6.497 -22.606  1.00  0.00     0.036 C 
ENDBRANCH  26  27
ENDBRANCH   1  26
BRANCH   5  29
HETATM   29  C5  UNL     1      30.495   0.615 -24.795  1.00  0.00     0.230 C 
BRANCH  29  30
HETATM   30  O3  UNL     1      30.460  -0.613 -24.095  1.00  0.00    -0.396 OA
ATOM     31  H3  UNL     1      31.308  -1.041 -24.125  1.00  0.00     0.209 HD
ENDBRANCH  29  30
ENDBRANCH   5  29
BRANCH   5  32
HETATM   32  C6  UNL     1      28.375   0.755 -23.476  1.00  0.00     0.230 C 
BRANCH  32  33
HETATM   33  O4  UNL     1      27.782  -0.259 -24.187  1.00  0.00    -0.396 OA
ATOM     34  H4  UNL     1      28.364  -1.003 -24.288  1.00  0.00     0.209 HD
ENDBRANCH  32  33
ENDBRANCH   5  32
TORSDOF 11
ENDMDL
