MODEL 1
REMARK VINA RESULT: -5.391179889      0.000      0.000
REMARK  8 active torsions:
REMARK  status: ('A' for Active; 'I' for Inactive)
REMARK    1  A    between atoms: N1_1  and  C1_5 
REMARK    2  A    between atoms: C1_5  and  C2_6 
REMARK    3  A    between atoms: C2_6  and  C3_7 
REMARK    4  A    between atoms: C3_7  and  C4_8 
REMARK    5  A    between atoms: C4_8  and  N2_9 
REMARK    6  A    between atoms: N2_9  and  C5_12 
REMARK    7  A    between atoms: C7_17  and  C8_18 
REMARK    8  A    between atoms: N4_21  and  C11_22 
ROOT
HETATM    1  C5  UNL     1       3.444  28.847  15.316  1.00  0.00     0.213 C 
HETATM    2  C6  UNL     1       4.129  29.565  14.188  1.00  0.00     0.265 C 
HETATM    3  N3  UNL     1       5.484  29.685  14.649  1.00  0.00    -0.067 N 
ATOM      4  H31 UNL     1       5.659  30.509  15.224  1.00  0.00     0.277 HD
ATOM      5  H32 UNL     1       6.156  29.916  13.917  1.00  0.00     0.277 HD
HETATM    6  C7  UNL     1       5.740  28.441  15.310  1.00  0.00     0.210 C 
HETATM    7  C12 UNL     1       4.501  27.998  15.977  1.00  0.00     0.069 C 
ENDROOT
BRANCH   1   8
HETATM    8  N2  UNL     1       2.346  28.071  14.760  1.00  0.00    -0.069 N 
ATOM      9  H22 UNL     1       1.923  28.508  13.941  1.00  0.00     0.277 HD
ATOM     10  H21 UNL     1       1.516  28.071  15.352  1.00  0.00     0.277 HD
BRANCH   8  11
HETATM   11  C4  UNL     1       2.851  26.742  14.495  1.00  0.00     0.233 C 
BRANCH  11  12
HETATM   12  C3  UNL     1       2.164  25.652  15.245  1.00  0.00     0.029 C 
BRANCH  12  13
HETATM   13  C2  UNL     1       3.043  24.482  15.582  1.00  0.00     0.029 C 
BRANCH  13  14
HETATM   14  C1  UNL     1       4.468  24.750  15.215  1.00  0.00     0.229 C 
BRANCH  14  15
HETATM   15  N1  UNL     1       5.326  24.673  16.409  1.00  0.00    -0.079 N 
ATOM     16  H13 UNL     1       5.283  23.754  16.850  1.00  0.00     0.274 HD
ATOM     17  H12 UNL     1       6.316  24.679  16.167  1.00  0.00     0.274 HD
ATOM     18  H11 UNL     1       5.089  25.419  17.063  1.00  0.00     0.274 HD
ENDBRANCH  14  15
ENDBRANCH  13  14
ENDBRANCH  12  13
ENDBRANCH  11  12
ENDBRANCH   8  11
ENDBRANCH   1   8
BRANCH   6  19
HETATM   19  C8  UNL     1       6.974  28.419  16.133  1.00  0.00     0.118 A 
HETATM   20  C9  UNL     1       7.790  29.663  16.230  1.00  0.00     0.047 A 
HETATM   21  C10 UNL     1       8.883  28.971  15.467  1.00  0.00     0.127 A 
HETATM   22  N4  UNL     1       8.071  27.759  15.503  1.00  0.00    -0.352 N 
BRANCH  22  23
HETATM   23  C11 UNL     1       8.384  26.448  15.057  1.00  0.00     0.351 C 
HETATM   24  O1  UNL     1       8.027  25.489  15.826  1.00  0.00    -0.284 OA
ENDBRANCH  22  23
ENDBRANCH   6  19
TORSDOF 8
ENDMDL
MODEL 2
REMARK VINA RESULT: -5.123646416      2.067      5.305
REMARK  8 active torsions:
REMARK  status: ('A' for Active; 'I' for Inactive)
REMARK    1  A    between atoms: N1_1  and  C1_5 
REMARK    2  A    between atoms: C1_5  and  C2_6 
REMARK    3  A    between atoms: C2_6  and  C3_7 
REMARK    4  A    between atoms: C3_7  and  C4_8 
REMARK    5  A    between atoms: C4_8  and  N2_9 
REMARK    6  A    between atoms: N2_9  and  C5_12 
REMARK    7  A    between atoms: C7_17  and  C8_18 
REMARK    8  A    between atoms: N4_21  and  C11_22 
ROOT
HETATM    1  C5  UNL     1       7.330  27.713  15.914  1.00  0.00     0.213 C 
HETATM    2  C6  UNL     1       7.812  26.498  15.171  1.00  0.00     0.265 C 
HETATM    3  N3  UNL     1       6.914  25.466  15.610  1.00  0.00    -0.067 N 
ATOM      4  H31 UNL     1       7.198  25.002  16.472  1.00  0.00     0.277 HD
ATOM      5  H32 UNL     1       6.920  24.630  15.026  1.00  0.00     0.277 HD
HETATM    6  C7  UNL     1       5.642  26.120  15.687  1.00  0.00     0.210 C 
HETATM    7  C12 UNL     1       5.852  27.509  16.137  1.00  0.00     0.069 C 
ENDROOT
BRANCH   1   8
HETATM    8  N2  UNL     1       7.635  28.887  15.109  1.00  0.00    -0.069 N 
ATOM      9  H22 UNL     1       7.806  28.665  14.129  1.00  0.00     0.277 HD
ATOM     10  H21 UNL     1       8.551  29.285  15.316  1.00  0.00     0.277 HD
BRANCH   8  11
HETATM   11  C4  UNL     1       6.554  29.828  15.297  1.00  0.00     0.233 C 
BRANCH  11  12
HETATM   12  C3  UNL     1       5.530  29.827  14.213  1.00  0.00     0.029 C 
BRANCH  12  13
HETATM   13  C2  UNL     1       4.158  29.405  14.655  1.00  0.00     0.029 C 
BRANCH  13  14
HETATM   14  C1  UNL     1       3.118  29.815  13.663  1.00  0.00     0.229 C 
BRANCH  14  15
HETATM   15  N1  UNL     1       3.467  31.114  13.065  1.00  0.00    -0.079 N 
ATOM     16  H13 UNL     1       2.859  31.863  13.399  1.00  0.00     0.274 HD
ATOM     17  H12 UNL     1       4.354  31.471  13.420  1.00  0.00     0.274 HD
ATOM     18  H11 UNL     1       3.464  31.047  12.047  1.00  0.00     0.274 HD
ENDBRANCH  14  15
ENDBRANCH  13  14
ENDBRANCH  12  13
ENDBRANCH  11  12
ENDBRANCH   8  11
ENDBRANCH   1   8
BRANCH   6  19
HETATM   19  C8  UNL     1       4.591  25.350  16.398  1.00  0.00     0.118 A 
HETATM   20  C9  UNL     1       4.710  23.865  16.453  1.00  0.00     0.047 A 
HETATM   21  C10 UNL     1       3.491  23.765  15.580  1.00  0.00     0.127 A 
HETATM   22  N4  UNL     1       3.379  25.218  15.658  1.00  0.00    -0.352 N 
BRANCH  22  23
HETATM   23  C11 UNL     1       2.364  26.074  15.154  1.00  0.00     0.351 C 
HETATM   24  O1  UNL     1       2.497  26.458  13.941  1.00  0.00    -0.284 OA
ENDBRANCH  22  23
ENDBRANCH   6  19
TORSDOF 8
ENDMDL
MODEL 3
REMARK VINA RESULT: -4.817524446      1.543      2.978
REMARK  8 active torsions:
REMARK  status: ('A' for Active; 'I' for Inactive)
REMARK    1  A    between atoms: N1_1  and  C1_5 
REMARK    2  A    between atoms: C1_5  and  C2_6 
REMARK    3  A    between atoms: C2_6  and  C3_7 
REMARK    4  A    between atoms: C3_7  and  C4_8 
REMARK    5  A    between atoms: C4_8  and  N2_9 
REMARK    6  A    between atoms: N2_9  and  C5_12 
REMARK    7  A    between atoms: C7_17  and  C8_18 
REMARK    8  A    between atoms: N4_21  and  C11_22 
ROOT
HETATM    1  C5  UNL     1       4.094  26.878  16.625  1.00  0.00     0.213 C 
HETATM    2  C6  UNL     1       4.051  27.833  17.784  1.00  0.00     0.265 C 
HETATM    3  N3  UNL     1       5.436  28.151  18.001  1.00  0.00    -0.067 N 
ATOM      4  H31 UNL     1       5.925  27.497  18.611  1.00  0.00     0.277 HD
ATOM      5  H32 UNL     1       5.590  28.978  18.577  1.00  0.00     0.277 HD
HETATM    6  C7  UNL     1       5.983  28.244  16.681  1.00  0.00     0.210 C 
HETATM    7  C12 UNL     1       5.316  27.246  15.822  1.00  0.00     0.069 C 
ENDROOT
BRANCH   1   8
HETATM    8  N2  UNL     1       2.852  27.013  15.879  1.00  0.00    -0.069 N 
ATOM      9  H22 UNL     1       2.409  27.923  16.004  1.00  0.00     0.277 HD
ATOM     10  H21 UNL     1       2.095  26.445  16.258  1.00  0.00     0.277 HD
BRANCH   8  11
HETATM   11  C4  UNL     1       3.147  26.713  14.496  1.00  0.00     0.233 C 
BRANCH  11  12
HETATM   12  C3  UNL     1       3.075  27.882  13.574  1.00  0.00     0.029 C 
BRANCH  12  13
HETATM   13  C2  UNL     1       2.688  29.172  14.237  1.00  0.00     0.029 C 
BRANCH  13  14
HETATM   14  C1  UNL     1       3.292  30.346  13.535  1.00  0.00     0.229 C 
BRANCH  14  15
HETATM   15  N1  UNL     1       4.688  30.057  13.167  1.00  0.00    -0.079 N 
ATOM     16  H13 UNL     1       4.768  29.199  12.620  1.00  0.00     0.274 HD
ATOM     17  H12 UNL     1       5.042  30.713  12.471  1.00  0.00     0.274 HD
ATOM     18  H11 UNL     1       5.276  30.032  14.000  1.00  0.00     0.274 HD
ENDBRANCH  14  15
ENDBRANCH  13  14
ENDBRANCH  12  13
ENDBRANCH  11  12
ENDBRANCH   8  11
ENDBRANCH   1   8
BRANCH   6  19
HETATM   19  C8  UNL     1       7.466  28.275  16.625  1.00  0.00     0.118 A 
HETATM   20  C9  UNL     1       8.138  29.542  16.220  1.00  0.00     0.047 A 
HETATM   21  C10 UNL     1       8.601  28.861  14.964  1.00  0.00     0.127 A 
HETATM   22  N4  UNL     1       8.008  27.629  15.474  1.00  0.00    -0.352 N 
BRANCH  22  23
HETATM   23  C11 UNL     1       8.048  26.316  14.935  1.00  0.00     0.351 C 
HETATM   24  O1  UNL     1       8.331  25.376  15.756  1.00  0.00    -0.284 OA
ENDBRANCH  22  23
ENDBRANCH   6  19
TORSDOF 8
ENDMDL
MODEL 4
REMARK VINA RESULT: -4.413323579      3.235      5.135
REMARK  8 active torsions:
REMARK  status: ('A' for Active; 'I' for Inactive)
REMARK    1  A    between atoms: N1_1  and  C1_5 
REMARK    2  A    between atoms: C1_5  and  C2_6 
REMARK    3  A    between atoms: C2_6  and  C3_7 
REMARK    4  A    between atoms: C3_7  and  C4_8 
REMARK    5  A    between atoms: C4_8  and  N2_9 
REMARK    6  A    between atoms: N2_9  and  C5_12 
REMARK    7  A    between atoms: C7_17  and  C8_18 
REMARK    8  A    between atoms: N4_21  and  C11_22 
ROOT
HETATM    1  C5  UNL     1       6.139  28.170  16.384  1.00  0.00     0.213 C 
HETATM    2  C6  UNL     1       7.040  29.267  15.893  1.00  0.00     0.265 C 
HETATM    3  N3  UNL     1       6.454  29.636  14.634  1.00  0.00    -0.067 N 
ATOM      4  H31 UNL     1       6.773  29.076  13.843  1.00  0.00     0.277 HD
ATOM      5  H32 UNL     1       6.773  30.533  14.270  1.00  0.00     0.277 HD
HETATM    6  C7  UNL     1       5.043  29.566  14.871  1.00  0.00     0.210 C 
HETATM    7  C12 UNL     1       4.777  28.453  15.802  1.00  0.00     0.069 C 
ENDROOT
BRANCH   1   8
HETATM    8  N2  UNL     1       6.159  28.184  17.839  1.00  0.00    -0.069 N 
ATOM      9  H22 UNL     1       6.446  29.083  18.225  1.00  0.00     0.277 HD
ATOM     10  H21 UNL     1       6.914  27.624  18.234  1.00  0.00     0.277 HD
BRANCH   8  11
HETATM   11  C4  UNL     1       4.850  27.766  18.290  1.00  0.00     0.233 C 
BRANCH  11  12
HETATM   12  C3  UNL     1       4.566  28.045  19.727  1.00  0.00     0.029 C 
BRANCH  12  13
HETATM   13  C2  UNL     1       3.156  28.479  20.008  1.00  0.00     0.029 C 
BRANCH  13  14
HETATM   14  C1  UNL     1       3.111  29.515  21.085  1.00  0.00     0.229 C 
BRANCH  14  15
HETATM   15  N1  UNL     1       1.727  29.705  21.552  1.00  0.00    -0.079 N 
ATOM     16  H13 UNL     1       1.636  29.531  22.553  1.00  0.00     0.274 HD
ATOM     17  H12 UNL     1       1.455  30.687  21.544  1.00  0.00     0.274 HD
ATOM     18  H11 UNL     1       1.087  29.129  21.005  1.00  0.00     0.274 HD
ENDBRANCH  14  15
ENDBRANCH  13  14
ENDBRANCH  12  13
ENDBRANCH  11  12
ENDBRANCH   8  11
ENDBRANCH   1   8
BRANCH   6  19
HETATM   19  C8  UNL     1       4.205  29.615  13.648  1.00  0.00     0.118 A 
HETATM   20  C9  UNL     1       3.179  30.691  13.530  1.00  0.00     0.047 A 
HETATM   21  C10 UNL     1       2.109  29.641  13.619  1.00  0.00     0.127 A 
HETATM   22  N4  UNL     1       3.168  28.636  13.625  1.00  0.00    -0.352 N 
BRANCH  22  23
HETATM   23  C11 UNL     1       3.070  27.219  13.594  1.00  0.00     0.351 C 
HETATM   24  O1  UNL     1       2.278  26.688  14.446  1.00  0.00    -0.284 OA
ENDBRANCH  22  23
ENDBRANCH   6  19
TORSDOF 8
ENDMDL
MODEL 5
REMARK VINA RESULT: -4.343102075      1.961      5.330
REMARK  8 active torsions:
REMARK  status: ('A' for Active; 'I' for Inactive)
REMARK    1  A    between atoms: N1_1  and  C1_5 
REMARK    2  A    between atoms: C1_5  and  C2_6 
REMARK    3  A    between atoms: C2_6  and  C3_7 
REMARK    4  A    between atoms: C3_7  and  C4_8 
REMARK    5  A    between atoms: C4_8  and  N2_9 
REMARK    6  A    between atoms: N2_9  and  C5_12 
REMARK    7  A    between atoms: C7_17  and  C8_18 
REMARK    8  A    between atoms: N4_21  and  C11_22 
ROOT
HETATM    1  C5  UNL     1       5.566  25.685  16.034  1.00  0.00     0.213 C 
HETATM    2  C6  UNL     1       4.729  24.513  15.603  1.00  0.00     0.265 C 
HETATM    3  N3  UNL     1       3.513  25.127  15.147  1.00  0.00    -0.067 N 
ATOM      4  H31 UNL     1       2.827  25.293  15.883  1.00  0.00     0.277 HD
ATOM      5  H32 UNL     1       2.923  24.517  14.581  1.00  0.00     0.277 HD
HETATM    6  C7  UNL     1       3.950  26.312  14.473  1.00  0.00     0.210 C 
HETATM    7  C12 UNL     1       5.128  26.849  15.181  1.00  0.00     0.069 C 
ENDROOT
BRANCH   1   8
HETATM    8  N2  UNL     1       6.966  25.333  15.854  1.00  0.00    -0.069 N 
ATOM      9  H22 UNL     1       7.096  24.450  15.360  1.00  0.00     0.277 HD
ATOM     10  H21 UNL     1       7.425  25.065  16.725  1.00  0.00     0.277 HD
BRANCH   8  11
HETATM   11  C4  UNL     1       7.608  26.449  15.196  1.00  0.00     0.233 C 
BRANCH  11  12
HETATM   12  C3  UNL     1       8.320  27.388  16.110  1.00  0.00     0.029 C 
BRANCH  12  13
HETATM   13  C2  UNL     1       8.420  28.796  15.598  1.00  0.00     0.029 C 
BRANCH  13  14
HETATM   14  C1  UNL     1       7.121  29.521  15.745  1.00  0.00     0.229 C 
BRANCH  14  15
HETATM   15  N1  UNL     1       6.602  29.911  14.423  1.00  0.00    -0.079 N 
ATOM     16  H13 UNL     1       5.673  30.328  14.487  1.00  0.00     0.274 HD
ATOM     17  H12 UNL     1       7.101  30.712  14.040  1.00  0.00     0.274 HD
ATOM     18  H11 UNL     1       6.617  29.113  13.788  1.00  0.00     0.274 HD
ENDBRANCH  14  15
ENDBRANCH  13  14
ENDBRANCH  12  13
ENDBRANCH  11  12
ENDBRANCH   8  11
ENDBRANCH   1   8
BRANCH   6  19
HETATM   19  C8  UNL     1       2.872  27.282  14.161  1.00  0.00     0.118 A 
HETATM   20  C9  UNL     1       3.191  28.445  13.285  1.00  0.00     0.047 A 
HETATM   21  C10 UNL     1       2.983  29.353  14.463  1.00  0.00     0.127 A 
HETATM   22  N4  UNL     1       2.581  28.179  15.231  1.00  0.00    -0.352 N 
BRANCH  22  23
HETATM   23  C11 UNL     1       2.074  28.095  16.556  1.00  0.00     0.351 C 
HETATM   24  O1  UNL     1       2.936  27.890  17.479  1.00  0.00    -0.284 OA
ENDBRANCH  22  23
ENDBRANCH   6  19
TORSDOF 8
ENDMDL
