MODEL 1
REMARK VINA RESULT: -7.191368374      0.000      0.000
REMARK  15 active torsions:
REMARK  status: ('A' for Active; 'I' for Inactive)
REMARK    1  A    between atoms: O1_1  and  C1_3 
REMARK    2  A    between atoms: C1_3  and  C2_4 
REMARK    3  A    between atoms: C3_6  and  O3_7 
REMARK    4  A    between atoms: O3_7  and  C4_8 
REMARK    5  A    between atoms: C5_10  and  O5_11 
REMARK    6  A    between atoms: C5_10  and  O6_13 
REMARK    7  A    between atoms: C6_15  and  O7_16 
REMARK    8  A    between atoms: C6_15  and  C7_18 
REMARK    9  A    between atoms: C7_18  and  O8_19 
REMARK   10  A    between atoms: C8_21  and  O9_22 
REMARK   11  A    between atoms: C9_24  and  O10_25 
REMARK   12  A    between atoms: C10_27  and  O11_28 
REMARK   13  A    between atoms: C12_31  and  O12_32 
REMARK   14  A    between atoms: C12_31  and  O13_34 
REMARK   15  A    between atoms: O13_34  and  C13_35 
ROOT
HETATM    1  O3  UNL     1       0.495 -36.687  -8.382  1.00  0.00    -0.326 OA
ENDROOT
BRANCH   1   2
HETATM    2  C3  UNL     1      -0.694 -36.034  -8.073  1.00  0.00     0.292 C 
HETATM    3  O2  UNL     1      -1.655 -36.850  -7.572  1.00  0.00    -0.346 OA
HETATM    4  C2  UNL     1      -2.772 -36.309  -7.030  1.00  0.00     0.210 C 
HETATM    5  C12 UNL     1      -2.613 -34.962  -6.361  1.00  0.00     0.193 C 
HETATM    6  C11 UNL     1      -1.601 -34.086  -6.998  1.00  0.00     0.108 C 
HETATM    7  C10 UNL     1      -0.300 -34.892  -7.140  1.00  0.00     0.178 C 
BRANCH   4   8
HETATM    8  C1  UNL     1      -3.885 -36.113  -8.070  1.00  0.00     0.201 C 
BRANCH   8   9
HETATM    9  O1  UNL     1      -5.095 -36.463  -7.519  1.00  0.00    -0.398 OA
ATOM     10  H1  UNL     1      -5.562 -35.679  -7.254  1.00  0.00     0.209 HD
ENDBRANCH   8   9
ENDBRANCH   4   8
BRANCH   5  11
HETATM   11  O12 UNL     1      -2.144 -35.251  -5.055  1.00  0.00    -0.363 OA
ATOM     12  H12 UNL     1      -1.427 -34.645  -4.909  1.00  0.00     0.213 HD
ENDBRANCH   5  11
BRANCH   5  13
HETATM   13  O13 UNL     1      -3.863 -34.423  -6.211  1.00  0.00    -0.347 OA
BRANCH  13  14
HETATM   14  C13 UNL     1      -4.202 -34.019  -4.951  1.00  0.00     0.125 C 
HETATM   15  C14 UNL     1      -5.244 -34.851  -4.280  1.00  0.00     0.032 C 
HETATM   16  C15 UNL     1      -6.595 -34.286  -4.650  1.00  0.00     0.002 C 
HETATM   17  C16 UNL     1      -6.356 -33.036  -5.445  1.00  0.00     0.002 C 
HETATM   18  C17 UNL     1      -4.932 -32.674  -5.101  1.00  0.00     0.032 C 
ENDBRANCH  13  14
ENDBRANCH   5  13
BRANCH   7  19
HETATM   19  O11 UNL     1       0.659 -34.132  -7.795  1.00  0.00    -0.390 OA
ATOM     20  H11 UNL     1       0.551 -33.231  -7.512  1.00  0.00     0.210 HD
ENDBRANCH   7  19
ENDBRANCH   1   2
BRANCH   1  21
HETATM   21  C4  UNL     1       0.639 -36.927  -9.748  1.00  0.00     0.300 C 
HETATM   22  O4  UNL     1       0.137 -35.814 -10.401  1.00  0.00    -0.297 OA
HETATM   23  C5  UNL     1       0.364 -35.800 -11.756  1.00  0.00     0.318 C 
HETATM   24  C6  UNL     1       1.776 -36.061 -12.159  1.00  0.00     0.191 C 
HETATM   25  C8  UNL     1       2.418 -37.215 -11.465  1.00  0.00     0.196 C 
HETATM   26  C9  UNL     1       2.144 -37.080  -9.984  1.00  0.00     0.205 C 
BRANCH  23  27
HETATM   27  O5  UNL     1       0.051 -34.487 -12.185  1.00  0.00    -0.341 OA
ATOM     28  H5  UNL     1      -0.789 -34.551 -12.623  1.00  0.00     0.215 HD
ENDBRANCH  23  27
BRANCH  23  29
HETATM   29  O6  UNL     1      -0.468 -36.649 -12.475  1.00  0.00    -0.341 OA
ATOM     30  H6  UNL     1      -0.805 -36.270 -13.278  1.00  0.00     0.215 HD
ENDBRANCH  23  29
BRANCH  24  31
HETATM   31  O7  UNL     1       2.539 -34.918 -11.893  1.00  0.00    -0.378 OA
ATOM     32  H7  UNL     1       3.163 -34.796 -12.599  1.00  0.00     0.211 HD
ENDBRANCH  24  31
BRANCH  24  33
HETATM   33  C7  UNL     1       1.821 -36.308 -13.656  1.00  0.00     0.213 C 
BRANCH  33  34
HETATM   34  O8  UNL     1       1.681 -35.145 -14.392  1.00  0.00    -0.398 OA
ATOM     35  H8  UNL     1       0.983 -35.201 -15.034  1.00  0.00     0.209 HD
ENDBRANCH  33  34
ENDBRANCH  24  33
BRANCH  25  36
HETATM   36  O9  UNL     1       2.029 -38.453 -11.956  1.00  0.00    -0.389 OA
ATOM     37  H9  UNL     1       2.714 -39.110 -11.929  1.00  0.00     0.210 HD
ENDBRANCH  25  36
BRANCH  26  38
HETATM   38  O10 UNL     1       2.741 -35.907  -9.533  1.00  0.00    -0.388 OA
ATOM     39  H10 UNL     1       3.632 -35.909  -9.862  1.00  0.00     0.210 HD
ENDBRANCH  26  38
ENDBRANCH   1  21
TORSDOF 15
ENDMDL
MODEL 2
REMARK VINA RESULT: -7.057604975      3.265      7.631
REMARK  15 active torsions:
REMARK  status: ('A' for Active; 'I' for Inactive)
REMARK    1  A    between atoms: O1_1  and  C1_3 
REMARK    2  A    between atoms: C1_3  and  C2_4 
REMARK    3  A    between atoms: C3_6  and  O3_7 
REMARK    4  A    between atoms: O3_7  and  C4_8 
REMARK    5  A    between atoms: C5_10  and  O5_11 
REMARK    6  A    between atoms: C5_10  and  O6_13 
REMARK    7  A    between atoms: C6_15  and  O7_16 
REMARK    8  A    between atoms: C6_15  and  C7_18 
REMARK    9  A    between atoms: C7_18  and  O8_19 
REMARK   10  A    between atoms: C8_21  and  O9_22 
REMARK   11  A    between atoms: C9_24  and  O10_25 
REMARK   12  A    between atoms: C10_27  and  O11_28 
REMARK   13  A    between atoms: C12_31  and  O12_32 
REMARK   14  A    between atoms: C12_31  and  O13_34 
REMARK   15  A    between atoms: O13_34  and  C13_35 
ROOT
HETATM    1  O3  UNL     1      -1.975 -33.244  -7.990  1.00  0.00    -0.326 OA
ENDROOT
BRANCH   1   2
HETATM    2  C3  UNL     1      -1.441 -34.429  -8.486  1.00  0.00     0.292 C 
HETATM    3  O2  UNL     1      -0.857 -34.301  -9.704  1.00  0.00    -0.346 OA
HETATM    4  C2  UNL     1      -0.112 -35.320 -10.196  1.00  0.00     0.210 C 
HETATM    5  C12 UNL     1       0.619 -36.172  -9.183  1.00  0.00     0.193 C 
HETATM    6  C11 UNL     1      -0.103 -36.336  -7.898  1.00  0.00     0.108 C 
HETATM    7  C10 UNL     1      -0.500 -34.938  -7.397  1.00  0.00     0.178 C 
BRANCH   4   8
HETATM    8  C1  UNL     1      -0.952 -36.307 -11.021  1.00  0.00     0.201 C 
BRANCH   8   9
HETATM    9  O1  UNL     1      -0.347 -36.520 -12.237  1.00  0.00    -0.398 OA
ATOM     10  H1  UNL     1       0.022 -37.395 -12.258  1.00  0.00     0.209 HD
ENDBRANCH   8   9
ENDBRANCH   4   8
BRANCH   5  11
HETATM   11  O12 UNL     1       1.813 -35.464  -8.896  1.00  0.00    -0.363 OA
ATOM     12  H12 UNL     1       2.501 -36.119  -8.920  1.00  0.00     0.213 HD
ENDBRANCH   5  11
BRANCH   5  13
HETATM   13  O13 UNL     1       0.997 -37.330  -9.809  1.00  0.00    -0.347 OA
BRANCH  13  14
HETATM   14  C13 UNL     1       2.340 -37.531  -9.952  1.00  0.00     0.125 C 
HETATM   15  C14 UNL     1       2.764 -38.033 -11.292  1.00  0.00     0.032 C 
HETATM   16  C15 UNL     1       2.707 -39.541 -11.259  1.00  0.00     0.002 C 
HETATM   17  C16 UNL     1       2.366 -39.947  -9.856  1.00  0.00     0.002 C 
HETATM   18  C17 UNL     1       2.707 -38.719  -9.048  1.00  0.00     0.032 C 
ENDBRANCH  13  14
ENDBRANCH   5  13
BRANCH   7  19
HETATM   19  O11 UNL     1      -1.239 -35.047  -6.227  1.00  0.00    -0.390 OA
ATOM     20  H11 UNL     1      -0.761 -35.620  -5.640  1.00  0.00     0.210 HD
ENDBRANCH   7  19
ENDBRANCH   1   2
BRANCH   1  21
HETATM   21  C4  UNL     1      -2.999 -32.738  -8.790  1.00  0.00     0.300 C 
HETATM   22  O4  UNL     1      -3.998 -32.313  -7.931  1.00  0.00    -0.297 OA
HETATM   23  C5  UNL     1      -5.013 -31.617  -8.542  1.00  0.00     0.318 C 
HETATM   24  C6  UNL     1      -4.567 -30.505  -9.430  1.00  0.00     0.191 C 
HETATM   25  C8  UNL     1      -3.453 -30.858 -10.357  1.00  0.00     0.196 C 
HETATM   26  C9  UNL     1      -2.383 -31.562  -9.554  1.00  0.00     0.205 C 
BRANCH  23  27
HETATM   27  O5  UNL     1      -5.762 -31.028  -7.493  1.00  0.00    -0.341 OA
ATOM     28  H5  UNL     1      -5.246 -30.290  -7.191  1.00  0.00     0.215 HD
ENDBRANCH  23  27
BRANCH  23  29
HETATM   29  O6  UNL     1      -5.902 -32.420  -9.246  1.00  0.00    -0.341 OA
ATOM     30  H6  UNL     1      -6.358 -33.055  -8.707  1.00  0.00     0.215 HD
ENDBRANCH  23  29
BRANCH  24  31
HETATM   31  O7  UNL     1      -4.144 -29.434  -8.634  1.00  0.00    -0.378 OA
ATOM     32  H7  UNL     1      -3.615 -28.850  -9.163  1.00  0.00     0.211 HD
ENDBRANCH  24  31
BRANCH  24  33
HETATM   33  C7  UNL     1      -5.751 -30.029 -10.252  1.00  0.00     0.213 C 
BRANCH  33  34
HETATM   34  O8  UNL     1      -6.748 -29.467  -9.475  1.00  0.00    -0.398 OA
ATOM     35  H8  UNL     1      -7.235 -28.795  -9.936  1.00  0.00     0.209 HD
ENDBRANCH  33  34
ENDBRANCH  24  33
BRANCH  25  36
HETATM   36  O9  UNL     1      -3.853 -31.603 -11.457  1.00  0.00    -0.389 OA
ATOM     37  H9  UNL     1      -3.602 -32.518 -11.415  1.00  0.00     0.210 HD
ENDBRANCH  25  36
BRANCH  26  38
HETATM   38  O10 UNL     1      -1.897 -30.675  -8.598  1.00  0.00    -0.388 OA
ATOM     39  H10 UNL     1      -2.082 -29.800  -8.918  1.00  0.00     0.210 HD
ENDBRANCH  26  38
ENDBRANCH   1  21
TORSDOF 15
ENDMDL
MODEL 3
REMARK VINA RESULT: -7.042990672      1.399      1.509
REMARK  15 active torsions:
REMARK  status: ('A' for Active; 'I' for Inactive)
REMARK    1  A    between atoms: O1_1  and  C1_3 
REMARK    2  A    between atoms: C1_3  and  C2_4 
REMARK    3  A    between atoms: C3_6  and  O3_7 
REMARK    4  A    between atoms: O3_7  and  C4_8 
REMARK    5  A    between atoms: C5_10  and  O5_11 
REMARK    6  A    between atoms: C5_10  and  O6_13 
REMARK    7  A    between atoms: C6_15  and  O7_16 
REMARK    8  A    between atoms: C6_15  and  C7_18 
REMARK    9  A    between atoms: C7_18  and  O8_19 
REMARK   10  A    between atoms: C8_21  and  O9_22 
REMARK   11  A    between atoms: C9_24  and  O10_25 
REMARK   12  A    between atoms: C10_27  and  O11_28 
REMARK   13  A    between atoms: C12_31  and  O12_32 
REMARK   14  A    between atoms: C12_31  and  O13_34 
REMARK   15  A    between atoms: O13_34  and  C13_35 
ROOT
HETATM    1  O3  UNL     1       1.030 -35.568  -9.375  1.00  0.00    -0.326 OA
ENDROOT
BRANCH   1   2
HETATM    2  C3  UNL     1      -0.232 -35.191  -8.930  1.00  0.00     0.292 C 
HETATM    3  O2  UNL     1      -1.200 -36.109  -9.177  1.00  0.00    -0.346 OA
HETATM    4  C2  UNL     1      -2.418 -35.964  -8.604  1.00  0.00     0.210 C 
HETATM    5  C12 UNL     1      -2.451 -35.298  -7.247  1.00  0.00     0.193 C 
HETATM    6  C11 UNL     1      -1.417 -34.251  -7.063  1.00  0.00     0.108 C 
HETATM    7  C10 UNL     1      -0.058 -34.855  -7.451  1.00  0.00     0.178 C 
BRANCH   4   8
HETATM    8  C1  UNL     1      -3.377 -35.142  -9.479  1.00  0.00     0.201 C 
BRANCH   8   9
HETATM    9  O1  UNL     1      -3.447 -35.701 -10.733  1.00  0.00    -0.398 OA
ATOM     10  H1  UNL     1      -3.534 -36.644 -10.655  1.00  0.00     0.209 HD
ENDBRANCH   8   9
ENDBRANCH   4   8
BRANCH   5  11
HETATM   11  O12 UNL     1      -2.161 -36.330  -6.320  1.00  0.00    -0.363 OA
ATOM     12  H12 UNL     1      -2.883 -36.319  -5.703  1.00  0.00     0.213 HD
ENDBRANCH   5  11
BRANCH   5  13
HETATM   13  O13 UNL     1      -3.743 -34.913  -7.004  1.00  0.00    -0.347 OA
BRANCH  13  14
HETATM   14  C13 UNL     1      -3.908 -33.754  -6.301  1.00  0.00     0.125 C 
HETATM   15  C14 UNL     1      -4.671 -33.892  -5.025  1.00  0.00     0.032 C 
HETATM   16  C15 UNL     1      -6.137 -33.719  -5.342  1.00  0.00     0.002 C 
HETATM   17  C16 UNL     1      -6.242 -33.351  -6.793  1.00  0.00     0.002 C 
HETATM   18  C17 UNL     1      -4.853 -32.867  -7.128  1.00  0.00     0.032 C 
ENDBRANCH  13  14
ENDBRANCH   5  13
BRANCH   7  19
HETATM   19  O11 UNL     1       0.934 -33.889  -7.358  1.00  0.00    -0.390 OA
ATOM     20  H11 UNL     1       0.564 -33.071  -7.668  1.00  0.00     0.210 HD
ENDBRANCH   7  19
ENDBRANCH   1   2
BRANCH   1  21
HETATM   21  C4  UNL     1       0.991 -36.261 -10.584  1.00  0.00     0.300 C 
HETATM   22  O4  UNL     1       0.338 -35.441 -11.489  1.00  0.00    -0.297 OA
HETATM   23  C5  UNL     1       0.368 -35.891 -12.787  1.00  0.00     0.318 C 
HETATM   24  C6  UNL     1       1.721 -36.267 -13.290  1.00  0.00     0.191 C 
HETATM   25  C8  UNL     1       2.520 -37.111 -12.355  1.00  0.00     0.196 C 
HETATM   26  C9  UNL     1       2.453 -36.479 -10.983  1.00  0.00     0.205 C 
BRANCH  23  27
HETATM   27  O5  UNL     1      -0.077 -34.806 -13.581  1.00  0.00    -0.341 OA
ATOM     28  H5  UNL     1       0.347 -34.912 -14.424  1.00  0.00     0.215 HD
ENDBRANCH  23  27
BRANCH  23  29
HETATM   29  O6  UNL     1      -0.509 -36.939 -13.040  1.00  0.00    -0.341 OA
ATOM     30  H6  UNL     1      -1.375 -36.815 -12.669  1.00  0.00     0.215 HD
ENDBRANCH  23  29
BRANCH  24  31
HETATM   31  O7  UNL     1       2.447 -35.099 -13.547  1.00  0.00    -0.378 OA
ATOM     32  H7  UNL     1       2.337 -34.865 -14.461  1.00  0.00     0.211 HD
ENDBRANCH  24  31
BRANCH  24  33
HETATM   33  C7  UNL     1       1.565 -37.012 -14.604  1.00  0.00     0.213 C 
BRANCH  33  34
HETATM   34  O8  UNL     1       2.666 -37.793 -14.907  1.00  0.00    -0.398 OA
ATOM     35  H8  UNL     1       3.025 -38.231 -14.144  1.00  0.00     0.209 HD
ENDBRANCH  33  34
ENDBRANCH  24  33
BRANCH  25  36
HETATM   36  O9  UNL     1       2.135 -38.444 -12.333  1.00  0.00    -0.389 OA
ATOM     37  H9  UNL     1       2.516 -38.943 -11.620  1.00  0.00     0.210 HD
ENDBRANCH  25  36
BRANCH  26  38
HETATM   38  O10 UNL     1       3.040 -35.219 -11.052  1.00  0.00    -0.388 OA
ATOM     39  H10 UNL     1       3.868 -35.278 -10.589  1.00  0.00     0.210 HD
ENDBRANCH  26  38
ENDBRANCH   1  21
TORSDOF 15
ENDMDL
MODEL 4
REMARK VINA RESULT: -6.986219620      2.899      3.314
REMARK  15 active torsions:
REMARK  status: ('A' for Active; 'I' for Inactive)
REMARK    1  A    between atoms: O1_1  and  C1_3 
REMARK    2  A    between atoms: C1_3  and  C2_4 
REMARK    3  A    between atoms: C3_6  and  O3_7 
REMARK    4  A    between atoms: O3_7  and  C4_8 
REMARK    5  A    between atoms: C5_10  and  O5_11 
REMARK    6  A    between atoms: C5_10  and  O6_13 
REMARK    7  A    between atoms: C6_15  and  O7_16 
REMARK    8  A    between atoms: C6_15  and  C7_18 
REMARK    9  A    between atoms: C7_18  and  O8_19 
REMARK   10  A    between atoms: C8_21  and  O9_22 
REMARK   11  A    between atoms: C9_24  and  O10_25 
REMARK   12  A    between atoms: C10_27  and  O11_28 
REMARK   13  A    between atoms: C12_31  and  O12_32 
REMARK   14  A    between atoms: C12_31  and  O13_34 
REMARK   15  A    between atoms: O13_34  and  C13_35 
ROOT
HETATM    1  O3  UNL     1      -0.861 -35.830  -8.628  1.00  0.00    -0.326 OA
ENDROOT
BRANCH   1   2
HETATM    2  C3  UNL     1      -1.692 -34.789  -9.030  1.00  0.00     0.292 C 
HETATM    3  O2  UNL     1      -2.959 -35.178  -9.319  1.00  0.00    -0.346 OA
HETATM    4  C2  UNL     1      -3.918 -34.240  -9.508  1.00  0.00     0.210 C 
HETATM    5  C12 UNL     1      -3.768 -32.954  -8.725  1.00  0.00     0.193 C 
HETATM    6  C11 UNL     1      -2.360 -32.542  -8.505  1.00  0.00     0.108 C 
HETATM    7  C10 UNL     1      -1.601 -33.744  -7.921  1.00  0.00     0.178 C 
BRANCH   4   8
HETATM    8  C1  UNL     1      -4.023 -33.805 -10.978  1.00  0.00     0.201 C 
BRANCH   8   9
HETATM    9  O1  UNL     1      -5.309 -34.000 -11.423  1.00  0.00    -0.398 OA
ATOM     10  H1  UNL     1      -5.290 -34.457 -12.255  1.00  0.00     0.209 HD
ENDBRANCH   8   9
ENDBRANCH   4   8
BRANCH   5  11
HETATM   11  O12 UNL     1      -4.319 -33.231  -7.449  1.00  0.00    -0.363 OA
ATOM     12  H12 UNL     1      -3.883 -34.022  -7.156  1.00  0.00     0.213 HD
ENDBRANCH   5  11
BRANCH   5  13
HETATM   13  O13 UNL     1      -4.583 -32.018  -9.302  1.00  0.00    -0.347 OA
BRANCH  13  14
HETATM   14  C13 UNL     1      -4.222 -30.712  -9.132  1.00  0.00     0.125 C 
HETATM   15  C14 UNL     1      -5.294 -29.826  -8.591  1.00  0.00     0.032 C 
HETATM   16  C15 UNL     1      -6.082 -29.286  -9.760  1.00  0.00     0.002 C 
HETATM   17  C16 UNL     1      -5.402 -29.753 -11.013  1.00  0.00     0.002 C 
HETATM   18  C17 UNL     1      -4.019 -30.124 -10.538  1.00  0.00     0.032 C 
ENDBRANCH  13  14
ENDBRANCH   5  13
BRANCH   7  19
HETATM   19  O11 UNL     1      -0.260 -33.424  -7.761  1.00  0.00    -0.390 OA
ATOM     20  H11 UNL     1      -0.214 -32.516  -7.487  1.00  0.00     0.210 HD
ENDBRANCH   7  19
ENDBRANCH   1   2
BRANCH   1  21
HETATM   21  C4  UNL     1      -0.181 -36.418  -9.693  1.00  0.00     0.300 C 
HETATM   22  O4  UNL     1      -0.188 -35.496 -10.725  1.00  0.00    -0.297 OA
HETATM   23  C5  UNL     1       0.599 -35.839 -11.798  1.00  0.00     0.318 C 
HETATM   24  C6  UNL     1       1.994 -36.238 -11.452  1.00  0.00     0.191 C 
HETATM   25  C8  UNL     1       2.102 -37.194 -10.312  1.00  0.00     0.196 C 
HETATM   26  C9  UNL     1       1.241 -36.674  -9.183  1.00  0.00     0.205 C 
BRANCH  23  27
HETATM   27  O5  UNL     1       0.693 -34.672 -12.595  1.00  0.00    -0.341 OA
ATOM     28  H5  UNL     1       1.596 -34.386 -12.530  1.00  0.00     0.215 HD
ENDBRANCH  23  27
BRANCH  23  29
HETATM   29  O6  UNL     1       0.044 -36.819 -12.613  1.00  0.00    -0.341 OA
ATOM     30  H6  UNL     1       0.574 -37.603 -12.688  1.00  0.00     0.215 HD
ENDBRANCH  23  29
BRANCH  24  31
HETATM   31  O7  UNL     1       2.723 -35.090 -11.125  1.00  0.00    -0.378 OA
ATOM     32  H7  UNL     1       2.992 -35.146 -10.216  1.00  0.00     0.211 HD
ENDBRANCH  24  31
BRANCH  24  33
HETATM   33  C7  UNL     1       2.641 -36.864 -12.674  1.00  0.00     0.213 C 
BRANCH  33  34
HETATM   34  O8  UNL     1       2.641 -36.019 -13.769  1.00  0.00    -0.398 OA
ATOM     35  H8  UNL     1       1.814 -36.027 -14.236  1.00  0.00     0.209 HD
ENDBRANCH  33  34
ENDBRANCH  24  33
BRANCH  25  36
HETATM   36  O9  UNL     1       1.789 -38.504 -10.645  1.00  0.00    -0.389 OA
ATOM     37  H9  UNL     1       1.261 -38.586 -11.430  1.00  0.00     0.210 HD
ENDBRANCH  25  36
BRANCH  26  38
HETATM   38  O10 UNL     1       1.747 -35.443  -8.777  1.00  0.00    -0.388 OA
ATOM     39  H10 UNL     1       2.644 -35.593  -8.505  1.00  0.00     0.210 HD
ENDBRANCH  26  38
ENDBRANCH   1  21
TORSDOF 15
ENDMDL
MODEL 5
REMARK VINA RESULT: -6.959806444      8.139      9.765
REMARK  15 active torsions:
REMARK  status: ('A' for Active; 'I' for Inactive)
REMARK    1  A    between atoms: O1_1  and  C1_3 
REMARK    2  A    between atoms: C1_3  and  C2_4 
REMARK    3  A    between atoms: C3_6  and  O3_7 
REMARK    4  A    between atoms: O3_7  and  C4_8 
REMARK    5  A    between atoms: C5_10  and  O5_11 
REMARK    6  A    between atoms: C5_10  and  O6_13 
REMARK    7  A    between atoms: C6_15  and  O7_16 
REMARK    8  A    between atoms: C6_15  and  C7_18 
REMARK    9  A    between atoms: C7_18  and  O8_19 
REMARK   10  A    between atoms: C8_21  and  O9_22 
REMARK   11  A    between atoms: C9_24  and  O10_25 
REMARK   12  A    between atoms: C10_27  and  O11_28 
REMARK   13  A    between atoms: C12_31  and  O12_32 
REMARK   14  A    between atoms: C12_31  and  O13_34 
REMARK   15  A    between atoms: O13_34  and  C13_35 
ROOT
HETATM    1  O3  UNL     1      -5.404 -26.662 -12.472  1.00  0.00    -0.326 OA
ENDROOT
BRANCH   1   2
HETATM    2  C3  UNL     1      -4.970 -27.692 -11.645  1.00  0.00     0.292 C 
HETATM    3  O2  UNL     1      -4.962 -27.373 -10.327  1.00  0.00    -0.346 OA
HETATM    4  C2  UNL     1      -4.774 -28.349  -9.406  1.00  0.00     0.210 C 
HETATM    5  C12 UNL     1      -5.290 -29.724  -9.765  1.00  0.00     0.193 C 
HETATM    6  C11 UNL     1      -5.204 -30.044 -11.210  1.00  0.00     0.108 C 
HETATM    7  C10 UNL     1      -5.853 -28.889 -11.989  1.00  0.00     0.178 C 
BRANCH   4   8
HETATM    8  C1  UNL     1      -3.288 -28.551  -9.071  1.00  0.00     0.201 C 
BRANCH   8   9
HETATM    9  O1  UNL     1      -2.823 -27.462  -8.373  1.00  0.00    -0.398 OA
ATOM     10  H1  UNL     1      -2.248 -26.951  -8.930  1.00  0.00     0.209 HD
ENDBRANCH   8   9
ENDBRANCH   4   8
BRANCH   5  11
HETATM   11  O12 UNL     1      -6.667 -29.702  -9.430  1.00  0.00    -0.363 OA
ATOM     12  H12 UNL     1      -7.064 -29.105 -10.052  1.00  0.00     0.213 HD
ENDBRANCH   5  11
BRANCH   5  13
HETATM   13  O13 UNL     1      -4.701 -30.624  -8.917  1.00  0.00    -0.347 OA
BRANCH  13  14
HETATM   14  C13 UNL     1      -4.926 -31.944  -9.181  1.00  0.00     0.125 C 
HETATM   15  C14 UNL     1      -5.496 -32.728  -8.045  1.00  0.00     0.032 C 
HETATM   16  C15 UNL     1      -4.344 -33.256  -7.225  1.00  0.00     0.002 C 
HETATM   17  C16 UNL     1      -3.077 -32.891  -7.942  1.00  0.00     0.002 C 
HETATM   18  C17 UNL     1      -3.547 -32.603  -9.347  1.00  0.00     0.032 C 
ENDBRANCH  13  14
ENDBRANCH   5  13
BRANCH   7  19
HETATM   19  O11 UNL     1      -5.735 -29.114 -13.354  1.00  0.00    -0.390 OA
ATOM     20  H11 UNL     1      -6.025 -30.002 -13.523  1.00  0.00     0.210 HD
ENDBRANCH   7  19
ENDBRANCH   1   2
BRANCH   1  21
HETATM   21  C4  UNL     1      -4.423 -26.241 -13.369  1.00  0.00     0.300 C 
HETATM   22  O4  UNL     1      -3.695 -27.367 -13.717  1.00  0.00    -0.297 OA
HETATM   23  C5  UNL     1      -2.796 -27.169 -14.737  1.00  0.00     0.318 C 
HETATM   24  C6  UNL     1      -3.358 -26.505 -15.948  1.00  0.00     0.191 C 
HETATM   25  C8  UNL     1      -4.202 -25.308 -15.666  1.00  0.00     0.196 C 
HETATM   26  C9  UNL     1      -5.180 -25.674 -14.573  1.00  0.00     0.205 C 
BRANCH  23  27
HETATM   27  O5  UNL     1      -2.377 -28.462 -15.136  1.00  0.00    -0.341 OA
ATOM     28  H5  UNL     1      -1.593 -28.646 -14.633  1.00  0.00     0.215 HD
ENDBRANCH  23  27
BRANCH  23  29
HETATM   29  O6  UNL     1      -1.645 -26.493 -14.350  1.00  0.00    -0.341 OA
ATOM     30  H6  UNL     1      -0.899 -27.060 -14.198  1.00  0.00     0.215 HD
ENDBRANCH  23  29
BRANCH  24  31
HETATM   31  O7  UNL     1      -4.140 -27.430 -16.649  1.00  0.00    -0.378 OA
ATOM     32  H7  UNL     1      -4.018 -27.290 -17.580  1.00  0.00     0.211 HD
ENDBRANCH  24  31
BRANCH  24  33
HETATM   33  C7  UNL     1      -2.213 -26.089 -16.854  1.00  0.00     0.213 C 
BRANCH  33  34
HETATM   34  O8  UNL     1      -1.511 -27.171 -17.356  1.00  0.00    -0.398 OA
ATOM     35  H8  UNL     1      -1.480 -27.900 -16.749  1.00  0.00     0.209 HD
ENDBRANCH  33  34
ENDBRANCH  24  33
BRANCH  25  36
HETATM   36  O9  UNL     1      -3.475 -24.168 -15.354  1.00  0.00    -0.389 OA
ATOM     37  H9  UNL     1      -3.145 -23.702 -16.113  1.00  0.00     0.210 HD
ENDBRANCH  25  36
BRANCH  26  38
HETATM   38  O10 UNL     1      -6.003 -26.692 -15.044  1.00  0.00    -0.388 OA
ATOM     39  H10 UNL     1      -6.833 -26.290 -15.271  1.00  0.00     0.210 HD
ENDBRANCH  26  38
ENDBRANCH   1  21
TORSDOF 15
ENDMDL
