MODEL 1
REMARK VINA RESULT: -9.214586265      0.000      0.000
REMARK  8 active torsions:
REMARK  status: ('A' for Active; 'I' for Inactive)
REMARK    1  A    between atoms: N2_5  and  C3_6 
REMARK    2  A    between atoms: C8_11  and  C9_12 
REMARK    3  A    between atoms: C11_14  and  N3_15 
REMARK       I    between atoms: N3_15  and  C12_17 
REMARK       I    between atoms: C12_17  and  N4_19 
REMARK    4  A    between atoms: N4_19  and  C13_21 
REMARK    5  A    between atoms: C18_28  and  C19_29 
REMARK    6  A    between atoms: C19_29  and  C20_30 
REMARK    7  A    between atoms: C23_33  and  C24_34 
REMARK    8  A    between atoms: C24_34  and  O2_35 
ROOT
HETATM    1  C1  UNL     1       7.903  -9.523 -21.549  1.00  0.00     0.045 C 
HETATM    2  C2  UNL     1       7.031 -10.057 -22.396  1.00  0.00     0.053 A 
HETATM    3  N1  UNL     1       7.196 -11.271 -22.962  1.00  0.00    -0.292 N 
ATOM      4  H1  UNL     1       7.996 -11.879 -22.790  1.00  0.00     0.187 HD
HETATM    5  N2  UNL     1       6.190 -11.574 -23.767  1.00  0.00    -0.238 N 
HETATM    6  C11 UNL     1       5.333 -10.540 -23.738  1.00  0.00     0.144 A 
HETATM    7  C18 UNL     1       5.860  -9.541 -22.852  1.00  0.00     0.040 A 
ENDROOT
BRANCH   6   8
HETATM    8  N3  UNL     1       4.275 -10.369 -24.323  1.00  0.00    -0.292 N 
HETATM    9  C12 UNL     1       2.957 -10.491 -24.452  1.00  0.00     0.327 C 
HETATM   10  O1  UNL     1       2.152 -11.002 -23.616  1.00  0.00    -0.247 OA
HETATM   11  N4  UNL     1       2.279 -10.005 -25.667  1.00  0.00    -0.294 N 
ATOM     12  H4  UNL     1       2.332 -10.521 -26.545  1.00  0.00     0.172 HD
ATOM     13  H3  UNL     1       4.548  -9.860 -25.164  1.00  0.00     0.172 HD
BRANCH  11  14
HETATM   14  C13 UNL     1       1.608  -8.894 -25.577  1.00  0.00     0.108 A 
HETATM   15  C14 UNL     1       0.905  -8.348 -26.628  1.00  0.00     0.049 A 
HETATM   16  C15 UNL     1       0.211  -7.158 -26.458  1.00  0.00     0.005 A 
HETATM   17  C16 UNL     1       0.207  -6.499 -25.247  1.00  0.00     0.017 A 
HETATM   18  C17 UNL     1       0.929  -7.084 -24.214  1.00  0.00     0.089 A 
HETATM   19  N5  UNL     1       1.596  -8.242 -24.402  1.00  0.00    -0.352 N 
ATOM     20  H5  UNL     1       2.114  -8.639 -23.618  1.00  0.00     0.166 HD
ENDBRANCH  11  14
ENDBRANCH   6   8
BRANCH   5  21
HETATM   21  C3  UNL     1       6.104 -12.798 -24.497  1.00  0.00     0.064 A 
HETATM   22  C4  UNL     1       4.948 -13.593 -24.449  1.00  0.00     0.032 A 
HETATM   23  C5  UNL     1       4.885 -14.767 -25.168  1.00  0.00     0.002 A 
HETATM   24  C6  UNL     1       5.948 -15.185 -25.944  1.00  0.00     0.001 A 
HETATM   25  C7  UNL     1       7.080 -14.400 -25.988  1.00  0.00     0.009 A 
HETATM   26  C8  UNL     1       7.157 -13.220 -25.272  1.00  0.00    -0.030 A 
BRANCH  26  27
HETATM   27  C9  UNL     1       8.368 -12.394 -25.335  1.00  0.00     0.036 C 
HETATM   28  C10 UNL     1       9.301 -12.723 -26.448  1.00  0.00     0.010 C 
ENDBRANCH  26  27
ENDBRANCH   5  21
BRANCH   7  29
HETATM   29  C19 UNL     1       5.264  -8.404 -22.600  1.00  0.00     0.055 C 
BRANCH  29  30
HETATM   30  C20 UNL     1       5.203  -7.194 -23.380  1.00  0.00     0.076 A 
HETATM   31  C21 UNL     1       6.269  -6.293 -23.536  1.00  0.00     0.040 A 
HETATM   32  C22 UNL     1       5.803  -5.300 -24.341  1.00  0.00     0.038 A 
HETATM   33  C23 UNL     1       4.498  -5.585 -24.666  1.00  0.00     0.077 A 
HETATM   34  O3  UNL     1       4.207  -6.696 -24.079  1.00  0.00    -0.313 OA
BRANCH  33  35
HETATM   35  C24 UNL     1       3.662  -4.712 -25.539  1.00  0.00     0.229 C 
BRANCH  35  36
HETATM   36  O2  UNL     1       3.251  -5.378 -26.688  1.00  0.00    -0.394 OA
ATOM     37  H2  UNL     1       3.977  -5.535 -27.280  1.00  0.00     0.209 HD
ENDBRANCH  35  36
ENDBRANCH  33  35
ENDBRANCH  29  30
ENDBRANCH   7  29
TORSDOF 8
ENDMDL
MODEL 2
REMARK VINA RESULT: -9.011527018      1.705      2.283
REMARK  8 active torsions:
REMARK  status: ('A' for Active; 'I' for Inactive)
REMARK    1  A    between atoms: N2_5  and  C3_6 
REMARK    2  A    between atoms: C8_11  and  C9_12 
REMARK    3  A    between atoms: C11_14  and  N3_15 
REMARK       I    between atoms: N3_15  and  C12_17 
REMARK       I    between atoms: C12_17  and  N4_19 
REMARK    4  A    between atoms: N4_19  and  C13_21 
REMARK    5  A    between atoms: C18_28  and  C19_29 
REMARK    6  A    between atoms: C19_29  and  C20_30 
REMARK    7  A    between atoms: C23_33  and  C24_34 
REMARK    8  A    between atoms: C24_34  and  O2_35 
ROOT
HETATM    1  C1  UNL     1       7.804  -8.781 -22.704  1.00  0.00     0.045 C 
HETATM    2  C2  UNL     1       6.847  -9.479 -23.306  1.00  0.00     0.053 A 
HETATM    3  N1  UNL     1       6.942 -10.802 -23.556  1.00  0.00    -0.292 N 
ATOM      4  H1  UNL     1       7.747 -11.376 -23.307  1.00  0.00     0.187 HD
HETATM    5  N2  UNL     1       5.859 -11.261 -24.164  1.00  0.00    -0.238 N 
HETATM    6  C11 UNL     1       5.023 -10.222 -24.323  1.00  0.00     0.144 A 
HETATM    7  C18 UNL     1       5.646  -9.052 -23.772  1.00  0.00     0.040 A 
ENDROOT
BRANCH   6   8
HETATM    8  N3  UNL     1       3.916 -10.165 -24.836  1.00  0.00    -0.292 N 
HETATM    9  C12 UNL     1       2.588 -10.230 -24.803  1.00  0.00     0.327 C 
HETATM   10  O1  UNL     1       1.857 -10.407 -23.781  1.00  0.00    -0.247 OA
HETATM   11  N4  UNL     1       1.804 -10.092 -26.042  1.00  0.00    -0.294 N 
ATOM     12  H4  UNL     1       1.744 -10.852 -26.719  1.00  0.00     0.172 HD
ATOM     13  H3  UNL     1       4.117  -9.955 -25.813  1.00  0.00     0.172 HD
BRANCH  11  14
HETATM   14  C13 UNL     1       1.188  -8.962 -26.240  1.00  0.00     0.108 A 
HETATM   15  C14 UNL     1       0.842  -8.500 -27.491  1.00  0.00     0.049 A 
HETATM   16  C15 UNL     1       0.186  -7.285 -27.626  1.00  0.00     0.005 A 
HETATM   17  C16 UNL     1      -0.134  -6.518 -26.526  1.00  0.00     0.017 A 
HETATM   18  C17 UNL     1       0.233  -7.022 -25.284  1.00  0.00     0.089 A 
HETATM   19  N5  UNL     1       0.871  -8.206 -25.176  1.00  0.00    -0.352 N 
ATOM     20  H5  UNL     1       1.122  -8.541 -24.246  1.00  0.00     0.166 HD
ENDBRANCH  11  14
ENDBRANCH   6   8
BRANCH   5  21
HETATM   21  C3  UNL     1       5.687 -12.625 -24.547  1.00  0.00     0.064 A 
HETATM   22  C4  UNL     1       4.425 -13.237 -24.508  1.00  0.00     0.032 A 
HETATM   23  C5  UNL     1       4.281 -14.555 -24.890  1.00  0.00     0.002 A 
HETATM   24  C6  UNL     1       5.367 -15.294 -25.314  1.00  0.00     0.001 A 
HETATM   25  C7  UNL     1       6.605 -14.688 -25.350  1.00  0.00     0.009 A 
HETATM   26  C8  UNL     1       6.762 -13.369 -24.970  1.00  0.00    -0.030 A 
BRANCH  26  27
HETATM   27  C9  UNL     1       8.086 -12.737 -25.021  1.00  0.00     0.036 C 
HETATM   28  C10 UNL     1       8.784 -12.837 -26.333  1.00  0.00     0.010 C 
ENDBRANCH  26  27
ENDBRANCH   5  21
BRANCH   7  29
HETATM   29  C19 UNL     1       5.092  -7.867 -23.766  1.00  0.00     0.055 C 
BRANCH  29  30
HETATM   30  C20 UNL     1       4.838  -6.965 -22.670  1.00  0.00     0.076 A 
HETATM   31  C21 UNL     1       5.009  -5.572 -22.731  1.00  0.00     0.040 A 
HETATM   32  C22 UNL     1       4.661  -5.100 -21.503  1.00  0.00     0.038 A 
HETATM   33  C23 UNL     1       4.290  -6.168 -20.720  1.00  0.00     0.077 A 
HETATM   34  O3  UNL     1       4.414  -7.223 -21.453  1.00  0.00    -0.313 OA
BRANCH  33  35
HETATM   35  C24 UNL     1       3.845  -6.030 -19.304  1.00  0.00     0.229 C 
BRANCH  35  36
HETATM   36  O2  UNL     1       4.207  -7.135 -18.542  1.00  0.00    -0.394 OA
ATOM     37  H2  UNL     1       5.089  -7.052 -18.200  1.00  0.00     0.209 HD
ENDBRANCH  35  36
ENDBRANCH  33  35
ENDBRANCH  29  30
ENDBRANCH   7  29
TORSDOF 8
ENDMDL
MODEL 3
REMARK VINA RESULT: -8.978908113      3.185      6.868
REMARK  8 active torsions:
REMARK  status: ('A' for Active; 'I' for Inactive)
REMARK    1  A    between atoms: N2_5  and  C3_6 
REMARK    2  A    between atoms: C8_11  and  C9_12 
REMARK    3  A    between atoms: C11_14  and  N3_15 
REMARK       I    between atoms: N3_15  and  C12_17 
REMARK       I    between atoms: C12_17  and  N4_19 
REMARK    4  A    between atoms: N4_19  and  C13_21 
REMARK    5  A    between atoms: C18_28  and  C19_29 
REMARK    6  A    between atoms: C19_29  and  C20_30 
REMARK    7  A    between atoms: C23_33  and  C24_34 
REMARK    8  A    between atoms: C24_34  and  O2_35 
ROOT
HETATM    1  C1  UNL     1       4.713 -15.241 -25.059  1.00  0.00     0.045 C 
HETATM    2  C2  UNL     1       4.155 -14.067 -24.788  1.00  0.00     0.053 A 
HETATM    3  N1  UNL     1       2.822 -13.860 -24.803  1.00  0.00    -0.292 N 
ATOM      4  H1  UNL     1       2.133 -14.579 -25.021  1.00  0.00     0.187 HD
HETATM    5  N2  UNL     1       2.520 -12.607 -24.500  1.00  0.00    -0.238 N 
HETATM    6  C11 UNL     1       3.678 -11.963 -24.277  1.00  0.00     0.144 A 
HETATM    7  C18 UNL     1       4.755 -12.895 -24.459  1.00  0.00     0.040 A 
ENDROOT
BRANCH   6   8
HETATM    8  N3  UNL     1       3.894 -10.799 -23.977  1.00  0.00    -0.292 N 
HETATM    9  C12 UNL     1       4.109  -9.819 -23.105  1.00  0.00     0.327 C 
HETATM   10  O1  UNL     1       4.223  -9.927 -21.846  1.00  0.00    -0.247 OA
HETATM   11  N4  UNL     1       4.243  -8.426 -23.567  1.00  0.00    -0.294 N 
ATOM     12  H4  UNL     1       3.429  -7.883 -23.855  1.00  0.00     0.172 HD
ATOM     13  H3  UNL     1       3.928 -10.324 -24.879  1.00  0.00     0.172 HD
BRANCH  11  14
HETATM   14  C13 UNL     1       5.439  -7.914 -23.593  1.00  0.00     0.108 A 
HETATM   15  C14 UNL     1       5.682  -6.573 -23.792  1.00  0.00     0.049 A 
HETATM   16  C15 UNL     1       6.986  -6.097 -23.807  1.00  0.00     0.005 A 
HETATM   17  C16 UNL     1       8.058  -6.944 -23.625  1.00  0.00     0.017 A 
HETATM   18  C17 UNL     1       7.768  -8.288 -23.427  1.00  0.00     0.089 A 
HETATM   19  N5  UNL     1       6.493  -8.728 -23.417  1.00  0.00    -0.352 N 
ATOM     20  H5  UNL     1       6.322  -9.723 -23.268  1.00  0.00     0.166 HD
ENDBRANCH  11  14
ENDBRANCH   6   8
BRANCH   5  21
HETATM   21  C3  UNL     1       1.184 -12.108 -24.441  1.00  0.00     0.064 A 
HETATM   22  C4  UNL     1       0.709 -11.189 -25.389  1.00  0.00     0.032 A 
HETATM   23  C5  UNL     1      -0.588 -10.726 -25.316  1.00  0.00     0.002 A 
HETATM   24  C6  UNL     1      -1.440 -11.153 -24.317  1.00  0.00     0.001 A 
HETATM   25  C7  UNL     1      -0.968 -12.057 -23.389  1.00  0.00     0.009 A 
HETATM   26  C8  UNL     1       0.329 -12.528 -23.450  1.00  0.00    -0.030 A 
BRANCH  26  27
HETATM   27  C9  UNL     1       0.813 -13.494 -22.457  1.00  0.00     0.036 C 
HETATM   28  C10 UNL     1       0.012 -13.568 -21.204  1.00  0.00     0.010 C 
ENDBRANCH  26  27
ENDBRANCH   5  21
BRANCH   7  29
HETATM   29  C19 UNL     1       6.018 -12.584 -24.314  1.00  0.00     0.055 C 
BRANCH  29  30
HETATM   30  C20 UNL     1       7.148 -12.866 -25.164  1.00  0.00     0.076 A 
HETATM   31  C21 UNL     1       7.160 -12.687 -26.556  1.00  0.00     0.040 A 
HETATM   32  C22 UNL     1       8.401 -13.061 -26.969  1.00  0.00     0.038 A 
HETATM   33  C23 UNL     1       9.123 -13.454 -25.867  1.00  0.00     0.077 A 
HETATM   34  O3  UNL     1       8.341 -13.319 -24.848  1.00  0.00    -0.313 OA
BRANCH  33  35
HETATM   35  C24 UNL     1      10.533 -13.931 -25.937  1.00  0.00     0.229 C 
BRANCH  35  36
HETATM   36  O2  UNL     1      10.644 -15.099 -26.681  1.00  0.00    -0.394 OA
ATOM     37  H2  UNL     1      10.729 -15.864 -26.125  1.00  0.00     0.209 HD
ENDBRANCH  35  36
ENDBRANCH  33  35
ENDBRANCH  29  30
ENDBRANCH   7  29
TORSDOF 8
ENDMDL
MODEL 4
REMARK VINA RESULT: -8.974667921      2.111      7.460
REMARK  8 active torsions:
REMARK  status: ('A' for Active; 'I' for Inactive)
REMARK    1  A    between atoms: N2_5  and  C3_6 
REMARK    2  A    between atoms: C8_11  and  C9_12 
REMARK    3  A    between atoms: C11_14  and  N3_15 
REMARK       I    between atoms: N3_15  and  C12_17 
REMARK       I    between atoms: C12_17  and  N4_19 
REMARK    4  A    between atoms: N4_19  and  C13_21 
REMARK    5  A    between atoms: C18_28  and  C19_29 
REMARK    6  A    between atoms: C19_29  and  C20_30 
REMARK    7  A    between atoms: C23_33  and  C24_34 
REMARK    8  A    between atoms: C24_34  and  O2_35 
ROOT
HETATM    1  C1  UNL     1      -0.494 -13.124 -23.810  1.00  0.00     0.045 C 
HETATM    2  C2  UNL     1       0.284 -12.084 -24.086  1.00  0.00     0.053 A 
HETATM    3  N1  UNL     1      -0.190 -10.902 -24.534  1.00  0.00    -0.292 N 
ATOM      4  H1  UNL     1      -1.177 -10.706 -24.697  1.00  0.00     0.187 HD
HETATM    5  N2  UNL     1       0.785 -10.030 -24.734  1.00  0.00    -0.238 N 
HETATM    6  C11 UNL     1       1.937 -10.643 -24.411  1.00  0.00     0.144 A 
HETATM    7  C18 UNL     1       1.634 -11.980 -23.987  1.00  0.00     0.040 A 
ENDROOT
BRANCH   6   8
HETATM    8  N3  UNL     1       3.088 -10.236 -24.443  1.00  0.00    -0.292 N 
HETATM    9  C12 UNL     1       4.008  -9.276 -24.451  1.00  0.00     0.327 C 
HETATM   10  O1  UNL     1       3.809  -8.027 -24.343  1.00  0.00    -0.247 OA
HETATM   11  N4  UNL     1       5.435  -9.610 -24.595  1.00  0.00    -0.294 N 
ATOM     12  H4  UNL     1       5.827  -9.882 -25.496  1.00  0.00     0.172 HD
ATOM     13  H3  UNL     1       3.641 -11.092 -24.489  1.00  0.00     0.172 HD
BRANCH  11  14
HETATM   14  C13 UNL     1       6.178  -9.546 -23.528  1.00  0.00     0.108 A 
HETATM   15  C14 UNL     1       7.523  -9.843 -23.525  1.00  0.00     0.049 A 
HETATM   16  C15 UNL     1       8.253  -9.752 -22.348  1.00  0.00     0.005 A 
HETATM   17  C16 UNL     1       7.658  -9.365 -21.166  1.00  0.00     0.017 A 
HETATM   18  C17 UNL     1       6.301  -9.074 -21.214  1.00  0.00     0.089 A 
HETATM   19  N5  UNL     1       5.610  -9.170 -22.369  1.00  0.00    -0.352 N 
ATOM     20  H5  UNL     1       4.615  -8.947 -22.363  1.00  0.00     0.166 HD
ENDBRANCH  11  14
ENDBRANCH   6   8
BRANCH   5  21
HETATM   21  C3  UNL     1       0.571  -8.700 -25.206  1.00  0.00     0.064 A 
HETATM   22  C4  UNL     1       0.572  -7.608 -24.325  1.00  0.00     0.032 A 
HETATM   23  C5  UNL     1       0.371  -6.331 -24.805  1.00  0.00     0.002 A 
HETATM   24  C6  UNL     1       0.164  -6.101 -26.151  1.00  0.00     0.001 A 
HETATM   25  C7  UNL     1       0.164  -7.178 -27.011  1.00  0.00     0.009 A 
HETATM   26  C8  UNL     1       0.365  -8.462 -26.544  1.00  0.00    -0.030 A 
BRANCH  26  27
HETATM   27  C9  UNL     1       0.369  -9.597 -27.475  1.00  0.00     0.036 C 
HETATM   28  C10 UNL     1      -0.976 -10.133 -27.823  1.00  0.00     0.010 C 
ENDBRANCH  26  27
ENDBRANCH   5  21
BRANCH   7  29
HETATM   29  C19 UNL     1       2.539 -12.844 -23.603  1.00  0.00     0.055 C 
BRANCH  29  30
HETATM   30  C20 UNL     1       3.755 -13.265 -24.251  1.00  0.00     0.076 A 
HETATM   31  C21 UNL     1       3.892 -14.449 -24.994  1.00  0.00     0.040 A 
HETATM   32  C22 UNL     1       5.180 -14.467 -25.432  1.00  0.00     0.038 A 
HETATM   33  C23 UNL     1       5.808 -13.333 -24.974  1.00  0.00     0.077 A 
HETATM   34  O3  UNL     1       4.930 -12.676 -24.294  1.00  0.00    -0.313 OA
BRANCH  33  35
HETATM   35  C24 UNL     1       7.235 -13.014 -25.261  1.00  0.00     0.229 C 
BRANCH  35  36
HETATM   36  O2  UNL     1       8.058 -13.330 -24.186  1.00  0.00    -0.394 OA
ATOM     37  H2  UNL     1       7.731 -14.079 -23.702  1.00  0.00     0.209 HD
ENDBRANCH  35  36
ENDBRANCH  33  35
ENDBRANCH  29  30
ENDBRANCH   7  29
TORSDOF 8
ENDMDL
MODEL 5
REMARK VINA RESULT: -8.972611759      2.385      3.270
REMARK  8 active torsions:
REMARK  status: ('A' for Active; 'I' for Inactive)
REMARK    1  A    between atoms: N2_5  and  C3_6 
REMARK    2  A    between atoms: C8_11  and  C9_12 
REMARK    3  A    between atoms: C11_14  and  N3_15 
REMARK       I    between atoms: N3_15  and  C12_17 
REMARK       I    between atoms: C12_17  and  N4_19 
REMARK    4  A    between atoms: N4_19  and  C13_21 
REMARK    5  A    between atoms: C18_28  and  C19_29 
REMARK    6  A    between atoms: C19_29  and  C20_30 
REMARK    7  A    between atoms: C23_33  and  C24_34 
REMARK    8  A    between atoms: C24_34  and  O2_35 
ROOT
HETATM    1  C1  UNL     1       7.802  -8.640 -22.492  1.00  0.00     0.045 C 
HETATM    2  C2  UNL     1       6.647  -9.104 -22.953  1.00  0.00     0.053 A 
HETATM    3  N1  UNL     1       6.432 -10.406 -23.236  1.00  0.00    -0.292 N 
ATOM      4  H1  UNL     1       7.131 -11.140 -23.122  1.00  0.00     0.187 HD
HETATM    5  N2  UNL     1       5.202 -10.612 -23.681  1.00  0.00    -0.238 N 
HETATM    6  C11 UNL     1       4.581  -9.421 -23.694  1.00  0.00     0.144 A 
HETATM    7  C18 UNL     1       5.503  -8.425 -23.224  1.00  0.00     0.040 A 
ENDROOT
BRANCH   6   8
HETATM    8  N3  UNL     1       3.446  -9.121 -24.032  1.00  0.00    -0.292 N 
HETATM    9  C12 UNL     1       2.566  -8.437 -24.756  1.00  0.00     0.327 C 
HETATM   10  O1  UNL     1       2.818  -7.613 -25.687  1.00  0.00    -0.247 OA
HETATM   11  N4  UNL     1       1.120  -8.595 -24.517  1.00  0.00    -0.294 N 
ATOM     12  H4  UNL     1       0.667  -8.167 -23.710  1.00  0.00     0.172 HD
ATOM     13  H3  UNL     1       2.859  -9.710 -23.442  1.00  0.00     0.172 HD
BRANCH  11  14
HETATM   14  C13 UNL     1       0.443  -9.300 -25.376  1.00  0.00     0.108 A 
HETATM   15  C14 UNL     1      -0.303 -10.404 -25.027  1.00  0.00     0.049 A 
HETATM   16  C15 UNL     1      -1.001 -11.108 -25.997  1.00  0.00     0.005 A 
HETATM   17  C16 UNL     1      -0.967 -10.725 -27.321  1.00  0.00     0.017 A 
HETATM   18  C17 UNL     1      -0.203  -9.607 -27.630  1.00  0.00     0.089 A 
HETATM   19  N5  UNL     1       0.468  -8.938 -26.670  1.00  0.00    -0.352 N 
ATOM     20  H5  UNL     1       1.017  -8.121 -26.938  1.00  0.00     0.166 HD
ENDBRANCH  11  14
ENDBRANCH   6   8
BRANCH   5  21
HETATM   21  C3  UNL     1       4.702 -11.895 -24.056  1.00  0.00     0.064 A 
HETATM   22  C4  UNL     1       3.325 -12.168 -24.050  1.00  0.00     0.032 A 
HETATM   23  C5  UNL     1       2.865 -13.413 -24.424  1.00  0.00     0.002 A 
HETATM   24  C6  UNL     1       3.740 -14.410 -24.808  1.00  0.00     0.001 A 
HETATM   25  C7  UNL     1       5.091 -14.135 -24.812  1.00  0.00     0.009 A 
HETATM   26  C8  UNL     1       5.566 -12.892 -24.440  1.00  0.00    -0.030 A 
BRANCH  26  27
HETATM   27  C9  UNL     1       7.007 -12.616 -24.457  1.00  0.00     0.036 C 
HETATM   28  C10 UNL     1       7.875 -13.800 -24.702  1.00  0.00     0.010 C 
ENDBRANCH  26  27
ENDBRANCH   5  21
BRANCH   7  29
HETATM   29  C19 UNL     1       5.208  -7.156 -23.114  1.00  0.00     0.055 C 
BRANCH  29  30
HETATM   30  C20 UNL     1       4.737  -6.406 -21.977  1.00  0.00     0.076 A 
HETATM   31  C21 UNL     1       4.495  -5.023 -21.982  1.00  0.00     0.040 A 
HETATM   32  C22 UNL     1       4.062  -4.716 -20.728  1.00  0.00     0.038 A 
HETATM   33  C23 UNL     1       4.041  -5.872 -19.984  1.00  0.00     0.077 A 
HETATM   34  O3  UNL     1       4.444  -6.818 -20.763  1.00  0.00    -0.313 OA
BRANCH  33  35
HETATM   35  C24 UNL     1       3.619  -5.920 -18.555  1.00  0.00     0.229 C 
BRANCH  35  36
HETATM   36  O2  UNL     1       3.569  -7.224 -18.078  1.00  0.00    -0.394 OA
ATOM     37  H2  UNL     1       2.870  -7.340 -17.446  1.00  0.00     0.209 HD
ENDBRANCH  35  36
ENDBRANCH  33  35
ENDBRANCH  29  30
ENDBRANCH   7  29
TORSDOF 8
ENDMDL
