MODEL 1
REMARK VINA RESULT: -10.850245634      0.000      0.000
REMARK  3 active torsions:
REMARK  status: ('A' for Active; 'I' for Inactive)
REMARK       I    between atoms: C1_2  and  N4_28 
REMARK       I    between atoms: N2_3  and  C2_5 
REMARK    1  A    between atoms: C2_5  and  C3_7 
REMARK    2  A    between atoms: C8_12  and  N3_13 
REMARK       I    between atoms: N3_13  and  C9_15 
REMARK    3  A    between atoms: C9_15  and  C10_17 
ROOT
HETATM    1  C3  UNL     1       0.663 -11.794 -25.058  1.00  0.00     0.101 C 
HETATM    2  C4  UNL     1      -0.768 -12.307 -24.999  1.00  0.00     0.016 C 
HETATM    3  C5  UNL     1      -1.367 -12.032 -23.623  1.00  0.00     0.001 C 
HETATM    4  C6  UNL     1      -0.471 -12.605 -22.536  1.00  0.00     0.002 C 
HETATM    5  C7  UNL     1       0.623 -13.476 -23.169  1.00  0.00     0.026 C 
HETATM    6  C8  UNL     1       1.450 -12.505 -24.032  1.00  0.00     0.097 C 
ENDROOT
BRANCH   6   7
HETATM    7  N3  UNL     1       2.630 -13.209 -24.540  1.00  0.00    -0.355 N 
HETATM    8  C9  UNL     1       3.923 -12.706 -24.416  1.00  0.00     0.226 C 
HETATM    9  O2  UNL     1       4.046 -11.580 -23.817  1.00  0.00    -0.273 OA
ATOM     10  H3  UNL     1       2.499 -14.107 -25.006  1.00  0.00     0.162 HD
BRANCH   8  11
HETATM   11  C10 UNL     1       5.188 -13.298 -24.887  1.00  0.00     0.042 C 
HETATM   12  C11 UNL     1       6.392 -12.674 -24.220  1.00  0.00     0.024 C 
HETATM   13  C12 UNL     1       7.646 -13.421 -24.453  1.00  0.00    -0.013 C 
HETATM   14  C13 UNL     1       8.454 -12.926 -25.624  1.00  0.00     0.005 C 
HETATM   15  C18 UNL     1       7.511 -14.914 -24.532  1.00  0.00     0.009 C 
HETATM   16  C14 UNL     1       7.722 -12.748 -26.884  1.00  0.00     0.005 C 
HETATM   17  C15 UNL     1       6.458 -13.507 -27.058  1.00  0.00    -0.013 C 
HETATM   18  C16 UNL     1       6.564 -14.977 -26.800  1.00  0.00     0.009 C 
HETATM   19  C20 UNL     1       5.301 -12.860 -26.357  1.00  0.00     0.024 C 
HETATM   20  C17 UNL     1       6.371 -15.372 -25.368  1.00  0.00    -0.013 C 
HETATM   21  C19 UNL     1       5.109 -14.780 -24.781  1.00  0.00     0.024 C 
ENDBRANCH   8  11
ENDBRANCH   6   7
BRANCH   1  22
HETATM   22  C2  UNL     1       0.662 -10.335 -24.784  1.00  0.00     0.230 C 
HETATM   23  N2  UNL     1       1.784  -9.766 -24.158  1.00  0.00    -0.301 N 
HETATM   24  C1  UNL     1       1.875  -8.513 -23.908  1.00  0.00     0.193 C 
ATOM     25  H2  UNL     1       2.557 -10.376 -23.893  1.00  0.00     0.171 HD
HETATM   26  N1  UNL     1       0.880  -7.582 -24.226  1.00  0.00    -0.063 NA
HETATM   27  N4  UNL     1       3.082  -8.094 -23.269  1.00  0.00    -0.351 N 
HETATM   28  C21 UNL     1       3.212  -6.707 -22.901  1.00  0.00     0.151 C 
HETATM   29  C24 UNL     1       4.174  -8.997 -22.976  1.00  0.00     0.151 C 
HETATM   30  C22 UNL     1       4.542  -6.196 -23.392  1.00  0.00     0.187 C 
HETATM   31  O3  UNL     1       5.534  -7.145 -23.444  1.00  0.00    -0.388 OA
HETATM   32  C23 UNL     1       5.371  -8.174 -22.536  1.00  0.00     0.187 C 
HETATM   33  O1  UNL     1      -0.315  -9.640 -25.108  1.00  0.00    -0.273 OA
ENDBRANCH   1  22
TORSDOF 3
ENDMDL
MODEL 2
REMARK VINA RESULT: -10.659517716      2.783      7.740
REMARK  3 active torsions:
REMARK  status: ('A' for Active; 'I' for Inactive)
REMARK       I    between atoms: C1_2  and  N4_28 
REMARK       I    between atoms: N2_3  and  C2_5 
REMARK    1  A    between atoms: C2_5  and  C3_7 
REMARK    2  A    between atoms: C8_12  and  N3_13 
REMARK       I    between atoms: N3_13  and  C9_15 
REMARK    3  A    between atoms: C9_15  and  C10_17 
ROOT
HETATM    1  C3  UNL     1       7.078  -9.199 -23.724  1.00  0.00     0.101 C 
HETATM    2  C4  UNL     1       7.964  -8.572 -22.658  1.00  0.00     0.016 C 
HETATM    3  C5  UNL     1       7.938  -9.421 -21.391  1.00  0.00     0.001 C 
HETATM    4  C6  UNL     1       6.505  -9.644 -20.936  1.00  0.00     0.002 C 
HETATM    5  C7  UNL     1       5.556  -8.756 -21.753  1.00  0.00     0.026 C 
HETATM    6  C8  UNL     1       5.699  -9.256 -23.202  1.00  0.00     0.097 C 
ENDROOT
BRANCH   6   7
HETATM    7  N3  UNL     1       4.697  -8.587 -24.036  1.00  0.00    -0.355 N 
HETATM    8  C9  UNL     1       3.434  -9.122 -24.277  1.00  0.00     0.226 C 
HETATM    9  O2  UNL     1       3.171 -10.246 -23.720  1.00  0.00    -0.273 OA
ATOM     10  H3  UNL     1       4.935  -7.690 -24.459  1.00  0.00     0.162 HD
BRANCH   8  11
HETATM   11  C10 UNL     1       2.343  -8.568 -25.098  1.00  0.00     0.042 C 
HETATM   12  C11 UNL     1       2.320  -9.157 -26.490  1.00  0.00     0.024 C 
HETATM   13  C12 UNL     1       1.088  -8.840 -27.242  1.00  0.00    -0.013 C 
HETATM   14  C13 UNL     1       1.194  -7.620 -28.120  1.00  0.00     0.005 C 
HETATM   15  C18 UNL     1      -0.172  -8.764 -26.430  1.00  0.00     0.009 C 
HETATM   16  C14 UNL     1       1.731  -6.411 -27.483  1.00  0.00     0.005 C 
HETATM   17  C15 UNL     1       1.645  -6.318 -26.004  1.00  0.00    -0.013 C 
HETATM   18  C16 UNL     1       0.283  -6.563 -25.434  1.00  0.00     0.009 C 
HETATM   19  C20 UNL     1       2.728  -7.095 -25.318  1.00  0.00     0.024 C 
HETATM   20  C17 UNL     1      -0.026  -8.004 -25.162  1.00  0.00    -0.013 C 
HETATM   21  C19 UNL     1       1.061  -8.673 -24.351  1.00  0.00     0.024 C 
ENDBRANCH   8  11
ENDBRANCH   6   7
BRANCH   1  22
HETATM   22  C2  UNL     1       7.573 -10.567 -24.017  1.00  0.00     0.230 C 
HETATM   23  N2  UNL     1       6.637 -11.598 -24.200  1.00  0.00    -0.301 N 
HETATM   24  C1  UNL     1       6.978 -12.800 -24.479  1.00  0.00     0.193 C 
ATOM     25  H2  UNL     1       5.644 -11.380 -24.106  1.00  0.00     0.171 HD
HETATM   26  N1  UNL     1       8.305 -13.217 -24.632  1.00  0.00    -0.063 NA
HETATM   27  N4  UNL     1       5.904 -13.729 -24.635  1.00  0.00    -0.351 N 
HETATM   28  C21 UNL     1       6.229 -15.112 -24.883  1.00  0.00     0.151 C 
HETATM   29  C24 UNL     1       4.511 -13.346 -24.556  1.00  0.00     0.151 C 
HETATM   30  C22 UNL     1       5.420 -15.599 -26.057  1.00  0.00     0.187 C 
HETATM   31  O3  UNL     1       4.198 -14.987 -26.202  1.00  0.00    -0.388 OA
HETATM   32  C23 UNL     1       3.664 -14.519 -25.016  1.00  0.00     0.187 C 
HETATM   33  O1  UNL     1       8.793 -10.785 -24.099  1.00  0.00    -0.273 OA
ENDBRANCH   1  22
TORSDOF 3
ENDMDL
MODEL 3
REMARK VINA RESULT: -10.019826351      0.374      1.438
REMARK  3 active torsions:
REMARK  status: ('A' for Active; 'I' for Inactive)
REMARK       I    between atoms: C1_2  and  N4_28 
REMARK       I    between atoms: N2_3  and  C2_5 
REMARK    1  A    between atoms: C2_5  and  C3_7 
REMARK    2  A    between atoms: C8_12  and  N3_13 
REMARK       I    between atoms: N3_13  and  C9_15 
REMARK    3  A    between atoms: C9_15  and  C10_17 
ROOT
HETATM    1  C3  UNL     1       0.627 -11.631 -25.066  1.00  0.00     0.101 C 
HETATM    2  C4  UNL     1      -0.792 -12.182 -25.052  1.00  0.00     0.016 C 
HETATM    3  C5  UNL     1      -1.440 -11.923 -23.696  1.00  0.00     0.001 C 
HETATM    4  C6  UNL     1      -0.564 -12.473 -22.581  1.00  0.00     0.002 C 
HETATM    5  C7  UNL     1       0.572 -13.315 -23.180  1.00  0.00     0.026 C 
HETATM    6  C8  UNL     1       1.400 -12.322 -24.016  1.00  0.00     0.097 C 
ENDROOT
BRANCH   6   7
HETATM    7  N3  UNL     1       2.613 -12.994 -24.487  1.00  0.00    -0.355 N 
HETATM    8  C9  UNL     1       3.883 -12.434 -24.369  1.00  0.00     0.226 C 
HETATM    9  O2  UNL     1       3.953 -11.283 -23.810  1.00  0.00    -0.273 OA
ATOM     10  H3  UNL     1       2.524 -13.913 -24.921  1.00  0.00     0.162 HD
BRANCH   8  11
HETATM   11  C10 UNL     1       5.176 -12.989 -24.806  1.00  0.00     0.042 C 
HETATM   12  C11 UNL     1       5.518 -12.590 -26.223  1.00  0.00     0.024 C 
HETATM   13  C12 UNL     1       6.917 -12.889 -26.596  1.00  0.00    -0.013 C 
HETATM   14  C13 UNL     1       7.107 -14.219 -27.278  1.00  0.00     0.005 C 
HETATM   15  C18 UNL     1       7.931 -12.740 -25.500  1.00  0.00     0.009 C 
HETATM   16  C14 UNL     1       6.494 -15.377 -26.615  1.00  0.00     0.005 C 
HETATM   17  C15 UNL     1       6.207 -15.265 -25.163  1.00  0.00    -0.013 C 
HETATM   18  C16 UNL     1       7.363 -14.822 -24.323  1.00  0.00     0.009 C 
HETATM   19  C20 UNL     1       4.943 -14.507 -24.887  1.00  0.00     0.024 C 
HETATM   20  C17 UNL     1       7.511 -13.336 -24.205  1.00  0.00    -0.013 C 
HETATM   21  C19 UNL     1       6.218 -12.667 -23.794  1.00  0.00     0.024 C 
ENDBRANCH   8  11
ENDBRANCH   6   7
BRANCH   1  22
HETATM   22  C2  UNL     1       0.579 -10.173 -24.793  1.00  0.00     0.230 C 
HETATM   23  N2  UNL     1       1.682  -9.568 -24.168  1.00  0.00    -0.301 N 
HETATM   24  C1  UNL     1       1.733  -8.313 -23.918  1.00  0.00     0.193 C 
ATOM     25  H2  UNL     1       2.476 -10.152 -23.903  1.00  0.00     0.171 HD
HETATM   26  N1  UNL     1       0.708  -7.414 -24.235  1.00  0.00    -0.063 NA
HETATM   27  N4  UNL     1       2.926  -7.855 -23.281  1.00  0.00    -0.351 N 
HETATM   28  C21 UNL     1       3.012  -6.463 -22.913  1.00  0.00     0.151 C 
HETATM   29  C24 UNL     1       4.048  -8.722 -22.988  1.00  0.00     0.151 C 
HETATM   30  C22 UNL     1       4.324  -5.910 -23.405  1.00  0.00     0.187 C 
HETATM   31  O3  UNL     1       5.346  -6.826 -23.459  1.00  0.00    -0.388 OA
HETATM   32  C23 UNL     1       5.218  -7.860 -22.550  1.00  0.00     0.187 C 
HETATM   33  O1  UNL     1      -0.420  -9.510 -25.116  1.00  0.00    -0.273 OA
ENDBRANCH   1  22
TORSDOF 3
ENDMDL
MODEL 4
REMARK VINA RESULT: -9.995133938      2.905      4.803
REMARK  3 active torsions:
REMARK  status: ('A' for Active; 'I' for Inactive)
REMARK       I    between atoms: C1_2  and  N4_28 
REMARK       I    between atoms: N2_3  and  C2_5 
REMARK    1  A    between atoms: C2_5  and  C3_7 
REMARK    2  A    between atoms: C8_12  and  N3_13 
REMARK       I    between atoms: N3_13  and  C9_15 
REMARK    3  A    between atoms: C9_15  and  C10_17 
ROOT
HETATM    1  C3  UNL     1       5.086  -8.003 -22.923  1.00  0.00     0.101 C 
HETATM    2  C4  UNL     1       4.489  -6.751 -23.549  1.00  0.00     0.016 C 
HETATM    3  C5  UNL     1       2.988  -6.696 -23.280  1.00  0.00     0.001 C 
HETATM    4  C6  UNL     1       2.324  -7.983 -23.743  1.00  0.00     0.002 C 
HETATM    5  C7  UNL     1       3.327  -8.828 -24.542  1.00  0.00     0.026 C 
HETATM    6  C8  UNL     1       4.437  -9.178 -23.535  1.00  0.00     0.097 C 
ENDROOT
BRANCH   6   7
HETATM    7  N3  UNL     1       5.357 -10.135 -24.156  1.00  0.00    -0.355 N 
HETATM    8  C9  UNL     1       5.088 -11.499 -24.238  1.00  0.00     0.226 C 
HETATM    9  O2  UNL     1       3.973 -11.895 -23.745  1.00  0.00    -0.273 OA
ATOM     10  H3  UNL     1       6.232  -9.786 -24.546  1.00  0.00     0.162 HD
BRANCH   8  11
HETATM   11  C10 UNL     1       5.921 -12.566 -24.820  1.00  0.00     0.042 C 
HETATM   12  C11 UNL     1       5.958 -12.501 -26.329  1.00  0.00     0.024 C 
HETATM   13  C12 UNL     1       6.993 -13.369 -26.929  1.00  0.00    -0.013 C 
HETATM   14  C13 UNL     1       6.501 -14.735 -27.332  1.00  0.00     0.005 C 
HETATM   15  C18 UNL     1       8.265 -13.507 -26.145  1.00  0.00     0.009 C 
HETATM   16  C14 UNL     1       5.741 -15.472 -26.315  1.00  0.00     0.005 C 
HETATM   17  C15 UNL     1       5.941 -15.089 -24.895  1.00  0.00    -0.013 C 
HETATM   18  C16 UNL     1       7.369 -15.044 -24.449  1.00  0.00     0.009 C 
HETATM   19  C20 UNL     1       5.159 -13.867 -24.516  1.00  0.00     0.024 C 
HETATM   20  C17 UNL     1       8.055 -13.734 -24.692  1.00  0.00    -0.013 C 
HETATM   21  C19 UNL     1       7.254 -12.567 -24.159  1.00  0.00     0.024 C 
ENDBRANCH   8  11
ENDBRANCH   6   7
BRANCH   1  22
HETATM   22  C2  UNL     1       4.830  -7.978 -21.462  1.00  0.00     0.230 C 
HETATM   23  N2  UNL     1       4.386  -6.781 -20.875  1.00  0.00    -0.301 N 
HETATM   24  C1  UNL     1       4.119  -6.679 -19.627  1.00  0.00     0.193 C 
ATOM     25  H2  UNL     1       4.273  -5.958 -21.468  1.00  0.00     0.171 HD
HETATM   26  N1  UNL     1       4.237  -7.737 -18.718  1.00  0.00    -0.063 NA
HETATM   27  N4  UNL     1       3.678  -5.393 -19.189  1.00  0.00    -0.351 N 
HETATM   28  C21 UNL     1       3.427  -5.201 -17.782  1.00  0.00     0.151 C 
HETATM   29  C24 UNL     1       3.472  -4.280 -20.091  1.00  0.00     0.151 C 
HETATM   30  C22 UNL     1       2.078  -4.552 -17.613  1.00  0.00     0.187 C 
HETATM   31  O3  UNL     1       1.705  -3.731 -18.650  1.00  0.00    -0.388 OA
HETATM   32  C23 UNL     1       2.770  -3.170 -19.330  1.00  0.00     0.187 C 
HETATM   33  O1  UNL     1       5.004  -9.001 -20.780  1.00  0.00    -0.273 OA
ENDBRANCH   1  22
TORSDOF 3
ENDMDL
MODEL 5
REMARK VINA RESULT: -9.878650924      2.796      4.458
REMARK  3 active torsions:
REMARK  status: ('A' for Active; 'I' for Inactive)
REMARK       I    between atoms: C1_2  and  N4_28 
REMARK       I    between atoms: N2_3  and  C2_5 
REMARK    1  A    between atoms: C2_5  and  C3_7 
REMARK    2  A    between atoms: C8_12  and  N3_13 
REMARK       I    between atoms: N3_13  and  C9_15 
REMARK    3  A    between atoms: C9_15  and  C10_17 
ROOT
HETATM    1  C3  UNL     1       5.017  -8.201 -23.055  1.00  0.00     0.101 C 
HETATM    2  C4  UNL     1       4.471  -6.934 -23.698  1.00  0.00     0.016 C 
HETATM    3  C5  UNL     1       2.987  -6.783 -23.377  1.00  0.00     0.001 C 
HETATM    4  C6  UNL     1       2.232  -8.041 -23.777  1.00  0.00     0.002 C 
HETATM    5  C7  UNL     1       3.154  -8.966 -24.585  1.00  0.00     0.026 C 
HETATM    6  C8  UNL     1       4.278  -9.353 -23.608  1.00  0.00     0.097 C 
ENDROOT
BRANCH   6   7
HETATM    7  N3  UNL     1       5.117 -10.380 -24.232  1.00  0.00    -0.355 N 
HETATM    8  C9  UNL     1       4.796 -11.735 -24.212  1.00  0.00     0.226 C 
HETATM    9  O2  UNL     1       3.706 -12.057 -23.619  1.00  0.00    -0.273 OA
ATOM     10  H3  UNL     1       5.974 -10.089 -24.702  1.00  0.00     0.162 HD
BRANCH   8  11
HETATM   11  C10 UNL     1       5.547 -12.866 -24.784  1.00  0.00     0.042 C 
HETATM   12  C11 UNL     1       6.909 -13.025 -24.148  1.00  0.00     0.024 C 
HETATM   13  C12 UNL     1       7.572 -14.301 -24.492  1.00  0.00    -0.013 C 
HETATM   14  C13 UNL     1       8.501 -14.218 -25.674  1.00  0.00     0.005 C 
HETATM   15  C18 UNL     1       6.666 -15.486 -24.650  1.00  0.00     0.009 C 
HETATM   16  C14 UNL     1       7.956 -13.583 -26.880  1.00  0.00     0.005 C 
HETATM   17  C15 UNL     1       6.479 -13.544 -27.029  1.00  0.00    -0.013 C 
HETATM   18  C16 UNL     1       5.794 -14.864 -26.862  1.00  0.00     0.009 C 
HETATM   19  C20 UNL     1       5.853 -12.441 -26.230  1.00  0.00     0.024 C 
HETATM   20  C17 UNL     1       5.443 -15.207 -25.447  1.00  0.00    -0.013 C 
HETATM   21  C19 UNL     1       4.696 -14.086 -24.759  1.00  0.00     0.024 C 
ENDBRANCH   8  11
ENDBRANCH   6   7
BRANCH   1  22
HETATM   22  C2  UNL     1       4.818  -8.120 -21.587  1.00  0.00     0.230 C 
HETATM   23  N2  UNL     1       4.409  -6.897 -21.029  1.00  0.00    -0.301 N 
HETATM   24  C1  UNL     1       4.190  -6.748 -19.776  1.00  0.00     0.193 C 
ATOM     25  H2  UNL     1       4.280  -6.096 -21.647  1.00  0.00     0.171 HD
HETATM   26  N1  UNL     1       4.333  -7.772 -18.833  1.00  0.00    -0.063 NA
HETATM   27  N4  UNL     1       3.778  -5.441 -19.370  1.00  0.00    -0.351 N 
HETATM   28  C21 UNL     1       3.584  -5.195 -17.963  1.00  0.00     0.151 C 
HETATM   29  C24 UNL     1       3.549  -4.360 -20.304  1.00  0.00     0.151 C 
HETATM   30  C22 UNL     1       2.249  -4.525 -17.766  1.00  0.00     0.187 C 
HETATM   31  O3  UNL     1       1.844  -3.738 -18.818  1.00  0.00    -0.388 OA
HETATM   32  C23 UNL     1       2.888  -3.215 -19.558  1.00  0.00     0.187 C 
HETATM   33  O1  UNL     1       5.008  -9.120 -20.875  1.00  0.00    -0.273 OA
ENDBRANCH   1  22
TORSDOF 3
ENDMDL
