MODEL 1
REMARK VINA RESULT: -9.820752395      0.000      0.000
REMARK  3 active torsions:
REMARK  status: ('A' for Active; 'I' for Inactive)
REMARK    1  A    between atoms: C5_6  and  C6_7 
REMARK    2  A    between atoms: C6_7  and  N2_8 
REMARK       I    between atoms: N2_8  and  C7_10 
REMARK    3  A    between atoms: C7_10  and  C8_12 
ROOT
HETATM    1  N1  UNL     1      10.061 -14.979 -25.762  1.00  0.00    -0.191 NA
HETATM    2  C1  UNL     1       9.044 -14.528 -25.429  1.00  0.00     0.099 C 
HETATM    3  C2  UNL     1       7.782 -13.978 -25.034  1.00  0.00     0.044 A 
HETATM    4  C3  UNL     1       7.665 -12.712 -24.453  1.00  0.00     0.023 A 
HETATM    5  C4  UNL     1       6.420 -12.241 -24.093  1.00  0.00     0.010 A 
HETATM    6  C5  UNL     1       5.278 -12.995 -24.296  1.00  0.00    -0.040 A 
HETATM    7  C23 UNL     1       5.433 -14.236 -24.870  1.00  0.00     0.010 A 
HETATM    8  C24 UNL     1       6.654 -14.747 -25.244  1.00  0.00     0.023 A 
ENDROOT
BRANCH   6   9
HETATM    9  C6  UNL     1       3.998 -12.413 -23.883  1.00  0.00     0.161 C 
BRANCH   9  10
HETATM   10  N2  UNL     1       3.503 -11.399 -24.767  1.00  0.00    -0.356 N 
HETATM   11  C7  UNL     1       2.174 -10.917 -24.689  1.00  0.00     0.232 C 
HETATM   12  O1  UNL     1       1.411 -11.398 -23.815  1.00  0.00    -0.272 OA
ATOM     13  H2  UNL     1       4.128 -11.011 -25.475  1.00  0.00     0.162 HD
BRANCH  11  14
HETATM   14  C8  UNL     1       1.666  -9.883 -25.590  1.00  0.00     0.153 C 
HETATM   15  S1  UNL     1       0.094  -9.176 -24.985  1.00  0.00    -0.139 SA
HETATM   16  C9  UNL     1       0.366  -7.352 -25.041  1.00  0.00     0.115 C 
HETATM   17  C10 UNL     1       0.836  -7.133 -26.444  1.00  0.00    -0.033 A 
HETATM   18  C22 UNL     1       1.583  -7.176 -24.190  1.00  0.00    -0.033 A 
HETATM   19  C11 UNL     1       0.206  -6.306 -27.337  1.00  0.00     0.009 A 
HETATM   20  C15 UNL     1       1.972  -7.837 -26.820  1.00  0.00    -0.040 A 
HETATM   21  C12 UNL     1       0.709  -6.179 -28.612  1.00  0.00     0.001 A 
HETATM   22  C13 UNL     1       1.834  -6.860 -29.025  1.00  0.00     0.001 A 
HETATM   23  C14 UNL     1       2.451  -7.689 -28.103  1.00  0.00     0.008 A 
HETATM   24  C16 UNL     1       2.656  -8.735 -25.805  1.00  0.00     0.075 C 
HETATM   25  C17 UNL     1       2.698  -7.884 -24.588  1.00  0.00    -0.040 A 
HETATM   26  C18 UNL     1       3.868  -7.803 -23.873  1.00  0.00     0.008 A 
HETATM   27  C19 UNL     1       3.945  -6.998 -22.725  1.00  0.00     0.001 A 
HETATM   28  C20 UNL     1       2.827  -6.291 -22.332  1.00  0.00     0.001 A 
HETATM   29  C21 UNL     1       1.653  -6.393 -23.078  1.00  0.00     0.009 A 
ENDBRANCH  11  14
ENDBRANCH   9  10
ENDBRANCH   6   9
TORSDOF 3
ENDMDL
MODEL 2
REMARK VINA RESULT: -9.698110519      1.709      3.333
REMARK  3 active torsions:
REMARK  status: ('A' for Active; 'I' for Inactive)
REMARK    1  A    between atoms: C5_6  and  C6_7 
REMARK    2  A    between atoms: C6_7  and  N2_8 
REMARK       I    between atoms: N2_8  and  C7_10 
REMARK    3  A    between atoms: C7_10  and  C8_12 
ROOT
HETATM    1  N1  UNL     1       9.637 -14.769 -25.826  1.00  0.00    -0.191 NA
HETATM    2  C1  UNL     1       8.575 -14.404 -25.533  1.00  0.00     0.099 C 
HETATM    3  C2  UNL     1       7.270 -13.948 -25.156  1.00  0.00     0.044 A 
HETATM    4  C3  UNL     1       6.117 -14.706 -25.379  1.00  0.00     0.023 A 
HETATM    5  C4  UNL     1       4.891 -14.210 -24.993  1.00  0.00     0.010 A 
HETATM    6  C5  UNL     1       4.774 -12.971 -24.387  1.00  0.00    -0.040 A 
HETATM    7  C23 UNL     1       5.930 -12.254 -24.184  1.00  0.00     0.010 A 
HETATM    8  C24 UNL     1       7.175 -12.710 -24.552  1.00  0.00     0.023 A 
ENDROOT
BRANCH   6   9
HETATM    9  C6  UNL     1       3.430 -12.525 -24.010  1.00  0.00     0.161 C 
BRANCH   9  10
HETATM   10  N2  UNL     1       2.975 -11.366 -24.723  1.00  0.00    -0.356 N 
HETATM   11  C7  UNL     1       2.968 -10.077 -24.136  1.00  0.00     0.232 C 
HETATM   12  O1  UNL     1       3.375  -9.953 -22.955  1.00  0.00    -0.272 OA
ATOM     13  H2  UNL     1       2.646 -11.474 -25.683  1.00  0.00     0.162 HD
BRANCH  11  14
HETATM   14  C8  UNL     1       2.504  -8.895 -24.861  1.00  0.00     0.153 C 
HETATM   15  S1  UNL     1       2.738  -9.077 -26.665  1.00  0.00    -0.139 SA
HETATM   16  C9  UNL     1       1.095  -8.641 -27.381  1.00  0.00     0.115 C 
HETATM   17  C10 UNL     1       0.807  -7.313 -26.758  1.00  0.00    -0.033 A 
HETATM   18  C22 UNL     1       0.174  -9.601 -26.697  1.00  0.00    -0.033 A 
HETATM   19  C11 UNL     1       0.580  -6.168 -27.476  1.00  0.00     0.009 A 
HETATM   20  C15 UNL     1       0.790  -7.284 -25.369  1.00  0.00    -0.040 A 
HETATM   21  C12 UNL     1       0.335  -4.989 -26.811  1.00  0.00     0.001 A 
HETATM   22  C13 UNL     1       0.310  -4.918 -25.435  1.00  0.00     0.001 A 
HETATM   23  C14 UNL     1       0.542  -6.089 -24.733  1.00  0.00     0.008 A 
HETATM   24  C16 UNL     1       1.031  -8.571 -24.601  1.00  0.00     0.075 C 
HETATM   25  C17 UNL     1       0.174  -9.549 -25.318  1.00  0.00    -0.040 A 
HETATM   26  C18 UNL     1      -0.627 -10.393 -24.589  1.00  0.00     0.008 A 
HETATM   27  C19 UNL     1      -1.458 -11.321 -25.237  1.00  0.00     0.001 A 
HETATM   28  C20 UNL     1      -1.456 -11.367 -26.615  1.00  0.00     0.001 A 
HETATM   29  C21 UNL     1      -0.632 -10.498 -27.330  1.00  0.00     0.009 A 
ENDBRANCH  11  14
ENDBRANCH   9  10
ENDBRANCH   6   9
TORSDOF 3
ENDMDL
MODEL 3
REMARK VINA RESULT: -9.085247768      1.242      1.637
REMARK  3 active torsions:
REMARK  status: ('A' for Active; 'I' for Inactive)
REMARK    1  A    between atoms: C5_6  and  C6_7 
REMARK    2  A    between atoms: C6_7  and  N2_8 
REMARK       I    between atoms: N2_8  and  C7_10 
REMARK    3  A    between atoms: C7_10  and  C8_12 
ROOT
HETATM    1  N1  UNL     1      11.410 -13.356 -26.997  1.00  0.00    -0.191 NA
HETATM    2  C1  UNL     1      10.406 -13.070 -26.488  1.00  0.00     0.099 C 
HETATM    3  C2  UNL     1       9.175 -12.719 -25.845  1.00  0.00     0.044 A 
HETATM    4  C3  UNL     1       7.935 -13.181 -26.296  1.00  0.00     0.023 A 
HETATM    5  C4  UNL     1       6.787 -12.806 -25.633  1.00  0.00     0.010 A 
HETATM    6  C5  UNL     1       6.833 -11.979 -24.525  1.00  0.00    -0.040 A 
HETATM    7  C23 UNL     1       8.071 -11.545 -24.110  1.00  0.00     0.010 A 
HETATM    8  C24 UNL     1       9.243 -11.893 -24.740  1.00  0.00     0.023 A 
ENDROOT
BRANCH   6   9
HETATM    9  C6  UNL     1       5.562 -11.632 -23.882  1.00  0.00     0.161 C 
BRANCH   9  10
HETATM   10  N2  UNL     1       4.722 -10.776 -24.667  1.00  0.00    -0.356 N 
HETATM   11  C7  UNL     1       3.383 -10.494 -24.301  1.00  0.00     0.232 C 
HETATM   12  O1  UNL     1       2.924 -11.015 -23.254  1.00  0.00    -0.272 OA
ATOM     13  H2  UNL     1       5.100 -10.355 -25.517  1.00  0.00     0.162 HD
BRANCH  11  14
HETATM   14  C8  UNL     1       2.525  -9.622 -25.101  1.00  0.00     0.153 C 
HETATM   15  S1  UNL     1       0.918  -9.324 -24.282  1.00  0.00    -0.139 SA
HETATM   16  C9  UNL     1       0.723  -7.490 -24.319  1.00  0.00     0.115 C 
HETATM   17  C10 UNL     1       0.939  -7.167 -25.764  1.00  0.00    -0.033 A 
HETATM   18  C22 UNL     1       1.959  -7.015 -23.625  1.00  0.00    -0.033 A 
HETATM   19  C11 UNL     1       0.015  -6.525 -26.546  1.00  0.00     0.009 A 
HETATM   20  C15 UNL     1       2.155  -7.569 -26.301  1.00  0.00    -0.040 A 
HETATM   21  C12 UNL     1       0.302  -6.282 -27.870  1.00  0.00     0.001 A 
HETATM   22  C13 UNL     1       1.496  -6.665 -28.442  1.00  0.00     0.001 A 
HETATM   23  C14 UNL     1       2.412  -7.311 -27.629  1.00  0.00     0.008 A 
HETATM   24  C16 UNL     1       3.164  -8.266 -25.407  1.00  0.00     0.075 C 
HETATM   25  C17 UNL     1       3.154  -7.426 -24.181  1.00  0.00    -0.040 A 
HETATM   26  C18 UNL     1       4.350  -7.055 -23.618  1.00  0.00     0.008 A 
HETATM   27  C19 UNL     1       4.374  -6.251 -22.466  1.00  0.00     0.001 A 
HETATM   28  C20 UNL     1       3.178  -5.842 -21.915  1.00  0.00     0.001 A 
HETATM   29  C21 UNL     1       1.979  -6.234 -22.509  1.00  0.00     0.009 A 
ENDBRANCH  11  14
ENDBRANCH   9  10
ENDBRANCH   6   9
TORSDOF 3
ENDMDL
MODEL 4
REMARK VINA RESULT: -9.004535441      2.866      4.428
REMARK  3 active torsions:
REMARK  status: ('A' for Active; 'I' for Inactive)
REMARK    1  A    between atoms: C5_6  and  C6_7 
REMARK    2  A    between atoms: C6_7  and  N2_8 
REMARK       I    between atoms: N2_8  and  C7_10 
REMARK    3  A    between atoms: C7_10  and  C8_12 
ROOT
HETATM    1  N1  UNL     1      10.067 -11.608 -24.315  1.00  0.00    -0.191 NA
HETATM    2  C1  UNL     1       9.024 -11.134 -24.126  1.00  0.00     0.099 C 
HETATM    3  C2  UNL     1       7.732 -10.557 -23.907  1.00  0.00     0.044 A 
HETATM    4  C3  UNL     1       7.561  -9.221 -23.535  1.00  0.00     0.023 A 
HETATM    5  C4  UNL     1       6.289  -8.726 -23.339  1.00  0.00     0.010 A 
HETATM    6  C5  UNL     1       5.172  -9.527 -23.502  1.00  0.00    -0.040 A 
HETATM    7  C23 UNL     1       5.380 -10.836 -23.868  1.00  0.00     0.010 A 
HETATM    8  C24 UNL     1       6.630 -11.372 -24.075  1.00  0.00     0.023 A 
ENDROOT
BRANCH   6   9
HETATM    9  C6  UNL     1       3.860  -8.916 -23.273  1.00  0.00     0.161 C 
BRANCH   9  10
HETATM   10  N2  UNL     1       3.698  -7.627 -23.879  1.00  0.00    -0.356 N 
HETATM   11  C7  UNL     1       2.444  -6.972 -23.930  1.00  0.00     0.232 C 
HETATM   12  O1  UNL     1       1.446  -7.545 -23.427  1.00  0.00    -0.272 OA
ATOM     13  H2  UNL     1       4.513  -7.166 -24.286  1.00  0.00     0.162 HD
BRANCH  11  14
HETATM   14  C8  UNL     1       2.277  -5.657 -24.549  1.00  0.00     0.153 C 
HETATM   15  S1  UNL     1       3.790  -5.132 -25.429  1.00  0.00    -0.139 SA
HETATM   16  C9  UNL     1       3.190  -4.626 -27.099  1.00  0.00     0.115 C 
HETATM   17  C10 UNL     1       2.095  -3.659 -26.775  1.00  0.00    -0.033 A 
HETATM   18  C22 UNL     1       2.493  -5.856 -27.584  1.00  0.00    -0.033 A 
HETATM   19  C11 UNL     1       2.077  -2.358 -27.205  1.00  0.00     0.009 A 
HETATM   20  C15 UNL     1       1.066  -4.151 -25.983  1.00  0.00    -0.040 A 
HETATM   21  C12 UNL     1       1.029  -1.541 -26.844  1.00  0.00     0.001 A 
HETATM   22  C13 UNL     1      -0.011  -1.990 -26.059  1.00  0.00     0.001 A 
HETATM   23  C14 UNL     1       0.032  -3.309 -25.639  1.00  0.00     0.008 A 
HETATM   24  C16 UNL     1       1.107  -5.600 -25.533  1.00  0.00     0.075 C 
HETATM   25  C17 UNL     1       1.473  -6.322 -26.780  1.00  0.00    -0.040 A 
HETATM   26  C18 UNL     1       0.772  -7.451 -27.125  1.00  0.00     0.008 A 
HETATM   27  C19 UNL     1       1.085  -8.149 -28.303  1.00  0.00     0.001 A 
HETATM   28  C20 UNL     1       2.105  -7.679 -29.104  1.00  0.00     0.001 A 
HETATM   29  C21 UNL     1       2.799  -6.530 -28.727  1.00  0.00     0.009 A 
ENDBRANCH  11  14
ENDBRANCH   9  10
ENDBRANCH   6   9
TORSDOF 3
ENDMDL
MODEL 5
REMARK VINA RESULT: -8.762995790      2.408      4.088
REMARK  3 active torsions:
REMARK  status: ('A' for Active; 'I' for Inactive)
REMARK    1  A    between atoms: C5_6  and  C6_7 
REMARK    2  A    between atoms: C6_7  and  N2_8 
REMARK       I    between atoms: N2_8  and  C7_10 
REMARK    3  A    between atoms: C7_10  and  C8_12 
ROOT
HETATM    1  N1  UNL     1       8.207 -13.608 -24.418  1.00  0.00    -0.191 NA
HETATM    2  C1  UNL     1       7.207 -13.024 -24.331  1.00  0.00     0.099 C 
HETATM    3  C2  UNL     1       5.968 -12.312 -24.237  1.00  0.00     0.044 A 
HETATM    4  C3  UNL     1       5.911 -10.928 -24.048  1.00  0.00     0.023 A 
HETATM    5  C4  UNL     1       4.686 -10.302 -23.965  1.00  0.00     0.010 A 
HETATM    6  C5  UNL     1       3.505 -11.016 -24.063  1.00  0.00    -0.040 A 
HETATM    7  C23 UNL     1       3.601 -12.376 -24.248  1.00  0.00     0.010 A 
HETATM    8  C24 UNL     1       4.800 -13.042 -24.337  1.00  0.00     0.023 A 
ENDROOT
BRANCH   6   9
HETATM    9  C6  UNL     1       2.249 -10.267 -23.964  1.00  0.00     0.161 C 
BRANCH   9  10
HETATM   10  N2  UNL     1       2.389  -8.855 -24.165  1.00  0.00    -0.356 N 
HETATM   11  C7  UNL     1       1.349  -8.066 -24.712  1.00  0.00     0.232 C 
HETATM   12  O1  UNL     1       0.272  -8.628 -25.029  1.00  0.00    -0.272 OA
ATOM     13  H2  UNL     1       3.267  -8.403 -23.905  1.00  0.00     0.162 HD
BRANCH  11  14
HETATM   14  C8  UNL     1       1.491  -6.625 -24.919  1.00  0.00     0.153 C 
HETATM   15  S1  UNL     1       3.247  -6.134 -25.041  1.00  0.00    -0.139 SA
HETATM   16  C9  UNL     1       3.326  -5.114 -26.576  1.00  0.00     0.115 C 
HETATM   17  C10 UNL     1       2.243  -4.106 -26.357  1.00  0.00    -0.033 A 
HETATM   18  C22 UNL     1       2.788  -6.044 -27.616  1.00  0.00    -0.033 A 
HETATM   19  C11 UNL     1       2.454  -2.752 -26.350  1.00  0.00     0.009 A 
HETATM   20  C15 UNL     1       0.970  -4.619 -26.142  1.00  0.00    -0.040 A 
HETATM   21  C12 UNL     1       1.393  -1.903 -26.127  1.00  0.00     0.001 A 
HETATM   22  C13 UNL     1       0.116  -2.372 -25.909  1.00  0.00     0.001 A 
HETATM   23  C14 UNL     1      -0.070  -3.744 -25.922  1.00  0.00     0.008 A 
HETATM   24  C16 UNL     1       0.766  -6.123 -26.169  1.00  0.00     0.075 C 
HETATM   25  C17 UNL     1       1.521  -6.536 -27.380  1.00  0.00    -0.040 A 
HETATM   26  C18 UNL     1       0.934  -7.407 -28.265  1.00  0.00     0.008 A 
HETATM   27  C19 UNL     1       1.617  -7.808 -29.426  1.00  0.00     0.001 A 
HETATM   28  C20 UNL     1       2.882  -7.311 -29.658  1.00  0.00     0.001 A 
HETATM   29  C21 UNL     1       3.453  -6.429 -28.741  1.00  0.00     0.009 A 
ENDBRANCH  11  14
ENDBRANCH   9  10
ENDBRANCH   6   9
TORSDOF 3
ENDMDL
