MODEL 1
REMARK VINA RESULT: -5.059508786      0.000      0.000
REMARK  16 active torsions:
REMARK  status: ('A' for Active; 'I' for Inactive)
REMARK    1  A    between atoms: C2_2  and  C12_14 
REMARK    2  A    between atoms: C3_3  and  C4_4 
REMARK    3  A    between atoms: C4_4  and  C5_5 
REMARK    4  A    between atoms: C5_5  and  C7_7 
REMARK    5  A    between atoms: C7_7  and  O2_9 
REMARK    6  A    between atoms: O2_9  and  C8_10 
REMARK    7  A    between atoms: C18_20  and  O3_21 
REMARK    8  A    between atoms: C22_27  and  O4_28 
REMARK    9  A    between atoms: C23_30  and  C24_31 
REMARK   10  A    between atoms: C23_30  and  C29_38 
REMARK   11  A    between atoms: C24_31  and  C25_32 
REMARK   12  A    between atoms: C25_32  and  C26_33 
REMARK   13  A    between atoms: C26_33  and  O5_36 
REMARK   14  A    between atoms: C31_42  and  C32_43 
REMARK   15  A    between atoms: C32_43  and  C33_44 
REMARK   16  A    between atoms: C33_44  and  O6_45 
ROOT
HETATM    1  C12 UNL     1      -0.463  13.819   0.117  1.00  0.00     0.007 C 
HETATM    2  C13 UNL     1      -0.793  15.047  -0.746  1.00  0.00     0.025 C 
HETATM    3  C14 UNL     1      -0.812  14.242   1.519  1.00  0.00    -0.002 C 
HETATM    4  C15 UNL     1      -1.363  15.631   1.700  1.00  0.00     0.011 C 
HETATM    5  C16 UNL     1      -1.620  13.334   2.346  1.00  0.00     0.009 C 
HETATM    6  C17 UNL     1      -3.056  13.124   1.973  1.00  0.00     0.041 C 
HETATM    7  C18 UNL     1      -3.264  12.027   0.931  1.00  0.00     0.097 C 
HETATM    8  C19 UNL     1      -2.628  12.438  -0.361  1.00  0.00     0.093 C 
HETATM    9 CL1  UNL     1      -3.242  13.973  -0.995  1.00  0.00    -0.111 Cl
HETATM   10  C20 UNL     1      -2.923  11.484  -1.514  1.00  0.00     0.036 C 
HETATM   11  C21 UNL     1      -3.789  10.344  -1.137  1.00  0.00     0.035 C 
HETATM   12  C22 UNL     1      -4.972  10.969  -0.447  1.00  0.00     0.134 C 
HETATM   13  C23 UNL     1      -4.640  11.474   0.948  1.00  0.00     0.069 C 
HETATM   14  C31 UNL     1      -1.108  12.571  -0.348  1.00  0.00    -0.042 C 
ENDROOT
BRANCH   1  15
HETATM   15  C2  UNL     1       1.021  13.727   0.107  1.00  0.00    -0.074 C 
HETATM   16  C1  UNL     1       1.779  14.226  -1.140  1.00  0.00     0.044 C 
HETATM   17  C3  UNL     1       1.909  13.304   0.960  1.00  0.00    -0.022 C 
BRANCH  17  18
HETATM   18  C4  UNL     1       1.995  12.726   2.277  1.00  0.00     0.041 C 
BRANCH  18  19
HETATM   19  C5  UNL     1       1.927  11.216   2.229  1.00  0.00     0.085 C 
HETATM   20  C6  UNL     1       0.886  10.791   3.255  1.00  0.00     0.020 C 
BRANCH  19  21
HETATM   21  C7  UNL     1       3.143  10.469   2.410  1.00  0.00     0.263 C 
HETATM   22  O1  UNL     1       3.286   9.748   3.462  1.00  0.00    -0.265 OA
BRANCH  21  23
HETATM   23  O2  UNL     1       4.214  10.439   1.536  1.00  0.00    -0.311 OA
BRANCH  23  24
HETATM   24  C8  UNL     1       4.224   9.617   0.381  1.00  0.00     0.060 C 
HETATM   25  C9  UNL     1       3.078   8.679   0.272  1.00  0.00     0.045 C 
HETATM   26  C10 UNL     1       4.222  10.495  -0.865  1.00  0.00     0.045 C 
HETATM   27  C11 UNL     1       5.521   8.858   0.380  1.00  0.00     0.045 C 
ENDBRANCH  23  24
ENDBRANCH  21  23
ENDBRANCH  19  21
ENDBRANCH  18  19
ENDBRANCH  17  18
ENDBRANCH   1  15
BRANCH  14  28
HETATM   28  C32 UNL     1      -0.451  11.259  -0.435  1.00  0.00     0.005 C 
BRANCH  28  29
HETATM   29  C33 UNL     1       0.509  10.836  -1.455  1.00  0.00     0.191 C 
BRANCH  29  30
HETATM   30  O6  UNL     1       0.305  11.597  -2.671  1.00  0.00    -0.397 OA
ATOM     31  H6  UNL     1       1.133  11.952  -2.973  1.00  0.00     0.209 HD
ENDBRANCH  29  30
ENDBRANCH  28  29
ENDBRANCH  14  28
BRANCH   7  32
HETATM   32  O3  UNL     1      -2.425  11.048   1.463  1.00  0.00    -0.386 OA
ATOM     33  H3  UNL     1      -3.076  10.398   1.698  1.00  0.00     0.210 HD
ENDBRANCH   7  32
BRANCH  13  34
HETATM   34  C24 UNL     1      -4.842  10.329   1.924  1.00  0.00     0.023 C 
BRANCH  34  35
HETATM   35  C25 UNL     1      -4.365   8.993   1.729  1.00  0.00     0.038 C 
BRANCH  35  36
HETATM   36  C26 UNL     1      -3.879   8.544   3.150  1.00  0.00     0.051 C 
HETATM   37  C27 UNL     1      -4.943   8.924   4.131  1.00  0.00     0.045 C 
HETATM   38  C28 UNL     1      -3.632   7.071   3.170  1.00  0.00     0.045 C 
BRANCH  36  39
HETATM   39  O5  UNL     1      -2.717   9.237   3.464  1.00  0.00    -0.391 OA
ATOM     40  H5  UNL     1      -1.998   8.619   3.518  1.00  0.00     0.210 HD
ENDBRANCH  36  39
ENDBRANCH  35  36
ENDBRANCH  34  35
ENDBRANCH  13  34
BRANCH  13  41
HETATM   41  C29 UNL     1      -5.778  12.383   1.317  1.00  0.00     0.188 C 
HETATM   42  C30 UNL     1      -6.550  13.152   0.371  1.00  0.00     0.071 C 
HETATM   43  F1  UNL     1      -5.526  13.189   2.433  1.00  0.00    -0.225 F 
HETATM   44 CL2  UNL     1      -7.067  11.298   2.041  1.00  0.00    -0.082 Cl
ENDBRANCH  13  41
BRANCH  12  45
HETATM   45  O4  UNL     1      -6.008  10.092  -0.556  1.00  0.00    -0.395 OA
ATOM     46  H4  UNL     1      -6.561  10.399  -1.265  1.00  0.00     0.210 HD
ENDBRANCH  12  45
TORSDOF 16
ENDMDL
MODEL 2
REMARK VINA RESULT: -4.844552363      1.661      2.206
REMARK  16 active torsions:
REMARK  status: ('A' for Active; 'I' for Inactive)
REMARK    1  A    between atoms: C2_2  and  C12_14 
REMARK    2  A    between atoms: C3_3  and  C4_4 
REMARK    3  A    between atoms: C4_4  and  C5_5 
REMARK    4  A    between atoms: C5_5  and  C7_7 
REMARK    5  A    between atoms: C7_7  and  O2_9 
REMARK    6  A    between atoms: O2_9  and  C8_10 
REMARK    7  A    between atoms: C18_20  and  O3_21 
REMARK    8  A    between atoms: C22_27  and  O4_28 
REMARK    9  A    between atoms: C23_30  and  C24_31 
REMARK   10  A    between atoms: C23_30  and  C29_38 
REMARK   11  A    between atoms: C24_31  and  C25_32 
REMARK   12  A    between atoms: C25_32  and  C26_33 
REMARK   13  A    between atoms: C26_33  and  O5_36 
REMARK   14  A    between atoms: C31_42  and  C32_43 
REMARK   15  A    between atoms: C32_43  and  C33_44 
REMARK   16  A    between atoms: C33_44  and  O6_45 
ROOT
HETATM    1  C12 UNL     1       1.153  13.465  -0.417  1.00  0.00     0.007 C 
HETATM    2  C13 UNL     1       1.025  14.694  -1.329  1.00  0.00     0.025 C 
HETATM    3  C14 UNL     1       1.120  14.029   0.978  1.00  0.00    -0.002 C 
HETATM    4  C15 UNL     1       0.965  15.520   1.113  1.00  0.00     0.011 C 
HETATM    5  C16 UNL     1       0.232  13.401   1.969  1.00  0.00     0.009 C 
HETATM    6  C17 UNL     1      -1.247  13.553   1.792  1.00  0.00     0.041 C 
HETATM    7  C18 UNL     1      -1.867  12.499   0.876  1.00  0.00     0.097 C 
HETATM    8  C19 UNL     1      -1.333  12.670  -0.514  1.00  0.00     0.093 C 
HETATM    9 CL1  UNL     1      -1.626  14.281  -1.190  1.00  0.00    -0.111 Cl
HETATM   10  C20 UNL     1      -2.015  11.773  -1.541  1.00  0.00     0.036 C 
HETATM   11  C21 UNL     1      -3.078  10.915  -0.970  1.00  0.00     0.035 C 
HETATM   12  C22 UNL     1      -3.960  11.857  -0.194  1.00  0.00     0.134 C 
HETATM   13  C23 UNL     1      -3.321  12.324   1.105  1.00  0.00     0.069 C 
HETATM   14  C31 UNL     1       0.158  12.405  -0.698  1.00  0.00    -0.042 C 
ENDROOT
BRANCH   1  15
HETATM   15  C2  UNL     1       2.550  12.991  -0.601  1.00  0.00    -0.074 C 
HETATM   16  C1  UNL     1       3.253  13.281  -1.942  1.00  0.00     0.044 C 
HETATM   17  C3  UNL     1       3.396  12.348   0.153  1.00  0.00    -0.022 C 
BRANCH  17  18
HETATM   18  C4  UNL     1       3.490  11.763   1.465  1.00  0.00     0.041 C 
BRANCH  18  19
HETATM   19  C5  UNL     1       3.127  10.294   1.448  1.00  0.00     0.085 C 
HETATM   20  C6  UNL     1       2.531   9.974   2.812  1.00  0.00     0.020 C 
BRANCH  19  21
HETATM   21  C7  UNL     1       4.148   9.339   1.111  1.00  0.00     0.263 C 
HETATM   22  O1  UNL     1       4.362   9.059  -0.123  1.00  0.00    -0.265 OA
BRANCH  21  23
HETATM   23  O2  UNL     1       4.959   8.667   2.008  1.00  0.00    -0.311 OA
BRANCH  23  24
HETATM   24  C8  UNL     1       6.238   9.153   2.380  1.00  0.00     0.060 C 
HETATM   25  C9  UNL     1       6.795  10.197   1.483  1.00  0.00     0.045 C 
HETATM   26  C10 UNL     1       6.168   9.741   3.784  1.00  0.00     0.045 C 
HETATM   27  C11 UNL     1       7.166   7.973   2.445  1.00  0.00     0.045 C 
ENDBRANCH  23  24
ENDBRANCH  21  23
ENDBRANCH  19  21
ENDBRANCH  18  19
ENDBRANCH  17  18
ENDBRANCH   1  15
BRANCH  14  28
HETATM   28  C32 UNL     1       0.446  10.966  -0.758  1.00  0.00     0.005 C 
BRANCH  28  29
HETATM   29  C33 UNL     1       1.052  10.249  -1.880  1.00  0.00     0.191 C 
BRANCH  29  30
HETATM   30  O6  UNL     1       1.728   9.061  -1.401  1.00  0.00    -0.397 OA
ATOM     31  H6  UNL     1       2.307   8.724  -2.074  1.00  0.00     0.209 HD
ENDBRANCH  29  30
ENDBRANCH  28  29
ENDBRANCH  14  28
BRANCH   7  32
HETATM   32  O3  UNL     1      -1.235  11.363   1.378  1.00  0.00    -0.386 OA
ATOM     33  H3  UNL     1      -0.540  11.276   0.736  1.00  0.00     0.210 HD
ENDBRANCH   7  32
BRANCH  13  34
HETATM   34  C24 UNL     1      -3.666  11.317   2.187  1.00  0.00     0.023 C 
BRANCH  34  35
HETATM   35  C25 UNL     1      -3.055  10.030   2.334  1.00  0.00     0.038 C 
BRANCH  35  36
HETATM   36  C26 UNL     1      -4.256   9.061   2.613  1.00  0.00     0.051 C 
HETATM   37  C27 UNL     1      -3.683   7.741   3.023  1.00  0.00     0.045 C 
HETATM   38  C28 UNL     1      -5.134   9.621   3.684  1.00  0.00     0.045 C 
BRANCH  36  39
HETATM   39  O5  UNL     1      -4.973   8.888   1.436  1.00  0.00    -0.391 OA
ATOM     40  H5  UNL     1      -5.820   8.514   1.647  1.00  0.00     0.210 HD
ENDBRANCH  36  39
ENDBRANCH  35  36
ENDBRANCH  34  35
ENDBRANCH  13  34
BRANCH  13  41
HETATM   41  C29 UNL     1      -4.133  13.512   1.535  1.00  0.00     0.188 C 
HETATM   42  C30 UNL     1      -4.629  14.530   0.642  1.00  0.00     0.071 C 
HETATM   43  F1  UNL     1      -3.655  14.141   2.692  1.00  0.00    -0.225 F 
HETATM   44 CL2  UNL     1      -5.694  12.830   2.213  1.00  0.00    -0.082 Cl
ENDBRANCH  13  41
BRANCH  12  45
HETATM   45  O4  UNL     1      -5.187  11.275  -0.104  1.00  0.00    -0.395 OA
ATOM     46  H4  UNL     1      -5.764  11.901   0.317  1.00  0.00     0.210 HD
ENDBRANCH  12  45
TORSDOF 16
ENDMDL
MODEL 3
REMARK VINA RESULT: -4.697165730      2.599      4.744
REMARK  16 active torsions:
REMARK  status: ('A' for Active; 'I' for Inactive)
REMARK    1  A    between atoms: C2_2  and  C12_14 
REMARK    2  A    between atoms: C3_3  and  C4_4 
REMARK    3  A    between atoms: C4_4  and  C5_5 
REMARK    4  A    between atoms: C5_5  and  C7_7 
REMARK    5  A    between atoms: C7_7  and  O2_9 
REMARK    6  A    between atoms: O2_9  and  C8_10 
REMARK    7  A    between atoms: C18_20  and  O3_21 
REMARK    8  A    between atoms: C22_27  and  O4_28 
REMARK    9  A    between atoms: C23_30  and  C24_31 
REMARK   10  A    between atoms: C23_30  and  C29_38 
REMARK   11  A    between atoms: C24_31  and  C25_32 
REMARK   12  A    between atoms: C25_32  and  C26_33 
REMARK   13  A    between atoms: C26_33  and  O5_36 
REMARK   14  A    between atoms: C31_42  and  C32_43 
REMARK   15  A    between atoms: C32_43  and  C33_44 
REMARK   16  A    between atoms: C33_44  and  O6_45 
ROOT
HETATM    1  C12 UNL     1      -1.348  14.529  -0.148  1.00  0.00     0.007 C 
HETATM    2  C13 UNL     1      -1.866  15.257  -1.398  1.00  0.00     0.025 C 
HETATM    3  C14 UNL     1      -2.021  15.231   1.001  1.00  0.00    -0.002 C 
HETATM    4  C15 UNL     1      -2.962  16.357   0.661  1.00  0.00     0.011 C 
HETATM    5  C16 UNL     1      -2.664  14.417   2.042  1.00  0.00     0.009 C 
HETATM    6  C17 UNL     1      -3.904  13.656   1.684  1.00  0.00     0.041 C 
HETATM    7  C18 UNL     1      -3.626  12.284   1.073  1.00  0.00     0.097 C 
HETATM    8  C19 UNL     1      -2.932  12.454  -0.243  1.00  0.00     0.093 C 
HETATM    9 CL1  UNL     1      -3.842  13.437  -1.401  1.00  0.00    -0.111 Cl
HETATM   10  C20 UNL     1      -2.758  11.149  -1.013  1.00  0.00     0.036 C 
HETATM   11  C21 UNL     1      -3.319   9.969  -0.316  1.00  0.00     0.035 C 
HETATM   12  C22 UNL     1      -4.725  10.366   0.048  1.00  0.00     0.134 C 
HETATM   13  C23 UNL     1      -4.776  11.356   1.200  1.00  0.00     0.069 C 
HETATM   14  C31 UNL     1      -1.533  13.061  -0.191  1.00  0.00    -0.042 C 
ENDROOT
BRANCH   1  15
HETATM   15  C2  UNL     1       0.084  14.915  -0.042  1.00  0.00    -0.074 C 
HETATM   16  C1  UNL     1       0.886  15.129  -1.341  1.00  0.00     0.044 C 
HETATM   17  C3  UNL     1       0.890  15.144   0.956  1.00  0.00    -0.022 C 
BRANCH  17  18
HETATM   18  C4  UNL     1       0.897  15.155   2.396  1.00  0.00     0.041 C 
BRANCH  18  19
HETATM   19  C5  UNL     1       0.891  16.566   2.943  1.00  0.00     0.085 C 
HETATM   20  C6  UNL     1       2.347  16.965   3.141  1.00  0.00     0.020 C 
BRANCH  19  21
HETATM   21  C7  UNL     1       0.131  16.837   4.133  1.00  0.00     0.263 C 
HETATM   22  O1  UNL     1       0.736  17.265   5.181  1.00  0.00    -0.265 OA
BRANCH  21  23
HETATM   23  O2  UNL     1      -1.236  16.684   4.275  1.00  0.00    -0.311 OA
BRANCH  23  24
HETATM   24  C8  UNL     1      -2.120  17.792   4.313  1.00  0.00     0.060 C 
HETATM   25  C9  UNL     1      -2.116  18.552   5.589  1.00  0.00     0.045 C 
HETATM   26  C10 UNL     1      -1.761  18.765   3.195  1.00  0.00     0.045 C 
HETATM   27  C11 UNL     1      -3.500  17.276   4.018  1.00  0.00     0.045 C 
ENDBRANCH  23  24
ENDBRANCH  21  23
ENDBRANCH  19  21
ENDBRANCH  18  19
ENDBRANCH  17  18
ENDBRANCH   1  15
BRANCH  14  28
HETATM   28  C32 UNL     1      -0.529  12.067   0.217  1.00  0.00     0.005 C 
BRANCH  28  29
HETATM   29  C33 UNL     1       0.573  11.563  -0.602  1.00  0.00     0.191 C 
BRANCH  29  30
HETATM   30  O6  UNL     1       1.798  11.550   0.172  1.00  0.00    -0.397 OA
ATOM     31  H6  UNL     1       2.531  11.799  -0.379  1.00  0.00     0.209 HD
ENDBRANCH  29  30
ENDBRANCH  28  29
ENDBRANCH  14  28
BRANCH   7  32
HETATM   32  O3  UNL     1      -2.643  11.839   1.956  1.00  0.00    -0.386 OA
ATOM     33  H3  UNL     1      -2.387  11.040   1.511  1.00  0.00     0.210 HD
ENDBRANCH   7  32
BRANCH  13  34
HETATM   34  C24 UNL     1      -4.802  10.568   2.497  1.00  0.00     0.023 C 
BRANCH  34  35
HETATM   35  C25 UNL     1      -4.852  11.146   3.807  1.00  0.00     0.038 C 
BRANCH  35  36
HETATM   36  C26 UNL     1      -5.329   9.973   4.731  1.00  0.00     0.051 C 
HETATM   37  C27 UNL     1      -4.731   8.709   4.199  1.00  0.00     0.045 C 
HETATM   38  C28 UNL     1      -4.901  10.219   6.140  1.00  0.00     0.045 C 
BRANCH  36  39
HETATM   39  O5  UNL     1      -6.713   9.877   4.651  1.00  0.00    -0.391 OA
ATOM     40  H5  UNL     1      -6.964   8.969   4.777  1.00  0.00     0.210 HD
ENDBRANCH  36  39
ENDBRANCH  35  36
ENDBRANCH  34  35
ENDBRANCH  13  34
BRANCH  13  41
HETATM   41  C29 UNL     1      -6.167  11.922   1.169  1.00  0.00     0.188 C 
HETATM   42  C30 UNL     1      -6.498  13.293   1.473  1.00  0.00     0.071 C 
HETATM   43  F1  UNL     1      -7.132  11.098   1.760  1.00  0.00    -0.225 F 
HETATM   44 CL2  UNL     1      -6.719  11.793  -0.575  1.00  0.00    -0.082 Cl
ENDBRANCH  13  41
BRANCH  12  45
HETATM   45  O4  UNL     1      -5.442   9.217   0.189  1.00  0.00    -0.395 OA
ATOM     46  H4  UNL     1      -6.135   9.395   0.813  1.00  0.00     0.210 HD
ENDBRANCH  12  45
TORSDOF 16
ENDMDL
MODEL 4
REMARK VINA RESULT: -4.693995259      5.948     10.048
REMARK  16 active torsions:
REMARK  status: ('A' for Active; 'I' for Inactive)
REMARK    1  A    between atoms: C2_2  and  C12_14 
REMARK    2  A    between atoms: C3_3  and  C4_4 
REMARK    3  A    between atoms: C4_4  and  C5_5 
REMARK    4  A    between atoms: C5_5  and  C7_7 
REMARK    5  A    between atoms: C7_7  and  O2_9 
REMARK    6  A    between atoms: O2_9  and  C8_10 
REMARK    7  A    between atoms: C18_20  and  O3_21 
REMARK    8  A    between atoms: C22_27  and  O4_28 
REMARK    9  A    between atoms: C23_30  and  C24_31 
REMARK   10  A    between atoms: C23_30  and  C29_38 
REMARK   11  A    between atoms: C24_31  and  C25_32 
REMARK   12  A    between atoms: C25_32  and  C26_33 
REMARK   13  A    between atoms: C26_33  and  O5_36 
REMARK   14  A    between atoms: C31_42  and  C32_43 
REMARK   15  A    between atoms: C32_43  and  C33_44 
REMARK   16  A    between atoms: C33_44  and  O6_45 
ROOT
HETATM    1  C12 UNL     1       4.317  11.955   0.119  1.00  0.00     0.007 C 
HETATM    2  C13 UNL     1       4.820  13.294   0.679  1.00  0.00     0.025 C 
HETATM    3  C14 UNL     1       4.938  11.865  -1.250  1.00  0.00    -0.002 C 
HETATM    4  C15 UNL     1       5.829  13.001  -1.676  1.00  0.00     0.011 C 
HETATM    5  C16 UNL     1       5.602  10.612  -1.639  1.00  0.00     0.009 C 
HETATM    6  C17 UNL     1       6.882  10.246  -0.952  1.00  0.00     0.041 C 
HETATM    7  C18 UNL     1       6.680   9.489   0.359  1.00  0.00     0.097 C 
HETATM    8  C19 UNL     1       6.000  10.383   1.351  1.00  0.00     0.093 C 
HETATM    9 CL1  UNL     1       6.881  11.885   1.671  1.00  0.00    -0.111 Cl
HETATM   10  C20 UNL     1       5.902   9.777   2.747  1.00  0.00     0.036 C 
HETATM   11  C21 UNL     1       6.506   8.430   2.855  1.00  0.00     0.035 C 
HETATM   12  C22 UNL     1       7.886   8.577   2.270  1.00  0.00     0.134 C 
HETATM   13  C23 UNL     1       7.871   8.699   0.755  1.00  0.00     0.069 C 
HETATM   14  C31 UNL     1       4.573  10.801   1.009  1.00  0.00    -0.042 C 
ENDROOT
BRANCH   1  15
HETATM   15  C2  UNL     1       2.867  12.162  -0.136  1.00  0.00    -0.074 C 
HETATM   16  C1  UNL     1       2.144  13.295   0.619  1.00  0.00     0.044 C 
HETATM   17  C3  UNL     1       1.990  11.584  -0.905  1.00  0.00    -0.022 C 
BRANCH  17  18
HETATM   18  C4  UNL     1       1.889  10.512  -1.862  1.00  0.00     0.041 C 
BRANCH  18  19
HETATM   19  C5  UNL     1       2.297  10.961  -3.248  1.00  0.00     0.085 C 
HETATM   20  C6  UNL     1       1.183  11.861  -3.763  1.00  0.00     0.020 C 
BRANCH  19  21
HETATM   21  C7  UNL     1       2.623   9.958  -4.225  1.00  0.00     0.263 C 
HETATM   22  O1  UNL     1       1.689   9.465  -4.955  1.00  0.00    -0.265 OA
BRANCH  21  23
HETATM   23  O2  UNL     1       3.884   9.449  -4.476  1.00  0.00    -0.311 OA
BRANCH  23  24
HETATM   24  C8  UNL     1       4.653   9.855  -5.597  1.00  0.00     0.060 C 
HETATM   25  C9  UNL     1       4.154  11.070  -6.289  1.00  0.00     0.045 C 
HETATM   26  C10 UNL     1       6.085  10.130  -5.155  1.00  0.00     0.045 C 
HETATM   27  C11 UNL     1       4.703   8.695  -6.551  1.00  0.00     0.045 C 
ENDBRANCH  23  24
ENDBRANCH  21  23
ENDBRANCH  19  21
ENDBRANCH  18  19
ENDBRANCH  17  18
ENDBRANCH   1  15
BRANCH  14  28
HETATM   28  C32 UNL     1       3.612   9.729   1.305  1.00  0.00     0.005 C 
BRANCH  28  29
HETATM   29  C33 UNL     1       2.574   9.756   2.336  1.00  0.00     0.191 C 
BRANCH  29  30
HETATM   30  O6  UNL     1       2.727  10.938   3.160  1.00  0.00    -0.397 OA
ATOM     31  H6  UNL     1       2.709  10.697   4.079  1.00  0.00     0.209 HD
ENDBRANCH  29  30
ENDBRANCH  28  29
ENDBRANCH  14  28
BRANCH   7  32
HETATM   32  O3  UNL     1       5.706   8.581  -0.052  1.00  0.00    -0.386 OA
ATOM     33  H3  UNL     1       5.760   8.711  -0.991  1.00  0.00     0.210 HD
ENDBRANCH   7  32
BRANCH  13  34
HETATM   34  C24 UNL     1       7.914   7.299   0.169  1.00  0.00     0.023 C 
BRANCH  34  35
HETATM   35  C25 UNL     1       8.225   6.990  -1.194  1.00  0.00     0.038 C 
BRANCH  35  36
HETATM   36  C26 UNL     1       8.218   5.423  -1.248  1.00  0.00     0.051 C 
HETATM   37  C27 UNL     1       9.621   4.976  -1.508  1.00  0.00     0.045 C 
HETATM   38  C28 UNL     1       7.706   4.865   0.039  1.00  0.00     0.045 C 
BRANCH  36  39
HETATM   39  O5  UNL     1       7.418   5.016  -2.308  1.00  0.00    -0.391 OA
ATOM     40  H5  UNL     1       7.298   5.751  -2.899  1.00  0.00     0.210 HD
ENDBRANCH  36  39
ENDBRANCH  35  36
ENDBRANCH  34  35
ENDBRANCH  13  34
BRANCH  13  41
HETATM   41  C29 UNL     1       9.234   9.216   0.390  1.00  0.00     0.188 C 
HETATM   42  C30 UNL     1       9.507  10.080  -0.732  1.00  0.00     0.071 C 
HETATM   43  F1  UNL     1      10.246   8.250   0.455  1.00  0.00    -0.225 F 
HETATM   44 CL2  UNL     1       9.761  10.268   1.796  1.00  0.00    -0.082 Cl
ENDBRANCH  13  41
BRANCH  12  45
HETATM   45  O4  UNL     1       8.654   7.587   2.803  1.00  0.00    -0.395 OA
ATOM     46  H4  UNL     1       9.473   7.581   2.322  1.00  0.00     0.210 HD
ENDBRANCH  12  45
TORSDOF 16
ENDMDL
MODEL 5
REMARK VINA RESULT: -4.599958193      6.450     10.729
REMARK  16 active torsions:
REMARK  status: ('A' for Active; 'I' for Inactive)
REMARK    1  A    between atoms: C2_2  and  C12_14 
REMARK    2  A    between atoms: C3_3  and  C4_4 
REMARK    3  A    between atoms: C4_4  and  C5_5 
REMARK    4  A    between atoms: C5_5  and  C7_7 
REMARK    5  A    between atoms: C7_7  and  O2_9 
REMARK    6  A    between atoms: O2_9  and  C8_10 
REMARK    7  A    between atoms: C18_20  and  O3_21 
REMARK    8  A    between atoms: C22_27  and  O4_28 
REMARK    9  A    between atoms: C23_30  and  C24_31 
REMARK   10  A    between atoms: C23_30  and  C29_38 
REMARK   11  A    between atoms: C24_31  and  C25_32 
REMARK   12  A    between atoms: C25_32  and  C26_33 
REMARK   13  A    between atoms: C26_33  and  O5_36 
REMARK   14  A    between atoms: C31_42  and  C32_43 
REMARK   15  A    between atoms: C32_43  and  C33_44 
REMARK   16  A    between atoms: C33_44  and  O6_45 
ROOT
HETATM    1  C12 UNL     1       5.741  11.597   0.793  1.00  0.00     0.007 C 
HETATM    2  C13 UNL     1       6.042  12.243   2.154  1.00  0.00     0.025 C 
HETATM    3  C14 UNL     1       6.809  12.137  -0.121  1.00  0.00    -0.002 C 
HETATM    4  C15 UNL     1       7.821  13.074   0.483  1.00  0.00     0.011 C 
HETATM    5  C16 UNL     1       7.538  11.194  -0.983  1.00  0.00     0.009 C 
HETATM    6  C17 UNL     1       8.478  10.224  -0.335  1.00  0.00     0.041 C 
HETATM    7  C18 UNL     1       7.801   8.941   0.143  1.00  0.00     0.097 C 
HETATM    8  C19 UNL     1       6.832   9.266   1.238  1.00  0.00     0.093 C 
HETATM    9 CL1  UNL     1       7.576  10.087   2.620  1.00  0.00    -0.111 Cl
HETATM   10  C20 UNL     1       6.225   8.033   1.899  1.00  0.00     0.036 C 
HETATM   11  C21 UNL     1       6.718   6.754   1.338  1.00  0.00     0.035 C 
HETATM   12  C22 UNL     1       8.218   6.874   1.364  1.00  0.00     0.134 C 
HETATM   13  C23 UNL     1       8.751   7.812   0.293  1.00  0.00     0.069 C 
HETATM   14  C31 UNL     1       5.633  10.122   0.841  1.00  0.00    -0.042 C 
ENDROOT
BRANCH   1  15
HETATM   15  C2  UNL     1       4.484  12.242   0.328  1.00  0.00    -0.074 C 
HETATM   16  C1  UNL     1       3.569  12.906   1.377  1.00  0.00     0.044 C 
HETATM   17  C3  UNL     1       3.925  12.404  -0.836  1.00  0.00    -0.022 C 
BRANCH  17  18
HETATM   18  C4  UNL     1       4.145  12.092  -2.225  1.00  0.00     0.041 C 
BRANCH  18  19
HETATM   19  C5  UNL     1       2.883  11.587  -2.890  1.00  0.00     0.085 C 
HETATM   20  C6  UNL     1       1.731  11.914  -1.950  1.00  0.00     0.020 C 
BRANCH  19  21
HETATM   21  C7  UNL     1       2.826  10.207  -3.292  1.00  0.00     0.263 C 
HETATM   22  O1  UNL     1       1.855   9.474  -2.883  1.00  0.00    -0.265 OA
BRANCH  21  23
HETATM   23  O2  UNL     1       3.737   9.561  -4.107  1.00  0.00    -0.311 OA
BRANCH  23  24
HETATM   24  C8  UNL     1       3.818   9.814  -5.499  1.00  0.00     0.060 C 
HETATM   25  C9  UNL     1       2.610  10.445  -6.091  1.00  0.00     0.045 C 
HETATM   26  C10 UNL     1       5.002  10.732  -5.779  1.00  0.00     0.045 C 
HETATM   27  C11 UNL     1       4.108   8.505  -6.178  1.00  0.00     0.045 C 
ENDBRANCH  23  24
ENDBRANCH  21  23
ENDBRANCH  19  21
ENDBRANCH  18  19
ENDBRANCH  17  18
ENDBRANCH   1  15
BRANCH  14  28
HETATM   28  C32 UNL     1       4.604   9.325   0.159  1.00  0.00     0.005 C 
BRANCH  28  29
HETATM   29  C33 UNL     1       3.241   9.081   0.632  1.00  0.00     0.191 C 
BRANCH  29  30
HETATM   30  O6  UNL     1       2.501   8.326  -0.359  1.00  0.00    -0.397 OA
ATOM     31  H6  UNL     1       2.081   7.579   0.050  1.00  0.00     0.209 HD
ENDBRANCH  29  30
ENDBRANCH  28  29
ENDBRANCH  14  28
BRANCH   7  32
HETATM   32  O3  UNL     1       7.017   8.668  -0.977  1.00  0.00    -0.386 OA
ATOM     33  H3  UNL     1       7.280   7.769  -1.134  1.00  0.00     0.210 HD
ENDBRANCH   7  32
BRANCH  13  34
HETATM   34  C24 UNL     1       8.968   7.005  -0.974  1.00  0.00     0.023 C 
BRANCH  34  35
HETATM   35  C25 UNL     1       9.631   7.486  -2.149  1.00  0.00     0.038 C 
BRANCH  35  36
HETATM   36  C26 UNL     1       8.879   6.786  -3.333  1.00  0.00     0.051 C 
HETATM   37  C27 UNL     1       8.481   7.851  -4.306  1.00  0.00     0.045 C 
HETATM   38  C28 UNL     1       9.765   5.772  -3.980  1.00  0.00     0.045 C 
BRANCH  36  39
HETATM   39  O5  UNL     1       7.729   6.184  -2.838  1.00  0.00    -0.391 OA
ATOM     40  H5  UNL     1       7.860   5.243  -2.821  1.00  0.00     0.210 HD
ENDBRANCH  36  39
ENDBRANCH  35  36
ENDBRANCH  34  35
ENDBRANCH  13  34
BRANCH  13  41
HETATM   41  C29 UNL     1      10.166   8.109   0.701  1.00  0.00     0.188 C 
HETATM   42  C30 UNL     1      10.844   9.358   0.448  1.00  0.00     0.071 C 
HETATM   43  F1  UNL     1      11.064   7.065   0.448  1.00  0.00    -0.225 F 
HETATM   44 CL2  UNL     1      10.179   8.052   2.534  1.00  0.00    -0.082 Cl
ENDBRANCH  13  41
BRANCH  12  45
HETATM   45  O4  UNL     1       8.721   5.609   1.382  1.00  0.00    -0.395 OA
ATOM     46  H4  UNL     1       8.845   5.345   0.478  1.00  0.00     0.210 HD
ENDBRANCH  12  45
TORSDOF 16
ENDMDL
