MODEL 1
REMARK VINA RESULT: -8.841363438      0.000      0.000
REMARK  3 active torsions:
REMARK  status: ('A' for Active; 'I' for Inactive)
REMARK       I    between atoms: C1_2  and  N1_3 
REMARK       I    between atoms: C1_2  and  N3_15 
REMARK    1  A    between atoms: N1_3  and  C2_5 
REMARK    2  A    between atoms: C9_18  and  C10_19 
REMARK    3  A    between atoms: C17_26  and  C18_27 
ROOT
HETATM    1  O1  UNL     1      -0.268  -8.934 -26.087  1.00  0.00    -0.245 OA
HETATM    2  C1  UNL     1       0.675  -8.177 -25.775  1.00  0.00     0.343 C 
HETATM    3  N1  UNL     1       1.183  -8.243 -24.454  1.00  0.00    -0.287 N 
ATOM      4  H1  UNL     1       0.721  -7.772 -23.676  1.00  0.00     0.172 HD
HETATM    5  N3  UNL     1       1.181  -7.296 -26.764  1.00  0.00    -0.233 N 
HETATM    6  N4  UNL     1       0.815  -7.110 -28.094  1.00  0.00    -0.297 N 
ATOM      7  H4  UNL     1      -0.123  -7.257 -28.467  1.00  0.00     0.187 HD
HETATM    8  C9  UNL     1       1.841  -6.719 -28.793  1.00  0.00     0.038 C 
HETATM    9  C16 UNL     1       3.012  -6.620 -27.874  1.00  0.00     0.091 C 
HETATM   10  C17 UNL     1       2.280  -6.334 -26.573  1.00  0.00     0.151 C 
ENDROOT
BRANCH  10  11
HETATM   11  C18 UNL     1       1.708  -4.995 -26.524  1.00  0.00    -0.033 A 
HETATM   12  C19 UNL     1       0.423  -4.713 -26.085  1.00  0.00     0.009 A 
HETATM   13  C20 UNL     1      -0.100  -3.429 -26.043  1.00  0.00     0.001 A 
HETATM   14  C21 UNL     1       0.694  -2.380 -26.457  1.00  0.00     0.000 A 
HETATM   15  C22 UNL     1       1.966  -2.611 -26.897  1.00  0.00     0.001 A 
HETATM   16  C23 UNL     1       2.466  -3.919 -26.928  1.00  0.00     0.009 A 
ENDBRANCH  10  11
BRANCH   3  17
HETATM   17  C2  UNL     1       2.288  -8.944 -24.286  1.00  0.00     0.153 A 
HETATM   18  N2  UNL     1       2.444 -10.255 -24.468  1.00  0.00    -0.335 N 
HETATM   19  C3  UNL     1       3.634 -10.778 -24.246  1.00  0.00     0.051 A 
ATOM     20  H2  UNL     1       1.664 -10.838 -24.770  1.00  0.00     0.168 HD
HETATM   21  C4  UNL     1       3.987 -12.134 -24.384  1.00  0.00     0.031 A 
HETATM   22  C8  UNL     1       4.631  -9.940 -23.843  1.00  0.00     0.035 A 
HETATM   23  C5  UNL     1       5.242 -12.568 -24.131  1.00  0.00     0.002 A 
HETATM   24  C6  UNL     1       6.264 -11.745 -23.725  1.00  0.00     0.002 A 
HETATM   25  C7  UNL     1       5.934 -10.404 -23.583  1.00  0.00     0.021 A 
HETATM   26  S1  UNL     1       3.837  -8.430 -23.794  1.00  0.00    -0.052 SA
ENDBRANCH   3  17
BRANCH   8  27
HETATM   27  C10 UNL     1       1.913  -6.410 -30.212  1.00  0.00    -0.012 A 
HETATM   28  C11 UNL     1       0.899  -6.715 -31.093  1.00  0.00     0.013 A 
HETATM   29  C12 UNL     1       0.964  -6.423 -32.441  1.00  0.00     0.001 A 
HETATM   30  C13 UNL     1       2.067  -5.803 -32.962  1.00  0.00     0.000 A 
HETATM   31  C14 UNL     1       3.100  -5.485 -32.106  1.00  0.00     0.001 A 
HETATM   32  C15 UNL     1       3.027  -5.779 -30.764  1.00  0.00     0.013 A 
ENDBRANCH   8  27
TORSDOF 3
ENDMDL
MODEL 2
REMARK VINA RESULT: -8.822997593      0.714      1.125
REMARK  3 active torsions:
REMARK  status: ('A' for Active; 'I' for Inactive)
REMARK       I    between atoms: C1_2  and  N1_3 
REMARK       I    between atoms: C1_2  and  N3_15 
REMARK    1  A    between atoms: N1_3  and  C2_5 
REMARK    2  A    between atoms: C9_18  and  C10_19 
REMARK    3  A    between atoms: C17_26  and  C18_27 
ROOT
HETATM    1  O1  UNL     1      -0.426  -8.909 -26.180  1.00  0.00    -0.245 OA
HETATM    2  C1  UNL     1       0.550  -8.203 -25.851  1.00  0.00     0.343 C 
HETATM    3  N1  UNL     1       1.048  -8.314 -24.529  1.00  0.00    -0.287 N 
ATOM      4  H1  UNL     1       0.604  -7.835 -23.745  1.00  0.00     0.172 HD
HETATM    5  N3  UNL     1       1.103  -7.331 -26.823  1.00  0.00    -0.233 N 
HETATM    6  N4  UNL     1       0.753  -7.106 -28.151  1.00  0.00    -0.297 N 
ATOM      7  H4  UNL     1      -0.188  -7.203 -28.531  1.00  0.00     0.187 HD
HETATM    8  C9  UNL     1       1.801  -6.754 -28.839  1.00  0.00     0.038 C 
HETATM    9  C16 UNL     1       2.971  -6.726 -27.914  1.00  0.00     0.091 C 
HETATM   10  C17 UNL     1       2.246  -6.426 -26.612  1.00  0.00     0.151 C 
ENDROOT
BRANCH  10  11
HETATM   11  C18 UNL     1       1.739  -5.062 -26.543  1.00  0.00    -0.033 A 
HETATM   12  C19 UNL     1       0.473  -4.724 -26.088  1.00  0.00     0.009 A 
HETATM   13  C20 UNL     1       0.011  -3.417 -26.027  1.00  0.00     0.001 A 
HETATM   14  C21 UNL     1       0.849  -2.403 -26.440  1.00  0.00     0.000 A 
HETATM   15  C22 UNL     1       2.105  -2.689 -26.895  1.00  0.00     0.001 A 
HETATM   16  C23 UNL     1       2.542  -4.019 -26.945  1.00  0.00     0.009 A 
ENDBRANCH  10  11
BRANCH   3  17
HETATM   17  C2  UNL     1       2.117  -9.070 -24.367  1.00  0.00     0.153 A 
HETATM   18  N2  UNL     1       3.379  -8.663 -24.237  1.00  0.00    -0.335 N 
HETATM   19  C3  UNL     1       4.317  -9.578 -24.084  1.00  0.00     0.051 A 
ATOM     20  H2  UNL     1       3.613  -7.670 -24.254  1.00  0.00     0.168 HD
HETATM   21  C4  UNL     1       5.697  -9.339 -23.932  1.00  0.00     0.031 A 
HETATM   22  C8  UNL     1       3.932 -10.885 -24.070  1.00  0.00     0.035 A 
HETATM   23  C5  UNL     1       6.578 -10.352 -23.781  1.00  0.00     0.002 A 
HETATM   24  C6  UNL     1       6.216 -11.677 -23.763  1.00  0.00     0.002 A 
HETATM   25  C7  UNL     1       4.860 -11.932 -23.911  1.00  0.00     0.021 A 
HETATM   26  S1  UNL     1       2.242 -10.768 -24.275  1.00  0.00    -0.052 SA
ENDBRANCH   3  17
BRANCH   8  27
HETATM   27  C10 UNL     1       1.894  -6.426 -30.253  1.00  0.00    -0.012 A 
HETATM   28  C11 UNL     1       0.892  -6.714 -31.153  1.00  0.00     0.013 A 
HETATM   29  C12 UNL     1       0.979  -6.403 -32.496  1.00  0.00     0.001 A 
HETATM   30  C13 UNL     1       2.092  -5.782 -32.991  1.00  0.00     0.000 A 
HETATM   31  C14 UNL     1       3.113  -5.480 -32.117  1.00  0.00     0.001 A 
HETATM   32  C15 UNL     1       3.019  -5.793 -30.780  1.00  0.00     0.013 A 
ENDBRANCH   8  27
TORSDOF 3
ENDMDL
MODEL 3
REMARK VINA RESULT: -8.533215623      4.239      7.170
REMARK  3 active torsions:
REMARK  status: ('A' for Active; 'I' for Inactive)
REMARK       I    between atoms: C1_2  and  N1_3 
REMARK       I    between atoms: C1_2  and  N3_15 
REMARK    1  A    between atoms: N1_3  and  C2_5 
REMARK    2  A    between atoms: C9_18  and  C10_19 
REMARK    3  A    between atoms: C17_26  and  C18_27 
ROOT
HETATM    1  O1  UNL     1       5.049  -5.050 -24.884  1.00  0.00    -0.245 OA
HETATM    2  C1  UNL     1       4.861  -5.846 -23.940  1.00  0.00     0.343 C 
HETATM    3  N1  UNL     1       5.454  -5.557 -22.686  1.00  0.00    -0.287 N 
ATOM      4  H1  UNL     1       6.434  -5.765 -22.494  1.00  0.00     0.172 HD
HETATM    5  N3  UNL     1       4.062  -6.992 -24.181  1.00  0.00    -0.233 N 
HETATM    6  N4  UNL     1       3.402  -7.420 -25.329  1.00  0.00    -0.297 N 
ATOM      7  H4  UNL     1       3.705  -7.226 -26.283  1.00  0.00     0.187 HD
HETATM    8  C9  UNL     1       2.342  -8.105 -25.010  1.00  0.00     0.038 C 
HETATM    9  C16 UNL     1       2.262  -8.162 -23.521  1.00  0.00     0.091 C 
HETATM   10  C17 UNL     1       3.740  -8.035 -23.192  1.00  0.00     0.151 C 
ENDROOT
BRANCH  10  11
HETATM   11  C18 UNL     1       4.503  -9.231 -23.527  1.00  0.00    -0.033 A 
HETATM   12  C19 UNL     1       5.849  -9.227 -23.861  1.00  0.00     0.009 A 
HETATM   13  C20 UNL     1       6.558 -10.378 -24.174  1.00  0.00     0.001 A 
HETATM   14  C21 UNL     1       5.893 -11.586 -24.153  1.00  0.00     0.000 A 
HETATM   15  C22 UNL     1       4.568 -11.638 -23.829  1.00  0.00     0.001 A 
HETATM   16  C23 UNL     1       3.880 -10.458 -23.518  1.00  0.00     0.009 A 
ENDBRANCH  10  11
BRANCH   3  17
HETATM   17  C2  UNL     1       4.670  -5.004 -21.781  1.00  0.00     0.153 A 
HETATM   18  N2  UNL     1       4.037  -5.618 -20.781  1.00  0.00    -0.335 N 
HETATM   19  C3  UNL     1       3.292  -4.888 -19.974  1.00  0.00     0.051 A 
ATOM     20  H2  UNL     1       4.127  -6.624 -20.644  1.00  0.00     0.168 HD
HETATM   21  C4  UNL     1       2.554  -5.358 -18.870  1.00  0.00     0.031 A 
HETATM   22  C8  UNL     1       3.218  -3.549 -20.215  1.00  0.00     0.035 A 
HETATM   23  C5  UNL     1       1.820  -4.523 -18.102  1.00  0.00     0.002 A 
HETATM   24  C6  UNL     1       1.728  -3.170 -18.324  1.00  0.00     0.002 A 
HETATM   25  C7  UNL     1       2.449  -2.689 -19.408  1.00  0.00     0.021 A 
HETATM   26  S1  UNL     1       4.215  -3.372 -21.589  1.00  0.00    -0.052 SA
ENDBRANCH   3  17
BRANCH   8  27
HETATM   27  C10 UNL     1       1.366  -8.735 -25.885  1.00  0.00    -0.012 A 
HETATM   28  C11 UNL     1       1.049  -8.236 -27.130  1.00  0.00     0.013 A 
HETATM   29  C12 UNL     1       0.124  -8.833 -27.963  1.00  0.00     0.001 A 
HETATM   30  C13 UNL     1      -0.527  -9.970 -27.571  1.00  0.00     0.000 A 
HETATM   31  C14 UNL     1      -0.233 -10.494 -26.331  1.00  0.00     0.001 A 
HETATM   32  C15 UNL     1       0.691  -9.894 -25.507  1.00  0.00     0.013 A 
ENDBRANCH   8  27
TORSDOF 3
ENDMDL
MODEL 4
REMARK VINA RESULT: -8.426151616      4.282      7.116
REMARK  3 active torsions:
REMARK  status: ('A' for Active; 'I' for Inactive)
REMARK       I    between atoms: C1_2  and  N1_3 
REMARK       I    between atoms: C1_2  and  N3_15 
REMARK    1  A    between atoms: N1_3  and  C2_5 
REMARK    2  A    between atoms: C9_18  and  C10_19 
REMARK    3  A    between atoms: C17_26  and  C18_27 
ROOT
HETATM    1  O1  UNL     1       5.117  -4.942 -24.869  1.00  0.00    -0.245 OA
HETATM    2  C1  UNL     1       4.914  -5.730 -23.922  1.00  0.00     0.343 C 
HETATM    3  N1  UNL     1       5.488  -5.431 -22.661  1.00  0.00    -0.287 N 
ATOM      4  H1  UNL     1       6.465  -5.638 -22.452  1.00  0.00     0.172 HD
HETATM    5  N3  UNL     1       4.118  -6.878 -24.165  1.00  0.00    -0.233 N 
HETATM    6  N4  UNL     1       3.476  -7.315 -25.319  1.00  0.00    -0.297 N 
ATOM      7  H4  UNL     1       3.794  -7.130 -26.270  1.00  0.00     0.187 HD
HETATM    8  C9  UNL     1       2.410  -7.996 -25.010  1.00  0.00     0.038 C 
HETATM    9  C16 UNL     1       2.308  -8.042 -23.523  1.00  0.00     0.091 C 
HETATM   10  C17 UNL     1       3.780  -7.912 -23.172  1.00  0.00     0.151 C 
ENDROOT
BRANCH  10  11
HETATM   11  C18 UNL     1       4.548  -9.111 -23.486  1.00  0.00    -0.033 A 
HETATM   12  C19 UNL     1       4.002 -10.384 -23.571  1.00  0.00     0.009 A 
HETATM   13  C20 UNL     1       4.750 -11.512 -23.875  1.00  0.00     0.001 A 
HETATM   14  C21 UNL     1       6.103 -11.363 -24.103  1.00  0.00     0.000 A 
HETATM   15  C22 UNL     1       6.682 -10.129 -24.031  1.00  0.00     0.001 A 
HETATM   16  C23 UNL     1       5.900  -9.009 -23.721  1.00  0.00     0.009 A 
ENDBRANCH  10  11
BRANCH   3  17
HETATM   17  C2  UNL     1       4.690  -4.870 -21.773  1.00  0.00     0.153 A 
HETATM   18  N2  UNL     1       4.059  -5.471 -20.765  1.00  0.00    -0.335 N 
HETATM   19  C3  UNL     1       3.299  -4.735 -19.978  1.00  0.00     0.051 A 
ATOM     20  H2  UNL     1       4.160  -6.473 -20.607  1.00  0.00     0.168 HD
HETATM   21  C4  UNL     1       2.558  -5.192 -18.870  1.00  0.00     0.031 A 
HETATM   22  C8  UNL     1       3.208  -3.402 -20.247  1.00  0.00     0.035 A 
HETATM   23  C5  UNL     1       1.808  -4.351 -18.125  1.00  0.00     0.002 A 
HETATM   24  C6  UNL     1       1.700  -3.004 -18.375  1.00  0.00     0.002 A 
HETATM   25  C7  UNL     1       2.423  -2.536 -19.463  1.00  0.00     0.021 A 
HETATM   26  S1  UNL     1       4.213  -3.240 -21.618  1.00  0.00    -0.052 SA
ENDBRANCH   3  17
BRANCH   8  27
HETATM   27  C10 UNL     1       1.448  -8.634 -25.896  1.00  0.00    -0.012 A 
HETATM   28  C11 UNL     1       0.740  -9.761 -25.540  1.00  0.00     0.013 A 
HETATM   29  C12 UNL     1      -0.173 -10.368 -26.378  1.00  0.00     0.001 A 
HETATM   30  C13 UNL     1      -0.414  -9.858 -27.624  1.00  0.00     0.000 A 
HETATM   31  C14 UNL     1       0.278  -8.730 -28.011  1.00  0.00     0.001 A 
HETATM   32  C15 UNL     1       1.187  -8.131 -27.169  1.00  0.00     0.013 A 
ENDBRANCH   8  27
TORSDOF 3
ENDMDL
MODEL 5
REMARK VINA RESULT: -8.289817956      2.198      7.990
REMARK  3 active torsions:
REMARK  status: ('A' for Active; 'I' for Inactive)
REMARK       I    between atoms: C1_2  and  N1_3 
REMARK       I    between atoms: C1_2  and  N3_15 
REMARK    1  A    between atoms: N1_3  and  C2_5 
REMARK    2  A    between atoms: C9_18  and  C10_19 
REMARK    3  A    between atoms: C17_26  and  C18_27 
ROOT
HETATM    1  O1  UNL     1       1.036  -6.287 -24.207  1.00  0.00    -0.245 OA
HETATM    2  C1  UNL     1       1.156  -7.253 -24.990  1.00  0.00     0.343 C 
HETATM    3  N1  UNL     1       0.372  -7.266 -26.170  1.00  0.00    -0.287 N 
ATOM      4  H1  UNL     1      -0.605  -7.560 -26.164  1.00  0.00     0.172 HD
HETATM    5  N3  UNL     1       2.071  -8.280 -24.649  1.00  0.00    -0.233 N 
HETATM    6  N4  UNL     1       2.917  -8.423 -23.553  1.00  0.00    -0.297 N 
ATOM      7  H4  UNL     1       2.735  -8.048 -22.622  1.00  0.00     0.187 HD
HETATM    8  C9  UNL     1       3.976  -9.104 -23.887  1.00  0.00     0.038 C 
HETATM    9  C16 UNL     1       3.852  -9.470 -25.328  1.00  0.00     0.091 C 
HETATM   10  C17 UNL     1       2.337  -9.491 -25.446  1.00  0.00     0.151 C 
ENDROOT
BRANCH  10  11
HETATM   11  C18 UNL     1       1.729 -10.626 -24.764  1.00  0.00    -0.033 A 
HETATM   12  C19 UNL     1       2.447 -11.631 -24.133  1.00  0.00     0.009 A 
HETATM   13  C20 UNL     1       1.848 -12.701 -23.486  1.00  0.00     0.001 A 
HETATM   14  C21 UNL     1       0.470 -12.774 -23.469  1.00  0.00     0.000 A 
HETATM   15  C22 UNL     1      -0.277 -11.806 -24.077  1.00  0.00     0.001 A 
HETATM   16  C23 UNL     1       0.358 -10.738 -24.723  1.00  0.00     0.009 A 
ENDBRANCH  10  11
BRANCH   3  17
HETATM   17  C2  UNL     1       0.975  -6.876 -27.277  1.00  0.00     0.153 A 
HETATM   18  N2  UNL     1       0.630  -7.176 -28.529  1.00  0.00    -0.335 N 
HETATM   19  C3  UNL     1       1.363  -6.688 -29.511  1.00  0.00     0.051 A 
ATOM     20  H2  UNL     1      -0.179  -7.766 -28.723  1.00  0.00     0.168 HD
HETATM   21  C4  UNL     1       1.154  -6.896 -30.889  1.00  0.00     0.031 A 
HETATM   22  C8  UNL     1       2.429  -5.908 -29.180  1.00  0.00     0.035 A 
HETATM   23  C5  UNL     1       1.967  -6.347 -31.818  1.00  0.00     0.002 A 
HETATM   24  C6  UNL     1       3.048  -5.556 -31.511  1.00  0.00     0.002 A 
HETATM   25  C7  UNL     1       3.270  -5.341 -30.158  1.00  0.00     0.021 A 
HETATM   26  S1  UNL     1       2.353  -5.893 -27.475  1.00  0.00    -0.052 SA
ENDBRANCH   3  17
BRANCH   8  27
HETATM   27  C10 UNL     1       5.112  -9.485 -23.062  1.00  0.00    -0.012 A 
HETATM   28  C11 UNL     1       5.326  -8.968 -21.803  1.00  0.00     0.013 A 
HETATM   29  C12 UNL     1       6.403  -9.327 -21.019  1.00  0.00     0.001 A 
HETATM   30  C13 UNL     1       7.319 -10.234 -21.476  1.00  0.00     0.000 A 
HETATM   31  C14 UNL     1       7.134 -10.770 -22.732  1.00  0.00     0.001 A 
HETATM   32  C15 UNL     1       6.057 -10.407 -23.508  1.00  0.00     0.013 A 
ENDBRANCH   8  27
TORSDOF 3
ENDMDL
