MODEL 1
REMARK VINA RESULT: -6.979449874      0.000      0.000
REMARK  2 active torsions:
REMARK  status: ('A' for Active; 'I' for Inactive)
REMARK    1  A    between atoms: O1_2  and  C2_3 
REMARK    2  A    between atoms: C12_21  and  N2_22 
ROOT
HETATM    1  C2  UNL     1     -17.475  -4.652   8.907  1.00  0.00     0.230 C 
HETATM    2  O2  UNL     1     -17.480  -4.893   7.563  1.00  0.00    -0.314 OA
HETATM    3  C3  UNL     1     -17.503  -6.271   7.344  1.00  0.00     0.164 C 
HETATM    4  C4  UNL     1     -16.389  -6.754   6.438  1.00  0.00     0.078 C 
HETATM    5  C5  UNL     1     -18.757  -6.757   6.647  1.00  0.00     0.078 C 
HETATM    6  O3  UNL     1     -17.428  -6.857   8.633  1.00  0.00    -0.317 OA
HETATM    7  C6  UNL     1     -18.144  -5.948   9.352  1.00  0.00     0.363 C 
HETATM    8  O4  UNL     1     -18.328  -6.094  10.669  1.00  0.00    -0.202 OA
HETATM    9  O5  UNL     1     -19.233  -5.170  11.030  1.00  0.00    -0.231 OA
HETATM   10  C7  UNL     1     -18.619  -3.923  10.860  1.00  0.00     0.184 C 
HETATM   11  C8  UNL     1     -19.139  -2.847  11.725  1.00  0.00     0.014 C 
HETATM   12  C9  UNL     1     -18.070  -2.261  12.643  1.00  0.00     0.020 C 
HETATM   13  C10 UNL     1     -20.254  -3.326  12.665  1.00  0.00     0.189 C 
HETATM   14  O6  UNL     1     -20.409  -2.304  13.635  1.00  0.00    -0.337 OA
HETATM   15  C11 UNL     1     -20.397  -0.979  13.263  1.00  0.00     0.142 C 
HETATM   16  N1  UNL     1     -20.756  -0.062  14.101  1.00  0.00    -0.382 N 
ATOM     17  H11 UNL     1     -20.746   0.920  13.826  1.00  0.00     0.158 HD
ATOM     18  H12 UNL     1     -21.039  -0.386  15.026  1.00  0.00     0.158 HD
HETATM   19  C12 UNL     1     -19.984  -0.506  11.913  1.00  0.00     0.262 C 
HETATM   20  C13 UNL     1     -19.739  -1.677  10.971  1.00  0.00     0.037 C 
HETATM   21  C14 UNL     1     -18.881  -1.218   9.852  1.00  0.00     0.009 C 
HETATM   22  C15 UNL     1     -17.897  -2.214   9.322  1.00  0.00     0.018 C 
HETATM   23  C16 UNL     1     -18.497  -3.595   9.385  1.00  0.00     0.048 C 
HETATM   24  C17 UNL     1     -19.758  -3.605   8.615  1.00  0.00     0.024 C 
ENDROOT
BRANCH  19  25
HETATM   25  N2  UNL     1     -21.147   0.241  11.397  1.00  0.00    -0.067 N 
ATOM     26  H23 UNL     1     -21.385   0.018  10.430  1.00  0.00     0.275 HD
ATOM     27  H22 UNL     1     -22.037  -0.045  11.805  1.00  0.00     0.275 HD
ATOM     28  H21 UNL     1     -20.919   1.224  11.549  1.00  0.00     0.275 HD
ENDBRANCH  19  25
BRANCH   1  29
HETATM   29  O1  UNL     1     -16.350  -4.322   9.526  1.00  0.00    -0.355 OA
HETATM   30  C1  UNL     1     -15.128  -4.342   9.029  1.00  0.00     0.205 C 
ENDBRANCH   1  29
TORSDOF 2
ENDMDL
MODEL 2
REMARK VINA RESULT: -6.910782631      1.528      1.743
REMARK  2 active torsions:
REMARK  status: ('A' for Active; 'I' for Inactive)
REMARK    1  A    between atoms: O1_2  and  C2_3 
REMARK    2  A    between atoms: C12_21  and  N2_22 
ROOT
HETATM    1  C2  UNL     1     -18.372  -5.812   9.042  1.00  0.00     0.230 C 
HETATM    2  O2  UNL     1     -18.413  -6.317   7.774  1.00  0.00    -0.314 OA
HETATM    3  C3  UNL     1     -19.175  -7.487   7.771  1.00  0.00     0.164 C 
HETATM    4  C4  UNL     1     -18.450  -8.675   7.173  1.00  0.00     0.078 C 
HETATM    5  C5  UNL     1     -20.436  -7.391   6.938  1.00  0.00     0.078 C 
HETATM    6  O3  UNL     1     -19.526  -7.710   9.127  1.00  0.00    -0.317 OA
HETATM    7  C6  UNL     1     -19.673  -6.423   9.551  1.00  0.00     0.363 C 
HETATM    8  O4  UNL     1     -19.999  -6.143  10.817  1.00  0.00    -0.202 OA
HETATM    9  O5  UNL     1     -20.271  -4.829  10.857  1.00  0.00    -0.231 OA
HETATM   10  C7  UNL     1     -19.062  -4.165  10.612  1.00  0.00     0.184 C 
HETATM   11  C8  UNL     1     -18.963  -2.811  11.189  1.00  0.00     0.014 C 
HETATM   12  C9  UNL     1     -17.816  -2.677  12.187  1.00  0.00     0.020 C 
HETATM   13  C10 UNL     1     -20.221  -2.405  11.970  1.00  0.00     0.189 C 
HETATM   14  O6  UNL     1     -19.857  -1.260  12.723  1.00  0.00    -0.337 OA
HETATM   15  C11 UNL     1     -19.093  -0.266  12.159  1.00  0.00     0.142 C 
HETATM   16  N1  UNL     1     -18.946   0.868  12.764  1.00  0.00    -0.382 N 
ATOM     17  H11 UNL     1     -18.378   1.605  12.347  1.00  0.00     0.158 HD
ATOM     18  H12 UNL     1     -19.425   0.963  13.660  1.00  0.00     0.158 HD
HETATM   19  C12 UNL     1     -18.392  -0.405  10.852  1.00  0.00     0.262 C 
HETATM   20  C13 UNL     1     -18.767  -1.711  10.165  1.00  0.00     0.037 C 
HETATM   21  C14 UNL     1     -17.720  -2.041   9.167  1.00  0.00     0.009 C 
HETATM   22  C15 UNL     1     -17.412  -3.495   8.989  1.00  0.00     0.018 C 
HETATM   23  C16 UNL     1     -18.676  -4.301   9.153  1.00  0.00     0.048 C 
HETATM   24  C17 UNL     1     -19.675  -3.827   8.174  1.00  0.00     0.024 C 
ENDROOT
BRANCH  19  25
HETATM   25  N2  UNL     1     -18.913   0.697  10.020  1.00  0.00    -0.067 N 
ATOM     26  H23 UNL     1     -19.923   0.827  10.091  1.00  0.00     0.275 HD
ATOM     27  H22 UNL     1     -18.652   1.625  10.353  1.00  0.00     0.275 HD
ATOM     28  H21 UNL     1     -18.589   0.491   9.075  1.00  0.00     0.275 HD
ENDBRANCH  19  25
BRANCH   1  29
HETATM   29  O1  UNL     1     -17.299  -5.987   9.800  1.00  0.00    -0.355 OA
HETATM   30  C1  UNL     1     -16.238  -6.724   9.527  1.00  0.00     0.205 C 
ENDBRANCH   1  29
TORSDOF 2
ENDMDL
MODEL 3
REMARK VINA RESULT: -6.893108834      1.368      1.611
REMARK  2 active torsions:
REMARK  status: ('A' for Active; 'I' for Inactive)
REMARK    1  A    between atoms: O1_2  and  C2_3 
REMARK    2  A    between atoms: C12_21  and  N2_22 
ROOT
HETATM    1  C2  UNL     1     -18.179  -5.150   9.636  1.00  0.00     0.230 C 
HETATM    2  O2  UNL     1     -18.112  -4.958   8.285  1.00  0.00    -0.314 OA
HETATM    3  C3  UNL     1     -18.509  -6.128   7.637  1.00  0.00     0.164 C 
HETATM    4  C4  UNL     1     -17.494  -6.633   6.631  1.00  0.00     0.078 C 
HETATM    5  C5  UNL     1     -19.770  -5.970   6.812  1.00  0.00     0.078 C 
HETATM    6  O3  UNL     1     -18.744  -7.070   8.670  1.00  0.00    -0.317 OA
HETATM    7  C6  UNL     1     -19.237  -6.247   9.637  1.00  0.00     0.363 C 
HETATM    8  O4  UNL     1     -19.593  -6.721  10.837  1.00  0.00    -0.202 OA
HETATM    9  O5  UNL     1     -20.225  -5.719  11.468  1.00  0.00    -0.231 OA
HETATM   10  C7  UNL     1     -19.262  -4.731  11.711  1.00  0.00     0.184 C 
HETATM   11  C8  UNL     1     -19.536  -3.862  12.871  1.00  0.00     0.014 C 
HETATM   12  C9  UNL     1     -18.446  -3.940  13.936  1.00  0.00     0.020 C 
HETATM   13  C10 UNL     1     -20.835  -4.236  13.600  1.00  0.00     0.189 C 
HETATM   14  O6  UNL     1     -20.789  -3.560  14.845  1.00  0.00    -0.337 OA
HETATM   15  C11 UNL     1     -20.355  -2.256  14.917  1.00  0.00     0.142 C 
HETATM   16  N1  UNL     1     -20.519  -1.572  16.002  1.00  0.00    -0.382 N 
ATOM     17  H11 UNL     1     -20.197  -0.606  16.056  1.00  0.00     0.158 HD
ATOM     18  H12 UNL     1     -20.980  -2.058  16.773  1.00  0.00     0.158 HD
HETATM   19  C12 UNL     1     -19.683  -1.548  13.793  1.00  0.00     0.262 C 
HETATM   20  C13 UNL     1     -19.691  -2.394  12.528  1.00  0.00     0.037 C 
HETATM   21  C14 UNL     1     -18.623  -1.905  11.621  1.00  0.00     0.009 C 
HETATM   22  C15 UNL     1     -17.919  -2.946  10.807  1.00  0.00     0.018 C 
HETATM   23  C16 UNL     1     -18.897  -4.027  10.419  1.00  0.00     0.048 C 
HETATM   24  C17 UNL     1     -20.018  -3.414   9.678  1.00  0.00     0.024 C 
ENDROOT
BRANCH  19  25
HETATM   25  N2  UNL     1     -20.520  -0.360  13.535  1.00  0.00    -0.067 N 
ATOM     26  H23 UNL     1     -21.056  -0.413  12.668  1.00  0.00     0.275 HD
ATOM     27  H22 UNL     1     -21.319  -0.273  14.162  1.00  0.00     0.275 HD
ATOM     28  H21 UNL     1     -19.876   0.431  13.574  1.00  0.00     0.275 HD
ENDBRANCH  19  25
BRANCH   1  29
HETATM   29  O1  UNL     1     -17.079  -5.386  10.336  1.00  0.00    -0.355 OA
HETATM   30  C1  UNL     1     -15.890  -5.720   9.870  1.00  0.00     0.205 C 
ENDBRANCH   1  29
TORSDOF 2
ENDMDL
MODEL 4
REMARK VINA RESULT: -6.682990869      3.064      4.800
REMARK  2 active torsions:
REMARK  status: ('A' for Active; 'I' for Inactive)
REMARK    1  A    between atoms: O1_2  and  C2_3 
REMARK    2  A    between atoms: C12_21  and  N2_22 
ROOT
HETATM    1  C2  UNL     1     -18.449  -1.953  11.031  1.00  0.00     0.230 C 
HETATM    2  O2  UNL     1     -18.269  -0.603  10.931  1.00  0.00    -0.314 OA
HETATM    3  C3  UNL     1     -18.329  -0.232   9.587  1.00  0.00     0.164 C 
HETATM    4  C4  UNL     1     -17.121   0.558   9.127  1.00  0.00     0.078 C 
HETATM    5  C5  UNL     1     -19.491   0.683   9.258  1.00  0.00     0.078 C 
HETATM    6  O3  UNL     1     -18.473  -1.445   8.867  1.00  0.00    -0.317 OA
HETATM    7  C6  UNL     1     -19.240  -2.153   9.743  1.00  0.00     0.363 C 
HETATM    8  O4  UNL     1     -19.621  -3.407   9.475  1.00  0.00    -0.202 OA
HETATM    9  O5  UNL     1     -20.521  -3.739  10.413  1.00  0.00    -0.231 OA
HETATM   10  C7  UNL     1     -19.827  -3.796  11.628  1.00  0.00     0.184 C 
HETATM   11  C8  UNL     1     -20.412  -4.694  12.642  1.00  0.00     0.014 C 
HETATM   12  C9  UNL     1     -19.461  -5.812  13.059  1.00  0.00     0.020 C 
HETATM   13  C10 UNL     1     -21.675  -5.411  12.142  1.00  0.00     0.189 C 
HETATM   14  O6  UNL     1     -21.919  -6.457  13.068  1.00  0.00    -0.337 OA
HETATM   15  C11 UNL     1     -21.786  -6.240  14.419  1.00  0.00     0.142 C 
HETATM   16  N1  UNL     1     -22.217  -7.117  15.267  1.00  0.00    -0.382 N 
ATOM     17  H11 UNL     1     -22.118  -6.956  16.270  1.00  0.00     0.158 HD
ATOM     18  H12 UNL     1     -22.648  -7.951  14.869  1.00  0.00     0.158 HD
HETATM   19  C12 UNL     1     -21.157  -5.022  15.001  1.00  0.00     0.262 C 
HETATM   20  C13 UNL     1     -20.837  -3.999  13.920  1.00  0.00     0.037 C 
HETATM   21  C14 UNL     1     -19.803  -3.069  14.434  1.00  0.00     0.009 C 
HETATM   22  C15 UNL     1     -18.803  -2.574  13.435  1.00  0.00     0.018 C 
HETATM   23  C16 UNL     1     -19.475  -2.398  12.097  1.00  0.00     0.048 C 
HETATM   24  C17 UNL     1     -20.609  -1.464  12.250  1.00  0.00     0.024 C 
ENDROOT
BRANCH  19  25
HETATM   25  N2  UNL     1     -22.193  -4.435  15.872  1.00  0.00    -0.067 N 
ATOM     26  H23 UNL     1     -23.010  -5.032  16.004  1.00  0.00     0.275 HD
ATOM     27  H22 UNL     1     -21.926  -4.382  16.855  1.00  0.00     0.275 HD
ATOM     28  H21 UNL     1     -22.408  -3.529  15.454  1.00  0.00     0.275 HD
ENDBRANCH  19  25
BRANCH   1  29
HETATM   29  O1  UNL     1     -17.411  -2.756  11.220  1.00  0.00    -0.355 OA
HETATM   30  C1  UNL     1     -16.849  -3.561  10.337  1.00  0.00     0.205 C 
ENDBRANCH   1  29
TORSDOF 2
ENDMDL
MODEL 5
REMARK VINA RESULT: -6.678850193      3.110      5.211
REMARK  2 active torsions:
REMARK  status: ('A' for Active; 'I' for Inactive)
REMARK    1  A    between atoms: O1_2  and  C2_3 
REMARK    2  A    between atoms: C12_21  and  N2_22 
ROOT
HETATM    1  C2  UNL     1     -20.930  -6.071  13.324  1.00  0.00     0.230 C 
HETATM    2  O2  UNL     1     -20.569  -6.980  14.278  1.00  0.00    -0.314 OA
HETATM    3  C3  UNL     1     -20.706  -8.268  13.758  1.00  0.00     0.164 C 
HETATM    4  C4  UNL     1     -21.567  -9.173  14.615  1.00  0.00     0.078 C 
HETATM    5  C5  UNL     1     -19.399  -9.025  13.652  1.00  0.00     0.078 C 
HETATM    6  O3  UNL     1     -21.251  -8.093  12.460  1.00  0.00    -0.317 OA
HETATM    7  C6  UNL     1     -20.641  -6.931  12.099  1.00  0.00     0.363 C 
HETATM    8  O4  UNL     1     -20.879  -6.362  10.912  1.00  0.00    -0.202 OA
HETATM    9  O5  UNL     1     -19.983  -5.371  10.779  1.00  0.00    -0.231 OA
HETATM   10  C7  UNL     1     -20.309  -4.408  11.743  1.00  0.00     0.184 C 
HETATM   11  C8  UNL     1     -19.900  -3.029  11.413  1.00  0.00     0.014 C 
HETATM   12  C9  UNL     1     -21.082  -2.068  11.330  1.00  0.00     0.020 C 
HETATM   13  C10 UNL     1     -19.204  -2.926  10.049  1.00  0.00     0.189 C 
HETATM   14  O6  UNL     1     -19.177  -1.545   9.731  1.00  0.00    -0.337 OA
HETATM   15  C11 UNL     1     -18.865  -0.612  10.692  1.00  0.00     0.142 C 
HETATM   16  N1  UNL     1     -18.625   0.614  10.359  1.00  0.00    -0.382 N 
ATOM     17  H11 UNL     1     -18.394   1.307  11.071  1.00  0.00     0.158 HD
ATOM     18  H12 UNL     1     -18.683   0.827   9.363  1.00  0.00     0.158 HD
HETATM   19  C12 UNL     1     -18.780  -0.923  12.146  1.00  0.00     0.262 C 
HETATM   20  C13 UNL     1     -18.923  -2.418  12.397  1.00  0.00     0.037 C 
HETATM   21  C14 UNL     1     -19.328  -2.627  13.809  1.00  0.00     0.009 C 
HETATM   22  C15 UNL     1     -20.260  -3.770  14.066  1.00  0.00     0.018 C 
HETATM   23  C16 UNL     1     -19.937  -4.904  13.126  1.00  0.00     0.048 C 
HETATM   24  C17 UNL     1     -18.524  -5.293  13.314  1.00  0.00     0.024 C 
ENDROOT
BRANCH  19  25
HETATM   25  N2  UNL     1     -17.411  -0.537  12.541  1.00  0.00    -0.067 N 
ATOM     26  H23 UNL     1     -16.815  -0.269  11.757  1.00  0.00     0.275 HD
ATOM     27  H22 UNL     1     -17.360   0.353  13.037  1.00  0.00     0.275 HD
ATOM     28  H21 UNL     1     -17.057  -1.330  13.076  1.00  0.00     0.275 HD
ENDBRANCH  19  25
BRANCH   1  29
HETATM   29  O1  UNL     1     -22.118  -5.485  13.371  1.00  0.00    -0.355 OA
HETATM   30  C1  UNL     1     -23.054  -5.644  14.290  1.00  0.00     0.205 C 
ENDBRANCH   1  29
TORSDOF 2
ENDMDL
