MODEL 1
REMARK VINA RESULT: -6.601532479      0.000      0.000
REMARK  3 active torsions:
REMARK  status: ('A' for Active; 'I' for Inactive)
REMARK    1  A    between atoms: S1_2  and  C2_3 
REMARK    2  A    between atoms: C3_8  and  S2_9 
REMARK    3  A    between atoms: S2_9  and  C4_10 
ROOT
HETATM    1  C4  UNL     1      14.400 -32.122  11.308  1.00  0.00     0.039 A 
HETATM    2  C5  UNL     1      13.954 -30.891  11.242  1.00  0.00     0.093 A 
HETATM    3  C6  UNL     1      13.644 -30.511   9.874  1.00  0.00     0.244 A 
HETATM    4  O1  UNL     1      13.195 -29.392   9.471  1.00  0.00    -0.269 OA
HETATM    5  N3  UNL     1      13.945 -31.636   9.088  1.00  0.00    -0.326 N 
ATOM      6  H3  UNL     1      13.839 -31.698   8.075  1.00  0.00     0.165 HD
HETATM    7  C7  UNL     1      14.422 -32.676   9.937  1.00  0.00     0.144 A 
HETATM    8  C8  UNL     1      13.584 -33.909   9.802  1.00  0.00     0.070 C 
HETATM    9  C9  UNL     1      13.628 -34.556   8.471  1.00  0.00     0.087 C 
HETATM   10  S3  UNL     1      15.318 -35.132   8.146  1.00  0.00    -0.095 SA
HETATM   11  C10 UNL     1      16.365 -34.091   9.127  1.00  0.00     0.135 C 
HETATM   12  N4  UNL     1      17.567 -34.440   9.364  1.00  0.00    -0.380 N 
ATOM     13  H41 UNL     1      18.170 -33.842   9.928  1.00  0.00     0.158 HD
ATOM     14  H42 UNL     1      17.965 -35.310   9.008  1.00  0.00     0.158 HD
HETATM   15  N5  UNL     1      15.820 -32.897   9.616  1.00  0.00    -0.340 N 
ATOM     16  H5  UNL     1      16.460 -32.116   9.758  1.00  0.00     0.164 HD
ENDROOT
BRANCH   1  17
HETATM   17  S2  UNL     1      14.918 -33.052  12.782  1.00  0.00    -0.064 SA
BRANCH  17  18
HETATM   18  C3  UNL     1      13.585 -33.223  13.941  1.00  0.00     0.134 A 
HETATM   19  N2  UNL     1      12.868 -32.298  14.544  1.00  0.00    -0.286 N 
HETATM   20  N1  UNL     1      11.946 -32.606  15.349  1.00  0.00    -0.287 N 
ATOM     21  H2  UNL     1      13.061 -31.314  14.356  1.00  0.00     0.188 HD
HETATM   22  C2  UNL     1      11.696 -33.891  15.593  1.00  0.00     0.128 A 
ATOM     23  H1  UNL     1      11.399 -31.878  15.808  1.00  0.00     0.188 HD
HETATM   24  S4  UNL     1      12.864 -34.644  14.595  1.00  0.00    -0.037 SA
BRANCH  22  25
HETATM   25  S1  UNL     1      10.456 -34.606  16.683  1.00  0.00    -0.108 SA
HETATM   26  C1  UNL     1       9.571 -33.308  17.596  1.00  0.00     0.097 C 
ENDBRANCH  22  25
ENDBRANCH  17  18
ENDBRANCH   1  17
TORSDOF 3
ENDMDL
MODEL 2
REMARK VINA RESULT: -6.576593544      4.005      4.923
REMARK  3 active torsions:
REMARK  status: ('A' for Active; 'I' for Inactive)
REMARK    1  A    between atoms: S1_2  and  C2_3 
REMARK    2  A    between atoms: C3_8  and  S2_9 
REMARK    3  A    between atoms: S2_9  and  C4_10 
ROOT
HETATM    1  C4  UNL     1      12.900 -33.485  13.698  1.00  0.00     0.039 A 
HETATM    2  C5  UNL     1      12.046 -33.820  14.634  1.00  0.00     0.093 A 
HETATM    3  C6  UNL     1      11.547 -35.171  14.438  1.00  0.00     0.244 A 
HETATM    4  O1  UNL     1      10.710 -35.794  15.165  1.00  0.00    -0.269 OA
HETATM    5  N3  UNL     1      12.180 -35.647  13.276  1.00  0.00    -0.326 N 
ATOM      6  H3  UNL     1      12.045 -36.569  12.863  1.00  0.00     0.165 HD
HETATM    7  C7  UNL     1      13.040 -34.629  12.772  1.00  0.00     0.144 A 
HETATM    8  C8  UNL     1      14.452 -35.118  12.673  1.00  0.00     0.070 C 
HETATM    9  C9  UNL     1      14.670 -36.213  11.701  1.00  0.00     0.087 C 
HETATM   10  S3  UNL     1      14.292 -35.611  10.031  1.00  0.00    -0.095 SA
HETATM   11  C10 UNL     1      13.144 -34.279  10.262  1.00  0.00     0.135 C 
HETATM   12  N4  UNL     1      12.933 -33.450   9.318  1.00  0.00    -0.380 N 
ATOM     13  H41 UNL     1      12.273 -32.685   9.451  1.00  0.00     0.158 HD
ATOM     14  H42 UNL     1      13.404 -33.518   8.415  1.00  0.00     0.158 HD
HETATM   15  N5  UNL     1      12.497 -34.187  11.501  1.00  0.00    -0.340 N 
ATOM     16  H5  UNL     1      11.565 -33.774  11.512  1.00  0.00     0.164 HD
ENDROOT
BRANCH   1  17
HETATM   17  S2  UNL     1      13.794 -31.913  13.504  1.00  0.00    -0.064 SA
BRANCH  17  18
HETATM   18  C3  UNL     1      13.021 -30.610  14.429  1.00  0.00     0.134 A 
HETATM   19  N2  UNL     1      11.847 -30.580  15.023  1.00  0.00    -0.286 N 
HETATM   20  N1  UNL     1      11.454 -29.554  15.644  1.00  0.00    -0.287 N 
ATOM     21  H2  UNL     1      11.243 -31.401  14.980  1.00  0.00     0.188 HD
HETATM   22  C2  UNL     1      12.243 -28.483  15.699  1.00  0.00     0.128 A 
ATOM     23  H1  UNL     1      10.541 -29.546  16.099  1.00  0.00     0.188 HD
HETATM   24  S4  UNL     1      13.594 -29.029  14.802  1.00  0.00    -0.037 SA
BRANCH  22  25
HETATM   25  S1  UNL     1      11.938 -26.905  16.506  1.00  0.00    -0.108 SA
HETATM   26  C1  UNL     1      10.156 -26.574  16.630  1.00  0.00     0.097 C 
ENDBRANCH  22  25
ENDBRANCH  17  18
ENDBRANCH   1  17
TORSDOF 3
ENDMDL
MODEL 3
REMARK VINA RESULT: -6.520420914      4.153      7.636
REMARK  3 active torsions:
REMARK  status: ('A' for Active; 'I' for Inactive)
REMARK    1  A    between atoms: S1_2  and  C2_3 
REMARK    2  A    between atoms: C3_8  and  S2_9 
REMARK    3  A    between atoms: S2_9  and  C4_10 
ROOT
HETATM    1  C4  UNL     1      14.189 -31.393   9.999  1.00  0.00     0.039 A 
HETATM    2  C5  UNL     1      14.896 -32.276   9.337  1.00  0.00     0.093 A 
HETATM    3  C6  UNL     1      15.168 -33.453  10.145  1.00  0.00     0.244 A 
HETATM    4  O1  UNL     1      15.824 -34.486   9.802  1.00  0.00    -0.269 OA
HETATM    5  N3  UNL     1      14.556 -33.212  11.388  1.00  0.00    -0.326 N 
ATOM      6  H3  UNL     1      14.561 -33.848  12.185  1.00  0.00     0.165 HD
HETATM    7  C7  UNL     1      13.927 -31.934  11.349  1.00  0.00     0.144 A 
HETATM    8  C8  UNL     1      12.464 -32.044  11.650  1.00  0.00     0.070 C 
HETATM    9  C9  UNL     1      12.137 -32.507  13.018  1.00  0.00     0.087 C 
HETATM   10  S3  UNL     1      12.744 -31.289  14.218  1.00  0.00    -0.095 SA
HETATM   11  C10 UNL     1      14.083 -30.458  13.406  1.00  0.00     0.135 C 
HETATM   12  N4  UNL     1      14.508 -29.344  13.858  1.00  0.00    -0.380 N 
ATOM     13  H41 UNL     1      15.278 -28.866  13.390  1.00  0.00     0.158 HD
ATOM     14  H42 UNL     1      14.105 -28.898  14.683  1.00  0.00     0.158 HD
HETATM   15  N5  UNL     1      14.636 -31.069  12.274  1.00  0.00    -0.340 N 
ATOM     16  H5  UNL     1      15.622 -30.892  12.083  1.00  0.00     0.164 HD
ENDROOT
BRANCH   1  17
HETATM   17  S2  UNL     1      13.599 -29.771   9.428  1.00  0.00    -0.064 SA
BRANCH  17  18
HETATM   18  C3  UNL     1      14.912 -28.822   8.703  1.00  0.00     0.134 A 
HETATM   19  N2  UNL     1      15.036 -27.519   8.571  1.00  0.00    -0.286 N 
HETATM   20  N1  UNL     1      16.053 -27.010   8.022  1.00  0.00    -0.287 N 
ATOM     21  H2  UNL     1      14.298 -26.907   8.919  1.00  0.00     0.188 HD
HETATM   22  C2  UNL     1      17.016 -27.810   7.567  1.00  0.00     0.128 A 
ATOM     23  H1  UNL     1      16.135 -25.998   7.927  1.00  0.00     0.188 HD
HETATM   24  S4  UNL     1      16.382 -29.346   7.973  1.00  0.00    -0.037 SA
BRANCH  22  25
HETATM   25  S1  UNL     1      18.555 -27.360   6.752  1.00  0.00    -0.108 SA
HETATM   26  C1  UNL     1      19.912 -27.235   7.953  1.00  0.00     0.097 C 
ENDBRANCH  22  25
ENDBRANCH  17  18
ENDBRANCH   1  17
TORSDOF 3
ENDMDL
MODEL 4
REMARK VINA RESULT: -6.403171131      0.990      1.231
REMARK  3 active torsions:
REMARK  status: ('A' for Active; 'I' for Inactive)
REMARK    1  A    between atoms: S1_2  and  C2_3 
REMARK    2  A    between atoms: C3_8  and  S2_9 
REMARK    3  A    between atoms: S2_9  and  C4_10 
ROOT
HETATM    1  C4  UNL     1      14.455 -31.978  11.267  1.00  0.00     0.039 A 
HETATM    2  C5  UNL     1      14.013 -30.749  11.160  1.00  0.00     0.093 A 
HETATM    3  C6  UNL     1      13.665 -30.428   9.786  1.00  0.00     0.244 A 
HETATM    4  O1  UNL     1      13.210 -29.325   9.346  1.00  0.00    -0.269 OA
HETATM    5  N3  UNL     1      13.939 -31.589   9.042  1.00  0.00    -0.326 N 
ATOM      6  H3  UNL     1      13.803 -31.696   8.037  1.00  0.00     0.165 HD
HETATM    7  C7  UNL     1      14.436 -32.593   9.923  1.00  0.00     0.144 A 
HETATM    8  C8  UNL     1      13.589 -33.826   9.867  1.00  0.00     0.070 C 
HETATM    9  C9  UNL     1      13.591 -34.531   8.565  1.00  0.00     0.087 C 
HETATM   10  S3  UNL     1      15.269 -35.131   8.218  1.00  0.00    -0.095 SA
HETATM   11  C10 UNL     1      16.348 -34.053   9.122  1.00  0.00     0.135 C 
HETATM   12  N4  UNL     1      17.555 -34.398   9.339  1.00  0.00    -0.380 N 
ATOM     13  H41 UNL     1      18.176 -33.778   9.859  1.00  0.00     0.158 HD
ATOM     14  H42 UNL     1      17.939 -35.285   9.011  1.00  0.00     0.158 HD
HETATM   15  N5  UNL     1      15.822 -32.835   9.572  1.00  0.00    -0.340 N 
ATOM     16  H5  UNL     1      16.469 -32.052   9.660  1.00  0.00     0.164 HD
ENDROOT
BRANCH   1  17
HETATM   17  S2  UNL     1      15.012 -32.844  12.766  1.00  0.00    -0.064 SA
BRANCH  17  18
HETATM   18  C3  UNL     1      13.637 -33.433  13.722  1.00  0.00     0.134 A 
HETATM   19  N2  UNL     1      12.892 -32.803  14.605  1.00  0.00    -0.286 N 
HETATM   20  N1  UNL     1      11.943 -33.387  15.197  1.00  0.00    -0.287 N 
ATOM     21  H2  UNL     1      13.086 -31.823  14.815  1.00  0.00     0.188 HD
HETATM   22  C2  UNL     1      11.691 -34.665  14.922  1.00  0.00     0.128 A 
ATOM     23  H1  UNL     1      11.374 -32.885  15.879  1.00  0.00     0.188 HD
HETATM   24  S4  UNL     1      12.901 -34.990  13.756  1.00  0.00    -0.037 SA
BRANCH  22  25
HETATM   25  S1  UNL     1      10.416 -35.731  15.609  1.00  0.00    -0.108 SA
HETATM   26  C1  UNL     1      10.570 -37.423  14.967  1.00  0.00     0.097 C 
ENDBRANCH  22  25
ENDBRANCH  17  18
ENDBRANCH   1  17
TORSDOF 3
ENDMDL
MODEL 5
REMARK VINA RESULT: -6.388375039      1.288      1.288
REMARK  3 active torsions:
REMARK  status: ('A' for Active; 'I' for Inactive)
REMARK    1  A    between atoms: S1_2  and  C2_3 
REMARK    2  A    between atoms: C3_8  and  S2_9 
REMARK    3  A    between atoms: S2_9  and  C4_10 
ROOT
HETATM    1  C4  UNL     1      14.443 -32.107  11.335  1.00  0.00     0.039 A 
HETATM    2  C5  UNL     1      14.001 -30.876  11.245  1.00  0.00     0.093 A 
HETATM    3  C6  UNL     1      13.672 -30.530   9.872  1.00  0.00     0.244 A 
HETATM    4  O1  UNL     1      13.222 -29.420   9.446  1.00  0.00    -0.269 OA
HETATM    5  N3  UNL     1      13.957 -31.677   9.111  1.00  0.00    -0.326 N 
ATOM      6  H3  UNL     1      13.836 -31.765   8.102  1.00  0.00     0.165 HD
HETATM    7  C7  UNL     1      14.443 -32.696   9.980  1.00  0.00     0.144 A 
HETATM    8  C8  UNL     1      13.598 -33.929   9.890  1.00  0.00     0.070 C 
HETATM    9  C9  UNL     1      13.620 -34.610   8.575  1.00  0.00     0.087 C 
HETATM   10  S3  UNL     1      15.302 -35.202   8.240  1.00  0.00    -0.095 SA
HETATM   11  C10 UNL     1      16.368 -34.140   9.178  1.00  0.00     0.135 C 
HETATM   12  N4  UNL     1      17.573 -34.488   9.406  1.00  0.00    -0.380 N 
ATOM     13  H41 UNL     1      18.185 -33.878   9.946  1.00  0.00     0.158 HD
ATOM     14  H42 UNL     1      17.961 -35.369   9.067  1.00  0.00     0.158 HD
HETATM   15  N5  UNL     1      15.835 -32.931   9.644  1.00  0.00    -0.340 N 
ATOM     16  H5  UNL     1      16.480 -32.149   9.755  1.00  0.00     0.164 HD
ENDROOT
BRANCH   1  17
HETATM   17  S2  UNL     1      14.980 -32.999  12.826  1.00  0.00    -0.064 SA
BRANCH  17  18
HETATM   18  C3  UNL     1      13.671 -33.999  13.489  1.00  0.00     0.134 A 
HETATM   19  N2  UNL     1      13.365 -35.255  13.245  1.00  0.00    -0.286 N 
HETATM   20  N1  UNL     1      12.386 -35.812  13.816  1.00  0.00    -0.287 N 
ATOM     21  H2  UNL     1      13.928 -35.789  12.584  1.00  0.00     0.188 HD
HETATM   22  C2  UNL     1      11.651 -35.114  14.679  1.00  0.00     0.128 A 
ATOM     23  H1  UNL     1      12.161 -36.787  13.617  1.00  0.00     0.188 HD
HETATM   24  S4  UNL     1      12.445 -33.599  14.631  1.00  0.00    -0.037 SA
BRANCH  22  25
HETATM   25  S1  UNL     1      10.217 -35.651  15.623  1.00  0.00    -0.108 SA
HETATM   26  C1  UNL     1      10.186 -34.862  17.259  1.00  0.00     0.097 C 
ENDBRANCH  22  25
ENDBRANCH  17  18
ENDBRANCH   1  17
TORSDOF 3
ENDMDL
