MODEL 1
REMARK VINA RESULT: -6.840738542      0.000      0.000
REMARK  6 active torsions:
REMARK  status: ('A' for Active; 'I' for Inactive)
REMARK    1  A    between atoms: N1_2  and  C3_4 
REMARK    2  A    between atoms: C3_4  and  S2_6 
REMARK    3  A    between atoms: S2_6  and  C4_7 
REMARK    4  A    between atoms: C6_11  and  N3_12 
REMARK    5  A    between atoms: N3_12  and  C7_14 
REMARK    6  A    between atoms: C9_18  and  N5_19 
ROOT
HETATM    1  C4  UNL     1      13.885 -32.337  13.332  1.00  0.00     0.097 A 
HETATM    2  C5  UNL     1      14.003 -30.785  13.351  1.00  0.00     0.138 A 
HETATM    3  N2  UNL     1      13.981 -30.343  12.009  1.00  0.00    -0.377 N 
ATOM      4  H2  UNL     1      14.072 -29.362  11.745  1.00  0.00     0.160 HD
HETATM    5  C6  UNL     1      13.839 -31.276  11.161  1.00  0.00     0.097 A 
HETATM    6  C10 UNL     1      13.751 -32.579  11.838  1.00  0.00     0.175 A 
HETATM    7  C11 UNL     1      14.883 -33.372  11.322  1.00  0.00     0.073 C 
HETATM    8  N6  UNL     1      15.788 -33.992  10.899  1.00  0.00    -0.196 NA
ENDROOT
BRANCH   1   9
HETATM    9  S2  UNL     1      12.435 -32.758  14.230  1.00  0.00    -0.092 SA
BRANCH   9  10
HETATM   10  C3  UNL     1      12.004 -34.373  14.617  1.00  0.00     0.136 C 
HETATM   11  S1  UNL     1      12.801 -35.619  13.765  1.00  0.00    -0.053 SA
BRANCH  10  12
HETATM   12  N1  UNL     1      11.078 -34.841  15.556  1.00  0.00    -0.375 N 
HETATM   13  C1  UNL     1      10.204 -35.996  15.251  1.00  0.00     0.150 C 
HETATM   14  C2  UNL     1      10.913 -34.240  16.849  1.00  0.00     0.150 C 
ENDBRANCH  10  12
ENDBRANCH   9  10
ENDBRANCH   1   9
BRANCH   5  15
HETATM   15  N3  UNL     1      13.790 -31.078   9.762  1.00  0.00    -0.338 N 
ATOM     16  H3  UNL     1      13.384 -31.810   9.179  1.00  0.00     0.168 HD
BRANCH  15  17
HETATM   17  C7  UNL     1      14.293 -29.880   9.125  1.00  0.00     0.094 A 
HETATM   18  C8  UNL     1      13.625 -28.750   8.731  1.00  0.00     0.127 A 
HETATM   19  N4  UNL     1      14.324 -27.777   8.213  1.00  0.00    -0.344 N 
HETATM   20  C9  UNL     1      15.640 -27.925   8.092  1.00  0.00     0.144 A 
ATOM     21  H4  UNL     1      13.868 -26.918   7.906  1.00  0.00     0.167 HD
HETATM   22  S3  UNL     1      15.913 -29.488   8.726  1.00  0.00    -0.035 SA
BRANCH  20  23
HETATM   23  N5  UNL     1      16.494 -27.065   7.602  1.00  0.00    -0.380 N 
ATOM     24  H52 UNL     1      16.328 -26.145   7.194  1.00  0.00     0.158 HD
ATOM     25  H51 UNL     1      17.507 -27.165   7.539  1.00  0.00     0.158 HD
ENDBRANCH  20  23
ENDBRANCH  15  17
ENDBRANCH   5  15
TORSDOF 6
ENDMDL
MODEL 2
REMARK VINA RESULT: -6.780287472      0.963      1.299
REMARK  6 active torsions:
REMARK  status: ('A' for Active; 'I' for Inactive)
REMARK    1  A    between atoms: N1_2  and  C3_4 
REMARK    2  A    between atoms: C3_4  and  S2_6 
REMARK    3  A    between atoms: S2_6  and  C4_7 
REMARK    4  A    between atoms: C6_11  and  N3_12 
REMARK    5  A    between atoms: N3_12  and  C7_14 
REMARK    6  A    between atoms: C9_18  and  N5_19 
ROOT
HETATM    1  C4  UNL     1      13.661 -32.205  13.482  1.00  0.00     0.097 A 
HETATM    2  C5  UNL     1      13.795 -30.655  13.430  1.00  0.00     0.138 A 
HETATM    3  N2  UNL     1      13.860 -30.283  12.068  1.00  0.00    -0.377 N 
ATOM      4  H2  UNL     1      13.978 -29.318  11.761  1.00  0.00     0.160 HD
HETATM    5  C6  UNL     1      13.760 -31.256  11.262  1.00  0.00     0.097 A 
HETATM    6  C10 UNL     1      13.616 -32.523  11.997  1.00  0.00     0.175 A 
HETATM    7  C11 UNL     1      14.769 -33.350  11.593  1.00  0.00     0.073 C 
HETATM    8  N6  UNL     1      15.691 -33.998  11.258  1.00  0.00    -0.196 NA
ENDROOT
BRANCH   1   9
HETATM    9  S2  UNL     1      12.155 -32.568  14.310  1.00  0.00    -0.092 SA
BRANCH   9  10
HETATM   10  C3  UNL     1      11.803 -34.102  14.993  1.00  0.00     0.136 C 
HETATM   11  S1  UNL     1      11.229 -34.127  16.601  1.00  0.00    -0.053 SA
BRANCH  10  12
HETATM   12  N1  UNL     1      11.911 -35.372  14.418  1.00  0.00    -0.375 N 
HETATM   13  C1  UNL     1      10.768 -36.314  14.435  1.00  0.00     0.150 C 
HETATM   14  C2  UNL     1      13.114 -35.841  13.791  1.00  0.00     0.150 C 
ENDBRANCH  10  12
ENDBRANCH   9  10
ENDBRANCH   1   9
BRANCH   5  15
HETATM   15  N3  UNL     1      13.799 -31.131   9.854  1.00  0.00    -0.338 N 
ATOM     16  H3  UNL     1      13.477 -31.913   9.284  1.00  0.00     0.168 HD
BRANCH  15  17
HETATM   17  C7  UNL     1      14.277 -29.937   9.190  1.00  0.00     0.094 A 
HETATM   18  C8  UNL     1      13.591 -28.817   8.799  1.00  0.00     0.127 A 
HETATM   19  N4  UNL     1      14.269 -27.846   8.252  1.00  0.00    -0.344 N 
HETATM   20  C9  UNL     1      15.583 -27.985   8.100  1.00  0.00     0.144 A 
ATOM     21  H4  UNL     1      13.800 -26.993   7.946  1.00  0.00     0.167 HD
HETATM   22  S3  UNL     1      15.884 -29.538   8.746  1.00  0.00    -0.035 SA
BRANCH  20  23
HETATM   23  N5  UNL     1      16.418 -27.125   7.578  1.00  0.00    -0.380 N 
ATOM     24  H52 UNL     1      16.814 -27.091   6.639  1.00  0.00     0.158 HD
ATOM     25  H51 UNL     1      16.834 -26.311   8.033  1.00  0.00     0.158 HD
ENDBRANCH  20  23
ENDBRANCH  15  17
ENDBRANCH   5  15
TORSDOF 6
ENDMDL
MODEL 3
REMARK VINA RESULT: -6.715792171      1.168      1.222
REMARK  6 active torsions:
REMARK  status: ('A' for Active; 'I' for Inactive)
REMARK    1  A    between atoms: N1_2  and  C3_4 
REMARK    2  A    between atoms: C3_4  and  S2_6 
REMARK    3  A    between atoms: S2_6  and  C4_7 
REMARK    4  A    between atoms: C6_11  and  N3_12 
REMARK    5  A    between atoms: N3_12  and  C7_14 
REMARK    6  A    between atoms: C9_18  and  N5_19 
ROOT
HETATM    1  C4  UNL     1      13.859 -33.473  12.865  1.00  0.00     0.097 A 
HETATM    2  C5  UNL     1      14.956 -32.369  12.875  1.00  0.00     0.138 A 
HETATM    3  N2  UNL     1      14.933 -31.740  11.610  1.00  0.00    -0.377 N 
ATOM      4  H2  UNL     1      15.578 -30.994  11.349  1.00  0.00     0.160 HD
HETATM    5  C6  UNL     1      14.038 -32.184  10.829  1.00  0.00     0.097 A 
HETATM    6  C10 UNL     1      13.277 -33.263  11.478  1.00  0.00     0.175 A 
HETATM    7  C11 UNL     1      13.474 -34.454  10.629  1.00  0.00     0.073 C 
HETATM    8  N6  UNL     1      13.638 -35.393   9.941  1.00  0.00    -0.196 NA
ENDROOT
BRANCH   1   9
HETATM    9  S2  UNL     1      12.727 -33.091  14.152  1.00  0.00    -0.092 SA
BRANCH   9  10
HETATM   10  C3  UNL     1      11.774 -34.274  14.949  1.00  0.00     0.136 C 
HETATM   11  S1  UNL     1      11.633 -35.800  14.197  1.00  0.00    -0.053 SA
BRANCH  10  12
HETATM   12  N1  UNL     1      11.078 -34.182  16.160  1.00  0.00    -0.375 N 
HETATM   13  C1  UNL     1      10.206 -35.285  16.622  1.00  0.00     0.150 C 
HETATM   14  C2  UNL     1      11.158 -33.031  17.014  1.00  0.00     0.150 C 
ENDBRANCH  10  12
ENDBRANCH   9  10
ENDBRANCH   1   9
BRANCH   5  15
HETATM   15  N3  UNL     1      13.823 -31.711   9.514  1.00  0.00    -0.338 N 
ATOM     16  H3  UNL     1      13.377 -32.331   8.838  1.00  0.00     0.168 HD
BRANCH  15  17
HETATM   17  C7  UNL     1      14.212 -30.384   9.089  1.00  0.00     0.094 A 
HETATM   18  C8  UNL     1      13.472 -29.232   9.021  1.00  0.00     0.127 A 
HETATM   19  N4  UNL     1      14.076 -28.139   8.642  1.00  0.00    -0.344 N 
HETATM   20  C9  UNL     1      15.370 -28.192   8.341  1.00  0.00     0.144 A 
ATOM     21  H4  UNL     1      13.563 -27.260   8.577  1.00  0.00     0.167 HD
HETATM   22  S3  UNL     1      15.760 -29.835   8.597  1.00  0.00    -0.035 SA
BRANCH  20  23
HETATM   23  N5  UNL     1      16.134 -27.206   7.948  1.00  0.00    -0.380 N 
ATOM     24  H52 UNL     1      16.401 -26.929   7.003  1.00  0.00     0.158 HD
ATOM     25  H51 UNL     1      16.612 -26.521   8.533  1.00  0.00     0.158 HD
ENDBRANCH  20  23
ENDBRANCH  15  17
ENDBRANCH   5  15
TORSDOF 6
ENDMDL
MODEL 4
REMARK VINA RESULT: -6.572675535      1.263      1.555
REMARK  6 active torsions:
REMARK  status: ('A' for Active; 'I' for Inactive)
REMARK    1  A    between atoms: N1_2  and  C3_4 
REMARK    2  A    between atoms: C3_4  and  S2_6 
REMARK    3  A    between atoms: S2_6  and  C4_7 
REMARK    4  A    between atoms: C6_11  and  N3_12 
REMARK    5  A    between atoms: N3_12  and  C7_14 
REMARK    6  A    between atoms: C9_18  and  N5_19 
ROOT
HETATM    1  C4  UNL     1      13.692 -33.062  13.008  1.00  0.00     0.097 A 
HETATM    2  C5  UNL     1      14.825 -31.994  12.996  1.00  0.00     0.138 A 
HETATM    3  N2  UNL     1      14.869 -31.441  11.696  1.00  0.00    -0.377 N 
ATOM      4  H2  UNL     1      15.548 -30.733  11.417  1.00  0.00     0.160 HD
HETATM    5  C6  UNL     1      13.991 -31.903  10.908  1.00  0.00     0.097 A 
HETATM    6  C10 UNL     1      13.170 -32.918  11.588  1.00  0.00     0.175 A 
HETATM    7  C11 UNL     1      13.359 -34.163  10.820  1.00  0.00     0.073 C 
HETATM    8  N6  UNL     1      13.518 -35.146  10.195  1.00  0.00    -0.196 NA
ENDROOT
BRANCH   1   9
HETATM    9  S2  UNL     1      12.526 -32.568  14.224  1.00  0.00    -0.092 SA
BRANCH   9  10
HETATM   10  C3  UNL     1      11.733 -33.673  15.270  1.00  0.00     0.136 C 
HETATM   11  S1  UNL     1      11.348 -33.124  16.840  1.00  0.00    -0.053 SA
BRANCH  10  12
HETATM   12  N1  UNL     1      11.334 -34.992  15.025  1.00  0.00    -0.375 N 
HETATM   13  C1  UNL     1      10.254 -35.619  15.820  1.00  0.00     0.150 C 
HETATM   14  C2  UNL     1      11.938 -35.810  14.012  1.00  0.00     0.150 C 
ENDBRANCH  10  12
ENDBRANCH   9  10
ENDBRANCH   1   9
BRANCH   5  15
HETATM   15  N3  UNL     1      13.841 -31.504   9.559  1.00  0.00    -0.338 N 
ATOM     16  H3  UNL     1      13.433 -32.163   8.896  1.00  0.00     0.168 HD
BRANCH  15  17
HETATM   17  C7  UNL     1      14.245 -30.198   9.083  1.00  0.00     0.094 A 
HETATM   18  C8  UNL     1      13.501 -29.062   8.904  1.00  0.00     0.127 A 
HETATM   19  N4  UNL     1      14.118 -27.985   8.500  1.00  0.00    -0.344 N 
HETATM   20  C9  UNL     1      15.429 -28.039   8.283  1.00  0.00     0.144 A 
ATOM     21  H4  UNL     1      13.603 -27.117   8.353  1.00  0.00     0.167 HD
HETATM   22  S3  UNL     1      15.816 -29.661   8.657  1.00  0.00    -0.035 SA
BRANCH  20  23
HETATM   23  N5  UNL     1      16.208 -27.069   7.881  1.00  0.00    -0.380 N 
ATOM     24  H52 UNL     1      17.042 -26.680   8.321  1.00  0.00     0.158 HD
ATOM     25  H51 UNL     1      16.117 -26.513   7.030  1.00  0.00     0.158 HD
ENDBRANCH  20  23
ENDBRANCH  15  17
ENDBRANCH   5  15
TORSDOF 6
ENDMDL
MODEL 5
REMARK VINA RESULT: -6.377390673      2.291      3.559
REMARK  6 active torsions:
REMARK  status: ('A' for Active; 'I' for Inactive)
REMARK    1  A    between atoms: N1_2  and  C3_4 
REMARK    2  A    between atoms: C3_4  and  S2_6 
REMARK    3  A    between atoms: S2_6  and  C4_7 
REMARK    4  A    between atoms: C6_11  and  N3_12 
REMARK    5  A    between atoms: N3_12  and  C7_14 
REMARK    6  A    between atoms: C9_18  and  N5_19 
ROOT
HETATM    1  C4  UNL     1      13.849 -34.941  10.496  1.00  0.00     0.097 A 
HETATM    2  C5  UNL     1      15.280 -34.784  11.089  1.00  0.00     0.138 A 
HETATM    3  N2  UNL     1      15.972 -33.853  10.283  1.00  0.00    -0.377 N 
ATOM      4  H2  UNL     1      16.945 -33.593  10.444  1.00  0.00     0.160 HD
HETATM    5  C6  UNL     1      15.275 -33.367   9.341  1.00  0.00     0.097 A 
HETATM    6  C10 UNL     1      13.920 -33.942   9.354  1.00  0.00     0.175 A 
HETATM    7  C11 UNL     1      13.761 -34.612   8.048  1.00  0.00     0.073 C 
HETATM    8  N6  UNL     1      13.648 -35.137   7.003  1.00  0.00    -0.196 NA
ENDROOT
BRANCH   1   9
HETATM    9  S2  UNL     1      12.713 -34.472  11.751  1.00  0.00    -0.092 SA
BRANCH   9  10
HETATM   10  C3  UNL     1      12.997 -33.177  12.840  1.00  0.00     0.136 C 
HETATM   11  S1  UNL     1      12.732 -33.479  14.499  1.00  0.00    -0.053 SA
BRANCH  10  12
HETATM   12  N1  UNL     1      13.431 -31.874  12.572  1.00  0.00    -0.375 N 
HETATM   13  C1  UNL     1      12.485 -30.842  12.089  1.00  0.00     0.150 C 
HETATM   14  C2  UNL     1      14.796 -31.461  12.737  1.00  0.00     0.150 C 
ENDBRANCH  10  12
ENDBRANCH   9  10
ENDBRANCH   1   9
BRANCH   5  15
HETATM   15  N3  UNL     1      15.750 -32.419   8.406  1.00  0.00    -0.338 N 
ATOM     16  H3  UNL     1      16.306 -32.748   7.616  1.00  0.00     0.168 HD
BRANCH  15  17
HETATM   17  C7  UNL     1      15.481 -31.002   8.526  1.00  0.00     0.094 A 
HETATM   18  C8  UNL     1      14.492 -30.353   9.217  1.00  0.00     0.127 A 
HETATM   19  N4  UNL     1      14.491 -29.049   9.203  1.00  0.00    -0.344 N 
HETATM   20  C9  UNL     1      15.443 -28.413   8.524  1.00  0.00     0.144 A 
ATOM     21  H4  UNL     1      13.774 -28.524   9.703  1.00  0.00     0.167 HD
HETATM   22  S3  UNL     1      16.375 -29.691   7.878  1.00  0.00    -0.035 SA
BRANCH  20  23
HETATM   23  N5  UNL     1      15.602 -27.122   8.399  1.00  0.00    -0.380 N 
ATOM     24  H52 UNL     1      15.907 -26.435   9.089  1.00  0.00     0.158 HD
ATOM     25  H51 UNL     1      15.444 -26.556   7.565  1.00  0.00     0.158 HD
ENDBRANCH  20  23
ENDBRANCH  15  17
ENDBRANCH   5  15
TORSDOF 6
ENDMDL
