MODEL 1
REMARK VINA RESULT: -7.045062797      0.000      0.000
REMARK  5 active torsions:
REMARK  status: ('A' for Active; 'I' for Inactive)
REMARK    1  A    between atoms: N1_2  and  C3_4 
REMARK    2  A    between atoms: C3_4  and  C4_5 
REMARK    3  A    between atoms: C4_5  and  C5_6 
REMARK    4  A    between atoms: C5_6  and  N2_7 
REMARK    5  A    between atoms: C20_25  and  N4_26 
ROOT
HETATM    1  N2  UNL     1      16.670  65.574  43.085  1.00  0.00    -0.307 N 
HETATM    2  C6  UNL     1      17.956  66.117  42.820  1.00  0.00     0.320 C 
HETATM    3  O1  UNL     1      18.496  66.342  41.705  1.00  0.00    -0.247 OA
HETATM    4  N3  UNL     1      18.567  66.379  44.085  1.00  0.00    -0.329 N 
ATOM      5  H3  UNL     1      19.552  66.587  44.253  1.00  0.00     0.165 HD
HETATM    6  C7  UNL     1      17.507  66.293  45.097  1.00  0.00     0.080 C 
HETATM    7  C8  UNL     1      18.064  65.931  46.425  1.00  0.00     0.036 C 
HETATM    8  C9  UNL     1      18.527  67.250  47.015  1.00  0.00     0.008 C 
HETATM    9  C10 UNL     1      18.188  68.317  46.002  1.00  0.00    -0.000 C 
HETATM   10  C11 UNL     1      16.984  67.688  45.304  1.00  0.00     0.023 C 
HETATM   11  C12 UNL     1      15.891  67.670  46.345  1.00  0.00     0.016 C 
HETATM   12  C13 UNL     1      15.484  69.029  46.795  1.00  0.00    -0.047 C 
HETATM   13  C14 UNL     1      14.255  69.422  45.955  1.00  0.00     0.015 C 
HETATM   14  C15 UNL     1      14.918  68.860  48.215  1.00  0.00     0.015 C 
HETATM   15  C16 UNL     1      16.533  70.071  46.753  1.00  0.00     0.018 C 
HETATM   16  C17 UNL     1      17.929  69.652  46.555  1.00  0.00    -0.043 C 
HETATM   17  C18 UNL     1      18.730  69.793  47.858  1.00  0.00     0.015 C 
HETATM   18  C19 UNL     1      18.589  70.651  45.587  1.00  0.00     0.015 C 
HETATM   19  C20 UNL     1      16.526  65.343  44.524  1.00  0.00     0.261 C 
ENDROOT
BRANCH  19  20
HETATM   20  N4  UNL     1      17.035  63.984  44.760  1.00  0.00    -0.192 N 
HETATM   21  N5  UNL     1      16.624  63.211  45.732  1.00  0.00    -0.275 N 
HETATM   22  C21 UNL     1      17.275  62.044  45.679  1.00  0.00     0.217 A 
ATOM     23  H5  UNL     1      15.916  63.460  46.423  1.00  0.00     0.189 HD
HETATM   24  N6  UNL     1      18.109  62.112  44.637  1.00  0.00    -0.279 N 
HETATM   25  N7  UNL     1      17.937  63.314  44.095  1.00  0.00    -0.223 N 
ATOM     26  H6  UNL     1      18.751  61.386  44.320  1.00  0.00     0.189 HD
ATOM     27  H7  UNL     1      18.437  63.662  43.278  1.00  0.00     0.210 HD
ENDBRANCH  19  20
BRANCH   1  28
HETATM   28  C5  UNL     1      15.653  65.285  42.120  1.00  0.00     0.132 C 
BRANCH  28  29
HETATM   29  C4  UNL     1      14.820  66.524  41.769  1.00  0.00     0.050 C 
BRANCH  29  30
HETATM   30  C3  UNL     1      14.406  66.360  40.329  1.00  0.00     0.273 C 
BRANCH  30  31
HETATM   31  N1  UNL     1      15.508  65.986  39.474  1.00  0.00     0.080 N 
HETATM   32  C1  UNL     1      15.096  65.091  38.444  1.00  0.00     0.309 C 
HETATM   33  C2  UNL     1      16.273  67.110  39.014  1.00  0.00     0.309 C 
ENDBRANCH  30  31
ENDBRANCH  29  30
ENDBRANCH  28  29
ENDBRANCH   1  28
TORSDOF 5
ENDMDL
MODEL 2
REMARK VINA RESULT: -7.015576008      7.556     10.003
REMARK  5 active torsions:
REMARK  status: ('A' for Active; 'I' for Inactive)
REMARK    1  A    between atoms: N1_2  and  C3_4 
REMARK    2  A    between atoms: C3_4  and  C4_5 
REMARK    3  A    between atoms: C4_5  and  C5_6 
REMARK    4  A    between atoms: C5_6  and  N2_7 
REMARK    5  A    between atoms: C20_25  and  N4_26 
ROOT
HETATM    1  N2  UNL     1      11.659  70.067  49.338  1.00  0.00    -0.307 N 
HETATM    2  C6  UNL     1      11.668  70.122  50.758  1.00  0.00     0.320 C 
HETATM    3  O1  UNL     1      12.520  69.648  51.554  1.00  0.00    -0.247 OA
HETATM    4  N3  UNL     1      10.497  70.839  51.154  1.00  0.00    -0.329 N 
ATOM      5  H3  UNL     1      10.104  70.888  52.095  1.00  0.00     0.165 HD
HETATM    6  C7  UNL     1       9.966  71.490  49.951  1.00  0.00     0.080 C 
HETATM    7  C8  UNL     1       8.504  71.721  50.069  1.00  0.00     0.036 C 
HETATM    8  C9  UNL     1       8.387  73.028  50.833  1.00  0.00     0.008 C 
HETATM    9  C10 UNL     1       9.798  73.499  51.095  1.00  0.00    -0.000 C 
HETATM   10  C11 UNL     1      10.540  72.880  49.914  1.00  0.00     0.023 C 
HETATM   11  C12 UNL     1      10.024  73.609  48.698  1.00  0.00     0.016 C 
HETATM   12  C13 UNL     1      10.339  75.064  48.706  1.00  0.00    -0.047 C 
HETATM   13  C14 UNL     1      11.628  75.241  47.886  1.00  0.00     0.015 C 
HETATM   14  C15 UNL     1       9.260  75.742  47.845  1.00  0.00     0.015 C 
HETATM   15  C16 UNL     1      10.444  75.700  50.038  1.00  0.00     0.018 C 
HETATM   16  C17 UNL     1       9.965  74.953  51.211  1.00  0.00    -0.043 C 
HETATM   17  C18 UNL     1       8.647  75.546  51.732  1.00  0.00     0.015 C 
HETATM   18  C19 UNL     1      10.969  75.179  52.357  1.00  0.00     0.015 C 
HETATM   19  C20 UNL     1      10.395  70.613  48.837  1.00  0.00     0.261 C 
ENDROOT
BRANCH  19  20
HETATM   20  N4  UNL     1       9.465  69.475  48.784  1.00  0.00    -0.192 N 
HETATM   21  N5  UNL     1       9.792  68.252  49.111  1.00  0.00    -0.275 N 
HETATM   22  C21 UNL     1       8.733  67.451  48.956  1.00  0.00     0.217 A 
ATOM     23  H5  UNL     1      10.712  67.955  49.436  1.00  0.00     0.189 HD
HETATM   24  N6  UNL     1       7.728  68.217  48.520  1.00  0.00    -0.279 N 
HETATM   25  N7  UNL     1       8.210  69.452  48.425  1.00  0.00    -0.223 N 
ATOM     26  H6  UNL     1       6.778  67.914  48.302  1.00  0.00     0.189 HD
ATOM     27  H7  UNL     1       7.677  70.265  48.116  1.00  0.00     0.210 HD
ENDBRANCH  19  20
BRANCH   1  28
HETATM   28  C5  UNL     1      12.703  69.562  48.499  1.00  0.00     0.132 C 
BRANCH  28  29
HETATM   29  C4  UNL     1      12.978  70.480  47.301  1.00  0.00     0.050 C 
BRANCH  29  30
HETATM   30  C3  UNL     1      13.891  69.710  46.381  1.00  0.00     0.273 C 
BRANCH  30  31
HETATM   31  N1  UNL     1      15.032  69.155  47.069  1.00  0.00     0.080 N 
HETATM   32  C1  UNL     1      15.417  67.895  46.521  1.00  0.00     0.309 C 
HETATM   33  C2  UNL     1      16.111  70.091  47.221  1.00  0.00     0.309 C 
ENDBRANCH  30  31
ENDBRANCH  29  30
ENDBRANCH  28  29
ENDBRANCH   1  28
TORSDOF 5
ENDMDL
MODEL 3
REMARK VINA RESULT: -6.386487490      2.186      6.466
REMARK  5 active torsions:
REMARK  status: ('A' for Active; 'I' for Inactive)
REMARK    1  A    between atoms: N1_2  and  C3_4 
REMARK    2  A    between atoms: C3_4  and  C4_5 
REMARK    3  A    between atoms: C4_5  and  C5_6 
REMARK    4  A    between atoms: C5_6  and  N2_7 
REMARK    5  A    between atoms: C20_25  and  N4_26 
ROOT
HETATM    1  N2  UNL     1      16.600  67.650  45.099  1.00  0.00    -0.307 N 
HETATM    2  C6  UNL     1      15.205  67.378  45.055  1.00  0.00     0.320 C 
HETATM    3  O1  UNL     1      14.272  67.974  45.654  1.00  0.00    -0.247 OA
HETATM    4  N3  UNL     1      15.027  66.263  44.179  1.00  0.00    -0.329 N 
ATOM      5  H3  UNL     1      14.183  65.698  44.080  1.00  0.00     0.165 HD
HETATM    6  C7  UNL     1      16.288  66.085  43.450  1.00  0.00     0.080 C 
HETATM    7  C8  UNL     1      16.457  64.678  43.010  1.00  0.00     0.036 C 
HETATM    8  C9  UNL     1      15.685  64.592  41.705  1.00  0.00     0.008 C 
HETATM    9  C10 UNL     1      15.128  65.972  41.445  1.00  0.00    -0.000 C 
HETATM   10  C11 UNL     1      16.158  66.845  42.158  1.00  0.00     0.023 C 
HETATM   11  C12 UNL     1      17.426  66.695  41.353  1.00  0.00     0.016 C 
HETATM   12  C13 UNL     1      17.302  67.203  39.960  1.00  0.00    -0.047 C 
HETATM   13  C14 UNL     1      17.841  68.644  39.966  1.00  0.00     0.015 C 
HETATM   14  C15 UNL     1      18.338  66.428  39.126  1.00  0.00     0.015 C 
HETATM   15  C16 UNL     1      15.955  67.122  39.355  1.00  0.00     0.018 C 
HETATM   16  C17 UNL     1      14.930  66.314  40.031  1.00  0.00    -0.043 C 
HETATM   17  C18 UNL     1      14.662  65.015  39.258  1.00  0.00     0.015 C 
HETATM   18  C19 UNL     1      13.598  67.086  39.961  1.00  0.00     0.015 C 
HETATM   19  C20 UNL     1      17.324  66.605  44.372  1.00  0.00     0.261 C 
ENDROOT
BRANCH  19  20
HETATM   20  N4  UNL     1      17.603  65.555  45.363  1.00  0.00    -0.192 N 
HETATM   21  N5  UNL     1      18.043  65.792  46.571  1.00  0.00    -0.275 N 
HETATM   22  C21 UNL     1      18.198  64.636  47.225  1.00  0.00     0.217 A 
ATOM     23  H5  UNL     1      18.237  66.717  46.956  1.00  0.00     0.189 HD
HETATM   24  N6  UNL     1      17.838  63.663  46.381  1.00  0.00    -0.279 N 
HETATM   25  N7  UNL     1      17.479  64.260  45.249  1.00  0.00    -0.223 N 
ATOM     26  H6  UNL     1      17.839  62.660  46.569  1.00  0.00     0.189 HD
ATOM     27  H7  UNL     1      17.153  63.776  44.413  1.00  0.00     0.210 HD
ENDBRANCH  19  20
BRANCH   1  28
HETATM   28  C5  UNL     1      17.229  68.762  45.744  1.00  0.00     0.132 C 
BRANCH  28  29
HETATM   29  C4  UNL     1      18.680  68.954  45.283  1.00  0.00     0.050 C 
BRANCH  29  30
HETATM   30  C3  UNL     1      19.501  69.121  46.536  1.00  0.00     0.273 C 
BRANCH  30  31
HETATM   31  N1  UNL     1      19.854  70.498  46.788  1.00  0.00     0.080 N 
HETATM   32  C1  UNL     1      20.394  70.672  48.097  1.00  0.00     0.309 C 
HETATM   33  C2  UNL     1      20.640  71.082  45.738  1.00  0.00     0.309 C 
ENDBRANCH  30  31
ENDBRANCH  29  30
ENDBRANCH  28  29
ENDBRANCH   1  28
TORSDOF 5
ENDMDL
MODEL 4
REMARK VINA RESULT: -6.302561578      3.460      6.876
REMARK  5 active torsions:
REMARK  status: ('A' for Active; 'I' for Inactive)
REMARK    1  A    between atoms: N1_2  and  C3_4 
REMARK    2  A    between atoms: C3_4  and  C4_5 
REMARK    3  A    between atoms: C4_5  and  C5_6 
REMARK    4  A    between atoms: C5_6  and  N2_7 
REMARK    5  A    between atoms: C20_25  and  N4_26 
ROOT
HETATM    1  N2  UNL     1      15.742  69.211  46.667  1.00  0.00    -0.307 N 
HETATM    2  C6  UNL     1      15.635  68.109  47.559  1.00  0.00     0.320 C 
HETATM    3  O1  UNL     1      14.791  67.922  48.474  1.00  0.00    -0.247 OA
HETATM    4  N3  UNL     1      16.693  67.206  47.233  1.00  0.00    -0.329 N 
ATOM      5  H3  UNL     1      17.017  66.420  47.799  1.00  0.00     0.165 HD
HETATM    6  C7  UNL     1      17.227  67.623  45.931  1.00  0.00     0.080 C 
HETATM    7  C8  UNL     1      18.644  67.209  45.776  1.00  0.00     0.036 C 
HETATM    8  C9  UNL     1      18.568  65.772  45.291  1.00  0.00     0.008 C 
HETATM    9  C10 UNL     1      17.101  65.439  45.164  1.00  0.00    -0.000 C 
HETATM   10  C11 UNL     1      16.508  66.817  44.884  1.00  0.00     0.023 C 
HETATM   11  C12 UNL     1      17.018  67.195  43.515  1.00  0.00     0.016 C 
HETATM   12  C13 UNL     1      16.547  66.282  42.438  1.00  0.00    -0.047 C 
HETATM   13  C14 UNL     1      15.302  66.938  41.817  1.00  0.00     0.015 C 
HETATM   14  C15 UNL     1      17.600  66.359  41.319  1.00  0.00     0.015 C 
HETATM   15  C16 UNL     1      16.289  64.881  42.839  1.00  0.00     0.018 C 
HETATM   16  C17 UNL     1      16.770  64.428  44.152  1.00  0.00    -0.043 C 
HETATM   17  C18 UNL     1      17.978  63.493  43.997  1.00  0.00     0.015 C 
HETATM   18  C19 UNL     1      15.675  63.541  44.776  1.00  0.00     0.015 C 
HETATM   19  C20 UNL     1      16.968  69.080  45.876  1.00  0.00     0.261 C 
ENDROOT
BRANCH  19  20
HETATM   20  N4  UNL     1      18.018  69.748  46.661  1.00  0.00    -0.192 N 
HETATM   21  N5  UNL     1      19.054  70.345  46.132  1.00  0.00    -0.275 N 
HETATM   22  C21 UNL     1      19.821  70.850  47.103  1.00  0.00     0.217 A 
ATOM     23  H5  UNL     1      19.246  70.414  45.132  1.00  0.00     0.189 HD
HETATM   24  N6  UNL     1      19.227  70.550  48.262  1.00  0.00    -0.279 N 
HETATM   25  N7  UNL     1      18.124  69.874  47.956  1.00  0.00    -0.223 N 
ATOM     26  H6  UNL     1      19.556  70.791  49.197  1.00  0.00     0.189 HD
ATOM     27  H7  UNL     1      17.458  69.507  48.635  1.00  0.00     0.210 HD
ENDBRANCH  19  20
BRANCH   1  28
HETATM   28  C5  UNL     1      14.814  70.293  46.538  1.00  0.00     0.132 C 
BRANCH  28  29
HETATM   29  C4  UNL     1      13.358  69.826  46.659  1.00  0.00     0.050 C 
BRANCH  29  30
HETATM   30  C3  UNL     1      12.725  70.691  47.718  1.00  0.00     0.273 C 
BRANCH  30  31
HETATM   31  N1  UNL     1      11.621  70.037  48.381  1.00  0.00     0.080 N 
HETATM   32  C1  UNL     1      11.990  69.559  49.673  1.00  0.00     0.309 C 
HETATM   33  C2  UNL     1      10.409  70.807  48.357  1.00  0.00     0.309 C 
ENDBRANCH  30  31
ENDBRANCH  29  30
ENDBRANCH  28  29
ENDBRANCH   1  28
TORSDOF 5
ENDMDL
MODEL 5
REMARK VINA RESULT: -6.240471547      1.998      6.670
REMARK  5 active torsions:
REMARK  status: ('A' for Active; 'I' for Inactive)
REMARK    1  A    between atoms: N1_2  and  C3_4 
REMARK    2  A    between atoms: C3_4  and  C4_5 
REMARK    3  A    between atoms: C4_5  and  C5_6 
REMARK    4  A    between atoms: C5_6  and  N2_7 
REMARK    5  A    between atoms: C20_25  and  N4_26 
ROOT
HETATM    1  N2  UNL     1      15.557  66.658  43.962  1.00  0.00    -0.307 N 
HETATM    2  C6  UNL     1      14.197  66.406  43.634  1.00  0.00     0.320 C 
HETATM    3  O1  UNL     1      13.162  66.888  44.164  1.00  0.00    -0.247 OA
HETATM    4  N3  UNL     1      14.196  65.471  42.552  1.00  0.00    -0.329 N 
ATOM      5  H3  UNL     1      13.395  64.939  42.211  1.00  0.00     0.165 HD
HETATM    6  C7  UNL     1      15.566  65.423  42.027  1.00  0.00     0.080 C 
HETATM    7  C8  UNL     1      15.842  64.119  41.374  1.00  0.00     0.036 C 
HETATM    8  C9  UNL     1      15.302  64.279  39.964  1.00  0.00     0.008 C 
HETATM    9  C10 UNL     1      14.762  65.686  39.869  1.00  0.00    -0.000 C 
HETATM   10  C11 UNL     1      15.635  66.407  40.892  1.00  0.00     0.023 C 
HETATM   11  C12 UNL     1      17.023  66.400  40.300  1.00  0.00     0.016 C 
HETATM   12  C13 UNL     1      17.122  67.155  39.021  1.00  0.00    -0.047 C 
HETATM   13  C14 UNL     1      17.615  68.568  39.380  1.00  0.00     0.015 C 
HETATM   14  C15 UNL     1      18.302  66.540  38.249  1.00  0.00     0.015 C 
HETATM   15  C16 UNL     1      15.897  67.195  38.192  1.00  0.00     0.018 C 
HETATM   16  C17 UNL     1      14.794  66.283  38.528  1.00  0.00    -0.043 C 
HETATM   17  C18 UNL     1      14.693  65.149  37.497  1.00  0.00     0.015 C 
HETATM   18  C19 UNL     1      13.474  67.061  38.374  1.00  0.00     0.015 C 
HETATM   19  C20 UNL     1      16.419  65.759  43.191  1.00  0.00     0.261 C 
ENDROOT
BRANCH  19  20
HETATM   20  N4  UNL     1      16.555  64.543  44.007  1.00  0.00    -0.192 N 
HETATM   21  N5  UNL     1      17.697  64.094  44.460  1.00  0.00    -0.275 N 
HETATM   22  C21 UNL     1      17.489  62.977  45.164  1.00  0.00     0.217 A 
ATOM     23  H5  UNL     1      18.606  64.530  44.301  1.00  0.00     0.189 HD
HETATM   24  N6  UNL     1      16.173  62.741  45.137  1.00  0.00    -0.279 N 
HETATM   25  N7  UNL     1      15.630  63.720  44.420  1.00  0.00    -0.223 N 
ATOM     26  H6  UNL     1      15.683  61.963  45.579  1.00  0.00     0.189 HD
ATOM     27  H7  UNL     1      14.634  63.814  44.221  1.00  0.00     0.210 HD
ENDBRANCH  19  20
BRANCH   1  28
HETATM   28  C5  UNL     1      16.041  67.629  44.896  1.00  0.00     0.132 C 
BRANCH  28  29
HETATM   29  C4  UNL     1      17.553  67.854  44.765  1.00  0.00     0.050 C 
BRANCH  29  30
HETATM   30  C3  UNL     1      18.126  67.674  46.147  1.00  0.00     0.273 C 
BRANCH  30  31
HETATM   31  N1  UNL     1      19.019  68.746  46.521  1.00  0.00     0.080 N 
HETATM   32  C1  UNL     1      19.578  69.389  45.377  1.00  0.00     0.309 C 
HETATM   33  C2  UNL     1      18.454  69.642  47.490  1.00  0.00     0.309 C 
ENDBRANCH  30  31
ENDBRANCH  29  30
ENDBRANCH  28  29
ENDBRANCH   1  28
TORSDOF 5
ENDMDL
