MODEL 1
REMARK VINA RESULT: -7.610688722      0.000      0.000
REMARK  9 active torsions:
REMARK  status: ('A' for Active; 'I' for Inactive)
REMARK    1  A    between atoms: C2_2  and  C3_3 
REMARK    2  A    between atoms: C3_3  and  N1_4 
REMARK    3  A    between atoms: C9_13  and  C10_14 
REMARK       I    between atoms: C10_14  and  N2_16 
REMARK    4  A    between atoms: N2_16  and  C11_18 
REMARK    5  A    between atoms: C11_18  and  C12_19 
REMARK    6  A    between atoms: C12_19  and  C13_20 
REMARK    7  A    between atoms: C13_20  and  N3_21 
REMARK    8  A    between atoms: N4_30  and  C22_31 
REMARK    9  A    between atoms: C22_31  and  C23_32 
ROOT
HETATM    1  N1  UNL     1     -11.522  10.393  32.572  1.00  0.00    -0.265 N 
HETATM    2  C4  UNL     1     -10.686  11.245  31.958  1.00  0.00     0.264 A 
HETATM    3  O1  UNL     1     -10.322  12.324  32.518  1.00  0.00    -0.267 OA
HETATM    4  C5  UNL     1     -10.193  10.988  30.703  1.00  0.00     0.063 A 
HETATM    5  C6  UNL     1      -9.322  11.871  30.101  1.00  0.00     0.063 A 
HETATM    6  C7  UNL     1      -8.801  11.613  28.859  1.00  0.00     0.136 A 
HETATM    7  F1  UNL     1      -7.955  12.526  28.323  1.00  0.00    -0.205 F 
HETATM    8  C8  UNL     1      -9.112  10.484  28.172  1.00  0.00     0.068 A 
HETATM    9  S1  UNL     1      -8.417  10.146  26.538  1.00  0.00    -0.048 SA
HETATM   10  C9  UNL     1     -10.008   9.562  28.775  1.00  0.00     0.081 A 
HETATM   11  C21 UNL     1     -10.546   9.802  29.991  1.00  0.00     0.071 A 
HETATM   12  N4  UNL     1     -11.389   9.000  30.647  1.00  0.00    -0.297 N 
HETATM   13  C25 UNL     1     -11.860   9.293  31.919  1.00  0.00     0.332 A 
HETATM   14  O3  UNL     1     -12.622   8.467  32.442  1.00  0.00    -0.246 OA
ENDROOT
BRANCH  10  15
HETATM   15  C10 UNL     1     -10.069   8.295  28.058  1.00  0.00     0.259 C 
HETATM   16  O2  UNL     1     -10.924   8.162  27.164  1.00  0.00    -0.267 OA
HETATM   17  N2  UNL     1      -9.203   7.226  28.369  1.00  0.00    -0.333 N 
ATOM     18  H2  UNL     1      -8.536   7.453  29.107  1.00  0.00     0.168 HD
BRANCH  17  19
HETATM   19  C11 UNL     1      -9.061   5.923  27.883  1.00  0.00     0.089 C 
BRANCH  19  20
HETATM   20  C12 UNL     1      -8.854   4.783  28.760  1.00  0.00     0.020 C 
BRANCH  20  21
HETATM   21  C13 UNL     1      -7.581   4.513  29.448  1.00  0.00     0.301 C 
BRANCH  21  22
HETATM   22  N3  UNL     1      -7.416   5.403  30.625  1.00  0.00     0.092 N 
HETATM   23  C14 UNL     1      -6.283   6.243  30.306  1.00  0.00     0.277 C 
HETATM   24  C15 UNL     1      -4.956   5.567  30.410  1.00  0.00     0.010 C 
HETATM   25  C16 UNL     1      -3.882   6.643  30.292  1.00  0.00     0.011 C 
HETATM   26  C17 UNL     1      -4.746   4.857  31.722  1.00  0.00     0.012 C 
HETATM   27  C18 UNL     1      -5.981   5.145  32.563  1.00  0.00     0.010 C 
HETATM   28  C19 UNL     1      -5.876   4.441  33.893  1.00  0.00     0.011 C 
HETATM   29  C20 UNL     1      -7.148   4.563  31.781  1.00  0.00     0.277 C 
ENDBRANCH  21  22
ENDBRANCH  20  21
ENDBRANCH  19  20
ENDBRANCH  17  19
ENDBRANCH  10  15
BRANCH  12  30
HETATM   30  C22 UNL     1     -12.108   7.961  29.989  1.00  0.00     0.133 C 
BRANCH  30  31
HETATM   31  C23 UNL     1     -13.423   8.716  29.509  1.00  0.00     0.016 C 
HETATM   32  C24 UNL     1     -14.639   7.844  29.656  1.00  0.00     0.006 C 
ENDBRANCH  30  31
ENDBRANCH  12  30
BRANCH   1  33
HETATM   33  C3  UNL     1     -12.015  10.694  33.907  1.00  0.00     0.137 C 
BRANCH  33  34
HETATM   34  C2  UNL     1     -11.178  10.113  34.994  1.00  0.00     0.016 C 
HETATM   35  C1  UNL     1     -12.075   9.417  35.994  1.00  0.00     0.006 C 
ENDBRANCH  33  34
ENDBRANCH   1  33
TORSDOF 9
ENDMDL
MODEL 2
REMARK VINA RESULT: -7.606262860      5.685      8.955
REMARK  9 active torsions:
REMARK  status: ('A' for Active; 'I' for Inactive)
REMARK    1  A    between atoms: C2_2  and  C3_3 
REMARK    2  A    between atoms: C3_3  and  N1_4 
REMARK    3  A    between atoms: C9_13  and  C10_14 
REMARK       I    between atoms: C10_14  and  N2_16 
REMARK    4  A    between atoms: N2_16  and  C11_18 
REMARK    5  A    between atoms: C11_18  and  C12_19 
REMARK    6  A    between atoms: C12_19  and  C13_20 
REMARK    7  A    between atoms: C13_20  and  N3_21 
REMARK    8  A    between atoms: N4_30  and  C22_31 
REMARK    9  A    between atoms: C22_31  and  C23_32 
ROOT
HETATM    1  N1  UNL     1       0.519   9.561  27.571  1.00  0.00    -0.265 N 
HETATM    2  C4  UNL     1      -0.218  10.515  26.980  1.00  0.00     0.264 A 
HETATM    3  O1  UNL     1       0.320  11.571  26.526  1.00  0.00    -0.267 OA
HETATM    4  C5  UNL     1      -1.578  10.391  26.844  1.00  0.00     0.063 A 
HETATM    5  C6  UNL     1      -2.309  11.377  26.218  1.00  0.00     0.063 A 
HETATM    6  C7  UNL     1      -3.665  11.253  26.052  1.00  0.00     0.136 A 
HETATM    7  F1  UNL     1      -4.325  12.262  25.432  1.00  0.00    -0.205 F 
HETATM    8  C8  UNL     1      -4.344  10.161  26.488  1.00  0.00     0.068 A 
HETATM    9  S1  UNL     1      -6.129  10.000  26.261  1.00  0.00    -0.048 SA
HETATM   10  C9  UNL     1      -3.608   9.134  27.136  1.00  0.00     0.081 A 
HETATM   11  C21 UNL     1      -2.275   9.241  27.325  1.00  0.00     0.071 A 
HETATM   12  N4  UNL     1      -1.491   8.333  27.914  1.00  0.00    -0.297 N 
HETATM   13  C25 UNL     1      -0.117   8.493  28.025  1.00  0.00     0.332 A 
HETATM   14  O3  UNL     1       0.515   7.578  28.573  1.00  0.00    -0.246 OA
ENDROOT
BRANCH  10  15
HETATM   15  C10 UNL     1      -4.396   7.925  27.336  1.00  0.00     0.259 C 
HETATM   16  O2  UNL     1      -4.398   7.065  26.437  1.00  0.00    -0.267 OA
HETATM   17  N2  UNL     1      -5.160   7.724  28.504  1.00  0.00    -0.333 N 
ATOM     18  H2  UNL     1      -5.071   8.486  29.177  1.00  0.00     0.168 HD
BRANCH  17  19
HETATM   19  C11 UNL     1      -6.013   6.706  28.940  1.00  0.00     0.089 C 
BRANCH  19  20
HETATM   20  C12 UNL     1      -5.653   5.793  30.012  1.00  0.00     0.020 C 
BRANCH  20  21
HETATM   21  C13 UNL     1      -6.162   5.920  31.387  1.00  0.00     0.301 C 
BRANCH  21  22
HETATM   22  N3  UNL     1      -5.389   5.060  32.319  1.00  0.00     0.092 N 
HETATM   23  C14 UNL     1      -5.794   3.707  32.006  1.00  0.00     0.277 C 
HETATM   24  C15 UNL     1      -7.150   3.331  32.504  1.00  0.00     0.010 C 
HETATM   25  C16 UNL     1      -7.308   1.826  32.314  1.00  0.00     0.011 C 
HETATM   26  C17 UNL     1      -7.356   3.629  33.966  1.00  0.00     0.012 C 
HETATM   27  C18 UNL     1      -6.030   4.167  34.480  1.00  0.00     0.010 C 
HETATM   28  C19 UNL     1      -6.151   4.528  35.941  1.00  0.00     0.011 C 
HETATM   29  C20 UNL     1      -5.764   5.429  33.675  1.00  0.00     0.277 C 
ENDBRANCH  21  22
ENDBRANCH  20  21
ENDBRANCH  19  20
ENDBRANCH  17  19
ENDBRANCH  10  15
BRANCH  12  30
HETATM   30  C22 UNL     1      -2.021   7.299  28.739  1.00  0.00     0.133 C 
BRANCH  30  31
HETATM   31  C23 UNL     1      -2.154   8.029  30.146  1.00  0.00     0.016 C 
HETATM   32  C24 UNL     1      -2.190   7.035  31.275  1.00  0.00     0.006 C 
ENDBRANCH  30  31
ENDBRANCH  12  30
BRANCH   1  33
HETATM   33  C3  UNL     1       1.959   9.722  27.686  1.00  0.00     0.137 C 
BRANCH  33  34
HETATM   34  C2  UNL     1       2.703   9.322  26.459  1.00  0.00     0.016 C 
HETATM   35  C1  UNL     1       3.716  10.393  26.121  1.00  0.00     0.006 C 
ENDBRANCH  33  34
ENDBRANCH   1  33
TORSDOF 9
ENDMDL
MODEL 3
REMARK VINA RESULT: -7.359404472      4.931      7.678
REMARK  9 active torsions:
REMARK  status: ('A' for Active; 'I' for Inactive)
REMARK    1  A    between atoms: C2_2  and  C3_3 
REMARK    2  A    between atoms: C3_3  and  N1_4 
REMARK    3  A    between atoms: C9_13  and  C10_14 
REMARK       I    between atoms: C10_14  and  N2_16 
REMARK    4  A    between atoms: N2_16  and  C11_18 
REMARK    5  A    between atoms: C11_18  and  C12_19 
REMARK    6  A    between atoms: C12_19  and  C13_20 
REMARK    7  A    between atoms: C13_20  and  N3_21 
REMARK    8  A    between atoms: N4_30  and  C22_31 
REMARK    9  A    between atoms: C22_31  and  C23_32 
ROOT
HETATM    1  N1  UNL     1      -5.708   4.972  32.055  1.00  0.00    -0.265 N 
HETATM    2  C4  UNL     1      -6.873   4.679  31.455  1.00  0.00     0.264 A 
HETATM    3  O1  UNL     1      -7.698   3.873  31.983  1.00  0.00    -0.267 OA
HETATM    4  C5  UNL     1      -7.218   5.236  30.248  1.00  0.00     0.063 A 
HETATM    5  C6  UNL     1      -8.427   4.933  29.661  1.00  0.00     0.063 A 
HETATM    6  C7  UNL     1      -8.796   5.502  28.468  1.00  0.00     0.136 A 
HETATM    7  F1  UNL     1      -9.996   5.156  27.943  1.00  0.00    -0.205 F 
HETATM    8  C8  UNL     1      -7.996   6.387  27.819  1.00  0.00     0.068 A 
HETATM    9  S1  UNL     1      -8.490   7.139  26.253  1.00  0.00    -0.048 SA
HETATM   10  C9  UNL     1      -6.745   6.712  28.409  1.00  0.00     0.081 A 
HETATM   11  C21 UNL     1      -6.354   6.152  29.574  1.00  0.00     0.071 A 
HETATM   12  N4  UNL     1      -5.206   6.394  30.213  1.00  0.00    -0.297 N 
HETATM   13  C25 UNL     1      -4.898   5.816  31.436  1.00  0.00     0.332 A 
HETATM   14  O3  UNL     1      -3.813   6.127  31.950  1.00  0.00    -0.246 OA
ENDROOT
BRANCH  10  15
HETATM   15  C10 UNL     1      -6.097   7.840  27.753  1.00  0.00     0.259 C 
HETATM   16  O2  UNL     1      -6.277   8.979  28.219  1.00  0.00    -0.267 OA
HETATM   17  N2  UNL     1      -5.297   7.667  26.604  1.00  0.00    -0.333 N 
ATOM     18  H2  UNL     1      -5.209   6.691  26.320  1.00  0.00     0.168 HD
BRANCH  17  19
HETATM   19  C11 UNL     1      -4.599   8.545  25.770  1.00  0.00     0.089 C 
BRANCH  19  20
HETATM   20  C12 UNL     1      -3.294   9.081  26.120  1.00  0.00     0.020 C 
BRANCH  20  21
HETATM   21  C13 UNL     1      -3.091  10.451  26.617  1.00  0.00     0.301 C 
BRANCH  21  22
HETATM   22  N3  UNL     1      -1.996  10.494  27.619  1.00  0.00     0.092 N 
HETATM   23  C14 UNL     1      -1.074  11.494  27.125  1.00  0.00     0.277 C 
HETATM   24  C15 UNL     1      -0.237  11.055  25.970  1.00  0.00     0.010 C 
HETATM   25  C16 UNL     1       0.833  12.118  25.748  1.00  0.00     0.011 C 
HETATM   26  C17 UNL     1       0.466   9.744  26.202  1.00  0.00     0.012 C 
HETATM   27  C18 UNL     1       0.132   9.329  27.626  1.00  0.00     0.010 C 
HETATM   28  C19 UNL     1       0.770   7.998  27.940  1.00  0.00     0.011 C 
HETATM   29  C20 UNL     1      -1.381   9.176  27.660  1.00  0.00     0.277 C 
ENDBRANCH  21  22
ENDBRANCH  20  21
ENDBRANCH  19  20
ENDBRANCH  17  19
ENDBRANCH  10  15
BRANCH  12  30
HETATM   30  C22 UNL     1      -4.093   7.000  29.563  1.00  0.00     0.133 C 
BRANCH  30  31
HETATM   31  C23 UNL     1      -3.347   5.743  28.936  1.00  0.00     0.016 C 
HETATM   32  C24 UNL     1      -1.871   5.786  29.220  1.00  0.00     0.006 C 
ENDBRANCH  30  31
ENDBRANCH  12  30
BRANCH   1  33
HETATM   33  C3  UNL     1      -5.382   4.372  33.339  1.00  0.00     0.137 C 
BRANCH  33  34
HETATM   34  C2  UNL     1      -5.755   5.221  34.504  1.00  0.00     0.016 C 
HETATM   35  C1  UNL     1      -6.122   4.331  35.671  1.00  0.00     0.006 C 
ENDBRANCH  33  34
ENDBRANCH   1  33
TORSDOF 9
ENDMDL
MODEL 4
REMARK VINA RESULT: -7.347904096      4.312      8.558
REMARK  9 active torsions:
REMARK  status: ('A' for Active; 'I' for Inactive)
REMARK    1  A    between atoms: C2_2  and  C3_3 
REMARK    2  A    between atoms: C3_3  and  N1_4 
REMARK    3  A    between atoms: C9_13  and  C10_14 
REMARK       I    between atoms: C10_14  and  N2_16 
REMARK    4  A    between atoms: N2_16  and  C11_18 
REMARK    5  A    between atoms: C11_18  and  C12_19 
REMARK    6  A    between atoms: C12_19  and  C13_20 
REMARK    7  A    between atoms: C13_20  and  N3_21 
REMARK    8  A    between atoms: N4_30  and  C22_31 
REMARK    9  A    between atoms: C22_31  and  C23_32 
ROOT
HETATM    1  N1  UNL     1      -2.261   8.682  28.632  1.00  0.00    -0.265 N 
HETATM    2  C4  UNL     1      -1.741   7.580  29.195  1.00  0.00     0.264 A 
HETATM    3  O1  UNL     1      -0.487   7.387  29.223  1.00  0.00    -0.267 OA
HETATM    4  C5  UNL     1      -2.541   6.619  29.762  1.00  0.00     0.063 A 
HETATM    5  C6  UNL     1      -1.982   5.505  30.350  1.00  0.00     0.063 A 
HETATM    6  C7  UNL     1      -2.767   4.550  30.943  1.00  0.00     0.136 A 
HETATM    7  F1  UNL     1      -2.153   3.477  31.499  1.00  0.00    -0.205 F 
HETATM    8  C8  UNL     1      -4.120   4.659  30.983  1.00  0.00     0.068 A 
HETATM    9  S1  UNL     1      -5.150   3.401  31.772  1.00  0.00    -0.048 SA
HETATM   10  C9  UNL     1      -4.715   5.800  30.382  1.00  0.00     0.081 A 
HETATM   11  C21 UNL     1      -3.963   6.745  29.778  1.00  0.00     0.071 A 
HETATM   12  N4  UNL     1      -4.421   7.855  29.192  1.00  0.00    -0.297 N 
HETATM   13  C25 UNL     1      -3.578   8.807  28.636  1.00  0.00     0.332 A 
HETATM   14  O3  UNL     1      -4.111   9.808  28.136  1.00  0.00    -0.246 OA
ENDROOT
BRANCH  10  15
HETATM   15  C10 UNL     1      -6.131   5.922  30.700  1.00  0.00     0.259 C 
HETATM   16  O2  UNL     1      -6.453   6.484  31.763  1.00  0.00    -0.267 OA
HETATM   17  N2  UNL     1      -7.129   5.404  29.848  1.00  0.00    -0.333 N 
ATOM     18  H2  UNL     1      -6.750   4.978  29.001  1.00  0.00     0.168 HD
BRANCH  17  19
HETATM   19  C11 UNL     1      -8.524   5.349  29.912  1.00  0.00     0.089 C 
BRANCH  19  20
HETATM   20  C12 UNL     1      -9.371   6.416  29.405  1.00  0.00     0.020 C 
BRANCH  20  21
HETATM   21  C13 UNL     1      -9.397   7.769  29.982  1.00  0.00     0.301 C 
BRANCH  21  22
HETATM   22  N3  UNL     1     -10.598   8.515  29.529  1.00  0.00     0.092 N 
HETATM   23  C14 UNL     1     -10.648   9.694  30.367  1.00  0.00     0.277 C 
HETATM   24  C15 UNL     1     -11.111   9.448  31.763  1.00  0.00     0.010 C 
HETATM   25  C16 UNL     1     -11.343  10.805  32.417  1.00  0.00     0.011 C 
HETATM   26  C17 UNL     1     -12.405   8.679  31.840  1.00  0.00     0.012 C 
HETATM   27  C18 UNL     1     -12.860   8.471  30.404  1.00  0.00     0.010 C 
HETATM   28  C19 UNL     1     -14.141   7.674  30.379  1.00  0.00     0.011 C 
HETATM   29  C20 UNL     1     -11.756   7.661  29.742  1.00  0.00     0.277 C 
ENDBRANCH  21  22
ENDBRANCH  20  21
ENDBRANCH  19  20
ENDBRANCH  17  19
ENDBRANCH  10  15
BRANCH  12  30
HETATM   30  C22 UNL     1      -5.787   8.000  28.814  1.00  0.00     0.133 C 
BRANCH  30  31
HETATM   31  C23 UNL     1      -5.790   7.407  27.338  1.00  0.00     0.016 C 
HETATM   32  C24 UNL     1      -7.134   7.578  26.684  1.00  0.00     0.006 C 
ENDBRANCH  30  31
ENDBRANCH  12  30
BRANCH   1  33
HETATM   33  C3  UNL     1      -1.382   9.685  28.051  1.00  0.00     0.137 C 
BRANCH  33  34
HETATM   34  C2  UNL     1      -1.069   9.442  26.615  1.00  0.00     0.016 C 
HETATM   35  C1  UNL     1       0.432   9.430  26.428  1.00  0.00     0.006 C 
ENDBRANCH  33  34
ENDBRANCH   1  33
TORSDOF 9
ENDMDL
MODEL 5
REMARK VINA RESULT: -7.339503564      2.980      7.106
REMARK  9 active torsions:
REMARK  status: ('A' for Active; 'I' for Inactive)
REMARK    1  A    between atoms: C2_2  and  C3_3 
REMARK    2  A    between atoms: C3_3  and  N1_4 
REMARK    3  A    between atoms: C9_13  and  C10_14 
REMARK       I    between atoms: C10_14  and  N2_16 
REMARK    4  A    between atoms: N2_16  and  C11_18 
REMARK    5  A    between atoms: C11_18  and  C12_19 
REMARK    6  A    between atoms: C12_19  and  C13_20 
REMARK    7  A    between atoms: C13_20  and  N3_21 
REMARK    8  A    between atoms: N4_30  and  C22_31 
REMARK    9  A    between atoms: C22_31  and  C23_32 
ROOT
HETATM    1  N1  UNL     1      -5.988   4.420  31.348  1.00  0.00    -0.265 N 
HETATM    2  C4  UNL     1      -4.749   4.867  31.086  1.00  0.00     0.264 A 
HETATM    3  O1  UNL     1      -3.726   4.196  31.423  1.00  0.00    -0.267 OA
HETATM    4  C5  UNL     1      -4.538   6.064  30.449  1.00  0.00     0.063 A 
HETATM    5  C6  UNL     1      -3.257   6.492  30.177  1.00  0.00     0.063 A 
HETATM    6  C7  UNL     1      -3.032   7.673  29.517  1.00  0.00     0.136 A 
HETATM    7  F1  UNL     1      -1.747   8.038  29.286  1.00  0.00    -0.205 F 
HETATM    8  C8  UNL     1      -4.052   8.467  29.100  1.00  0.00     0.068 A 
HETATM    9  S1  UNL     1      -3.750  10.018  28.225  1.00  0.00    -0.048 SA
HETATM   10  C9  UNL     1      -5.380   8.042  29.372  1.00  0.00     0.081 A 
HETATM   11  C21 UNL     1      -5.625   6.891  30.034  1.00  0.00     0.071 A 
HETATM   12  N4  UNL     1      -6.831   6.400  30.332  1.00  0.00    -0.297 N 
HETATM   13  C25 UNL     1      -7.003   5.181  30.972  1.00  0.00     0.332 A 
HETATM   14  O3  UNL     1      -8.169   4.813  31.182  1.00  0.00    -0.246 OA
ENDROOT
BRANCH  10  15
HETATM   15  C10 UNL     1      -6.375   8.843  28.670  1.00  0.00     0.259 C 
HETATM   16  O2  UNL     1      -6.633   8.561  27.487  1.00  0.00    -0.267 OA
HETATM   17  N2  UNL     1      -7.025   9.928  29.294  1.00  0.00    -0.333 N 
ATOM     18  H2  UNL     1      -6.745  10.057  30.267  1.00  0.00     0.168 HD
BRANCH  17  19
HETATM   19  C11 UNL     1      -7.971  10.865  28.868  1.00  0.00     0.089 C 
BRANCH  19  20
HETATM   20  C12 UNL     1      -9.307  10.937  29.435  1.00  0.00     0.020 C 
BRANCH  20  21
HETATM   21  C13 UNL     1      -9.624  11.677  30.667  1.00  0.00     0.301 C 
BRANCH  21  22
HETATM   22  N3  UNL     1     -11.088  11.694  30.912  1.00  0.00     0.092 N 
HETATM   23  C14 UNL     1     -11.230  11.608  32.350  1.00  0.00     0.277 C 
HETATM   24  C15 UNL     1     -10.973  10.254  32.922  1.00  0.00     0.010 C 
HETATM   25  C16 UNL     1     -11.407  10.283  34.383  1.00  0.00     0.011 C 
HETATM   26  C17 UNL     1     -11.747   9.157  32.239  1.00  0.00     0.012 C 
HETATM   27  C18 UNL     1     -12.624   9.840  31.201  1.00  0.00     0.010 C 
HETATM   28  C19 UNL     1     -13.418   8.808  30.437  1.00  0.00     0.011 C 
HETATM   29  C20 UNL     1     -11.662  10.534  30.250  1.00  0.00     0.277 C 
ENDBRANCH  21  22
ENDBRANCH  20  21
ENDBRANCH  19  20
ENDBRANCH  17  19
ENDBRANCH  10  15
BRANCH  12  30
HETATM   30  C22 UNL     1      -8.003   7.210  30.307  1.00  0.00     0.133 C 
BRANCH  30  31
HETATM   31  C23 UNL     1      -8.835   6.558  29.118  1.00  0.00     0.016 C 
HETATM   32  C24 UNL     1     -10.233   7.112  29.061  1.00  0.00     0.006 C 
ENDBRANCH  30  31
ENDBRANCH  12  30
BRANCH   1  33
HETATM   33  C3  UNL     1      -6.173   3.141  32.015  1.00  0.00     0.137 C 
BRANCH  33  34
HETATM   34  C2  UNL     1      -6.571   3.268  33.444  1.00  0.00     0.016 C 
HETATM   35  C1  UNL     1      -7.723   2.329  33.726  1.00  0.00     0.006 C 
ENDBRANCH  33  34
ENDBRANCH   1  33
TORSDOF 9
ENDMDL
