MODEL 1
REMARK VINA RESULT: -7.631943487      0.000      0.000
REMARK  5 active torsions:
REMARK  status: ('A' for Active; 'I' for Inactive)
REMARK    1  A    between atoms: N1_1  and  S1_4 
REMARK    2  A    between atoms: S1_4  and  C1_7 
REMARK    3  A    between atoms: C4_10  and  S2_11 
REMARK    4  A    between atoms: S2_11  and  N2_14 
REMARK    5  A    between atoms: C9_19  and  N3_20 
ROOT
HETATM    1  S2  UNL     1      13.214  12.430  20.089  1.00  0.00     0.284 S 
HETATM    2  O3  UNL     1      12.978  13.935  20.001  1.00  0.00    -0.198 OA
HETATM    3  O4  UNL     1      11.934  11.832  19.509  1.00  0.00    -0.198 OA
ENDROOT
BRANCH   1   4
HETATM    4  C4  UNL     1      13.421  11.934  21.733  1.00  0.00     0.149 A 
HETATM    5  C3  UNL     1      14.651  11.871  22.337  1.00  0.00     0.045 A 
HETATM    6  C2  UNL     1      14.817  11.494  23.654  1.00  0.00     0.029 A 
HETATM    7  C1  UNL     1      13.709  11.170  24.389  1.00  0.00     0.094 A 
HETATM    8  C13 UNL     1      12.468  11.235  23.773  1.00  0.00     0.114 A 
HETATM    9  N4  UNL     1      12.351  11.611  22.477  1.00  0.00    -0.354 N 
ATOM     10  H4  UNL     1      11.423  11.651  22.054  1.00  0.00     0.166 HD
BRANCH   7  11
HETATM   11  S1  UNL     1      13.917  10.694  26.050  1.00  0.00     0.258 S 
HETATM   12  O1  UNL     1      15.340  10.978  26.498  1.00  0.00    -0.201 OA
HETATM   13  O2  UNL     1      13.624   9.232  26.198  1.00  0.00    -0.201 OA
BRANCH  11  14
HETATM   14  N1  UNL     1      12.863  11.652  27.044  1.00  0.00    -0.324 N 
ATOM     15  H12 UNL     1      12.618  12.629  26.881  1.00  0.00     0.169 HD
ATOM     16  H11 UNL     1      12.545  11.057  27.809  1.00  0.00     0.169 HD
ENDBRANCH  11  14
ENDBRANCH   7  11
ENDBRANCH   1   4
BRANCH   1  17
HETATM   17  N2  UNL     1      14.557  12.064  19.071  1.00  0.00    -0.245 N 
HETATM   18  C5  UNL     1      15.091  12.869  18.105  1.00  0.00     0.111 A 
HETATM   19  C6  UNL     1      16.167  12.261  17.503  1.00  0.00     0.032 A 
HETATM   20  C7  UNL     1      16.318  11.024  18.112  1.00  0.00    -0.005 A 
HETATM   21  C8  UNL     1      17.226   9.982  17.911  1.00  0.00     0.050 A 
HETATM   22  C12 UNL     1      15.319  10.954  19.055  1.00  0.00     0.060 A 
HETATM   23  C9  UNL     1      17.144   8.831  18.664  1.00  0.00     0.103 A 
HETATM   24  C10 UNL     1      16.143   8.762  19.607  1.00  0.00     0.038 A 
HETATM   25  C11 UNL     1      15.245   9.786  19.809  1.00  0.00     0.034 A 
BRANCH  23  26
HETATM   26  N3  UNL     1      18.067   7.746  18.477  1.00  0.00    -0.116 N 
HETATM   27  O5  UNL     1      18.195   6.908  19.365  1.00  0.00    -0.532 OA
HETATM   28  O6  UNL     1      18.801   7.627  17.339  1.00  0.00    -0.532 OA
ENDBRANCH  23  26
ENDBRANCH   1  17
TORSDOF 5
ENDMDL
MODEL 2
REMARK VINA RESULT: -7.498088924      1.146      1.410
REMARK  5 active torsions:
REMARK  status: ('A' for Active; 'I' for Inactive)
REMARK    1  A    between atoms: N1_1  and  S1_4 
REMARK    2  A    between atoms: S1_4  and  C1_7 
REMARK    3  A    between atoms: C4_10  and  S2_11 
REMARK    4  A    between atoms: S2_11  and  N2_14 
REMARK    5  A    between atoms: C9_19  and  N3_20 
ROOT
HETATM    1  S2  UNL     1      13.423  12.447  20.107  1.00  0.00     0.284 S 
HETATM    2  O3  UNL     1      13.349  13.957  20.304  1.00  0.00    -0.198 OA
HETATM    3  O4  UNL     1      12.074  12.099  19.482  1.00  0.00    -0.198 OA
ENDROOT
BRANCH   1   4
HETATM    4  C4  UNL     1      13.613  11.636  21.622  1.00  0.00     0.149 A 
HETATM    5  C3  UNL     1      12.843  10.561  21.988  1.00  0.00     0.045 A 
HETATM    6  C2  UNL     1      13.006   9.900  23.188  1.00  0.00     0.029 A 
HETATM    7  C1  UNL     1      13.977  10.333  24.049  1.00  0.00     0.094 A 
HETATM    8  C13 UNL     1      14.753  11.420  23.675  1.00  0.00     0.114 A 
HETATM    9  N4  UNL     1      14.559  12.040  22.486  1.00  0.00    -0.354 N 
ATOM     10  H4  UNL     1      15.148  12.835  22.239  1.00  0.00     0.166 HD
BRANCH   7  11
HETATM   11  S1  UNL     1      14.183   9.501  25.564  1.00  0.00     0.258 S 
HETATM   12  O1  UNL     1      14.291   8.005  25.324  1.00  0.00    -0.201 OA
HETATM   13  O2  UNL     1      13.018   9.785  26.461  1.00  0.00    -0.201 OA
BRANCH  11  14
HETATM   14  N1  UNL     1      15.676  10.014  26.287  1.00  0.00    -0.324 N 
ATOM     15  H12 UNL     1      15.993  10.980  26.374  1.00  0.00     0.169 HD
ATOM     16  H11 UNL     1      16.164   9.175  26.602  1.00  0.00     0.169 HD
ENDBRANCH  11  14
ENDBRANCH   7  11
ENDBRANCH   1   4
BRANCH   1  17
HETATM   17  N2  UNL     1      14.695  12.141  18.983  1.00  0.00    -0.245 N 
HETATM   18  C5  UNL     1      15.128  12.979  17.994  1.00  0.00     0.111 A 
HETATM   19  C6  UNL     1      16.174  12.417  17.301  1.00  0.00     0.032 A 
HETATM   20  C7  UNL     1      16.411  11.176  17.874  1.00  0.00    -0.005 A 
HETATM   21  C8  UNL     1      17.334  10.168  17.586  1.00  0.00     0.050 A 
HETATM   22  C12 UNL     1      15.489  11.058  18.888  1.00  0.00     0.060 A 
HETATM   23  C9  UNL     1      17.347   9.004  18.322  1.00  0.00     0.103 A 
HETATM   24  C10 UNL     1      16.423   8.886  19.337  1.00  0.00     0.038 A 
HETATM   25  C11 UNL     1      15.511   9.877  19.625  1.00  0.00     0.034 A 
BRANCH  23  26
HETATM   26  N3  UNL     1      18.287   7.953  18.046  1.00  0.00    -0.116 N 
HETATM   27  O5  UNL     1      18.576   7.158  18.935  1.00  0.00    -0.532 OA
HETATM   28  O6  UNL     1      18.865   7.821  16.821  1.00  0.00    -0.532 OA
ENDBRANCH  23  26
ENDBRANCH   1  17
TORSDOF 5
ENDMDL
MODEL 3
REMARK VINA RESULT: -7.486732404      1.250      1.322
REMARK  5 active torsions:
REMARK  status: ('A' for Active; 'I' for Inactive)
REMARK    1  A    between atoms: N1_1  and  S1_4 
REMARK    2  A    between atoms: S1_4  and  C1_7 
REMARK    3  A    between atoms: C4_10  and  S2_11 
REMARK    4  A    between atoms: S2_11  and  N2_14 
REMARK    5  A    between atoms: C9_19  and  N3_20 
ROOT
HETATM    1  S2  UNL     1      13.844  12.175  19.870  1.00  0.00     0.284 S 
HETATM    2  O3  UNL     1      13.929  13.687  20.049  1.00  0.00    -0.198 OA
HETATM    3  O4  UNL     1      12.479  11.967  19.217  1.00  0.00    -0.198 OA
ENDROOT
BRANCH   1   4
HETATM    4  C4  UNL     1      13.911  11.368  21.398  1.00  0.00     0.149 A 
HETATM    5  C3  UNL     1      14.749  11.766  22.408  1.00  0.00     0.045 A 
HETATM    6  C2  UNL     1      14.790  11.136  23.635  1.00  0.00     0.029 A 
HETATM    7  C1  UNL     1      13.961  10.071  23.855  1.00  0.00     0.094 A 
HETATM    8  C13 UNL     1      13.115   9.672  22.830  1.00  0.00     0.114 A 
HETATM    9  N4  UNL     1      13.107  10.320  21.640  1.00  0.00    -0.354 N 
ATOM     10  H4  UNL     1      12.472  10.003  20.907  1.00  0.00     0.166 HD
BRANCH   7  11
HETATM   11  S1  UNL     1      14.012   9.274  25.402  1.00  0.00     0.258 S 
HETATM   12  O1  UNL     1      14.182   7.778  25.209  1.00  0.00    -0.201 OA
HETATM   13  O2  UNL     1      12.744   9.545  26.153  1.00  0.00    -0.201 OA
BRANCH  11  14
HETATM   14  N1  UNL     1      15.399   9.842  26.279  1.00  0.00    -0.324 N 
ATOM     15  H12 UNL     1      16.364   9.558  26.112  1.00  0.00     0.169 HD
ATOM     16  H11 UNL     1      15.063  10.503  26.980  1.00  0.00     0.169 HD
ENDBRANCH  11  14
ENDBRANCH   7  11
ENDBRANCH   1   4
BRANCH   1  17
HETATM   17  N2  UNL     1      15.100  11.719  18.780  1.00  0.00    -0.245 N 
HETATM   18  C5  UNL     1      15.558  12.442  17.715  1.00  0.00     0.111 A 
HETATM   19  C6  UNL     1      16.581  11.780  17.079  1.00  0.00     0.032 A 
HETATM   20  C7  UNL     1      16.777  10.592  17.767  1.00  0.00    -0.005 A 
HETATM   21  C8  UNL     1      17.662   9.529  17.577  1.00  0.00     0.050 A 
HETATM   22  C12 UNL     1      15.855  10.604  18.789  1.00  0.00     0.060 A 
HETATM   23  C9  UNL     1      17.637   8.441  18.421  1.00  0.00     0.103 A 
HETATM   24  C10 UNL     1      16.714   8.453  19.443  1.00  0.00     0.038 A 
HETATM   25  C11 UNL     1      15.838   9.498  19.636  1.00  0.00     0.034 A 
BRANCH  23  26
HETATM   26  N3  UNL     1      18.538   7.335  18.246  1.00  0.00    -0.116 N 
HETATM   27  O5  UNL     1      18.787   6.607  19.203  1.00  0.00    -0.532 OA
HETATM   28  O6  UNL     1      19.123   7.079  17.045  1.00  0.00    -0.532 OA
ENDBRANCH  23  26
ENDBRANCH   1  17
TORSDOF 5
ENDMDL
MODEL 4
REMARK VINA RESULT: -7.452600015      2.302      2.729
REMARK  5 active torsions:
REMARK  status: ('A' for Active; 'I' for Inactive)
REMARK    1  A    between atoms: N1_1  and  S1_4 
REMARK    2  A    between atoms: S1_4  and  C1_7 
REMARK    3  A    between atoms: C4_10  and  S2_11 
REMARK    4  A    between atoms: S2_11  and  N2_14 
REMARK    5  A    between atoms: C9_19  and  N3_20 
ROOT
HETATM    1  S2  UNL     1      14.916  11.934  18.548  1.00  0.00     0.284 S 
HETATM    2  O3  UNL     1      15.632  13.276  18.437  1.00  0.00    -0.198 OA
HETATM    3  O4  UNL     1      13.961  11.937  17.357  1.00  0.00    -0.198 OA
ENDROOT
BRANCH   1   4
HETATM    4  C4  UNL     1      14.033  11.828  20.031  1.00  0.00     0.149 A 
HETATM    5  C3  UNL     1      14.615  12.038  21.255  1.00  0.00     0.045 A 
HETATM    6  C2  UNL     1      13.908  11.973  22.439  1.00  0.00     0.029 A 
HETATM    7  C1  UNL     1      12.571  11.688  22.390  1.00  0.00     0.094 A 
HETATM    8  C13 UNL     1      11.987  11.476  21.150  1.00  0.00     0.114 A 
HETATM    9  N4  UNL     1      12.720  11.550  20.012  1.00  0.00    -0.354 N 
ATOM     10  H4  UNL     1      12.260  11.391  19.115  1.00  0.00     0.166 HD
BRANCH   7  11
HETATM   11  S1  UNL     1      11.678  11.605  23.881  1.00  0.00     0.258 S 
HETATM   12  O1  UNL     1      12.601  11.204  25.018  1.00  0.00    -0.201 OA
HETATM   13  O2  UNL     1      10.571  10.604  23.754  1.00  0.00    -0.201 OA
BRANCH  11  14
HETATM   14  N1  UNL     1      11.060  13.185  24.254  1.00  0.00    -0.324 N 
ATOM     15  H12 UNL     1      11.611  14.042  24.302  1.00  0.00     0.169 HD
ATOM     16  H11 UNL     1      10.057  13.088  24.412  1.00  0.00     0.169 HD
ENDBRANCH  11  14
ENDBRANCH   7  11
ENDBRANCH   1   4
BRANCH   1  17
HETATM   17  N2  UNL     1      16.108  10.703  18.351  1.00  0.00    -0.245 N 
HETATM   18  C5  UNL     1      17.213  10.758  17.550  1.00  0.00     0.111 A 
HETATM   19  C6  UNL     1      17.951   9.603  17.656  1.00  0.00     0.032 A 
HETATM   20  C7  UNL     1      17.287   8.787  18.558  1.00  0.00    -0.005 A 
HETATM   21  C8  UNL     1      17.559   7.507  19.046  1.00  0.00     0.050 A 
HETATM   22  C12 UNL     1      16.177   9.499  18.951  1.00  0.00     0.060 A 
HETATM   23  C9  UNL     1      16.708   6.908  19.949  1.00  0.00     0.103 A 
HETATM   24  C10 UNL     1      15.597   7.622  20.340  1.00  0.00     0.038 A 
HETATM   25  C11 UNL     1      15.323   8.884  19.863  1.00  0.00     0.034 A 
BRANCH  23  26
HETATM   26  N3  UNL     1      16.967   5.593  20.465  1.00  0.00    -0.116 N 
HETATM   27  O5  UNL     1      16.619   5.319  21.610  1.00  0.00    -0.532 OA
HETATM   28  O6  UNL     1      17.591   4.645  19.714  1.00  0.00    -0.532 OA
ENDBRANCH  23  26
ENDBRANCH   1  17
TORSDOF 5
ENDMDL
MODEL 5
REMARK VINA RESULT: -7.240784492      1.130      1.424
REMARK  5 active torsions:
REMARK  status: ('A' for Active; 'I' for Inactive)
REMARK    1  A    between atoms: N1_1  and  S1_4 
REMARK    2  A    between atoms: S1_4  and  C1_7 
REMARK    3  A    between atoms: C4_10  and  S2_11 
REMARK    4  A    between atoms: S2_11  and  N2_14 
REMARK    5  A    between atoms: C9_19  and  N3_20 
ROOT
HETATM    1  S2  UNL     1      12.342  12.710  20.230  1.00  0.00     0.284 S 
HETATM    2  O3  UNL     1      11.693  14.082  20.375  1.00  0.00    -0.198 OA
HETATM    3  O4  UNL     1      11.203  11.824  19.731  1.00  0.00    -0.198 OA
ENDROOT
BRANCH   1   4
HETATM    4  C4  UNL     1      12.926  12.140  21.755  1.00  0.00     0.149 A 
HETATM    5  C3  UNL     1      14.263  12.067  22.054  1.00  0.00     0.045 A 
HETATM    6  C2  UNL     1      14.731  11.631  23.277  1.00  0.00     0.029 A 
HETATM    7  C1  UNL     1      13.825  11.257  24.232  1.00  0.00     0.094 A 
HETATM    8  C13 UNL     1      12.475  11.332  23.924  1.00  0.00     0.114 A 
HETATM    9  N4  UNL     1      12.059  11.767  22.709  1.00  0.00    -0.354 N 
ATOM     10  H4  UNL     1      11.058  11.812  22.515  1.00  0.00     0.166 HD
BRANCH   7  11
HETATM   11  S1  UNL     1      14.413  10.706  25.775  1.00  0.00     0.258 S 
HETATM   12  O1  UNL     1      15.879  11.070  25.931  1.00  0.00    -0.201 OA
HETATM   13  O2  UNL     1      14.248   9.221  25.879  1.00  0.00    -0.201 OA
BRANCH  11  14
HETATM   14  N1  UNL     1      13.543  11.528  27.033  1.00  0.00    -0.324 N 
ATOM     15  H12 UNL     1      12.825  12.240  26.892  1.00  0.00     0.169 HD
ATOM     16  H11 UNL     1      13.884  11.165  27.923  1.00  0.00     0.169 HD
ENDBRANCH  11  14
ENDBRANCH   7  11
ENDBRANCH   1   4
BRANCH   1  17
HETATM   17  N2  UNL     1      13.562  12.848  19.019  1.00  0.00    -0.245 N 
HETATM   18  C5  UNL     1      13.814  13.939  18.237  1.00  0.00     0.111 A 
HETATM   19  C6  UNL     1      14.873  13.701  17.392  1.00  0.00     0.032 A 
HETATM   20  C7  UNL     1      15.306  12.409  17.651  1.00  0.00    -0.005 A 
HETATM   21  C8  UNL     1      16.328  11.632  17.102  1.00  0.00     0.050 A 
HETATM   22  C12 UNL     1      14.480  11.937  18.644  1.00  0.00     0.060 A 
HETATM   23  C9  UNL     1      16.541  10.346  17.545  1.00  0.00     0.103 A 
HETATM   24  C10 UNL     1      15.713   9.873  18.538  1.00  0.00     0.038 A 
HETATM   25  C11 UNL     1      14.704  10.635  19.084  1.00  0.00     0.034 A 
BRANCH  23  26
HETATM   26  N3  UNL     1      17.587   9.527  16.995  1.00  0.00    -0.116 N 
HETATM   27  O5  UNL     1      18.264   8.834  17.749  1.00  0.00    -0.532 OA
HETATM   28  O6  UNL     1      17.844   9.505  15.660  1.00  0.00    -0.532 OA
ENDBRANCH  23  26
ENDBRANCH   1  17
TORSDOF 5
ENDMDL
