MODEL 1
REMARK VINA RESULT: -8.452511863      0.000      0.000
REMARK  12 active torsions:
REMARK  status: ('A' for Active; 'I' for Inactive)
REMARK    1  A    between atoms: C2_2  and  C3_3 
REMARK    2  A    between atoms: C4_4  and  S1_5 
REMARK    3  A    between atoms: C6_8  and  N1_9 
REMARK       I    between atoms: N1_9  and  C7_11 
REMARK    4  A    between atoms: N3_17  and  C10_18 
REMARK    5  A    between atoms: C10_18  and  C11_19 
REMARK    6  A    between atoms: C11_19  and  C12_20 
REMARK    7  A    between atoms: C12_20  and  C13_21 
REMARK    8  A    between atoms: C13_21  and  C14_22 
REMARK    9  A    between atoms: C14_22  and  N4_23 
REMARK   10  A    between atoms: C16_27  and  C17_28 
REMARK   11  A    between atoms: C17_28  and  C18_29 
REMARK   12  A    between atoms: C18_29  and  C19_30 
ROOT
HETATM    1  N4  UNL     1      17.964   4.623  20.173  1.00  0.00    -0.351 N 
HETATM    2  C15 UNL     1      16.938   5.162  19.495  1.00  0.00     0.183 A 
HETATM    3  N5  UNL     1      16.134   5.851  20.295  1.00  0.00    -0.354 N 
ATOM      4  H5  UNL     1      15.290   6.351  20.013  1.00  0.00     0.166 HD
HETATM    5  C16 UNL     1      16.633   5.774  21.553  1.00  0.00     0.026 A 
HETATM    6  C25 UNL     1      17.777   5.001  21.452  1.00  0.00     0.116 A 
ENDROOT
BRANCH   1   7
HETATM    7  C14 UNL     1      19.026   3.810  19.606  1.00  0.00     0.129 C 
BRANCH   7   8
HETATM    8  C13 UNL     1      18.728   3.590  18.157  1.00  0.00     0.020 C 
BRANCH   8   9
HETATM    9  C12 UNL     1      18.770   2.133  17.739  1.00  0.00     0.003 C 
BRANCH   9  10
HETATM   10  C11 UNL     1      20.178   1.689  17.467  1.00  0.00     0.020 C 
BRANCH  10  11
HETATM   11  C10 UNL     1      20.593   0.568  18.423  1.00  0.00     0.130 C 
BRANCH  11  12
HETATM   12  N3  UNL     1      21.370   1.074  19.518  1.00  0.00    -0.342 N 
HETATM   13  C3  UNL     1      21.082   0.927  20.810  1.00  0.00     0.057 A 
HETATM   14  C4  UNL     1      21.962   1.512  21.741  1.00  0.00     0.102 A 
HETATM   15  C6  UNL     1      23.082   2.211  21.384  1.00  0.00     0.130 A 
HETATM   16  N2  UNL     1      23.328   2.329  20.031  1.00  0.00    -0.337 N 
HETATM   17  C9  UNL     1      22.496   1.776  19.147  1.00  0.00     0.185 A 
ATOM     18  H2  UNL     1      24.148   2.840  19.706  1.00  0.00     0.168 HD
BRANCH  13  19
HETATM   19  C2  UNL     1      19.935   0.253  21.317  1.00  0.00     0.021 C 
HETATM   20  C1  UNL     1      18.680   0.568  21.286  1.00  0.00     0.013 C 
ENDBRANCH  13  19
BRANCH  14  21
HETATM   21  S1  UNL     1      21.621   1.344  23.460  1.00  0.00     0.051 S 
HETATM   22  C5  UNL     1      22.589  -0.048  24.056  1.00  0.00     0.133 C 
HETATM   23  O1  UNL     1      22.025   2.705  24.312  1.00  0.00    -0.253 OA
ENDBRANCH  14  21
BRANCH  15  24
HETATM   24  N1  UNL     1      23.909   2.740  22.147  1.00  0.00    -0.312 N 
HETATM   25  C7  UNL     1      25.143   3.315  22.070  1.00  0.00     0.219 C 
HETATM   26  C8  UNL     1      25.299   4.746  21.702  1.00  0.00     0.117 C 
HETATM   27  O2  UNL     1      26.188   2.660  22.309  1.00  0.00    -0.274 OA
ATOM     28  H1  UNL     1      23.566   2.745  23.108  1.00  0.00     0.170 HD
ENDBRANCH  15  24
ENDBRANCH  11  12
ENDBRANCH  10  11
ENDBRANCH   9  10
ENDBRANCH   8   9
ENDBRANCH   7   8
ENDBRANCH   1   7
BRANCH   5  29
HETATM   29  C17 UNL     1      16.022   6.409  22.721  1.00  0.00     0.064 C 
BRANCH  29  30
HETATM   30  C18 UNL     1      16.947   7.352  23.460  1.00  0.00     0.065 C 
BRANCH  30  31
HETATM   31  C19 UNL     1      16.215   8.638  23.614  1.00  0.00     0.037 A 
HETATM   32  N6  UNL     1      16.231   9.724  22.831  1.00  0.00    -0.366 N 
HETATM   33  C20 UNL     1      15.424  10.682  23.325  1.00  0.00     0.107 A 
ATOM     34  H6  UNL     1      16.780   9.814  21.976  1.00  0.00     0.165 HD
HETATM   35  C21 UNL     1      14.857  10.202  24.480  1.00  0.00     0.076 A 
HETATM   36  C22 UNL     1      13.970  10.709  25.405  1.00  0.00     0.263 A 
HETATM   37  C24 UNL     1      15.356   8.927  24.652  1.00  0.00     0.076 A 
HETATM   38  O3  UNL     1      13.510  11.867  25.259  1.00  0.00    -0.267 OA
HETATM   39  N7  UNL     1      13.600   9.966  26.458  1.00  0.00    -0.275 N 
HETATM   40  C23 UNL     1      14.092   8.736  26.608  1.00  0.00     0.327 A 
ATOM     41  H7  UNL     1      12.943  10.341  27.143  1.00  0.00     0.173 HD
HETATM   42  O4  UNL     1      13.762   8.017  27.589  1.00  0.00    -0.247 OA
HETATM   43  N8  UNL     1      14.958   8.227  25.717  1.00  0.00    -0.306 N 
ATOM     44  H8  UNL     1      15.320   7.283  25.857  1.00  0.00     0.171 HD
ENDBRANCH  30  31
ENDBRANCH  29  30
ENDBRANCH   5  29
TORSDOF 12
ENDMDL
MODEL 2
REMARK VINA RESULT: -8.273218798      2.248      3.454
REMARK  12 active torsions:
REMARK  status: ('A' for Active; 'I' for Inactive)
REMARK    1  A    between atoms: C2_2  and  C3_3 
REMARK    2  A    between atoms: C4_4  and  S1_5 
REMARK    3  A    between atoms: C6_8  and  N1_9 
REMARK       I    between atoms: N1_9  and  C7_11 
REMARK    4  A    between atoms: N3_17  and  C10_18 
REMARK    5  A    between atoms: C10_18  and  C11_19 
REMARK    6  A    between atoms: C11_19  and  C12_20 
REMARK    7  A    between atoms: C12_20  and  C13_21 
REMARK    8  A    between atoms: C13_21  and  C14_22 
REMARK    9  A    between atoms: C14_22  and  N4_23 
REMARK   10  A    between atoms: C16_27  and  C17_28 
REMARK   11  A    between atoms: C17_28  and  C18_29 
REMARK   12  A    between atoms: C18_29  and  C19_30 
ROOT
HETATM    1  N4  UNL     1      16.242   3.890  20.629  1.00  0.00    -0.351 N 
HETATM    2  C15 UNL     1      15.850   5.029  20.037  1.00  0.00     0.183 A 
HETATM    3  N5  UNL     1      15.656   5.997  20.923  1.00  0.00    -0.354 N 
ATOM      4  H5  UNL     1      15.357   6.951  20.716  1.00  0.00     0.166 HD
HETATM    5  C16 UNL     1      15.925   5.495  22.153  1.00  0.00     0.026 A 
HETATM    6  C25 UNL     1      16.290   4.176  21.944  1.00  0.00     0.116 A 
ENDROOT
BRANCH   1   7
HETATM    7  C14 UNL     1      16.540   2.638  19.955  1.00  0.00     0.129 C 
BRANCH   7   8
HETATM    8  C13 UNL     1      16.143   2.771  18.519  1.00  0.00     0.020 C 
BRANCH   8   9
HETATM    9  C12 UNL     1      15.371   1.579  17.986  1.00  0.00     0.003 C 
BRANCH   9  10
HETATM   10  C11 UNL     1      16.161   0.313  18.135  1.00  0.00     0.020 C 
BRANCH  10  11
HETATM   11  C10 UNL     1      17.458   0.378  17.324  1.00  0.00     0.130 C 
BRANCH  11  12
HETATM   12  N3  UNL     1      18.593   0.003  18.117  1.00  0.00    -0.342 N 
HETATM   13  C3  UNL     1      19.729   0.689  18.224  1.00  0.00     0.057 A 
HETATM   14  C4  UNL     1      20.738   0.149  19.043  1.00  0.00     0.102 A 
HETATM   15  C6  UNL     1      20.606  -1.029  19.725  1.00  0.00     0.130 A 
HETATM   16  N2  UNL     1      19.406  -1.694  19.576  1.00  0.00    -0.337 N 
HETATM   17  C9  UNL     1      18.447  -1.185  18.801  1.00  0.00     0.185 A 
ATOM     18  H2  UNL     1      19.251  -2.578  20.061  1.00  0.00     0.168 HD
BRANCH  13  19
HETATM   19  C2  UNL     1      20.010   1.909  17.544  1.00  0.00     0.021 C 
HETATM   20  C1  UNL     1      19.632   3.124  17.784  1.00  0.00     0.013 C 
ENDBRANCH  13  19
BRANCH  14  21
HETATM   21  S1  UNL     1      22.258   1.021  19.212  1.00  0.00     0.051 S 
HETATM   22  C5  UNL     1      22.083   2.116  20.626  1.00  0.00     0.133 C 
HETATM   23  O1  UNL     1      23.539   0.001  19.457  1.00  0.00    -0.253 OA
ENDBRANCH  14  21
BRANCH  15  24
HETATM   24  N1  UNL     1      21.445  -1.558  20.475  1.00  0.00    -0.312 N 
HETATM   25  C7  UNL     1      21.606  -1.810  21.806  1.00  0.00     0.219 C 
HETATM   26  C8  UNL     1      21.004  -3.014  22.435  1.00  0.00     0.117 C 
HETATM   27  O2  UNL     1      22.267  -1.038  22.544  1.00  0.00    -0.274 OA
ATOM     28  H1  UNL     1      22.243  -1.904  19.942  1.00  0.00     0.170 HD
ENDBRANCH  15  24
ENDBRANCH  11  12
ENDBRANCH  10  11
ENDBRANCH   9  10
ENDBRANCH   8   9
ENDBRANCH   7   8
ENDBRANCH   1   7
BRANCH   5  29
HETATM   29  C17 UNL     1      15.825   6.262  23.396  1.00  0.00     0.064 C 
BRANCH  29  30
HETATM   30  C18 UNL     1      16.892   7.323  23.548  1.00  0.00     0.065 C 
BRANCH  30  31
HETATM   31  C19 UNL     1      16.187   8.627  23.673  1.00  0.00     0.037 A 
HETATM   32  N6  UNL     1      16.224   9.694  22.865  1.00  0.00    -0.366 N 
HETATM   33  C20 UNL     1      15.436  10.680  23.337  1.00  0.00     0.107 A 
ATOM     34  H6  UNL     1      16.774   9.754  22.008  1.00  0.00     0.165 HD
HETATM   35  C21 UNL     1      14.859  10.237  24.502  1.00  0.00     0.076 A 
HETATM   36  C22 UNL     1      13.983  10.783  25.414  1.00  0.00     0.263 A 
HETATM   37  C24 UNL     1      15.333   8.957  24.703  1.00  0.00     0.076 A 
HETATM   38  O3  UNL     1      13.546  11.946  25.242  1.00  0.00    -0.267 OA
HETATM   39  N7  UNL     1      13.598  10.072  26.485  1.00  0.00    -0.275 N 
HETATM   40  C23 UNL     1      14.066   8.836  26.663  1.00  0.00     0.327 A 
ATOM     41  H7  UNL     1      12.949  10.475  27.160  1.00  0.00     0.173 HD
HETATM   42  O4  UNL     1      13.722   8.146  27.659  1.00  0.00    -0.247 OA
HETATM   43  N8  UNL     1      14.922   8.289  25.784  1.00  0.00    -0.306 N 
ATOM     44  H8  UNL     1      15.264   7.342  25.945  1.00  0.00     0.171 HD
ENDBRANCH  30  31
ENDBRANCH  29  30
ENDBRANCH   5  29
TORSDOF 12
ENDMDL
MODEL 3
REMARK VINA RESULT: -8.245785660      1.364      2.021
REMARK  12 active torsions:
REMARK  status: ('A' for Active; 'I' for Inactive)
REMARK    1  A    between atoms: C2_2  and  C3_3 
REMARK    2  A    between atoms: C4_4  and  S1_5 
REMARK    3  A    between atoms: C6_8  and  N1_9 
REMARK       I    between atoms: N1_9  and  C7_11 
REMARK    4  A    between atoms: N3_17  and  C10_18 
REMARK    5  A    between atoms: C10_18  and  C11_19 
REMARK    6  A    between atoms: C11_19  and  C12_20 
REMARK    7  A    between atoms: C12_20  and  C13_21 
REMARK    8  A    between atoms: C13_21  and  C14_22 
REMARK    9  A    between atoms: C14_22  and  N4_23 
REMARK   10  A    between atoms: C16_27  and  C17_28 
REMARK   11  A    between atoms: C17_28  and  C18_29 
REMARK   12  A    between atoms: C18_29  and  C19_30 
ROOT
HETATM    1  N4  UNL     1      17.385   4.570  19.720  1.00  0.00    -0.351 N 
HETATM    2  C15 UNL     1      16.489   5.519  20.032  1.00  0.00     0.183 A 
HETATM    3  N5  UNL     1      16.682   5.988  21.257  1.00  0.00    -0.354 N 
ATOM      4  H5  UNL     1      16.130   6.713  21.717  1.00  0.00     0.166 HD
HETATM    5  C16 UNL     1      17.743   5.334  21.790  1.00  0.00     0.026 A 
HETATM    6  C25 UNL     1      18.167   4.453  20.811  1.00  0.00     0.116 A 
ENDROOT
BRANCH   1   7
HETATM    7  C14 UNL     1      17.459   3.848  18.462  1.00  0.00     0.129 C 
BRANCH   7   8
HETATM    8  C13 UNL     1      18.879   3.437  18.238  1.00  0.00     0.020 C 
BRANCH   8   9
HETATM    9  C12 UNL     1      19.025   2.095  17.546  1.00  0.00     0.003 C 
BRANCH   9  10
HETATM   10  C11 UNL     1      20.468   1.707  17.417  1.00  0.00     0.020 C 
BRANCH  10  11
HETATM   11  C10 UNL     1      20.869   0.719  18.515  1.00  0.00     0.130 C 
BRANCH  11  12
HETATM   12  N3  UNL     1      21.418   1.396  19.655  1.00  0.00    -0.342 N 
HETATM   13  C3  UNL     1      20.817   1.551  20.833  1.00  0.00     0.057 A 
HETATM   14  C4  UNL     1      21.514   2.262  21.828  1.00  0.00     0.102 A 
HETATM   15  C6  UNL     1      22.760   2.793  21.643  1.00  0.00     0.130 A 
HETATM   16  N2  UNL     1      23.333   2.599  20.402  1.00  0.00    -0.337 N 
HETATM   17  C9  UNL     1      22.675   1.925  19.457  1.00  0.00     0.185 A 
ATOM     18  H2  UNL     1      24.262   2.972  20.207  1.00  0.00     0.168 HD
BRANCH  13  19
HETATM   19  C2  UNL     1      19.510   1.079  21.148  1.00  0.00     0.021 C 
HETATM   20  C1  UNL     1      19.072  -0.114  21.392  1.00  0.00     0.013 C 
ENDBRANCH  13  19
BRANCH  14  21
HETATM   21  S1  UNL     1      20.756   2.493  23.400  1.00  0.00     0.051 S 
HETATM   22  C5  UNL     1      21.332   1.162  24.462  1.00  0.00     0.133 C 
HETATM   23  O1  UNL     1      21.153   3.951  24.077  1.00  0.00    -0.253 OA
ENDBRANCH  14  21
BRANCH  15  24
HETATM   24  N1  UNL     1      23.440   3.418  22.477  1.00  0.00    -0.312 N 
HETATM   25  C7  UNL     1      24.752   3.563  22.818  1.00  0.00     0.219 C 
HETATM   26  C8  UNL     1      25.626   4.531  22.106  1.00  0.00     0.117 C 
HETATM   27  O2  UNL     1      25.267   2.888  23.744  1.00  0.00    -0.274 OA
ATOM     28  H1  UNL     1      22.843   3.985  23.079  1.00  0.00     0.170 HD
ENDBRANCH  15  24
ENDBRANCH  11  12
ENDBRANCH  10  11
ENDBRANCH   9  10
ENDBRANCH   8   9
ENDBRANCH   7   8
ENDBRANCH   1   7
BRANCH   5  29
HETATM   29  C17 UNL     1      18.268   5.575  23.135  1.00  0.00     0.064 C 
BRANCH  29  30
HETATM   30  C18 UNL     1      18.603   7.024  23.412  1.00  0.00     0.065 C 
BRANCH  30  31
HETATM   31  C19 UNL     1      17.649   7.494  24.453  1.00  0.00     0.037 A 
HETATM   32  N6  UNL     1      17.591   7.185  25.755  1.00  0.00    -0.366 N 
HETATM   33  C20 UNL     1      16.571   7.828  26.355  1.00  0.00     0.107 A 
ATOM     34  H6  UNL     1      18.232   6.549  26.228  1.00  0.00     0.165 HD
HETATM   35  C21 UNL     1      15.936   8.589  25.405  1.00  0.00     0.076 A 
HETATM   36  C22 UNL     1      14.853   9.442  25.415  1.00  0.00     0.263 A 
HETATM   37  C24 UNL     1      16.615   8.375  24.223  1.00  0.00     0.076 A 
HETATM   38  O3  UNL     1      14.228   9.644  26.483  1.00  0.00    -0.267 OA
HETATM   39  N7  UNL     1      14.470  10.055  24.285  1.00  0.00    -0.275 N 
HETATM   40  C23 UNL     1      15.137   9.836  23.152  1.00  0.00     0.327 A 
ATOM     41  H7  UNL     1      13.669  10.686  24.293  1.00  0.00     0.173 HD
HETATM   42  O4  UNL     1      14.798  10.397  22.076  1.00  0.00    -0.247 OA
HETATM   43  N8  UNL     1      16.195   9.007  23.124  1.00  0.00    -0.306 N 
ATOM     44  H8  UNL     1      16.687   8.857  22.244  1.00  0.00     0.171 HD
ENDBRANCH  30  31
ENDBRANCH  29  30
ENDBRANCH   5  29
TORSDOF 12
ENDMDL
MODEL 4
REMARK VINA RESULT: -8.145261881      2.104      3.048
REMARK  12 active torsions:
REMARK  status: ('A' for Active; 'I' for Inactive)
REMARK    1  A    between atoms: C2_2  and  C3_3 
REMARK    2  A    between atoms: C4_4  and  S1_5 
REMARK    3  A    between atoms: C6_8  and  N1_9 
REMARK       I    between atoms: N1_9  and  C7_11 
REMARK    4  A    between atoms: N3_17  and  C10_18 
REMARK    5  A    between atoms: C10_18  and  C11_19 
REMARK    6  A    between atoms: C11_19  and  C12_20 
REMARK    7  A    between atoms: C12_20  and  C13_21 
REMARK    8  A    between atoms: C13_21  and  C14_22 
REMARK    9  A    between atoms: C14_22  and  N4_23 
REMARK   10  A    between atoms: C16_27  and  C17_28 
REMARK   11  A    between atoms: C17_28  and  C18_29 
REMARK   12  A    between atoms: C18_29  and  C19_30 
ROOT
HETATM    1  N4  UNL     1      17.675   4.530  19.661  1.00  0.00    -0.351 N 
HETATM    2  C15 UNL     1      16.772   5.492  19.907  1.00  0.00     0.183 A 
HETATM    3  N5  UNL     1      16.851   5.926  21.158  1.00  0.00    -0.354 N 
ATOM      4  H5  UNL     1      16.270   6.653  21.579  1.00  0.00     0.166 HD
HETATM    5  C16 UNL     1      17.838   5.235  21.776  1.00  0.00     0.026 A 
HETATM    6  C25 UNL     1      18.340   4.368  20.822  1.00  0.00     0.116 A 
ENDROOT
BRANCH   1   7
HETATM    7  C14 UNL     1      17.861   3.837  18.398  1.00  0.00     0.129 C 
BRANCH   7   8
HETATM    8  C13 UNL     1      19.328   3.722  18.135  1.00  0.00     0.020 C 
BRANCH   8   9
HETATM    9  C12 UNL     1      19.707   2.509  17.307  1.00  0.00     0.003 C 
BRANCH   9  10
HETATM   10  C11 UNL     1      20.877   1.788  17.910  1.00  0.00     0.020 C 
BRANCH  10  11
HETATM   11  C10 UNL     1      20.813   1.823  19.439  1.00  0.00     0.130 C 
BRANCH  11  12
HETATM   12  N3  UNL     1      22.068   1.445  20.025  1.00  0.00    -0.342 N 
HETATM   13  C3  UNL     1      22.775   2.173  20.887  1.00  0.00     0.057 A 
HETATM   14  C4  UNL     1      23.995   1.637  21.340  1.00  0.00     0.102 A 
HETATM   15  C6  UNL     1      24.479   0.422  20.942  1.00  0.00     0.130 A 
HETATM   16  N2  UNL     1      23.702  -0.287  20.049  1.00  0.00    -0.337 N 
HETATM   17  C9  UNL     1      22.544   0.218  19.617  1.00  0.00     0.185 A 
ATOM     18  H2  UNL     1      24.012  -1.200  19.717  1.00  0.00     0.168 HD
BRANCH  13  19
HETATM   19  C2  UNL     1      22.404   3.466  21.357  1.00  0.00     0.021 C 
HETATM   20  C1  UNL     1      21.612   3.828  22.314  1.00  0.00     0.013 C 
ENDBRANCH  13  19
BRANCH  14  21
HETATM   21  S1  UNL     1      24.964   2.566  22.480  1.00  0.00     0.051 S 
HETATM   22  C5  UNL     1      24.492   2.031  24.130  1.00  0.00     0.133 C 
HETATM   23  O1  UNL     1      26.587   2.322  22.262  1.00  0.00    -0.253 OA
ENDBRANCH  14  21
BRANCH  15  24
HETATM   24  N1  UNL     1      25.537  -0.120  21.310  1.00  0.00    -0.312 N 
HETATM   25  C7  UNL     1      25.930  -1.117  22.153  1.00  0.00     0.219 C 
HETATM   26  C8  UNL     1      25.927  -2.537  21.714  1.00  0.00     0.117 C 
HETATM   27  O2  UNL     1      26.310  -0.872  23.326  1.00  0.00    -0.274 OA
ATOM     28  H1  UNL     1      26.341   0.303  20.848  1.00  0.00     0.170 HD
ENDBRANCH  15  24
ENDBRANCH  11  12
ENDBRANCH  10  11
ENDBRANCH   9  10
ENDBRANCH   8   9
ENDBRANCH   7   8
ENDBRANCH   1   7
BRANCH   5  29
HETATM   29  C17 UNL     1      18.230   5.430  23.174  1.00  0.00     0.064 C 
BRANCH  29  30
HETATM   30  C18 UNL     1      18.629   6.851  23.505  1.00  0.00     0.065 C 
BRANCH  30  31
HETATM   31  C19 UNL     1      17.681   7.332  24.546  1.00  0.00     0.037 A 
HETATM   32  N6  UNL     1      17.609   7.010  25.845  1.00  0.00    -0.366 N 
HETATM   33  C20 UNL     1      16.600   7.670  26.446  1.00  0.00     0.107 A 
ATOM     34  H6  UNL     1      18.233   6.355  26.314  1.00  0.00     0.165 HD
HETATM   35  C21 UNL     1      15.987   8.455  25.501  1.00  0.00     0.076 A 
HETATM   36  C22 UNL     1      14.925   9.332  25.515  1.00  0.00     0.263 A 
HETATM   37  C24 UNL     1      16.667   8.238  24.320  1.00  0.00     0.076 A 
HETATM   38  O3  UNL     1      14.299   9.537  26.582  1.00  0.00    -0.267 OA
HETATM   39  N7  UNL     1      14.560   9.965  24.389  1.00  0.00    -0.275 N 
HETATM   40  C23 UNL     1      15.229   9.743  23.258  1.00  0.00     0.327 A 
ATOM     41  H7  UNL     1      13.774  10.614  24.400  1.00  0.00     0.173 HD
HETATM   42  O4  UNL     1      14.908  10.322  22.186  1.00  0.00    -0.247 OA
HETATM   43  N8  UNL     1      16.267   8.890  23.226  1.00  0.00    -0.306 N 
ATOM     44  H8  UNL     1      16.760   8.739  22.347  1.00  0.00     0.171 HD
ENDBRANCH  30  31
ENDBRANCH  29  30
ENDBRANCH   5  29
TORSDOF 12
ENDMDL
MODEL 5
REMARK VINA RESULT: -8.061010210      2.123      2.997
REMARK  12 active torsions:
REMARK  status: ('A' for Active; 'I' for Inactive)
REMARK    1  A    between atoms: C2_2  and  C3_3 
REMARK    2  A    between atoms: C4_4  and  S1_5 
REMARK    3  A    between atoms: C6_8  and  N1_9 
REMARK       I    between atoms: N1_9  and  C7_11 
REMARK    4  A    between atoms: N3_17  and  C10_18 
REMARK    5  A    between atoms: C10_18  and  C11_19 
REMARK    6  A    between atoms: C11_19  and  C12_20 
REMARK    7  A    between atoms: C12_20  and  C13_21 
REMARK    8  A    between atoms: C13_21  and  C14_22 
REMARK    9  A    between atoms: C14_22  and  N4_23 
REMARK   10  A    between atoms: C16_27  and  C17_28 
REMARK   11  A    between atoms: C17_28  and  C18_29 
REMARK   12  A    between atoms: C18_29  and  C19_30 
ROOT
HETATM    1  N4  UNL     1      17.610   4.324  19.466  1.00  0.00    -0.351 N 
HETATM    2  C15 UNL     1      16.639   5.229  19.265  1.00  0.00     0.183 A 
HETATM    3  N5  UNL     1      16.381   5.921  20.367  1.00  0.00    -0.354 N 
ATOM      4  H5  UNL     1      15.687   6.662  20.463  1.00  0.00     0.166 HD
HETATM    5  C16 UNL     1      17.206   5.469  21.343  1.00  0.00     0.026 A 
HETATM    6  C25 UNL     1      17.965   4.471  20.757  1.00  0.00     0.116 A 
ENDROOT
BRANCH   1   7
HETATM    7  C14 UNL     1      18.135   3.403  18.474  1.00  0.00     0.129 C 
BRANCH   7   8
HETATM    8  C13 UNL     1      19.591   3.198  18.745  1.00  0.00     0.020 C 
BRANCH   8   9
HETATM    9  C12 UNL     1      20.305   2.395  17.675  1.00  0.00     0.003 C 
BRANCH   9  10
HETATM   10  C11 UNL     1      21.581   1.806  18.202  1.00  0.00     0.020 C 
BRANCH  10  11
HETATM   11  C10 UNL     1      21.773   2.151  19.680  1.00  0.00     0.130 C 
BRANCH  11  12
HETATM   12  N3  UNL     1      22.917   1.482  20.231  1.00  0.00    -0.342 N 
HETATM   13  C3  UNL     1      23.735   1.974  21.159  1.00  0.00     0.057 A 
HETATM   14  C4  UNL     1      24.817   1.169  21.562  1.00  0.00     0.102 A 
HETATM   15  C6  UNL     1      25.061  -0.077  21.053  1.00  0.00     0.130 A 
HETATM   16  N2  UNL     1      24.178  -0.533  20.095  1.00  0.00    -0.337 N 
HETATM   17  C9  UNL     1      23.152   0.227  19.711  1.00  0.00     0.185 A 
ATOM     18  H2  UNL     1      24.311  -1.456  19.680  1.00  0.00     0.168 HD
BRANCH  13  19
HETATM   19  C2  UNL     1      23.616   3.266  21.747  1.00  0.00     0.021 C 
HETATM   20  C1  UNL     1      24.227   4.377  21.490  1.00  0.00     0.013 C 
ENDBRANCH  13  19
BRANCH  14  21
HETATM   21  S1  UNL     1      25.926   1.780  22.785  1.00  0.00     0.051 S 
HETATM   22  C5  UNL     1      25.358   1.153  24.371  1.00  0.00     0.133 C 
HETATM   23  O1  UNL     1      27.484   1.284  22.520  1.00  0.00    -0.253 OA
ENDBRANCH  14  21
BRANCH  15  24
HETATM   24  N1  UNL     1      25.985  -0.848  21.370  1.00  0.00    -0.312 N 
HETATM   25  C7  UNL     1      26.176  -1.928  22.180  1.00  0.00     0.219 C 
HETATM   26  C8  UNL     1      25.844  -3.300  21.717  1.00  0.00     0.117 C 
HETATM   27  O2  UNL     1      26.640  -1.803  23.341  1.00  0.00    -0.274 OA
ATOM     28  H1  UNL     1      26.847  -0.601  20.885  1.00  0.00     0.170 HD
ENDBRANCH  15  24
ENDBRANCH  11  12
ENDBRANCH  10  11
ENDBRANCH   9  10
ENDBRANCH   8   9
ENDBRANCH   7   8
ENDBRANCH   1   7
BRANCH   5  29
HETATM   29  C17 UNL     1      17.223   5.988  22.712  1.00  0.00     0.064 C 
BRANCH  29  30
HETATM   30  C18 UNL     1      15.877   5.944  23.401  1.00  0.00     0.065 C 
BRANCH  30  31
HETATM   31  C19 UNL     1      15.497   7.352  23.692  1.00  0.00     0.037 A 
HETATM   32  N6  UNL     1      15.581   8.435  22.909  1.00  0.00    -0.366 N 
HETATM   33  C20 UNL     1      15.130   9.529  23.553  1.00  0.00     0.107 A 
ATOM     34  H6  UNL     1      15.939   8.433  21.954  1.00  0.00     0.165 HD
HETATM   35  C21 UNL     1      14.734   9.144  24.810  1.00  0.00     0.076 A 
HETATM   36  C22 UNL     1      14.201   9.800  25.899  1.00  0.00     0.263 A 
HETATM   37  C24 UNL     1      14.966   7.786  24.888  1.00  0.00     0.076 A 
HETATM   38  O3  UNL     1      13.986  11.034  25.840  1.00  0.00    -0.267 OA
HETATM   39  N7  UNL     1      13.913   9.120  27.018  1.00  0.00    -0.275 N 
HETATM   40  C23 UNL     1      14.143   7.808  27.075  1.00  0.00     0.327 A 
ATOM     41  H7  UNL     1      13.518   9.605  27.823  1.00  0.00     0.173 HD
HETATM   42  O4  UNL     1      13.883   7.145  28.114  1.00  0.00    -0.247 OA
HETATM   43  N8  UNL     1      14.663   7.153  26.024  1.00  0.00    -0.306 N 
ATOM     44  H8  UNL     1      14.830   6.149  26.095  1.00  0.00     0.171 HD
ENDBRANCH  30  31
ENDBRANCH  29  30
ENDBRANCH   5  29
TORSDOF 12
ENDMDL
