MODEL 1
REMARK VINA RESULT: -8.283926995      0.000      0.000
REMARK  12 active torsions:
REMARK  status: ('A' for Active; 'I' for Inactive)
REMARK    1  A    between atoms: C6_6  and  C7_7 
REMARK    2  A    between atoms: C7_7  and  C8_8 
REMARK    3  A    between atoms: C8_8  and  C9_9 
REMARK       I    between atoms: C9_9  and  N1_11 
REMARK    4  A    between atoms: N1_11  and  C10_13 
REMARK    5  A    between atoms: C10_13  and  C11_14 
REMARK    6  A    between atoms: C11_14  and  C12_15 
REMARK    7  A    between atoms: C12_15  and  C13_16 
REMARK    8  A    between atoms: C13_16  and  C14_17 
REMARK    9  A    between atoms: C17_22  and  C18_23 
REMARK   10  A    between atoms: C23_33  and  N5_34 
REMARK   11  A    between atoms: N5_34  and  C26_37 
REMARK   12  A    between atoms: C26_37  and  C27_38 
ROOT
HETATM    1  C14 UNL     1      19.193   5.730  25.419  1.00  0.00     0.045 A 
HETATM    2  N2  UNL     1      19.402   6.612  26.411  1.00  0.00    -0.366 N 
ATOM      3  H2  UNL     1      20.322   6.851  26.781  1.00  0.00     0.165 HD
HETATM    4  C15 UNL     1      18.265   7.133  26.849  1.00  0.00     0.102 A 
HETATM    5  C16 UNL     1      17.228   6.563  26.098  1.00  0.00     0.018 A 
HETATM    6  C17 UNL     1      15.825   6.810  26.343  1.00  0.00     0.050 C 
HETATM    7  C23 UNL     1      17.797   5.703  25.212  1.00  0.00     0.170 A 
ENDROOT
BRANCH   1   8
HETATM    8  C13 UNL     1      20.241   4.920  24.800  1.00  0.00     0.059 C 
BRANCH   8   9
HETATM    9  C12 UNL     1      20.837   3.837  25.677  1.00  0.00     0.008 C 
BRANCH   9  10
HETATM   10  C11 UNL     1      21.971   4.483  26.502  1.00  0.00     0.020 C 
BRANCH  10  11
HETATM   11  C10 UNL     1      21.945   3.925  27.917  1.00  0.00     0.123 C 
BRANCH  11  12
HETATM   12  N1  UNL     1      21.621   4.939  28.875  1.00  0.00    -0.358 N 
HETATM   13  C9  UNL     1      20.252   5.171  29.341  1.00  0.00     0.241 C 
HETATM   14  O1  UNL     1      19.372   4.456  28.790  1.00  0.00    -0.269 OA
ATOM     15  H1  UNL     1      22.371   5.521  29.246  1.00  0.00     0.162 HD
BRANCH  13  16
HETATM   16  C8  UNL     1      19.987   6.144  30.346  1.00  0.00     0.076 C 
BRANCH  16  17
HETATM   17  C7  UNL     1      20.258   7.582  30.187  1.00  0.00     0.036 C 
BRANCH  17  18
HETATM   18  C6  UNL     1      21.147   8.193  29.625  1.00  0.00     0.040 A 
HETATM   19  C4  UNL     1      22.123   8.862  29.012  1.00  0.00    -0.034 A 
HETATM   20  C3  UNL     1      23.071   9.760  29.120  1.00  0.00     0.021 A 
HETATM   21  C5  UNL     1      22.131   8.235  27.525  1.00  0.00     0.050 C 
HETATM   22  C2  UNL     1      23.229  10.348  30.369  1.00  0.00    -0.029 A 
HETATM   23  C1  UNL     1      24.127  11.236  30.605  1.00  0.00     0.025 C 
HETATM   24  C29 UNL     1      22.323   9.845  31.260  1.00  0.00     0.101 A 
HETATM   25  N7  UNL     1      21.449   8.983  31.059  1.00  0.00    -0.360 N 
HETATM   26  C28 UNL     1      20.480   8.648  32.052  1.00  0.00     0.155 C 
ENDBRANCH  17  18
ENDBRANCH  16  17
ENDBRANCH  13  16
ENDBRANCH  11  12
ENDBRANCH  10  11
ENDBRANCH   9  10
ENDBRANCH   8   9
ENDBRANCH   1   8
BRANCH   7  27
HETATM   27  N5  UNL     1      17.233   4.911  24.197  1.00  0.00    -0.034 N 
HETATM   28  C24 UNL     1      15.842   5.252  23.947  1.00  0.00     0.279 C 
HETATM   29  C25 UNL     1      17.305   3.501  24.643  1.00  0.00     0.279 C 
BRANCH  27  30
HETATM   30  C26 UNL     1      17.914   4.925  22.931  1.00  0.00     0.342 C 
BRANCH  30  31
HETATM   31  C27 UNL     1      17.535   6.125  22.105  1.00  0.00     0.257 C 
HETATM   32  N6  UNL     1      16.966   6.034  20.825  1.00  0.00    -0.061 NA
HETATM   33  O3  UNL     1      17.706   7.322  22.523  1.00  0.00    -0.275 OA
ENDBRANCH  30  31
ENDBRANCH  27  30
ENDBRANCH   7  27
BRANCH   6  34
HETATM   34  C18 UNL     1      15.133   7.892  26.204  1.00  0.00     0.103 A 
HETATM   35  N3  UNL     1      15.249   8.879  25.303  1.00  0.00    -0.338 N 
HETATM   36  C19 UNL     1      14.304   9.821  25.544  1.00  0.00     0.104 A 
ATOM     37  H3  UNL     1      15.939   8.916  24.553  1.00  0.00     0.167 HD
HETATM   38  C20 UNL     1      14.081  10.939  24.889  1.00  0.00     0.018 C 
HETATM   39  N4  UNL     1      13.566   9.425  26.629  1.00  0.00    -0.308 N 
HETATM   40  C21 UNL     1      14.881  11.338  23.733  1.00  0.00     0.040 C 
HETATM   41  C22 UNL     1      14.069   8.271  27.017  1.00  0.00     0.273 A 
ATOM     42  H4  UNL     1      12.783   9.925  27.053  1.00  0.00     0.170 HD
HETATM   43  O2  UNL     1      13.611   7.626  28.006  1.00  0.00    -0.266 OA
ENDBRANCH   6  34
TORSDOF 12
ENDMDL
MODEL 2
REMARK VINA RESULT: -8.135215564      2.038      3.561
REMARK  12 active torsions:
REMARK  status: ('A' for Active; 'I' for Inactive)
REMARK    1  A    between atoms: C6_6  and  C7_7 
REMARK    2  A    between atoms: C7_7  and  C8_8 
REMARK    3  A    between atoms: C8_8  and  C9_9 
REMARK       I    between atoms: C9_9  and  N1_11 
REMARK    4  A    between atoms: N1_11  and  C10_13 
REMARK    5  A    between atoms: C10_13  and  C11_14 
REMARK    6  A    between atoms: C11_14  and  C12_15 
REMARK    7  A    between atoms: C12_15  and  C13_16 
REMARK    8  A    between atoms: C13_16  and  C14_17 
REMARK    9  A    between atoms: C17_22  and  C18_23 
REMARK   10  A    between atoms: C23_33  and  N5_34 
REMARK   11  A    between atoms: N5_34  and  C26_37 
REMARK   12  A    between atoms: C26_37  and  C27_38 
ROOT
HETATM    1  C14 UNL     1      15.253   5.745  26.694  1.00  0.00     0.045 A 
HETATM    2  N2  UNL     1      13.933   5.990  26.737  1.00  0.00    -0.366 N 
ATOM      3  H2  UNL     1      13.269   5.456  27.297  1.00  0.00     0.165 HD
HETATM    4  C15 UNL     1      13.601   7.011  25.960  1.00  0.00     0.102 A 
HETATM    5  C16 UNL     1      14.778   7.480  25.361  1.00  0.00     0.018 A 
HETATM    6  C17 UNL     1      14.814   8.533  24.371  1.00  0.00     0.050 C 
HETATM    7  C23 UNL     1      15.799   6.707  25.817  1.00  0.00     0.170 A 
ENDROOT
BRANCH   1   8
HETATM    8  C13 UNL     1      15.907   4.622  27.365  1.00  0.00     0.059 C 
BRANCH   8   9
HETATM    9  C12 UNL     1      15.609   4.479  28.844  1.00  0.00     0.008 C 
BRANCH   9  10
HETATM   10  C11 UNL     1      15.665   5.891  29.466  1.00  0.00     0.020 C 
BRANCH  10  11
HETATM   11  C10 UNL     1      16.719   5.917  30.563  1.00  0.00     0.123 C 
BRANCH  11  12
HETATM   12  N1  UNL     1      17.969   6.417  30.078  1.00  0.00    -0.358 N 
HETATM   13  C9  UNL     1      19.106   5.542  29.783  1.00  0.00     0.241 C 
HETATM   14  O1  UNL     1      18.923   4.322  30.047  1.00  0.00    -0.269 OA
ATOM     15  H1  UNL     1      18.072   7.421  29.933  1.00  0.00     0.162 HD
BRANCH  13  16
HETATM   16  C8  UNL     1      20.306   6.076  29.235  1.00  0.00     0.076 C 
BRANCH  16  17
HETATM   17  C7  UNL     1      20.662   7.504  29.280  1.00  0.00     0.036 C 
BRANCH  17  18
HETATM   18  C6  UNL     1      21.135   8.206  30.152  1.00  0.00     0.040 A 
HETATM   19  C4  UNL     1      21.654   8.979  31.106  1.00  0.00    -0.034 A 
HETATM   20  C3  UNL     1      22.513   9.921  31.407  1.00  0.00     0.021 A 
HETATM   21  C5  UNL     1      20.802   8.579  32.417  1.00  0.00     0.050 C 
HETATM   22  C2  UNL     1      23.283  10.416  30.360  1.00  0.00    -0.029 A 
HETATM   23  C1  UNL     1      24.154  11.345  30.523  1.00  0.00     0.025 C 
HETATM   24  C29 UNL     1      22.968   9.786  29.188  1.00  0.00     0.101 A 
HETATM   25  N7  UNL     1      22.126   8.890  29.002  1.00  0.00    -0.360 N 
HETATM   26  C28 UNL     1      21.997   8.228  27.744  1.00  0.00     0.155 C 
ENDBRANCH  17  18
ENDBRANCH  16  17
ENDBRANCH  13  16
ENDBRANCH  11  12
ENDBRANCH  10  11
ENDBRANCH   9  10
ENDBRANCH   8   9
ENDBRANCH   1   8
BRANCH   7  27
HETATM   27  N5  UNL     1      17.183   6.768  25.582  1.00  0.00    -0.034 N 
HETATM   28  C24 UNL     1      17.744   5.463  25.275  1.00  0.00     0.279 C 
HETATM   29  C25 UNL     1      17.820   7.283  26.816  1.00  0.00     0.279 C 
BRANCH  27  30
HETATM   30  C26 UNL     1      17.610   7.674  24.550  1.00  0.00     0.342 C 
BRANCH  30  31
HETATM   31  C27 UNL     1      17.968   6.948  23.282  1.00  0.00     0.257 C 
HETATM   32  N6  UNL     1      17.061   6.735  22.231  1.00  0.00    -0.061 NA
HETATM   33  O3  UNL     1      19.138   6.474  23.073  1.00  0.00    -0.275 OA
ENDBRANCH  30  31
ENDBRANCH  27  30
ENDBRANCH   7  27
BRANCH   6  34
HETATM   34  C18 UNL     1      14.543   9.791  24.481  1.00  0.00     0.103 A 
HETATM   35  N3  UNL     1      14.082  10.485  25.533  1.00  0.00    -0.338 N 
HETATM   36  C19 UNL     1      13.941  11.787  25.186  1.00  0.00     0.104 A 
ATOM     37  H3  UNL     1      13.871  10.094  26.451  1.00  0.00     0.167 HD
HETATM   38  C20 UNL     1      13.521  12.788  25.927  1.00  0.00     0.018 C 
HETATM   39  N4  UNL     1      14.320  11.929  23.875  1.00  0.00    -0.308 N 
HETATM   40  C21 UNL     1      13.124  12.611  27.323  1.00  0.00     0.040 C 
HETATM   41  C22 UNL     1      14.678  10.730  23.463  1.00  0.00     0.273 A 
ATOM     42  H4  UNL     1      14.324  12.791  23.329  1.00  0.00     0.170 HD
HETATM   43  O2  UNL     1      15.086  10.510  22.285  1.00  0.00    -0.266 OA
ENDBRANCH   6  34
TORSDOF 12
ENDMDL
MODEL 3
REMARK VINA RESULT: -8.095172700      3.819      7.692
REMARK  12 active torsions:
REMARK  status: ('A' for Active; 'I' for Inactive)
REMARK    1  A    between atoms: C6_6  and  C7_7 
REMARK    2  A    between atoms: C7_7  and  C8_8 
REMARK    3  A    between atoms: C8_8  and  C9_9 
REMARK       I    between atoms: C9_9  and  N1_11 
REMARK    4  A    between atoms: N1_11  and  C10_13 
REMARK    5  A    between atoms: C10_13  and  C11_14 
REMARK    6  A    between atoms: C11_14  and  C12_15 
REMARK    7  A    between atoms: C12_15  and  C13_16 
REMARK    8  A    between atoms: C13_16  and  C14_17 
REMARK    9  A    between atoms: C17_22  and  C18_23 
REMARK   10  A    between atoms: C23_33  and  N5_34 
REMARK   11  A    between atoms: N5_34  and  C26_37 
REMARK   12  A    between atoms: C26_37  and  C27_38 
ROOT
HETATM    1  C14 UNL     1      17.576   3.802  22.263  1.00  0.00     0.045 A 
HETATM    2  N2  UNL     1      18.728   4.101  22.887  1.00  0.00    -0.366 N 
ATOM      3  H2  UNL     1      18.792   4.409  23.856  1.00  0.00     0.165 HD
HETATM    4  C15 UNL     1      19.771   3.946  22.084  1.00  0.00     0.102 A 
HETATM    5  C16 UNL     1      19.283   3.513  20.844  1.00  0.00     0.018 A 
HETATM    6  C17 UNL     1      20.110   3.322  19.674  1.00  0.00     0.050 C 
HETATM    7  C23 UNL     1      17.931   3.417  20.953  1.00  0.00     0.170 A 
ENDROOT
BRANCH   1   8
HETATM    8  C13 UNL     1      16.249   3.969  22.856  1.00  0.00     0.059 C 
BRANCH   8   9
HETATM    9  C12 UNL     1      16.087   5.164  23.773  1.00  0.00     0.008 C 
BRANCH   9  10
HETATM   10  C11 UNL     1      15.922   6.413  22.881  1.00  0.00     0.020 C 
BRANCH  10  11
HETATM   11  C10 UNL     1      16.259   7.658  23.688  1.00  0.00     0.123 C 
BRANCH  11  12
HETATM   12  N1  UNL     1      17.245   7.383  24.689  1.00  0.00    -0.358 N 
HETATM   13  C9  UNL     1      17.138   7.892  26.058  1.00  0.00     0.241 C 
HETATM   14  O1  UNL     1      16.148   8.643  26.273  1.00  0.00    -0.269 OA
ATOM     15  H1  UNL     1      18.052   6.812  24.439  1.00  0.00     0.162 HD
BRANCH  13  16
HETATM   16  C8  UNL     1      18.107   7.536  27.039  1.00  0.00     0.076 C 
BRANCH  16  17
HETATM   17  C7  UNL     1      19.338   6.787  26.739  1.00  0.00     0.036 C 
BRANCH  17  18
HETATM   18  C6  UNL     1      20.500   6.955  27.057  1.00  0.00     0.040 A 
HETATM   19  C4  UNL     1      21.774   7.136  27.401  1.00  0.00    -0.034 A 
HETATM   20  C3  UNL     1      22.970   6.611  27.493  1.00  0.00     0.021 A 
HETATM   21  C5  UNL     1      21.824   8.687  27.846  1.00  0.00     0.050 C 
HETATM   22  C2  UNL     1      23.099   5.289  27.084  1.00  0.00    -0.029 A 
HETATM   23  C1  UNL     1      24.220   4.662  27.117  1.00  0.00     0.025 C 
HETATM   24  C29 UNL     1      21.899   4.795  26.655  1.00  0.00     0.101 A 
HETATM   25  N7  UNL     1      20.803   5.380  26.607  1.00  0.00    -0.360 N 
HETATM   26  C28 UNL     1      19.599   4.696  26.261  1.00  0.00     0.155 C 
ENDBRANCH  17  18
ENDBRANCH  16  17
ENDBRANCH  13  16
ENDBRANCH  11  12
ENDBRANCH  10  11
ENDBRANCH   9  10
ENDBRANCH   8   9
ENDBRANCH   1   8
BRANCH   7  27
HETATM   27  N5  UNL     1      16.956   2.986  20.037  1.00  0.00    -0.034 N 
HETATM   28  C24 UNL     1      15.660   2.796  20.667  1.00  0.00     0.279 C 
HETATM   29  C25 UNL     1      17.411   1.691  19.482  1.00  0.00     0.279 C 
BRANCH  27  30
HETATM   30  C26 UNL     1      16.757   3.822  18.885  1.00  0.00     0.342 C 
BRANCH  30  31
HETATM   31  C27 UNL     1      16.507   5.255  19.271  1.00  0.00     0.257 C 
HETATM   32  N6  UNL     1      15.225   5.821  19.352  1.00  0.00    -0.061 NA
HETATM   33  O3  UNL     1      17.459   6.061  19.557  1.00  0.00    -0.275 OA
ENDBRANCH  30  31
ENDBRANCH  27  30
ENDBRANCH   7  27
BRANCH   6  34
HETATM   34  C18 UNL     1      21.041   2.456  19.444  1.00  0.00     0.103 A 
HETATM   35  N3  UNL     1      22.027   2.018  20.241  1.00  0.00    -0.338 N 
HETATM   36  C19 UNL     1      22.775   1.107  19.573  1.00  0.00     0.104 A 
ATOM     37  H3  UNL     1      22.189   2.322  21.201  1.00  0.00     0.167 HD
HETATM   38  C20 UNL     1      23.827   0.444  19.999  1.00  0.00     0.018 C 
HETATM   39  N4  UNL     1      22.254   0.961  18.312  1.00  0.00    -0.308 N 
HETATM   40  C21 UNL     1      24.362   0.616  21.349  1.00  0.00     0.040 C 
HETATM   41  C22 UNL     1      21.218   1.771  18.245  1.00  0.00     0.273 A 
ATOM     42  H4  UNL     1      22.600   0.347  17.574  1.00  0.00     0.170 HD
HETATM   43  O2  UNL     1      20.505   1.880  17.204  1.00  0.00    -0.266 OA
ENDBRANCH   6  34
TORSDOF 12
ENDMDL
MODEL 4
REMARK VINA RESULT: -7.987487475      1.867      2.676
REMARK  12 active torsions:
REMARK  status: ('A' for Active; 'I' for Inactive)
REMARK    1  A    between atoms: C6_6  and  C7_7 
REMARK    2  A    between atoms: C7_7  and  C8_8 
REMARK    3  A    between atoms: C8_8  and  C9_9 
REMARK       I    between atoms: C9_9  and  N1_11 
REMARK    4  A    between atoms: N1_11  and  C10_13 
REMARK    5  A    between atoms: C10_13  and  C11_14 
REMARK    6  A    between atoms: C11_14  and  C12_15 
REMARK    7  A    between atoms: C12_15  and  C13_16 
REMARK    8  A    between atoms: C13_16  and  C14_17 
REMARK    9  A    between atoms: C17_22  and  C18_23 
REMARK   10  A    between atoms: C23_33  and  N5_34 
REMARK   11  A    between atoms: N5_34  and  C26_37 
REMARK   12  A    between atoms: C26_37  and  C27_38 
ROOT
HETATM    1  C14 UNL     1      19.620   5.996  26.731  1.00  0.00     0.045 A 
HETATM    2  N2  UNL     1      19.386   6.711  27.844  1.00  0.00    -0.366 N 
ATOM      3  H2  UNL     1      20.099   6.950  28.533  1.00  0.00     0.165 HD
HETATM    4  C15 UNL     1      18.113   7.069  27.936  1.00  0.00     0.102 A 
HETATM    5  C16 UNL     1      17.455   6.561  26.808  1.00  0.00     0.018 A 
HETATM    6  C17 UNL     1      16.029   6.663  26.592  1.00  0.00     0.050 C 
HETATM    7  C23 UNL     1      18.382   5.904  26.060  1.00  0.00     0.170 A 
ENDROOT
BRANCH   1   8
HETATM    8  C13 UNL     1      20.904   5.378  26.402  1.00  0.00     0.059 C 
BRANCH   8   9
HETATM    9  C12 UNL     1      21.456   4.420  27.439  1.00  0.00     0.008 C 
BRANCH   9  10
HETATM   10  C11 UNL     1      22.473   5.204  28.297  1.00  0.00     0.020 C 
BRANCH  10  11
HETATM   11  C10 UNL     1      23.167   6.245  27.431  1.00  0.00     0.123 C 
BRANCH  11  12
HETATM   12  N1  UNL     1      23.500   7.415  28.184  1.00  0.00    -0.358 N 
HETATM   13  C9  UNL     1      22.682   8.629  28.156  1.00  0.00     0.241 C 
HETATM   14  O1  UNL     1      21.696   8.590  27.370  1.00  0.00    -0.269 OA
ATOM     15  H1  UNL     1      24.341   7.404  28.762  1.00  0.00     0.162 HD
BRANCH  13  16
HETATM   16  C8  UNL     1      23.014   9.745  28.975  1.00  0.00     0.076 C 
BRANCH  16  17
HETATM   17  C7  UNL     1      22.877   9.754  30.440  1.00  0.00     0.036 C 
BRANCH  17  18
HETATM   18  C6  UNL     1      23.664   9.540  31.341  1.00  0.00     0.040 A 
HETATM   19  C4  UNL     1      24.526   9.301  32.330  1.00  0.00    -0.034 A 
HETATM   20  C3  UNL     1      24.721   8.761  33.507  1.00  0.00     0.021 A 
HETATM   21  C5  UNL     1      25.910   9.918  31.776  1.00  0.00     0.050 C 
HETATM   22  C2  UNL     1      23.627   8.130  34.089  1.00  0.00    -0.029 A 
HETATM   23  C1  UNL     1      23.691   7.556  35.236  1.00  0.00     0.025 C 
HETATM   24  C29 UNL     1      22.532   8.211  33.275  1.00  0.00     0.101 A 
HETATM   25  N7  UNL     1      22.445   8.755  32.160  1.00  0.00    -0.360 N 
HETATM   26  C28 UNL     1      21.196   8.881  31.480  1.00  0.00     0.155 C 
ENDBRANCH  17  18
ENDBRANCH  16  17
ENDBRANCH  13  16
ENDBRANCH  11  12
ENDBRANCH  10  11
ENDBRANCH   9  10
ENDBRANCH   8   9
ENDBRANCH   1   8
BRANCH   7  27
HETATM   27  N5  UNL     1      18.280   5.256  24.817  1.00  0.00    -0.034 N 
HETATM   28  C24 UNL     1      16.900   4.965  24.464  1.00  0.00     0.279 C 
HETATM   29  C25 UNL     1      19.026   3.981  24.919  1.00  0.00     0.279 C 
BRANCH  27  30
HETATM   30  C26 UNL     1      18.876   5.935  23.699  1.00  0.00     0.342 C 
BRANCH  30  31
HETATM   31  C27 UNL     1      17.917   6.898  23.053  1.00  0.00     0.257 C 
HETATM   32  N6  UNL     1      17.293   6.656  21.819  1.00  0.00    -0.061 NA
HETATM   33  O3  UNL     1      17.601   8.013  23.594  1.00  0.00    -0.275 OA
ENDBRANCH  30  31
ENDBRANCH  27  30
ENDBRANCH   7  27
BRANCH   6  34
HETATM   34  C18 UNL     1      15.292   7.701  26.372  1.00  0.00     0.103 A 
HETATM   35  N3  UNL     1      15.389   8.642  25.421  1.00  0.00    -0.338 N 
HETATM   36  C19 UNL     1      14.395   9.548  25.582  1.00  0.00     0.104 A 
ATOM     37  H3  UNL     1      16.101   8.671  24.691  1.00  0.00     0.167 HD
HETATM   38  C20 UNL     1      14.140  10.617  24.859  1.00  0.00     0.018 C 
HETATM   39  N4  UNL     1      13.642   9.177  26.666  1.00  0.00    -0.308 N 
HETATM   40  C21 UNL     1      14.957  10.990  23.706  1.00  0.00     0.040 C 
HETATM   41  C22 UNL     1      14.186   8.072  27.132  1.00  0.00     0.273 A 
ATOM     42  H4  UNL     1      12.824   9.660  27.039  1.00  0.00     0.170 HD
HETATM   43  O2  UNL     1      13.728   7.460  28.142  1.00  0.00    -0.266 OA
ENDBRANCH   6  34
TORSDOF 12
ENDMDL
MODEL 5
REMARK VINA RESULT: -7.984423570      4.251      8.472
REMARK  12 active torsions:
REMARK  status: ('A' for Active; 'I' for Inactive)
REMARK    1  A    between atoms: C6_6  and  C7_7 
REMARK    2  A    between atoms: C7_7  and  C8_8 
REMARK    3  A    between atoms: C8_8  and  C9_9 
REMARK       I    between atoms: C9_9  and  N1_11 
REMARK    4  A    between atoms: N1_11  and  C10_13 
REMARK    5  A    between atoms: C10_13  and  C11_14 
REMARK    6  A    between atoms: C11_14  and  C12_15 
REMARK    7  A    between atoms: C12_15  and  C13_16 
REMARK    8  A    between atoms: C13_16  and  C14_17 
REMARK    9  A    between atoms: C17_22  and  C18_23 
REMARK   10  A    between atoms: C23_33  and  N5_34 
REMARK   11  A    between atoms: N5_34  and  C26_37 
REMARK   12  A    between atoms: C26_37  and  C27_38 
ROOT
HETATM    1  C14 UNL     1      19.129   5.594  24.657  1.00  0.00     0.045 A 
HETATM    2  N2  UNL     1      19.518   6.466  25.603  1.00  0.00    -0.366 N 
ATOM      3  H2  UNL     1      20.487   6.735  25.771  1.00  0.00     0.165 HD
HETATM    4  C15 UNL     1      18.485   6.933  26.289  1.00  0.00     0.102 A 
HETATM    5  C16 UNL     1      17.331   6.336  25.765  1.00  0.00     0.018 A 
HETATM    6  C17 UNL     1      16.006   6.523  26.313  1.00  0.00     0.050 C 
HETATM    7  C23 UNL     1      17.724   5.515  24.755  1.00  0.00     0.170 A 
ENDROOT
BRANCH   1   8
HETATM    8  C13 UNL     1      20.046   4.837  23.805  1.00  0.00     0.059 C 
BRANCH   8   9
HETATM    9  C12 UNL     1      20.882   3.789  24.511  1.00  0.00     0.008 C 
BRANCH   9  10
HETATM   10  C11 UNL     1      21.520   2.897  23.424  1.00  0.00     0.020 C 
BRANCH  10  11
HETATM   11  C10 UNL     1      21.951   3.763  22.250  1.00  0.00     0.123 C 
BRANCH  11  12
HETATM   12  N1  UNL     1      21.848   3.057  21.010  1.00  0.00    -0.358 N 
HETATM   13  C9  UNL     1      22.971   2.318  20.429  1.00  0.00     0.241 C 
HETATM   14  O1  UNL     1      24.054   2.403  21.069  1.00  0.00    -0.269 OA
ATOM     15  H1  UNL     1      20.958   3.068  20.512  1.00  0.00     0.162 HD
BRANCH  13  16
HETATM   16  C8  UNL     1      22.801   1.572  19.228  1.00  0.00     0.076 C 
BRANCH  16  17
HETATM   17  C7  UNL     1      21.642   0.707  18.959  1.00  0.00     0.036 C 
BRANCH  17  18
HETATM   18  C6  UNL     1      20.608   0.886  18.345  1.00  0.00     0.040 A 
HETATM   19  C4  UNL     1      19.472   1.082  17.675  1.00  0.00    -0.034 A 
HETATM   20  C3  UNL     1      18.237   0.694  17.475  1.00  0.00     0.021 A 
HETATM   21  C5  UNL     1      19.789   2.383  16.775  1.00  0.00     0.050 C 
HETATM   22  C2  UNL     1      17.796  -0.386  18.230  1.00  0.00    -0.029 A 
HETATM   23  C1  UNL     1      16.605  -0.856  18.133  1.00  0.00     0.025 C 
HETATM   24  C29 UNL     1      18.787  -0.836  19.057  1.00  0.00     0.101 A 
HETATM   25  N7  UNL     1      19.945  -0.396  19.175  1.00  0.00    -0.360 N 
HETATM   26  C28 UNL     1      20.920  -1.052  19.985  1.00  0.00     0.155 C 
ENDBRANCH  17  18
ENDBRANCH  16  17
ENDBRANCH  13  16
ENDBRANCH  11  12
ENDBRANCH  10  11
ENDBRANCH   9  10
ENDBRANCH   8   9
ENDBRANCH   1   8
BRANCH   7  27
HETATM   27  N5  UNL     1      16.981   4.720  23.865  1.00  0.00    -0.034 N 
HETATM   28  C24 UNL     1      15.579   5.103  23.830  1.00  0.00     0.279 C 
HETATM   29  C25 UNL     1      17.081   3.319  24.334  1.00  0.00     0.279 C 
BRANCH  27  30
HETATM   30  C26 UNL     1      17.452   4.681  22.507  1.00  0.00     0.342 C 
BRANCH  30  31
HETATM   31  C27 UNL     1      17.005   5.887  21.726  1.00  0.00     0.257 C 
HETATM   32  N6  UNL     1      16.046   5.833  20.702  1.00  0.00    -0.061 NA
HETATM   33  O3  UNL     1      17.473   7.057  21.950  1.00  0.00    -0.275 OA
ENDBRANCH  30  31
ENDBRANCH  27  30
ENDBRANCH   7  27
BRANCH   6  34
HETATM   34  C18 UNL     1      15.263   7.579  26.355  1.00  0.00     0.103 A 
HETATM   35  N3  UNL     1      15.196   8.620  25.511  1.00  0.00    -0.338 N 
HETATM   36  C19 UNL     1      14.271   9.502  25.958  1.00  0.00     0.104 A 
ATOM     37  H3  UNL     1      15.754   8.730  24.665  1.00  0.00     0.167 HD
HETATM   38  C20 UNL     1      13.905  10.645  25.420  1.00  0.00     0.018 C 
HETATM   39  N4  UNL     1      13.733   9.013  27.121  1.00  0.00    -0.308 N 
HETATM   40  C21 UNL     1      14.493  11.144  24.178  1.00  0.00     0.040 C 
HETATM   41  C22 UNL     1      14.332   7.863  27.349  1.00  0.00     0.273 A 
ATOM     42  H4  UNL     1      13.012   9.452  27.695  1.00  0.00     0.170 HD
HETATM   43  O2  UNL     1      14.063   7.143  28.357  1.00  0.00    -0.266 OA
ENDBRANCH   6  34
TORSDOF 12
ENDMDL
