MODEL 1
REMARK VINA RESULT: -8.189963678      0.000      0.000
REMARK  5 active torsions:
REMARK  status: ('A' for Active; 'I' for Inactive)
REMARK    1  A    between atoms: O1_2  and  C2_3 
REMARK    2  A    between atoms: C2_3  and  C3_5 
REMARK    3  A    between atoms: N2_14  and  C10_16 
REMARK    4  A    between atoms: C10_16  and  C11_18 
REMARK    5  A    between atoms: C11_18  and  C12_20 
ROOT
HETATM    1  C3  UNL     1     -22.653  20.296 -13.297  1.00  0.00     0.155 C 
HETATM    2  C4  UNL     1     -24.002  19.926 -12.739  1.00  0.00    -0.003 C 
HETATM    3  C5  UNL     1     -24.091  19.091 -11.725  1.00  0.00     0.049 C 
HETATM    4  C6  UNL     1     -22.959  18.482 -11.081  1.00  0.00     0.172 C 
HETATM    5  O3  UNL     1     -23.145  17.799 -10.041  1.00  0.00    -0.291 OA
HETATM    6  C7  UNL     1     -21.590  18.666 -11.654  1.00  0.00     0.212 C 
HETATM    7  C8  UNL     1     -20.956  19.720 -10.842  1.00  0.00     0.078 C 
HETATM    8  N1  UNL     1     -20.454  20.556 -10.223  1.00  0.00    -0.196 NA
HETATM    9  C9  UNL     1     -21.763  19.144 -13.041  1.00  0.00     0.026 C 
HETATM   10  N2  UNL     1     -21.158  18.572 -13.997  1.00  0.00    -0.375 N 
ATOM     11  H2  UNL     1     -21.312  18.940 -14.936  1.00  0.00     0.160 HD
ENDROOT
BRANCH   1  12
HETATM   12  C2  UNL     1     -22.770  20.597 -14.752  1.00  0.00     0.271 C 
HETATM   13  O2  UNL     1     -23.908  20.754 -15.262  1.00  0.00    -0.264 OA
BRANCH  12  14
HETATM   14  O1  UNL     1     -21.671  20.707 -15.560  1.00  0.00    -0.326 OA
HETATM   15  C1  UNL     1     -21.574  21.625 -16.640  1.00  0.00     0.213 C 
ENDBRANCH  12  14
ENDBRANCH   1  12
BRANCH  10  16
HETATM   16  C10 UNL     1     -20.285  17.465 -13.868  1.00  0.00     0.202 C 
HETATM   17 CL1  UNL     1     -21.108  16.063 -13.102  1.00  0.00    -0.101 Cl
BRANCH  16  18
HETATM   18  C11 UNL     1     -19.881  16.995 -15.261  1.00  0.00     0.159 C 
HETATM   19 CL2  UNL     1     -19.633  18.433 -16.270  1.00  0.00    -0.116 Cl
BRANCH  18  20
HETATM   20  C12 UNL     1     -18.609  16.222 -15.171  1.00  0.00     0.005 A 
HETATM   21  C13 UNL     1     -18.407  14.889 -15.414  1.00  0.00     0.018 A 
HETATM   22  C14 UNL     1     -17.167  14.414 -15.267  1.00  0.00     0.028 A 
HETATM   23  C15 UNL     1     -16.192  15.296 -14.884  1.00  0.00     0.051 A 
HETATM   24 BR1  UNL     1     -14.321  14.940 -14.584  1.00  0.00    -0.043 Br
HETATM   25  S1  UNL     1     -17.052  16.769 -14.742  1.00  0.00    -0.086 SA
ENDBRANCH  18  20
ENDBRANCH  16  18
ENDBRANCH  10  16
TORSDOF 5
ENDMDL
MODEL 2
REMARK VINA RESULT: -6.840746849      2.456      3.213
REMARK  5 active torsions:
REMARK  status: ('A' for Active; 'I' for Inactive)
REMARK    1  A    between atoms: O1_2  and  C2_3 
REMARK    2  A    between atoms: C2_3  and  C3_5 
REMARK    3  A    between atoms: N2_14  and  C10_16 
REMARK    4  A    between atoms: C10_16  and  C11_18 
REMARK    5  A    between atoms: C11_18  and  C12_20 
ROOT
HETATM    1  C3  UNL     1     -21.058  18.545 -11.194  1.00  0.00     0.155 C 
HETATM    2  C4  UNL     1     -22.400  18.244 -10.578  1.00  0.00    -0.003 C 
HETATM    3  C5  UNL     1     -23.135  17.257 -11.045  1.00  0.00     0.049 C 
HETATM    4  C6  UNL     1     -22.744  16.407 -12.137  1.00  0.00     0.172 C 
HETATM    5  O3  UNL     1     -23.460  15.414 -12.422  1.00  0.00    -0.291 OA
HETATM    6  C7  UNL     1     -21.503  16.716 -12.912  1.00  0.00     0.212 C 
HETATM    7  C8  UNL     1     -20.466  15.811 -12.384  1.00  0.00     0.078 C 
HETATM    8  N1  UNL     1     -19.642  15.117 -11.968  1.00  0.00    -0.196 NA
HETATM    9  C9  UNL     1     -21.141  18.116 -12.606  1.00  0.00     0.026 C 
HETATM   10  N2  UNL     1     -20.906  18.937 -13.544  1.00  0.00    -0.375 N 
ATOM     11  H2  UNL     1     -20.662  19.892 -13.280  1.00  0.00     0.160 HD
ENDROOT
BRANCH   1  12
HETATM   12  C2  UNL     1     -20.757  19.999 -11.069  1.00  0.00     0.271 C 
HETATM   13  O2  UNL     1     -19.562  20.381 -11.013  1.00  0.00    -0.264 OA
BRANCH  12  14
HETATM   14  O1  UNL     1     -21.749  20.941 -11.013  1.00  0.00    -0.326 OA
HETATM   15  C1  UNL     1     -22.540  21.321 -12.131  1.00  0.00     0.213 C 
ENDBRANCH  12  14
ENDBRANCH   1  12
BRANCH  10  16
HETATM   16  C10 UNL     1     -20.955  18.637 -14.926  1.00  0.00     0.202 C 
HETATM   17 CL1  UNL     1     -21.863  19.890 -15.841  1.00  0.00    -0.101 Cl
BRANCH  16  18
HETATM   18  C11 UNL     1     -19.536  18.666 -15.483  1.00  0.00     0.159 C 
HETATM   19 CL2  UNL     1     -18.566  19.732 -14.450  1.00  0.00    -0.116 Cl
BRANCH  18  20
HETATM   20  C12 UNL     1     -18.967  17.288 -15.454  1.00  0.00     0.005 A 
HETATM   21  C13 UNL     1     -19.609  16.099 -15.674  1.00  0.00     0.018 A 
HETATM   22  C14 UNL     1     -18.885  14.980 -15.594  1.00  0.00     0.028 A 
HETATM   23  C15 UNL     1     -17.554  15.106 -15.297  1.00  0.00     0.051 A 
HETATM   24 BR1  UNL     1     -16.242  13.706 -15.109  1.00  0.00    -0.043 Br
HETATM   25  S1  UNL     1     -17.364  16.799 -15.140  1.00  0.00    -0.086 SA
ENDBRANCH  18  20
ENDBRANCH  16  18
ENDBRANCH  10  16
TORSDOF 5
ENDMDL
MODEL 3
REMARK VINA RESULT: -6.730956794      7.752     11.464
REMARK  5 active torsions:
REMARK  status: ('A' for Active; 'I' for Inactive)
REMARK    1  A    between atoms: O1_2  and  C2_3 
REMARK    2  A    between atoms: C2_3  and  C3_5 
REMARK    3  A    between atoms: N2_14  and  C10_16 
REMARK    4  A    between atoms: C10_16  and  C11_18 
REMARK    5  A    between atoms: C11_18  and  C12_20 
ROOT
HETATM    1  C3  UNL     1     -14.480  11.016 -19.410  1.00  0.00     0.155 C 
HETATM    2  C4  UNL     1     -14.113  11.046 -20.871  1.00  0.00    -0.003 C 
HETATM    3  C5  UNL     1     -12.874  11.299 -21.236  1.00  0.00     0.049 C 
HETATM    4  C6  UNL     1     -11.800  11.558 -20.316  1.00  0.00     0.172 C 
HETATM    5  O3  UNL     1     -10.629  11.663 -20.761  1.00  0.00    -0.291 OA
HETATM    6  C7  UNL     1     -12.090  11.700 -18.856  1.00  0.00     0.212 C 
HETATM    7  C8  UNL     1     -11.739  10.404 -18.250  1.00  0.00     0.078 C 
HETATM    8  N1  UNL     1     -11.481   9.386 -17.767  1.00  0.00    -0.196 NA
HETATM    9  C9  UNL     1     -13.543  11.931 -18.725  1.00  0.00     0.026 C 
HETATM   10  N2  UNL     1     -13.980  12.902 -18.035  1.00  0.00    -0.375 N 
ATOM     11  H2  UNL     1     -14.992  13.018 -17.978  1.00  0.00     0.160 HD
ENDROOT
BRANCH   1  12
HETATM   12  C2  UNL     1     -15.900  11.436 -19.235  1.00  0.00     0.271 C 
HETATM   13  O2  UNL     1     -16.374  12.336 -19.973  1.00  0.00    -0.264 OA
BRANCH  12  14
HETATM   14  O1  UNL     1     -16.710  10.871 -18.289  1.00  0.00    -0.326 OA
HETATM   15  C1  UNL     1     -17.356   9.615 -18.451  1.00  0.00     0.213 C 
ENDBRANCH  12  14
ENDBRANCH   1  12
BRANCH  10  16
HETATM   16  C10 UNL     1     -13.177  13.837 -17.339  1.00  0.00     0.202 C 
HETATM   17 CL1  UNL     1     -13.710  15.524 -17.651  1.00  0.00    -0.101 Cl
BRANCH  16  18
HETATM   18  C11 UNL     1     -13.359  13.617 -15.841  1.00  0.00     0.159 C 
HETATM   19 CL2  UNL     1     -12.095  14.532 -14.998  1.00  0.00    -0.116 Cl
BRANCH  18  20
HETATM   20  C12 UNL     1     -14.700  14.120 -15.428  1.00  0.00     0.005 A 
HETATM   21  C13 UNL     1     -15.000  15.050 -14.468  1.00  0.00     0.018 A 
HETATM   22  C14 UNL     1     -16.288  15.344 -14.272  1.00  0.00     0.028 A 
HETATM   23  C15 UNL     1     -17.212  14.693 -15.045  1.00  0.00     0.051 A 
HETATM   24 BR1  UNL     1     -19.130  14.882 -15.014  1.00  0.00    -0.043 Br
HETATM   25  S1  UNL     1     -16.237  13.685 -16.025  1.00  0.00    -0.086 SA
ENDBRANCH  18  20
ENDBRANCH  16  18
ENDBRANCH  10  16
TORSDOF 5
ENDMDL
MODEL 4
REMARK VINA RESULT: -6.653896489      2.238      3.392
REMARK  5 active torsions:
REMARK  status: ('A' for Active; 'I' for Inactive)
REMARK    1  A    between atoms: O1_2  and  C2_3 
REMARK    2  A    between atoms: C2_3  and  C3_5 
REMARK    3  A    between atoms: N2_14  and  C10_16 
REMARK    4  A    between atoms: C10_16  and  C11_18 
REMARK    5  A    between atoms: C11_18  and  C12_20 
ROOT
HETATM    1  C3  UNL     1     -21.079  19.070 -11.072  1.00  0.00     0.155 C 
HETATM    2  C4  UNL     1     -22.057  20.188 -10.820  1.00  0.00    -0.003 C 
HETATM    3  C5  UNL     1     -23.186  20.243 -11.495  1.00  0.00     0.049 C 
HETATM    4  C6  UNL     1     -23.577  19.283 -12.492  1.00  0.00     0.172 C 
HETATM    5  O3  UNL     1     -24.730  19.355 -12.988  1.00  0.00    -0.291 OA
HETATM    6  C7  UNL     1     -22.612  18.224 -12.923  1.00  0.00     0.212 C 
HETATM    7  C8  UNL     1     -23.006  17.005 -12.194  1.00  0.00     0.078 C 
HETATM    8  N1  UNL     1     -23.297  16.047 -11.617  1.00  0.00    -0.196 NA
HETATM    9  C9  UNL     1     -21.271  18.655 -12.478  1.00  0.00     0.026 C 
HETATM   10  N2  UNL     1     -20.299  18.671 -13.292  1.00  0.00    -0.375 N 
ATOM     11  H2  UNL     1     -19.394  18.978 -12.936  1.00  0.00     0.160 HD
ENDROOT
BRANCH   1  12
HETATM   12  C2  UNL     1     -19.690  19.544 -10.815  1.00  0.00     0.271 C 
HETATM   13  O2  UNL     1     -18.790  18.709 -10.547  1.00  0.00    -0.264 OA
BRANCH  12  14
HETATM   14  O1  UNL     1     -19.358  20.871 -10.861  1.00  0.00    -0.326 OA
HETATM   15  C1  UNL     1     -18.020  21.349 -10.907  1.00  0.00     0.213 C 
ENDBRANCH  12  14
ENDBRANCH   1  12
BRANCH  10  16
HETATM   16  C10 UNL     1     -20.368  18.296 -14.655  1.00  0.00     0.202 C 
HETATM   17 CL1  UNL     1     -21.302  19.490 -15.621  1.00  0.00    -0.101 Cl
BRANCH  16  18
HETATM   18  C11 UNL     1     -18.959  18.308 -15.238  1.00  0.00     0.159 C 
HETATM   19 CL2  UNL     1     -17.942  19.309 -14.184  1.00  0.00    -0.116 Cl
BRANCH  18  20
HETATM   20  C12 UNL     1     -18.427  16.915 -15.270  1.00  0.00     0.005 A 
HETATM   21  C13 UNL     1     -19.124  15.742 -15.384  1.00  0.00     0.018 A 
HETATM   22  C14 UNL     1     -18.425  14.604 -15.390  1.00  0.00     0.028 A 
HETATM   23  C15 UNL     1     -17.062  14.696 -15.281  1.00  0.00     0.051 A 
HETATM   24 BR1  UNL     1     -15.774  13.263 -15.257  1.00  0.00    -0.043 Br
HETATM   25  S1  UNL     1     -16.809  16.385 -15.174  1.00  0.00    -0.086 SA
ENDBRANCH  18  20
ENDBRANCH  16  18
ENDBRANCH  10  16
TORSDOF 5
ENDMDL
MODEL 5
REMARK VINA RESULT: -6.638852184      7.780     11.469
REMARK  5 active torsions:
REMARK  status: ('A' for Active; 'I' for Inactive)
REMARK    1  A    between atoms: O1_2  and  C2_3 
REMARK    2  A    between atoms: C2_3  and  C3_5 
REMARK    3  A    between atoms: N2_14  and  C10_16 
REMARK    4  A    between atoms: C10_16  and  C11_18 
REMARK    5  A    between atoms: C11_18  and  C12_20 
ROOT
HETATM    1  C3  UNL     1     -14.358  10.406 -18.566  1.00  0.00     0.155 C 
HETATM    2  C4  UNL     1     -14.582  10.449 -20.055  1.00  0.00    -0.003 C 
HETATM    3  C5  UNL     1     -13.680  10.995 -20.843  1.00  0.00     0.049 C 
HETATM    4  C6  UNL     1     -12.449  11.576 -20.379  1.00  0.00     0.172 C 
HETATM    5  O3  UNL     1     -11.599  11.957 -21.224  1.00  0.00    -0.291 OA
HETATM    6  C7  UNL     1     -12.202  11.719 -18.911  1.00  0.00     0.212 C 
HETATM    7  C8  UNL     1     -11.324  10.594 -18.543  1.00  0.00     0.078 C 
HETATM    8  N1  UNL     1     -10.648   9.707 -18.239  1.00  0.00    -0.196 NA
HETATM    9  C9  UNL     1     -13.508  11.570 -18.237  1.00  0.00     0.026 C 
HETATM   10  N2  UNL     1     -13.894  12.431 -17.389  1.00  0.00    -0.375 N 
ATOM     11  H2  UNL     1     -14.805  12.283 -16.953  1.00  0.00     0.160 HD
ENDROOT
BRANCH   1  12
HETATM   12  C2  UNL     1     -15.666  10.452 -17.854  1.00  0.00     0.271 C 
HETATM   13  O2  UNL     1     -15.707  10.234 -16.618  1.00  0.00    -0.264 OA
BRANCH  12  14
HETATM   14  O1  UNL     1     -16.837  10.726 -18.509  1.00  0.00    -0.326 OA
HETATM   15  C1  UNL     1     -17.860   9.765 -18.731  1.00  0.00     0.213 C 
ENDBRANCH  12  14
ENDBRANCH   1  12
BRANCH  10  16
HETATM   16  C10 UNL     1     -13.165  13.579 -16.999  1.00  0.00     0.202 C 
HETATM   17 CL1  UNL     1     -13.840  15.071 -17.740  1.00  0.00    -0.101 Cl
BRANCH  16  18
HETATM   18  C11 UNL     1     -13.313  13.764 -15.493  1.00  0.00     0.159 C 
HETATM   19 CL2  UNL     1     -12.115  14.964 -14.971  1.00  0.00    -0.116 Cl
BRANCH  18  20
HETATM   20  C12 UNL     1     -14.685  14.262 -15.189  1.00  0.00     0.005 A 
HETATM   21  C13 UNL     1     -15.050  15.303 -14.378  1.00  0.00     0.018 A 
HETATM   22  C14 UNL     1     -16.354  15.566 -14.257  1.00  0.00     0.028 A 
HETATM   23  C15 UNL     1     -17.228  14.774 -14.954  1.00  0.00     0.051 A 
HETATM   24 BR1  UNL     1     -19.152  14.883 -15.000  1.00  0.00    -0.043 Br
HETATM   25  S1  UNL     1     -16.184  13.682 -15.758  1.00  0.00    -0.086 SA
ENDBRANCH  18  20
ENDBRANCH  16  18
ENDBRANCH  10  16
TORSDOF 5
ENDMDL
