MODEL 1
REMARK VINA RESULT: -8.572437036      0.000      0.000
REMARK  8 active torsions:
REMARK  status: ('A' for Active; 'I' for Inactive)
REMARK    1  A    between atoms: C3_5  and  N3_6 
REMARK    2  A    between atoms: N4_8  and  N5_10 
REMARK       I    between atoms: N5_10  and  C4_12 
REMARK       I    between atoms: C4_12  and  N6_14 
REMARK    3  A    between atoms: N6_14  and  N7_16 
REMARK    4  A    between atoms: N8_18  and  C5_20 
REMARK    5  A    between atoms: C6_26  and  C7_27 
REMARK    6  A    between atoms: N12_29  and  O3_31 
REMARK    7  A    between atoms: C8_33  and  N13_34 
REMARK    8  A    between atoms: N13_34  and  N14_36 
REMARK       I    between atoms: N14_36  and  C9_38 
ROOT
HETATM    1  N5  UNL     1      78.440 -12.755   4.009  1.00  0.00    -0.236 N 
ATOM      2  H5  UNL     1      78.640 -13.671   3.610  1.00  0.00     0.193 HD
HETATM    3  C4  UNL     1      77.792 -11.778   3.205  1.00  0.00     0.355 C 
HETATM    4  O1  UNL     1      77.527 -10.633   3.658  1.00  0.00    -0.244 OA
HETATM    5  N6  UNL     1      77.419 -12.056   1.864  1.00  0.00    -0.236 N 
ATOM      6  H6  UNL     1      77.625 -12.978   1.480  1.00  0.00     0.193 HD
ENDROOT
BRANCH   1   7
HETATM    7  N4  UNL     1      78.812 -12.496   5.327  1.00  0.00    -0.238 N 
HETATM    8  N3  UNL     1      79.265 -13.336   6.150  1.00  0.00    -0.280 N 
ATOM      9  H3  UNL     1      79.511 -13.052   7.098  1.00  0.00     0.189 HD
ATOM     10  H4  UNL     1      78.707 -11.537   5.657  1.00  0.00     0.208 HD
BRANCH   8  11
HETATM   11  C3  UNL     1      79.427 -14.678   5.736  1.00  0.00     0.136 A 
HETATM   12  C2  UNL     1      80.506 -14.999   4.896  1.00  0.00     0.154 A 
HETATM   13  N1  UNL     1      80.684 -16.259   4.476  1.00  0.00    -0.290 N 
HETATM   14  N2  UNL     1      81.383 -13.953   4.527  1.00  0.00    -0.080 NA
HETATM   15  C1  UNL     1      81.815 -16.557   3.605  1.00  0.00     0.162 C 
HETATM   16  C10 UNL     1      79.815 -17.197   4.874  1.00  0.00     0.329 A 
HETATM   17  N16 UNL     1      78.776 -16.928   5.675  1.00  0.00    -0.291 N 
HETATM   18  O5  UNL     1      80.026 -18.380   4.450  1.00  0.00    -0.246 OA
HETATM   19  C8  UNL     1      78.549 -15.645   6.134  1.00  0.00     0.156 A 
ATOM     20  H16 UNL     1      78.143 -17.680   5.949  1.00  0.00     0.172 HD
BRANCH  19  21
HETATM   21  N13 UNL     1      77.565 -15.455   6.895  1.00  0.00    -0.280 N 
ATOM     22  H13 UNL     1      77.671 -15.774   7.858  1.00  0.00     0.188 HD
BRANCH  21  23
HETATM   23  N14 UNL     1      76.381 -14.875   6.581  1.00  0.00    -0.252 N 
HETATM   24  C9  UNL     1      76.067 -13.566   7.099  1.00  0.00     0.347 C 
HETATM   25  N15 UNL     1      74.837 -12.940   6.784  1.00  0.00    -0.038 NA
HETATM   26  O4  UNL     1      76.891 -12.973   7.839  1.00  0.00    -0.249 OA
ATOM     27  H14 UNL     1      75.715 -15.361   5.980  1.00  0.00     0.191 HD
ENDBRANCH  21  23
ENDBRANCH  19  21
ENDBRANCH   8  11
ENDBRANCH   1   7
BRANCH   5  28
HETATM   28  N7  UNL     1      76.790 -11.130   1.062  1.00  0.00    -0.237 N 
HETATM   29  N8  UNL     1      77.439 -10.239   0.461  1.00  0.00    -0.267 N 
ATOM     30  H8  UNL     1      76.925  -9.576  -0.120  1.00  0.00     0.190 HD
ATOM     31  H7  UNL     1      75.776 -11.169   0.955  1.00  0.00     0.208 HD
BRANCH  29  32
HETATM   32  C5  UNL     1      78.864 -10.102   0.548  1.00  0.00     0.175 A 
HETATM   33  N9  UNL     1      79.569  -9.372   1.429  1.00  0.00    -0.222 N 
HETATM   34  O2  UNL     1      80.832  -9.521   1.166  1.00  0.00    -0.155 OA
ATOM     35  H9  UNL     1      79.178  -8.798   2.176  1.00  0.00     0.198 HD
HETATM   36  N10 UNL     1      80.982 -10.316   0.152  1.00  0.00    -0.234 N 
HETATM   37  C6  UNL     1      79.770 -10.719  -0.285  1.00  0.00     0.146 A 
ATOM     38  H10 UNL     1      81.877 -10.593  -0.252  1.00  0.00     0.197 HD
BRANCH  37  39
HETATM   39  C7  UNL     1      79.453 -11.608  -1.389  1.00  0.00     0.168 C 
HETATM   40  N11 UNL     1      78.324 -12.463  -1.300  1.00  0.00    -0.078 NA
HETATM   41  N12 UNL     1      80.149 -11.670  -2.466  1.00  0.00    -0.253 N 
ATOM     42  H12 UNL     1      79.841 -12.328  -3.182  1.00  0.00     0.195 HD
BRANCH  41  43
HETATM   43  O3  UNL     1      81.256 -10.937  -2.737  1.00  0.00    -0.288 OA
ATOM     44  H3  UNL     1      81.733 -10.934  -3.559  1.00  0.00     0.244 HD
ENDBRANCH  41  43
ENDBRANCH  37  39
ENDBRANCH  29  32
ENDBRANCH   5  28
TORSDOF 8
ENDMDL
MODEL 2
REMARK VINA RESULT: -8.274681097      2.182      3.026
REMARK  8 active torsions:
REMARK  status: ('A' for Active; 'I' for Inactive)
REMARK    1  A    between atoms: C3_5  and  N3_6 
REMARK    2  A    between atoms: N4_8  and  N5_10 
REMARK       I    between atoms: N5_10  and  C4_12 
REMARK       I    between atoms: C4_12  and  N6_14 
REMARK    3  A    between atoms: N6_14  and  N7_16 
REMARK    4  A    between atoms: N8_18  and  C5_20 
REMARK    5  A    between atoms: C6_26  and  C7_27 
REMARK    6  A    between atoms: N12_29  and  O3_31 
REMARK    7  A    between atoms: C8_33  and  N13_34 
REMARK    8  A    between atoms: N13_34  and  N14_36 
REMARK       I    between atoms: N14_36  and  C9_38 
ROOT
HETATM    1  N5  UNL     1      77.734 -11.484   4.365  1.00  0.00    -0.236 N 
ATOM      2  H5  UNL     1      78.578 -11.953   4.036  1.00  0.00     0.193 HD
HETATM    3  C4  UNL     1      77.191 -10.422   3.591  1.00  0.00     0.355 C 
HETATM    4  O1  UNL     1      76.151  -9.814   3.959  1.00  0.00    -0.244 OA
HETATM    5  N6  UNL     1      77.798 -10.008   2.377  1.00  0.00    -0.236 N 
ATOM      6  H6  UNL     1      78.641 -10.489   2.062  1.00  0.00     0.193 HD
ENDROOT
BRANCH   1   7
HETATM    7  N4  UNL     1      77.150 -11.901   5.558  1.00  0.00    -0.238 N 
HETATM    8  N3  UNL     1      77.516 -12.879   6.263  1.00  0.00    -0.280 N 
ATOM      9  H3  UNL     1      77.023 -13.109   7.126  1.00  0.00     0.189 HD
ATOM     10  H4  UNL     1      76.349 -11.364   5.893  1.00  0.00     0.208 HD
BRANCH   8  11
HETATM   11  C3  UNL     1      78.620 -13.652   5.837  1.00  0.00     0.136 A 
HETATM   12  C2  UNL     1      78.441 -14.559   4.780  1.00  0.00     0.154 A 
HETATM   13  N1  UNL     1      79.464 -15.314   4.357  1.00  0.00    -0.290 N 
HETATM   14  N2  UNL     1      77.158 -14.631   4.189  1.00  0.00    -0.080 NA
HETATM   15  C1  UNL     1      79.242 -16.246   3.257  1.00  0.00     0.162 C 
HETATM   16  C10 UNL     1      80.651 -15.184   4.962  1.00  0.00     0.329 A 
HETATM   17  N16 UNL     1      80.859 -14.329   5.972  1.00  0.00    -0.291 N 
HETATM   18  O5  UNL     1      81.593 -15.923   4.524  1.00  0.00    -0.246 OA
HETATM   19  C8  UNL     1      79.837 -13.529   6.444  1.00  0.00     0.156 A 
ATOM     20  H16 UNL     1      81.784 -14.269   6.398  1.00  0.00     0.172 HD
BRANCH  19  21
HETATM   21  N13 UNL     1      80.095 -12.735   7.386  1.00  0.00    -0.280 N 
ATOM     22  H13 UNL     1      79.296 -12.392   7.919  1.00  0.00     0.188 HD
BRANCH  21  23
HETATM   23  N14 UNL     1      81.314 -12.283   7.772  1.00  0.00    -0.252 N 
HETATM   24  C9  UNL     1      81.416 -11.052   8.516  1.00  0.00     0.347 C 
HETATM   25  N15 UNL     1      82.678 -10.560   8.929  1.00  0.00    -0.038 NA
HETATM   26  O4  UNL     1      80.377 -10.406   8.802  1.00  0.00    -0.249 OA
ATOM     27  H14 UNL     1      82.155 -12.811   7.536  1.00  0.00     0.191 HD
ENDBRANCH  21  23
ENDBRANCH  19  21
ENDBRANCH   8  11
ENDBRANCH   1   7
BRANCH   5  28
HETATM   28  N7  UNL     1      77.293  -8.984   1.607  1.00  0.00    -0.237 N 
HETATM   29  N8  UNL     1      77.938  -8.519   0.634  1.00  0.00    -0.267 N 
ATOM     30  H8  UNL     1      77.520  -7.760   0.097  1.00  0.00     0.190 HD
ATOM     31  H7  UNL     1      76.378  -8.595   1.832  1.00  0.00     0.208 HD
BRANCH  29  32
HETATM   32  C5  UNL     1      79.230  -8.999   0.240  1.00  0.00     0.175 A 
HETATM   33  N9  UNL     1      80.432  -8.494   0.569  1.00  0.00    -0.222 N 
HETATM   34  O2  UNL     1      81.349  -9.221   0.006  1.00  0.00    -0.155 OA
ATOM     35  H9  UNL     1      80.595  -7.678   1.159  1.00  0.00     0.198 HD
HETATM   36  N10 UNL     1      80.800 -10.178  -0.676  1.00  0.00    -0.234 N 
HETATM   37  C6  UNL     1      79.456 -10.092  -0.567  1.00  0.00     0.146 A 
ATOM     38  H10 UNL     1      81.304 -10.886  -1.210  1.00  0.00     0.197 HD
BRANCH  37  39
HETATM   39  C7  UNL     1      78.441 -10.946  -1.157  1.00  0.00     0.168 C 
HETATM   40  N11 UNL     1      77.115 -10.911  -0.655  1.00  0.00    -0.078 NA
HETATM   41  N12 UNL     1      78.677 -11.751  -2.130  1.00  0.00    -0.253 N 
ATOM     42  H12 UNL     1      77.894 -12.308  -2.473  1.00  0.00     0.195 HD
BRANCH  41  43
HETATM   43  O3  UNL     1      79.873 -11.927  -2.741  1.00  0.00    -0.288 OA
ATOM     44  H3  UNL     1      80.438 -12.685  -2.649  1.00  0.00     0.244 HD
ENDBRANCH  41  43
ENDBRANCH  37  39
ENDBRANCH  29  32
ENDBRANCH   5  28
TORSDOF 8
ENDMDL
MODEL 3
REMARK VINA RESULT: -8.144231075      2.281      3.439
REMARK  8 active torsions:
REMARK  status: ('A' for Active; 'I' for Inactive)
REMARK    1  A    between atoms: C3_5  and  N3_6 
REMARK    2  A    between atoms: N4_8  and  N5_10 
REMARK       I    between atoms: N5_10  and  C4_12 
REMARK       I    between atoms: C4_12  and  N6_14 
REMARK    3  A    between atoms: N6_14  and  N7_16 
REMARK    4  A    between atoms: N8_18  and  C5_20 
REMARK    5  A    between atoms: C6_26  and  C7_27 
REMARK    6  A    between atoms: N12_29  and  O3_31 
REMARK    7  A    between atoms: C8_33  and  N13_34 
REMARK    8  A    between atoms: N13_34  and  N14_36 
REMARK       I    between atoms: N14_36  and  C9_38 
ROOT
HETATM    1  N5  UNL     1      79.245 -13.996   2.177  1.00  0.00    -0.236 N 
ATOM      2  H5  UNL     1      79.944 -13.545   2.766  1.00  0.00     0.193 HD
HETATM    3  C4  UNL     1      79.234 -13.718   0.783  1.00  0.00     0.355 C 
HETATM    4  O1  UNL     1      78.387 -14.255   0.020  1.00  0.00    -0.244 OA
HETATM    5  N6  UNL     1      80.173 -12.828   0.201  1.00  0.00    -0.236 N 
ATOM      6  H6  UNL     1      80.866 -12.385   0.803  1.00  0.00     0.193 HD
ENDROOT
BRANCH   1   7
HETATM    7  N4  UNL     1      78.330 -14.868   2.764  1.00  0.00    -0.238 N 
HETATM    8  N3  UNL     1      78.283 -15.188   3.981  1.00  0.00    -0.280 N 
ATOM      9  H3  UNL     1      77.573 -15.837   4.320  1.00  0.00     0.189 HD
ATOM     10  H4  UNL     1      77.631 -15.286   2.149  1.00  0.00     0.208 HD
BRANCH   8  11
HETATM   11  C3  UNL     1      79.232 -14.632   4.870  1.00  0.00     0.136 A 
HETATM   12  C2  UNL     1      80.550 -15.118   4.839  1.00  0.00     0.154 A 
HETATM   13  N1  UNL     1      81.473 -14.621   5.674  1.00  0.00    -0.290 N 
HETATM   14  N2  UNL     1      80.853 -16.129   3.898  1.00  0.00    -0.080 NA
HETATM   15  C1  UNL     1      82.831 -15.148   5.614  1.00  0.00     0.162 C 
HETATM   16  C10 UNL     1      81.111 -13.658   6.531  1.00  0.00     0.329 A 
HETATM   17  N16 UNL     1      79.864 -13.171   6.588  1.00  0.00    -0.291 N 
HETATM   18  O5  UNL     1      82.023 -13.217   7.304  1.00  0.00    -0.246 OA
HETATM   19  C8  UNL     1      78.877 -13.650   5.749  1.00  0.00     0.156 A 
ATOM     20  H16 UNL     1      79.641 -12.437   7.261  1.00  0.00     0.172 HD
BRANCH  19  21
HETATM   21  N13 UNL     1      77.728 -13.144   5.839  1.00  0.00    -0.280 N 
ATOM     22  H13 UNL     1      76.977 -13.777   6.113  1.00  0.00     0.188 HD
BRANCH  21  23
HETATM   23  N14 UNL     1      77.376 -11.854   5.613  1.00  0.00    -0.252 N 
HETATM   24  C9  UNL     1      77.108 -11.413   4.266  1.00  0.00     0.347 C 
HETATM   25  N15 UNL     1      76.739 -10.071   4.005  1.00  0.00    -0.038 NA
HETATM   26  O4  UNL     1      77.203 -12.225   3.312  1.00  0.00    -0.249 OA
ATOM     27  H14 UNL     1      77.301 -11.199   6.391  1.00  0.00     0.191 HD
ENDBRANCH  21  23
ENDBRANCH  19  21
ENDBRANCH   8  11
ENDBRANCH   1   7
BRANCH   5  28
HETATM   28  N7  UNL     1      80.185 -12.541  -1.146  1.00  0.00    -0.237 N 
HETATM   29  N8  UNL     1      80.207 -11.355  -1.560  1.00  0.00    -0.267 N 
ATOM     30  H8  UNL     1      80.215 -11.196  -2.568  1.00  0.00     0.190 HD
ATOM     31  H7  UNL     1      80.176 -13.306  -1.820  1.00  0.00     0.208 HD
BRANCH  29  32
HETATM   32  C5  UNL     1      80.222 -10.214  -0.693  1.00  0.00     0.175 A 
HETATM   33  N9  UNL     1      81.280  -9.467  -0.333  1.00  0.00    -0.222 N 
HETATM   34  O2  UNL     1      80.866  -8.529   0.465  1.00  0.00    -0.155 OA
ATOM     35  H9  UNL     1      82.244  -9.613  -0.634  1.00  0.00     0.198 HD
HETATM   36  N10 UNL     1      79.585  -8.631   0.641  1.00  0.00    -0.234 N 
HETATM   37  C6  UNL     1      79.117  -9.681  -0.068  1.00  0.00     0.146 A 
ATOM     38  H10 UNL     1      79.020  -8.013   1.224  1.00  0.00     0.197 HD
BRANCH  37  39
HETATM   39  C7  UNL     1      77.754 -10.170  -0.171  1.00  0.00     0.168 C 
HETATM   40  N11 UNL     1      77.439 -11.175  -1.122  1.00  0.00    -0.078 NA
HETATM   41  N12 UNL     1      76.792  -9.738   0.563  1.00  0.00    -0.253 N 
ATOM     42  H12 UNL     1      75.871 -10.148   0.411  1.00  0.00     0.195 HD
BRANCH  41  43
HETATM   43  O3  UNL     1      76.894  -8.786   1.521  1.00  0.00    -0.288 OA
ATOM     44  H3  UNL     1      76.679  -8.898   2.440  1.00  0.00     0.244 HD
ENDBRANCH  41  43
ENDBRANCH  37  39
ENDBRANCH  29  32
ENDBRANCH   5  28
TORSDOF 8
ENDMDL
MODEL 4
REMARK VINA RESULT: -8.082539925      2.442      3.443
REMARK  8 active torsions:
REMARK  status: ('A' for Active; 'I' for Inactive)
REMARK    1  A    between atoms: C3_5  and  N3_6 
REMARK    2  A    between atoms: N4_8  and  N5_10 
REMARK       I    between atoms: N5_10  and  C4_12 
REMARK       I    between atoms: C4_12  and  N6_14 
REMARK    3  A    between atoms: N6_14  and  N7_16 
REMARK    4  A    between atoms: N8_18  and  C5_20 
REMARK    5  A    between atoms: C6_26  and  C7_27 
REMARK    6  A    between atoms: N12_29  and  O3_31 
REMARK    7  A    between atoms: C8_33  and  N13_34 
REMARK    8  A    between atoms: N13_34  and  N14_36 
REMARK       I    between atoms: N14_36  and  C9_38 
ROOT
HETATM    1  N5  UNL     1      78.920 -12.774   5.657  1.00  0.00    -0.236 N 
ATOM      2  H5  UNL     1      79.903 -12.798   5.387  1.00  0.00     0.193 HD
HETATM    3  C4  UNL     1      77.992 -12.096   4.820  1.00  0.00     0.355 C 
HETATM    4  O1  UNL     1      76.768 -12.042   5.117  1.00  0.00    -0.244 OA
HETATM    5  N6  UNL     1      78.407 -11.457   3.623  1.00  0.00    -0.236 N 
ATOM      6  H6  UNL     1      79.393 -11.491   3.367  1.00  0.00     0.193 HD
ENDROOT
BRANCH   1   7
HETATM    7  N4  UNL     1      78.528 -13.406   6.835  1.00  0.00    -0.238 N 
HETATM    8  N3  UNL     1      79.113 -14.374   7.390  1.00  0.00    -0.280 N 
ATOM      9  H3  UNL     1      78.749 -14.773   8.255  1.00  0.00     0.189 HD
ATOM     10  H4  UNL     1      77.687 -13.051   7.291  1.00  0.00     0.208 HD
BRANCH   8  11
HETATM   11  C3  UNL     1      80.282 -14.898   6.792  1.00  0.00     0.136 A 
HETATM   12  C2  UNL     1      80.164 -15.598   5.580  1.00  0.00     0.154 A 
HETATM   13  N1  UNL     1      81.250 -16.117   4.991  1.00  0.00    -0.290 N 
HETATM   14  N2  UNL     1      78.873 -15.722   5.018  1.00  0.00    -0.080 NA
HETATM   15  C1  UNL     1      81.091 -16.838   3.734  1.00  0.00     0.162 C 
HETATM   16  C10 UNL     1      82.441 -15.952   5.580  1.00  0.00     0.329 A 
HETATM   17  N16 UNL     1      82.592 -15.289   6.735  1.00  0.00    -0.291 N 
HETATM   18  O5  UNL     1      83.444 -16.462   4.982  1.00  0.00    -0.246 OA
HETATM   19  C8  UNL     1      81.504 -14.736   7.382  1.00  0.00     0.156 A 
ATOM     20  H16 UNL     1      83.522 -15.192   7.142  1.00  0.00     0.172 HD
BRANCH  19  21
HETATM   21  N13 UNL     1      81.708 -14.113   8.455  1.00  0.00    -0.280 N 
ATOM     22  H13 UNL     1      81.292 -14.514   9.296  1.00  0.00     0.188 HD
BRANCH  21  23
HETATM   23  N14 UNL     1      82.418 -12.970   8.622  1.00  0.00    -0.252 N 
HETATM   24  C9  UNL     1      81.759 -11.694   8.486  1.00  0.00     0.347 C 
HETATM   25  N15 UNL     1      82.480 -10.487   8.656  1.00  0.00    -0.038 NA
HETATM   26  O4  UNL     1      80.534 -11.650   8.214  1.00  0.00    -0.249 OA
ATOM     27  H14 UNL     1      83.413 -13.012   8.843  1.00  0.00     0.191 HD
ENDBRANCH  21  23
ENDBRANCH  19  21
ENDBRANCH   8  11
ENDBRANCH   1   7
BRANCH   5  28
HETATM   28  N7  UNL     1      77.530 -10.794   2.794  1.00  0.00    -0.237 N 
HETATM   29  N8  UNL     1      77.504 -11.017   1.559  1.00  0.00    -0.267 N 
ATOM     30  H8  UNL     1      76.836 -10.499   0.988  1.00  0.00     0.190 HD
ATOM     31  H7  UNL     1      76.888 -10.108   3.192  1.00  0.00     0.208 HD
BRANCH  29  32
HETATM   32  C5  UNL     1      78.364 -11.961   0.907  1.00  0.00     0.175 A 
HETATM   33  N9  UNL     1      78.131 -13.265   0.677  1.00  0.00    -0.222 N 
HETATM   34  O2  UNL     1      79.161 -13.762   0.061  1.00  0.00    -0.155 OA
ATOM     35  H9  UNL     1      77.289 -13.777   0.941  1.00  0.00     0.198 HD
HETATM   36  N10 UNL     1      80.056 -12.840  -0.121  1.00  0.00    -0.234 N 
HETATM   37  C6  UNL     1      79.609 -11.674   0.394  1.00  0.00     0.146 A 
ATOM     38  H10 UNL     1      80.956 -12.976  -0.581  1.00  0.00     0.197 HD
BRANCH  37  39
HETATM   39  C7  UNL     1      80.270 -10.381   0.419  1.00  0.00     0.168 C 
HETATM   40  N11 UNL     1      80.394  -9.680   1.646  1.00  0.00    -0.078 NA
HETATM   41  N12 UNL     1      80.759  -9.820  -0.627  1.00  0.00    -0.253 N 
ATOM     42  H12 UNL     1      81.204  -8.910  -0.503  1.00  0.00     0.195 HD
BRANCH  41  43
HETATM   43  O3  UNL     1      80.739 -10.329  -1.883  1.00  0.00    -0.288 OA
ATOM     44  H3  UNL     1      81.492 -10.657  -2.362  1.00  0.00     0.244 HD
ENDBRANCH  41  43
ENDBRANCH  37  39
ENDBRANCH  29  32
ENDBRANCH   5  28
TORSDOF 8
ENDMDL
MODEL 5
REMARK VINA RESULT: -8.033085979      2.313      3.173
REMARK  8 active torsions:
REMARK  status: ('A' for Active; 'I' for Inactive)
REMARK    1  A    between atoms: C3_5  and  N3_6 
REMARK    2  A    between atoms: N4_8  and  N5_10 
REMARK       I    between atoms: N5_10  and  C4_12 
REMARK       I    between atoms: C4_12  and  N6_14 
REMARK    3  A    between atoms: N6_14  and  N7_16 
REMARK    4  A    between atoms: N8_18  and  C5_20 
REMARK    5  A    between atoms: C6_26  and  C7_27 
REMARK    6  A    between atoms: N12_29  and  O3_31 
REMARK    7  A    between atoms: C8_33  and  N13_34 
REMARK    8  A    between atoms: N13_34  and  N14_36 
REMARK       I    between atoms: N14_36  and  C9_38 
ROOT
HETATM    1  N5  UNL     1      77.826 -11.990   4.752  1.00  0.00    -0.236 N 
ATOM      2  H5  UNL     1      78.644 -12.534   4.480  1.00  0.00     0.193 HD
HETATM    3  C4  UNL     1      77.182 -11.177   3.779  1.00  0.00     0.355 C 
HETATM    4  O1  UNL     1      76.170 -10.488   4.073  1.00  0.00    -0.244 OA
HETATM    5  N6  UNL     1      77.656 -11.112   2.443  1.00  0.00    -0.236 N 
ATOM      6  H6  UNL     1      78.475 -11.663   2.186  1.00  0.00     0.193 HD
ENDROOT
BRANCH   1   7
HETATM    7  N4  UNL     1      77.372 -12.064   6.068  1.00  0.00    -0.238 N 
HETATM    8  N3  UNL     1      77.894 -12.736   6.997  1.00  0.00    -0.280 N 
ATOM      9  H3  UNL     1      77.489 -12.729   7.932  1.00  0.00     0.189 HD
ATOM     10  H4  UNL     1      76.539 -11.523   6.300  1.00  0.00     0.208 HD
BRANCH   8  11
HETATM   11  C3  UNL     1      79.050 -13.501   6.720  1.00  0.00     0.136 A 
HETATM   12  C2  UNL     1      78.905 -14.718   6.033  1.00  0.00     0.154 A 
HETATM   13  N1  UNL     1      79.979 -15.473   5.762  1.00  0.00    -0.290 N 
HETATM   14  N2  UNL     1      77.601 -15.097   5.641  1.00  0.00    -0.080 NA
HETATM   15  C1  UNL     1      79.792 -16.730   5.047  1.00  0.00     0.162 C 
HETATM   16  C10 UNL     1      81.183 -15.043   6.158  1.00  0.00     0.329 A 
HETATM   17  N16 UNL     1      81.359 -13.888   6.814  1.00  0.00    -0.291 N 
HETATM   18  O5  UNL     1      82.173 -15.795   5.878  1.00  0.00    -0.246 OA
HETATM   19  C8  UNL     1      80.285 -13.074   7.117  1.00  0.00     0.156 A 
ATOM     20  H16 UNL     1      82.299 -13.606   7.094  1.00  0.00     0.172 HD
BRANCH  19  21
HETATM   21  N13 UNL     1      80.513 -11.995   7.722  1.00  0.00    -0.280 N 
ATOM     22  H13 UNL     1      79.766 -11.300   7.704  1.00  0.00     0.188 HD
BRANCH  21  23
HETATM   23  N14 UNL     1      81.638 -11.650   8.397  1.00  0.00    -0.252 N 
HETATM   24  C9  UNL     1      81.649 -10.454   9.203  1.00  0.00     0.347 C 
HETATM   25  N15 UNL     1      82.812 -10.074   9.915  1.00  0.00    -0.038 NA
HETATM   26  O4  UNL     1      80.619  -9.740   9.274  1.00  0.00    -0.249 OA
ATOM     27  H14 UNL     1      82.472 -12.234   8.334  1.00  0.00     0.191 HD
ENDBRANCH  21  23
ENDBRANCH  19  21
ENDBRANCH   8  11
ENDBRANCH   1   7
BRANCH   5  28
HETATM   28  N7  UNL     1      77.053 -10.334   1.480  1.00  0.00    -0.237 N 
HETATM   29  N8  UNL     1      77.732  -9.673   0.655  1.00  0.00    -0.267 N 
ATOM     30  H8  UNL     1      77.237  -9.112  -0.038  1.00  0.00     0.190 HD
ATOM     31  H7  UNL     1      76.035 -10.293   1.436  1.00  0.00     0.208 HD
BRANCH  29  32
HETATM   32  C5  UNL     1      79.165  -9.666   0.635  1.00  0.00     0.175 A 
HETATM   33  N9  UNL     1      79.996  -8.980   1.439  1.00  0.00    -0.222 N 
HETATM   34  O2  UNL     1      81.218  -9.251   1.091  1.00  0.00    -0.155 OA
ATOM     35  H9  UNL     1      79.715  -8.354   2.193  1.00  0.00     0.198 HD
HETATM   36  N10 UNL     1      81.221 -10.082   0.095  1.00  0.00    -0.234 N 
HETATM   37  C6  UNL     1      79.949 -10.384  -0.240  1.00  0.00     0.146 A 
ATOM     38  H10 UNL     1      82.055 -10.451  -0.362  1.00  0.00     0.197 HD
BRANCH  37  39
HETATM   39  C7  UNL     1      79.472 -11.269  -1.289  1.00  0.00     0.168 C 
HETATM   40  N11 UNL     1      78.253 -11.972  -1.115  1.00  0.00    -0.078 NA
HETATM   41  N12 UNL     1      80.103 -11.458  -2.392  1.00  0.00    -0.253 N 
ATOM     42  H12 UNL     1      79.683 -12.100  -3.064  1.00  0.00     0.195 HD
BRANCH  41  43
HETATM   43  O3  UNL     1      81.277 -10.880  -2.742  1.00  0.00    -0.288 OA
ATOM     44  H3  UNL     1      81.606 -10.783  -3.628  1.00  0.00     0.244 HD
ENDBRANCH  41  43
ENDBRANCH  37  39
ENDBRANCH  29  32
ENDBRANCH   5  28
TORSDOF 8
ENDMDL
