MODEL 1
REMARK VINA RESULT: -8.361707706      0.000      0.000
REMARK  11 active torsions:
REMARK  status: ('A' for Active; 'I' for Inactive)
REMARK    1  A    between atoms: C2_2  and  N1_3 
REMARK    2  A    between atoms: N1_3  and  C3_5 
REMARK    3  A    between atoms: C4_8  and  O1_9 
REMARK    4  A    between atoms: C5_11  and  N4_12 
REMARK    5  A    between atoms: C7_22  and  O3_23 
REMARK    6  A    between atoms: C7_22  and  C8_25 
REMARK    7  A    between atoms: C9_28  and  N11_29 
REMARK    8  A    between atoms: C10_34  and  N13_35 
REMARK    9  A    between atoms: N13_35  and  C11_37 
REMARK   10  A    between atoms: C11_37  and  O4_39 
REMARK   11  A    between atoms: C13_41  and  O5_42 
ROOT
HETATM    1  C3  UNL     1      79.191 -16.015   6.765  1.00  0.00     0.259 C 
HETATM    2  N2  UNL     1      78.397 -14.958   7.408  1.00  0.00    -0.084 NA
HETATM    3  N3  UNL     1      78.285 -13.960   6.405  1.00  0.00    -0.164 N 
HETATM    4  C4  UNL     1      77.465 -12.997   5.973  1.00  0.00     0.212 A 
HETATM    5  C5  UNL     1      77.976 -12.428   4.832  1.00  0.00     0.197 A 
HETATM    6  C6  UNL     1      79.172 -13.130   4.617  1.00  0.00     0.301 A 
HETATM    7  O2  UNL     1      79.883 -12.824   3.602  1.00  0.00    -0.264 OA
HETATM    8  N9  UNL     1      79.356 -14.052   5.571  1.00  0.00    -0.189 N 
HETATM    9  C7  UNL     1      80.228 -15.088   6.058  1.00  0.00     0.241 C 
ENDROOT
BRANCH   9  10
HETATM   10  O3  UNL     1      80.864 -15.746   5.028  1.00  0.00    -0.361 OA
ATOM     11  H3  UNL     1      80.896 -15.209   4.245  1.00  0.00     0.213 HD
ENDBRANCH   9  10
BRANCH   9  12
HETATM   12  C8  UNL     1      81.125 -14.633   7.145  1.00  0.00     0.124 A 
HETATM   13  N10 UNL     1      81.205 -13.307   7.429  1.00  0.00    -0.188 N 
HETATM   14  C9  UNL     1      81.996 -12.826   8.369  1.00  0.00     0.677 A 
ATOM     15  H10 UNL     1      80.630 -12.657   6.894  1.00  0.00     0.184 HD
HETATM   16  N12 UNL     1      82.749 -13.717   9.064  1.00  0.00    -0.174 N 
HETATM   17  C10 UNL     1      82.759 -15.036   8.881  1.00  0.00     0.158 A 
ATOM     18  H12 UNL     1      83.360 -13.344   9.791  1.00  0.00     0.186 HD
HETATM   19  C13 UNL     1      81.892 -15.517   7.859  1.00  0.00     0.139 A 
BRANCH  14  20
HETATM   20  N11 UNL     1      82.038 -11.567   8.600  1.00  0.00    -0.234 N 
ATOM     21 2H11 UNL     1      81.293 -10.934   8.310  1.00  0.00     0.174 HD
ATOM     22 1H11 UNL     1      82.832 -11.158   9.091  1.00  0.00     0.174 HD
ENDBRANCH  14  20
BRANCH  17  23
HETATM   23  N13 UNL     1      83.541 -15.948   9.605  1.00  0.00    -0.324 N 
ATOM     24  H13 UNL     1      83.278 -16.053  10.585  1.00  0.00     0.169 HD
BRANCH  23  25
HETATM   25  C11 UNL     1      84.610 -16.727   9.204  1.00  0.00     0.112 C 
HETATM   26  C12 UNL     1      84.941 -18.116   9.490  1.00  0.00     0.097 C 
BRANCH  25  27
HETATM   27  O4  UNL     1      85.498 -16.115   8.421  1.00  0.00    -0.350 OA
ATOM     28  H4  UNL     1      86.397 -16.405   8.524  1.00  0.00     0.219 HD
ENDBRANCH  25  27
ENDBRANCH  23  25
ENDBRANCH  17  23
BRANCH  19  29
HETATM   29  O5  UNL     1      81.848 -16.859   7.621  1.00  0.00    -0.355 OA
ATOM     30  H5  UNL     1      82.548 -17.306   7.159  1.00  0.00     0.218 HD
ENDBRANCH  19  29
ENDBRANCH   9  12
BRANCH   1  31
HETATM   31  N1  UNL     1      78.438 -16.639   5.744  1.00  0.00    -0.399 N 
ATOM     32  H1  UNL     1      77.925 -16.105   5.043  1.00  0.00     0.155 HD
BRANCH  31  33
HETATM   33  C2  UNL     1      78.444 -18.065   5.762  1.00  0.00     0.111 C 
HETATM   34  C1  UNL     1      78.394 -18.504   7.230  1.00  0.00     0.026 C 
ENDBRANCH  31  33
ENDBRANCH   1  31
BRANCH   4  35
HETATM   35  O1  UNL     1      76.252 -12.572   6.538  1.00  0.00    -0.342 OA
ATOM     36  H1  UNL     1      76.117 -12.102   7.353  1.00  0.00     0.219 HD
ENDBRANCH   4  35
BRANCH   5  37
HETATM   37  N4  UNL     1      77.453 -11.378   4.032  1.00  0.00    -0.157 N 
HETATM   38  N5  UNL     1      76.457 -10.541   4.289  1.00  0.00     0.018 NA
HETATM   39  N6  UNL     1      76.305  -9.719   3.262  1.00  0.00     0.010 NA
HETATM   40  N7  UNL     1      77.204 -10.027   2.341  1.00  0.00    -0.212 N 
HETATM   41  N8  UNL     1      77.887 -11.032   2.825  1.00  0.00    -0.210 N 
ATOM     42  H7  UNL     1      77.337  -9.574   1.437  1.00  0.00     0.207 HD
ATOM     43  H8  UNL     1      78.655 -11.492   2.337  1.00  0.00     0.211 HD
ENDBRANCH   5  37
TORSDOF 11
ENDMDL
MODEL 2
REMARK VINA RESULT: -8.043340786      2.704      7.126
REMARK  11 active torsions:
REMARK  status: ('A' for Active; 'I' for Inactive)
REMARK    1  A    between atoms: C2_2  and  N1_3 
REMARK    2  A    between atoms: N1_3  and  C3_5 
REMARK    3  A    between atoms: C4_8  and  O1_9 
REMARK    4  A    between atoms: C5_11  and  N4_12 
REMARK    5  A    between atoms: C7_22  and  O3_23 
REMARK    6  A    between atoms: C7_22  and  C8_25 
REMARK    7  A    between atoms: C9_28  and  N11_29 
REMARK    8  A    between atoms: C10_34  and  N13_35 
REMARK    9  A    between atoms: N13_35  and  C11_37 
REMARK   10  A    between atoms: C11_37  and  O4_39 
REMARK   11  A    between atoms: C13_41  and  O5_42 
ROOT
HETATM    1  C3  UNL     1      77.820 -14.804   5.837  1.00  0.00     0.259 C 
HETATM    2  N2  UNL     1      79.261 -14.738   5.549  1.00  0.00    -0.084 NA
HETATM    3  N3  UNL     1      79.714 -13.646   6.333  1.00  0.00    -0.164 N 
HETATM    4  C4  UNL     1      80.792 -13.203   6.988  1.00  0.00     0.212 A 
HETATM    5  C5  UNL     1      80.493 -12.028   7.633  1.00  0.00     0.197 A 
HETATM    6  C6  UNL     1      79.147 -11.803   7.308  1.00  0.00     0.301 A 
HETATM    7  O2  UNL     1      78.573 -10.763   7.779  1.00  0.00    -0.264 OA
HETATM    8  N9  UNL     1      78.682 -12.780   6.520  1.00  0.00    -0.189 N 
HETATM    9  C7  UNL     1      77.536 -13.271   5.801  1.00  0.00     0.241 C 
ENDROOT
BRANCH   9  10
HETATM   10  O3  UNL     1      76.358 -12.967   6.448  1.00  0.00    -0.361 OA
ATOM     11  H3  UNL     1      76.292 -12.035   6.622  1.00  0.00     0.213 HD
ENDBRANCH   9  10
BRANCH   9  12
HETATM   12  C8  UNL     1      77.556 -12.921   4.361  1.00  0.00     0.124 A 
HETATM   13  N10 UNL     1      77.643 -13.913   3.438  1.00  0.00    -0.188 N 
HETATM   14  C9  UNL     1      77.686 -13.678   2.140  1.00  0.00     0.677 A 
ATOM     15  H10 UNL     1      77.676 -14.880   3.761  1.00  0.00     0.184 HD
HETATM   16  N12 UNL     1      77.640 -12.380   1.743  1.00  0.00    -0.174 N 
HETATM   17  C10 UNL     1      77.554 -11.323   2.548  1.00  0.00     0.158 A 
ATOM     18  H12 UNL     1      77.673 -12.200   0.739  1.00  0.00     0.186 HD
HETATM   19  C13 UNL     1      77.509 -11.618   3.939  1.00  0.00     0.139 A 
BRANCH  14  20
HETATM   20  N11 UNL     1      77.768 -14.647   1.308  1.00  0.00    -0.234 N 
ATOM     21 2H11 UNL     1      78.301 -15.494   1.506  1.00  0.00     0.174 HD
ATOM     22 1H11 UNL     1      77.293 -14.596   0.407  1.00  0.00     0.174 HD
ENDBRANCH  14  20
BRANCH  17  23
HETATM   23  N13 UNL     1      77.507  -9.986   2.126  1.00  0.00    -0.324 N 
ATOM     24  H13 UNL     1      76.708  -9.456   2.474  1.00  0.00     0.169 HD
BRANCH  23  25
HETATM   25  C11 UNL     1      78.369  -9.272   1.314  1.00  0.00     0.112 C 
HETATM   26  C12 UNL     1      79.787  -9.449   1.035  1.00  0.00     0.097 C 
BRANCH  25  27
HETATM   27  O4  UNL     1      77.821  -8.241   0.671  1.00  0.00    -0.350 OA
ATOM     28  H4  UNL     1      77.228  -8.472  -0.034  1.00  0.00     0.219 HD
ENDBRANCH  25  27
ENDBRANCH  23  25
ENDBRANCH  17  23
BRANCH  19  29
HETATM   29  O5  UNL     1      77.417 -10.582   4.822  1.00  0.00    -0.355 OA
ATOM     30  H5  UNL     1      76.630 -10.054   4.890  1.00  0.00     0.218 HD
ENDBRANCH  19  29
ENDBRANCH   9  12
BRANCH   1  31
HETATM   31  N1  UNL     1      77.608 -15.228   7.170  1.00  0.00    -0.399 N 
ATOM     32  H1  UNL     1      77.048 -14.689   7.829  1.00  0.00     0.155 HD
BRANCH  31  33
HETATM   33  C2  UNL     1      78.232 -16.460   7.528  1.00  0.00     0.111 C 
HETATM   34  C1  UNL     1      78.311 -16.502   9.059  1.00  0.00     0.026 C 
ENDBRANCH  31  33
ENDBRANCH   1  31
BRANCH   4  35
HETATM   35  O1  UNL     1      82.066 -13.789   7.058  1.00  0.00    -0.342 OA
ATOM     36  H1  UNL     1      82.290 -14.679   7.303  1.00  0.00     0.219 HD
ENDBRANCH   4  35
BRANCH   5  37
HETATM   37  N4  UNL     1      81.320 -11.206   8.443  1.00  0.00    -0.157 N 
HETATM   38  N5  UNL     1      81.093  -9.988   8.916  1.00  0.00     0.018 NA
HETATM   39  N6  UNL     1      82.139  -9.597   9.627  1.00  0.00     0.010 NA
HETATM   40  N7  UNL     1      83.043 -10.563   9.612  1.00  0.00    -0.212 N 
HETATM   41  N8  UNL     1      82.530 -11.526   8.891  1.00  0.00    -0.210 N 
ATOM     42  H7  UNL     1      83.955 -10.557  10.070  1.00  0.00     0.207 HD
ATOM     43  H8  UNL     1      82.999 -12.410   8.698  1.00  0.00     0.211 HD
ENDBRANCH   5  37
TORSDOF 11
ENDMDL
MODEL 3
REMARK VINA RESULT: -7.819989226      2.608      7.223
REMARK  11 active torsions:
REMARK  status: ('A' for Active; 'I' for Inactive)
REMARK    1  A    between atoms: C2_2  and  N1_3 
REMARK    2  A    between atoms: N1_3  and  C3_5 
REMARK    3  A    between atoms: C4_8  and  O1_9 
REMARK    4  A    between atoms: C5_11  and  N4_12 
REMARK    5  A    between atoms: C7_22  and  O3_23 
REMARK    6  A    between atoms: C7_22  and  C8_25 
REMARK    7  A    between atoms: C9_28  and  N11_29 
REMARK    8  A    between atoms: C10_34  and  N13_35 
REMARK    9  A    between atoms: N13_35  and  C11_37 
REMARK   10  A    between atoms: C11_37  and  O4_39 
REMARK   11  A    between atoms: C13_41  and  O5_42 
ROOT
HETATM    1  C3  UNL     1      78.083 -15.184   6.133  1.00  0.00     0.259 C 
HETATM    2  N2  UNL     1      79.517 -15.057   5.831  1.00  0.00    -0.084 NA
HETATM    3  N3  UNL     1      79.913 -13.897   6.546  1.00  0.00    -0.164 N 
HETATM    4  C4  UNL     1      80.967 -13.358   7.167  1.00  0.00     0.212 A 
HETATM    5  C5  UNL     1      80.607 -12.165   7.744  1.00  0.00     0.197 A 
HETATM    6  C6  UNL     1      79.249 -12.033   7.416  1.00  0.00     0.301 A 
HETATM    7  O2  UNL     1      78.622 -11.001   7.830  1.00  0.00    -0.264 OA
HETATM    8  N9  UNL     1      78.835 -13.079   6.690  1.00  0.00    -0.189 N 
HETATM    9  C7  UNL     1      77.715 -13.673   6.009  1.00  0.00     0.241 C 
ENDROOT
BRANCH   9  10
HETATM   10  O3  UNL     1      76.525 -13.397   6.647  1.00  0.00    -0.361 OA
ATOM     11  H3  UNL     1      76.157 -12.574   6.345  1.00  0.00     0.213 HD
ENDBRANCH   9  10
BRANCH   9  12
HETATM   12  C8  UNL     1      77.710 -13.408   4.552  1.00  0.00     0.124 A 
HETATM   13  N10 UNL     1      77.931 -14.434   3.689  1.00  0.00    -0.188 N 
HETATM   14  C9  UNL     1      77.961 -14.271   2.380  1.00  0.00     0.677 A 
ATOM     15  H10 UNL     1      78.081 -15.368   4.070  1.00  0.00     0.184 HD
HETATM   16  N12 UNL     1      77.759 -13.014   1.906  1.00  0.00    -0.174 N 
HETATM   17  C10 UNL     1      77.533 -11.931   2.646  1.00  0.00     0.158 A 
ATOM     18  H12 UNL     1      77.782 -12.890   0.894  1.00  0.00     0.186 HD
HETATM   19  C13 UNL     1      77.507 -12.147   4.053  1.00  0.00     0.139 A 
BRANCH  14  20
HETATM   20  N11 UNL     1      78.174 -15.269   1.607  1.00  0.00    -0.234 N 
ATOM     21 2H11 UNL     1      78.302 -16.216   1.961  1.00  0.00     0.174 HD
ATOM     22 1H11 UNL     1      78.222 -15.139   0.597  1.00  0.00     0.174 HD
ENDBRANCH  14  20
BRANCH  17  23
HETATM   23  N13 UNL     1      77.324 -10.637   2.146  1.00  0.00    -0.324 N 
ATOM     24  H13 UNL     1      78.099  -9.991   2.294  1.00  0.00     0.169 HD
BRANCH  23  25
HETATM   25  C11 UNL     1      76.238 -10.098   1.483  1.00  0.00     0.112 C 
HETATM   26  C12 UNL     1      75.276  -9.082   1.891  1.00  0.00     0.097 C 
BRANCH  25  27
HETATM   27  O4  UNL     1      76.020 -10.580   0.260  1.00  0.00    -0.350 OA
ATOM     28  H4  UNL     1      75.115 -10.790   0.062  1.00  0.00     0.219 HD
ENDBRANCH  25  27
ENDBRANCH  23  25
ENDBRANCH  17  23
BRANCH  19  29
HETATM   29  O5  UNL     1      77.274 -11.082   4.872  1.00  0.00    -0.355 OA
ATOM     30  H5  UNL     1      76.677 -11.140   5.608  1.00  0.00     0.218 HD
ENDBRANCH  19  29
ENDBRANCH   9  12
BRANCH   1  31
HETATM   31  N1  UNL     1      77.900 -15.539   7.490  1.00  0.00    -0.399 N 
ATOM     32  H1  UNL     1      77.418 -14.932   8.151  1.00  0.00     0.155 HD
BRANCH  31  33
HETATM   33  C2  UNL     1      78.437 -16.805   7.870  1.00  0.00     0.111 C 
HETATM   34  C1  UNL     1      78.434 -16.861   9.402  1.00  0.00     0.026 C 
ENDBRANCH  31  33
ENDBRANCH   1  31
BRANCH   4  35
HETATM   35  O1  UNL     1      82.272 -13.868   7.261  1.00  0.00    -0.342 OA
ATOM     36  H1  UNL     1      83.040 -13.449   7.629  1.00  0.00     0.219 HD
ENDBRANCH   4  35
BRANCH   5  37
HETATM   37  N4  UNL     1      81.392 -11.253   8.498  1.00  0.00    -0.157 N 
HETATM   38  N5  UNL     1      81.095 -10.028   8.911  1.00  0.00     0.018 NA
HETATM   39  N6  UNL     1      82.122  -9.537   9.586  1.00  0.00     0.010 NA
HETATM   40  N7  UNL     1      83.084 -10.446   9.608  1.00  0.00    -0.212 N 
HETATM   41  N8  UNL     1      82.623 -11.475   8.945  1.00  0.00    -0.210 N 
ATOM     42  H7  UNL     1      83.999 -10.361  10.051  1.00  0.00     0.207 HD
ATOM     43  H8  UNL     1      83.144 -12.338   8.791  1.00  0.00     0.211 HD
ENDBRANCH   5  37
TORSDOF 11
ENDMDL
MODEL 4
REMARK VINA RESULT: -7.662860222      3.109      5.403
REMARK  11 active torsions:
REMARK  status: ('A' for Active; 'I' for Inactive)
REMARK    1  A    between atoms: C2_2  and  N1_3 
REMARK    2  A    between atoms: N1_3  and  C3_5 
REMARK    3  A    between atoms: C4_8  and  O1_9 
REMARK    4  A    between atoms: C5_11  and  N4_12 
REMARK    5  A    between atoms: C7_22  and  O3_23 
REMARK    6  A    between atoms: C7_22  and  C8_25 
REMARK    7  A    between atoms: C9_28  and  N11_29 
REMARK    8  A    between atoms: C10_34  and  N13_35 
REMARK    9  A    between atoms: N13_35  and  C11_37 
REMARK   10  A    between atoms: C11_37  and  O4_39 
REMARK   11  A    between atoms: C13_41  and  O5_42 
ROOT
HETATM    1  C3  UNL     1      80.125 -15.662   5.248  1.00  0.00     0.259 C 
HETATM    2  N2  UNL     1      79.134 -14.763   5.858  1.00  0.00    -0.084 NA
HETATM    3  N3  UNL     1      79.910 -13.923   6.698  1.00  0.00    -0.164 N 
HETATM    4  C4  UNL     1      79.938 -12.686   7.205  1.00  0.00     0.212 A 
HETATM    5  C5  UNL     1      81.091 -12.507   7.930  1.00  0.00     0.197 A 
HETATM    6  C6  UNL     1      81.750 -13.741   7.818  1.00  0.00     0.301 A 
HETATM    7  O2  UNL     1      82.880 -13.881   8.395  1.00  0.00    -0.264 OA
HETATM    8  N9  UNL     1      81.031 -14.594   7.076  1.00  0.00    -0.189 N 
HETATM    9  C7  UNL     1      80.976 -15.923   6.528  1.00  0.00     0.241 C 
ENDROOT
BRANCH   9  10
HETATM   10  O3  UNL     1      82.231 -16.394   6.204  1.00  0.00    -0.361 OA
ATOM     11  H3  UNL     1      82.398 -17.235   6.614  1.00  0.00     0.213 HD
ENDBRANCH   9  10
BRANCH   9  12
HETATM   12  C8  UNL     1      80.158 -16.855   7.338  1.00  0.00     0.124 A 
HETATM   13  N10 UNL     1      79.231 -17.633   6.720  1.00  0.00    -0.188 N 
HETATM   14  C9  UNL     1      78.452 -18.471   7.377  1.00  0.00     0.677 A 
ATOM     15  H10 UNL     1      79.134 -17.566   5.707  1.00  0.00     0.184 HD
HETATM   16  N12 UNL     1      78.608 -18.537   8.725  1.00  0.00    -0.174 N 
HETATM   17  C10 UNL     1      79.477 -17.829   9.443  1.00  0.00     0.158 A 
ATOM     18  H12 UNL     1      78.005 -19.186   9.231  1.00  0.00     0.186 HD
HETATM   19  C13 UNL     1      80.300 -16.937   8.699  1.00  0.00     0.139 A 
BRANCH  14  20
HETATM   20  N11 UNL     1      77.593 -19.184   6.751  1.00  0.00    -0.234 N 
ATOM     21 2H11 UNL     1      77.854 -19.817   5.996  1.00  0.00     0.174 HD
ATOM     22 1H11 UNL     1      76.604 -19.135   6.997  1.00  0.00     0.174 HD
ENDBRANCH  14  20
BRANCH  17  23
HETATM   23  N13 UNL     1      79.629 -17.906  10.835  1.00  0.00    -0.324 N 
ATOM     24  H13 UNL     1      80.596 -17.901  11.161  1.00  0.00     0.169 HD
BRANCH  23  25
HETATM   25  C11 UNL     1      78.680 -17.986  11.837  1.00  0.00     0.112 C 
HETATM   26  C12 UNL     1      78.801 -18.344  13.243  1.00  0.00     0.097 C 
BRANCH  25  27
HETATM   27  O4  UNL     1      77.435 -17.687  11.466  1.00  0.00    -0.350 OA
ATOM     28  H4  UNL     1      76.944 -17.158  12.083  1.00  0.00     0.219 HD
ENDBRANCH  25  27
ENDBRANCH  23  25
ENDBRANCH  17  23
BRANCH  19  29
HETATM   29  O5  UNL     1      81.218 -16.184   9.370  1.00  0.00    -0.355 OA
ATOM     30  H5  UNL     1      81.734 -16.544  10.082  1.00  0.00     0.218 HD
ENDBRANCH  19  29
ENDBRANCH   9  12
BRANCH   1  31
HETATM   31  N1  UNL     1      80.947 -14.943   4.349  1.00  0.00    -0.399 N 
ATOM     32  H1  UNL     1      81.778 -14.438   4.657  1.00  0.00     0.155 HD
BRANCH  31  33
HETATM   33  C2  UNL     1      80.536 -14.972   2.984  1.00  0.00     0.111 C 
HETATM   34  C1  UNL     1      80.158 -13.539   2.589  1.00  0.00     0.026 C 
ENDBRANCH  31  33
ENDBRANCH   1  31
BRANCH   4  35
HETATM   35  O1  UNL     1      78.981 -11.669   7.063  1.00  0.00    -0.342 OA
ATOM     36  H1  UNL     1      78.532 -11.391   6.273  1.00  0.00     0.219 HD
ENDBRANCH   4  35
BRANCH   5  37
HETATM   37  N4  UNL     1      81.543 -11.364   8.640  1.00  0.00    -0.157 N 
HETATM   38  N5  UNL     1      80.925 -10.212   8.864  1.00  0.00     0.018 NA
HETATM   39  N6  UNL     1      81.718  -9.424   9.572  1.00  0.00     0.010 NA
HETATM   40  N7  UNL     1      82.851 -10.067   9.805  1.00  0.00    -0.212 N 
HETATM   41  N8  UNL     1      82.726 -11.237   9.233  1.00  0.00    -0.210 N 
ATOM     42  H7  UNL     1      83.658  -9.722  10.325  1.00  0.00     0.207 HD
ATOM     43  H8  UNL     1      83.445 -11.960   9.242  1.00  0.00     0.211 HD
ENDBRANCH   5  37
TORSDOF 11
ENDMDL
MODEL 5
REMARK VINA RESULT: -7.365291379      2.343      3.101
REMARK  11 active torsions:
REMARK  status: ('A' for Active; 'I' for Inactive)
REMARK    1  A    between atoms: C2_2  and  N1_3 
REMARK    2  A    between atoms: N1_3  and  C3_5 
REMARK    3  A    between atoms: C4_8  and  O1_9 
REMARK    4  A    between atoms: C5_11  and  N4_12 
REMARK    5  A    between atoms: C7_22  and  O3_23 
REMARK    6  A    between atoms: C7_22  and  C8_25 
REMARK    7  A    between atoms: C9_28  and  N11_29 
REMARK    8  A    between atoms: C10_34  and  N13_35 
REMARK    9  A    between atoms: N13_35  and  C11_37 
REMARK   10  A    between atoms: C11_37  and  O4_39 
REMARK   11  A    between atoms: C13_41  and  O5_42 
ROOT
HETATM    1  C3  UNL     1      77.932 -17.532   5.440  1.00  0.00     0.259 C 
HETATM    2  N2  UNL     1      77.459 -16.154   5.643  1.00  0.00    -0.084 NA
HETATM    3  N3  UNL     1      78.242 -15.390   4.739  1.00  0.00    -0.164 N 
HETATM    4  C4  UNL     1      78.196 -14.285   3.988  1.00  0.00     0.212 A 
HETATM    5  C5  UNL     1      79.353 -14.172   3.256  1.00  0.00     0.197 A 
HETATM    6  C6  UNL     1      80.096 -15.301   3.631  1.00  0.00     0.301 A 
HETATM    7  O2  UNL     1      81.243 -15.478   3.098  1.00  0.00    -0.264 OA
HETATM    8  N9  UNL     1      79.424 -16.032   4.530  1.00  0.00    -0.189 N 
HETATM    9  C7  UNL     1      79.456 -17.213   5.352  1.00  0.00     0.241 C 
ENDROOT
BRANCH   9  10
HETATM   10  O3  UNL     1      80.145 -18.239   4.744  1.00  0.00    -0.361 OA
ATOM     11  H3  UNL     1      79.671 -19.060   4.813  1.00  0.00     0.213 HD
ENDBRANCH   9  10
BRANCH   9  12
HETATM   12  C8  UNL     1      79.863 -16.940   6.750  1.00  0.00     0.124 A 
HETATM   13  N10 UNL     1      78.981 -17.173   7.756  1.00  0.00    -0.188 N 
HETATM   14  C9  UNL     1      79.264 -16.936   9.022  1.00  0.00     0.677 A 
ATOM     15  H10 UNL     1      78.061 -17.548   7.522  1.00  0.00     0.184 HD
HETATM   16  N12 UNL     1      80.497 -16.438   9.300  1.00  0.00    -0.174 N 
HETATM   17  C10 UNL     1      81.446 -16.168   8.406  1.00  0.00     0.158 A 
ATOM     18  H12 UNL     1      80.715 -16.255  10.279  1.00  0.00     0.186 HD
HETATM   19  C13 UNL     1      81.103 -16.438   7.051  1.00  0.00     0.139 A 
BRANCH  14  20
HETATM   20  N11 UNL     1      78.399 -17.171   9.936  1.00  0.00    -0.234 N 
ATOM     21 2H11 UNL     1      78.523 -16.861  10.899  1.00  0.00     0.174 HD
ATOM     22 1H11 UNL     1      77.546 -17.687   9.719  1.00  0.00     0.174 HD
ENDBRANCH  14  20
BRANCH  17  23
HETATM   23  N13 UNL     1      82.717 -15.654   8.704  1.00  0.00    -0.324 N 
ATOM     24  H13 UNL     1      82.937 -14.767   8.250  1.00  0.00     0.169 HD
BRANCH  23  25
HETATM   25  C11 UNL     1      83.718 -16.156   9.514  1.00  0.00     0.112 C 
HETATM   26  C12 UNL     1      84.072 -17.526   9.859  1.00  0.00     0.097 C 
BRANCH  25  27
HETATM   27  O4  UNL     1      84.501 -15.240  10.084  1.00  0.00    -0.350 OA
ATOM     28  H4  UNL     1      84.974 -15.533  10.854  1.00  0.00     0.219 HD
ENDBRANCH  25  27
ENDBRANCH  23  25
ENDBRANCH  17  23
BRANCH  19  29
HETATM   29  O5  UNL     1      82.030 -16.190   6.082  1.00  0.00    -0.355 OA
ATOM     30  H5  UNL     1      82.931 -16.475   6.170  1.00  0.00     0.218 HD
ENDBRANCH  19  29
ENDBRANCH   9  12
BRANCH   1  31
HETATM   31  N1  UNL     1      77.537 -18.000   4.166  1.00  0.00    -0.399 N 
ATOM     32  H1  UNL     1      77.745 -17.487   3.309  1.00  0.00     0.155 HD
BRANCH  31  33
HETATM   33  C2  UNL     1      76.828 -19.238   4.159  1.00  0.00     0.111 C 
HETATM   34  C1  UNL     1      77.154 -19.958   5.473  1.00  0.00     0.026 C 
ENDBRANCH  31  33
ENDBRANCH   1  31
BRANCH   4  35
HETATM   35  O1  UNL     1      77.165 -13.337   3.903  1.00  0.00    -0.342 OA
ATOM     36  H1  UNL     1      76.775 -12.829   4.605  1.00  0.00     0.219 HD
ENDBRANCH   4  35
BRANCH   5  37
HETATM   37  N4  UNL     1      79.741 -13.168   2.330  1.00  0.00    -0.157 N 
HETATM   38  N5  UNL     1      79.677 -11.848   2.443  1.00  0.00     0.018 NA
HETATM   39  N6  UNL     1      80.149 -11.295   1.337  1.00  0.00     0.010 NA
HETATM   40  N7  UNL     1      80.517 -12.259   0.508  1.00  0.00    -0.212 N 
HETATM   41  N8  UNL     1      80.263 -13.383   1.127  1.00  0.00    -0.210 N 
ATOM     42  H7  UNL     1      80.918 -12.148  -0.423  1.00  0.00     0.207 HD
ATOM     43  H8  UNL     1      80.442 -14.307   0.735  1.00  0.00     0.211 HD
ENDBRANCH   5  37
TORSDOF 11
ENDMDL
