MODEL 1
REMARK VINA RESULT: -8.514548699      0.000      0.000
REMARK  10 active torsions:
REMARK  status: ('A' for Active; 'I' for Inactive)
REMARK    1  A    between atoms: N3_9  and  C4_10 
REMARK    2  A    between atoms: C4_10  and  N4_11 
REMARK    3  A    between atoms: C4_10  and  C12_35 
REMARK    4  A    between atoms: N4_11  and  C5_13 
REMARK    5  A    between atoms: C8_19  and  C9_20 
REMARK    6  A    between atoms: C12_35  and  N12_36 
REMARK    7  A    between atoms: C12_35  and  C13_40 
REMARK    8  A    between atoms: C13_40  and  C14_41 
REMARK    9  A    between atoms: C14_41  and  O4_42 
REMARK   10  A    between atoms: C14_41  and  O5_44 
ROOT
HETATM    1  N4  UNL     1      78.904 -16.795   8.582  1.00  0.00    -0.362 N 
ATOM      2  H4  UNL     1      78.390 -17.375   7.919  1.00  0.00     0.162 HD
ENDROOT
BRANCH   1   3
HETATM    3  C4  UNL     1      79.460 -15.568   8.079  1.00  0.00     0.242 C 
BRANCH   3   4
HETATM    4  N3  UNL     1      80.677 -15.707   7.339  1.00  0.00    -0.210 N 
HETATM    5  N1  UNL     1      80.901 -16.327   6.195  1.00  0.00    -0.239 N 
HETATM    6  C1  UNL     1      80.023 -17.047   5.337  1.00  0.00     0.183 C 
HETATM    7  C2  UNL     1      82.226 -16.178   5.885  1.00  0.00     0.345 A 
HETATM    8  O1  UNL     1      82.834 -16.623   4.874  1.00  0.00    -0.245 OA
HETATM    9  N2  UNL     1      82.804 -15.469   6.842  1.00  0.00    -0.258 N 
HETATM   10  C3  UNL     1      81.864 -15.182   7.726  1.00  0.00     0.347 A 
ATOM     11  H2  UNL     1      83.787 -15.197   6.889  1.00  0.00     0.175 HD
HETATM   12  O2  UNL     1      82.051 -14.512   8.781  1.00  0.00    -0.245 OA
ENDBRANCH   3   4
BRANCH   3  13
HETATM   13  C12 UNL     1      78.425 -14.756   7.317  1.00  0.00     0.232 C 
BRANCH  13  14
HETATM   14  N12 UNL     1      77.189 -14.583   7.982  1.00  0.00    -0.071 N 
ATOM     15 3H12 UNL     1      77.326 -14.618   8.992  1.00  0.00     0.274 HD
ATOM     16 2H12 UNL     1      76.866 -13.621   7.877  1.00  0.00     0.274 HD
ATOM     17 1H12 UNL     1      76.453 -15.232   7.705  1.00  0.00     0.274 HD
ENDBRANCH  13  14
BRANCH  13  18
HETATM   18  C13 UNL     1      79.013 -13.410   6.970  1.00  0.00     0.097 C 
BRANCH  18  19
HETATM   19  C14 UNL     1      78.021 -12.299   7.194  1.00  0.00     0.256 C 
BRANCH  19  20
HETATM   20  O4  UNL     1      77.339 -12.031   6.017  1.00  0.00    -0.371 OA
ATOM     21  H4  UNL     1      77.410 -11.108   5.806  1.00  0.00     0.212 HD
ENDBRANCH  19  20
BRANCH  19  22
HETATM   22  O5  UNL     1      78.671 -11.173   7.705  1.00  0.00    -0.371 OA
ATOM     23  H5  UNL     1      78.527 -10.427   7.135  1.00  0.00     0.212 HD
ENDBRANCH  19  22
ENDBRANCH  18  19
ENDBRANCH  13  18
ENDBRANCH   3  13
ENDBRANCH   1   3
BRANCH   1  24
HETATM   24  C5  UNL     1      79.003 -17.273   9.908  1.00  0.00     0.086 A 
HETATM   25  C6  UNL     1      80.034 -17.770  10.563  1.00  0.00     0.104 A 
HETATM   26  N5  UNL     1      81.322 -17.937  10.045  1.00  0.00    -0.097 NA
HETATM   27  C7  UNL     1      79.670 -18.134  11.937  1.00  0.00     0.097 A 
HETATM   28  N6  UNL     1      80.093 -18.644  13.114  1.00  0.00    -0.330 N 
HETATM   29  C10 UNL     1      78.341 -17.842  12.134  1.00  0.00     0.135 A 
HETATM   30  C8  UNL     1      79.041 -18.641  13.947  1.00  0.00     0.196 A 
ATOM     31  H6  UNL     1      81.035 -18.971  13.328  1.00  0.00     0.168 HD
HETATM   32  O3  UNL     1      77.984 -18.152  13.346  1.00  0.00    -0.285 OA
HETATM   33  C11 UNL     1      77.889 -17.288  10.850  1.00  0.00     0.091 A 
HETATM   34  N11 UNL     1      76.671 -16.893  10.678  1.00  0.00    -0.395 N 
ATOM     35 2H11 UNL     1      76.357 -16.509   9.786  1.00  0.00     0.156 HD
ATOM     36 1H11 UNL     1      75.893 -16.903  11.338  1.00  0.00     0.156 HD
BRANCH  30  37
HETATM   37  C9  UNL     1      79.039 -19.104  15.330  1.00  0.00     0.189 A 
HETATM   38  N7  UNL     1      79.580 -18.513  16.409  1.00  0.00    -0.265 N 
HETATM   39  N8  UNL     1      79.350 -19.273  17.479  1.00  0.00    -0.226 N 
ATOM     40  H7  UNL     1      80.085 -17.627  16.408  1.00  0.00     0.190 HD
HETATM   41  N9  UNL     1      78.680 -20.324  17.101  1.00  0.00    -0.226 N 
ATOM     42  H8  UNL     1      79.648 -19.067  18.433  1.00  0.00     0.210 HD
HETATM   43  N10 UNL     1      78.477 -20.251  15.807  1.00  0.00    -0.265 N 
ATOM     44  H9  UNL     1      78.366 -21.079  17.710  1.00  0.00     0.210 HD
ATOM     45  H10 UNL     1      77.978 -20.941  15.248  1.00  0.00     0.190 HD
ENDBRANCH  30  37
ENDBRANCH   1  24
TORSDOF 10
ENDMDL
MODEL 2
REMARK VINA RESULT: -8.442429205      1.772      3.415
REMARK  10 active torsions:
REMARK  status: ('A' for Active; 'I' for Inactive)
REMARK    1  A    between atoms: N3_9  and  C4_10 
REMARK    2  A    between atoms: C4_10  and  N4_11 
REMARK    3  A    between atoms: C4_10  and  C12_35 
REMARK    4  A    between atoms: N4_11  and  C5_13 
REMARK    5  A    between atoms: C8_19  and  C9_20 
REMARK    6  A    between atoms: C12_35  and  N12_36 
REMARK    7  A    between atoms: C12_35  and  C13_40 
REMARK    8  A    between atoms: C13_40  and  C14_41 
REMARK    9  A    between atoms: C14_41  and  O4_42 
REMARK   10  A    between atoms: C14_41  and  O5_44 
ROOT
HETATM    1  N4  UNL     1      79.335 -16.214   8.684  1.00  0.00    -0.362 N 
ATOM      2  H4  UNL     1      79.224 -15.201   8.688  1.00  0.00     0.162 HD
ENDROOT
BRANCH   1   3
HETATM    3  C4  UNL     1      79.477 -16.849   7.402  1.00  0.00     0.242 C 
BRANCH   3   4
HETATM    4  N3  UNL     1      78.438 -16.562   6.461  1.00  0.00    -0.210 N 
HETATM    5  N1  UNL     1      77.848 -17.358   5.590  1.00  0.00    -0.239 N 
HETATM    6  C1  UNL     1      78.044 -18.739   5.305  1.00  0.00     0.183 C 
HETATM    7  C2  UNL     1      76.909 -16.625   4.913  1.00  0.00     0.345 A 
HETATM    8  O1  UNL     1      76.135 -17.022   4.001  1.00  0.00    -0.245 OA
HETATM    9  N2  UNL     1      76.933 -15.384   5.375  1.00  0.00    -0.258 N 
HETATM   10  C3  UNL     1      77.861 -15.345   6.316  1.00  0.00     0.347 A 
ATOM     11  H2  UNL     1      76.348 -14.608   5.065  1.00  0.00     0.175 HD
HETATM   12  O2  UNL     1      78.165 -14.315   6.983  1.00  0.00    -0.245 OA
ENDBRANCH   3   4
BRANCH   3  13
HETATM   13  C12 UNL     1      80.857 -16.611   6.810  1.00  0.00     0.232 C 
BRANCH  13  14
HETATM   14  N12 UNL     1      80.914 -16.615   5.397  1.00  0.00    -0.071 N 
ATOM     15 3H12 UNL     1      81.502 -17.383   5.072  1.00  0.00     0.274 HD
ATOM     16 2H12 UNL     1      80.015 -16.902   5.010  1.00  0.00     0.274 HD
ATOM     17 1H12 UNL     1      81.215 -15.739   4.973  1.00  0.00     0.274 HD
ENDBRANCH  13  14
BRANCH  13  18
HETATM   18  C13 UNL     1      81.402 -15.308   7.340  1.00  0.00     0.097 C 
BRANCH  18  19
HETATM   19  C14 UNL     1      82.822 -15.456   7.822  1.00  0.00     0.256 C 
BRANCH  19  20
HETATM   20  O4  UNL     1      83.208 -16.785   7.749  1.00  0.00    -0.371 OA
ATOM     21  H4  UNL     1      82.635 -17.318   8.288  1.00  0.00     0.212 HD
ENDBRANCH  19  20
BRANCH  19  22
HETATM   22  O5  UNL     1      82.948 -14.931   9.111  1.00  0.00    -0.371 OA
ATOM     23  H5  UNL     1      82.387 -15.406   9.712  1.00  0.00     0.212 HD
ENDBRANCH  19  22
ENDBRANCH  18  19
ENDBRANCH  13  18
ENDBRANCH   3  13
ENDBRANCH   1   3
BRANCH   1  24
HETATM   24  C5  UNL     1      79.336 -16.862   9.940  1.00  0.00     0.086 A 
HETATM   25  C6  UNL     1      80.305 -17.490  10.578  1.00  0.00     0.104 A 
HETATM   26  N5  UNL     1      81.612 -17.652  10.111  1.00  0.00    -0.097 NA
HETATM   27  C7  UNL     1      79.845 -18.008  11.872  1.00  0.00     0.097 A 
HETATM   28  N6  UNL     1      80.177 -18.685  12.992  1.00  0.00    -0.330 N 
HETATM   29  C10 UNL     1      78.520 -17.678  12.035  1.00  0.00     0.135 A 
HETATM   30  C8  UNL     1      79.078 -18.736  13.763  1.00  0.00     0.196 A 
ATOM     31  H6  UNL     1      81.090 -19.083  13.211  1.00  0.00     0.168 HD
HETATM   32  O3  UNL     1      78.081 -18.123  13.175  1.00  0.00    -0.285 OA
HETATM   33  C11 UNL     1      78.169 -16.943  10.812  1.00  0.00     0.091 A 
HETATM   34  N11 UNL     1      76.981 -16.469  10.629  1.00  0.00    -0.395 N 
ATOM     35 2H11 UNL     1      76.736 -15.959   9.780  1.00  0.00     0.156 HD
ATOM     36 1H11 UNL     1      76.165 -16.525  11.240  1.00  0.00     0.156 HD
BRANCH  30  37
HETATM   37  C9  UNL     1      78.976 -19.373  15.070  1.00  0.00     0.189 A 
HETATM   38  N7  UNL     1      78.485 -20.587  15.371  1.00  0.00    -0.265 N 
HETATM   39  N8  UNL     1      78.580 -20.778  16.687  1.00  0.00    -0.226 N 
ATOM     40  H7  UNL     1      78.101 -21.254  14.701  1.00  0.00     0.190 HD
HETATM   41  N9  UNL     1      79.116 -19.717  17.219  1.00  0.00    -0.226 N 
ATOM     42  H8  UNL     1      78.282 -21.613  17.192  1.00  0.00     0.210 HD
HETATM   43  N10 UNL     1      79.367 -18.850  16.267  1.00  0.00    -0.265 N 
ATOM     44  H9  UNL     1      79.310 -19.583  18.211  1.00  0.00     0.210 HD
ATOM     45  H10 UNL     1      79.788 -17.931  16.401  1.00  0.00     0.190 HD
ENDBRANCH  30  37
ENDBRANCH   1  24
TORSDOF 10
ENDMDL
MODEL 3
REMARK VINA RESULT: -8.404658113      0.864      1.555
REMARK  10 active torsions:
REMARK  status: ('A' for Active; 'I' for Inactive)
REMARK    1  A    between atoms: N3_9  and  C4_10 
REMARK    2  A    between atoms: C4_10  and  N4_11 
REMARK    3  A    between atoms: C4_10  and  C12_35 
REMARK    4  A    between atoms: N4_11  and  C5_13 
REMARK    5  A    between atoms: C8_19  and  C9_20 
REMARK    6  A    between atoms: C12_35  and  N12_36 
REMARK    7  A    between atoms: C12_35  and  C13_40 
REMARK    8  A    between atoms: C13_40  and  C14_41 
REMARK    9  A    between atoms: C14_41  and  O4_42 
REMARK   10  A    between atoms: C14_41  and  O5_44 
ROOT
HETATM    1  N4  UNL     1      78.740 -16.886   8.611  1.00  0.00    -0.362 N 
ATOM      2  H4  UNL     1      78.146 -17.431   7.986  1.00  0.00     0.162 HD
ENDROOT
BRANCH   1   3
HETATM    3  C4  UNL     1      79.364 -15.714   8.058  1.00  0.00     0.242 C 
BRANCH   3   4
HETATM    4  N3  UNL     1      80.474 -15.964   7.192  1.00  0.00    -0.210 N 
HETATM    5  N1  UNL     1      81.743 -15.627   7.330  1.00  0.00    -0.239 N 
HETATM    6  C1  UNL     1      82.412 -14.918   8.368  1.00  0.00     0.183 C 
HETATM    7  C2  UNL     1      82.428 -16.095   6.241  1.00  0.00     0.345 A 
HETATM    8  O1  UNL     1      83.659 -15.979   5.998  1.00  0.00    -0.245 OA
HETATM    9  N2  UNL     1      81.572 -16.715   5.442  1.00  0.00    -0.258 N 
HETATM   10  C3  UNL     1      80.385 -16.636   6.020  1.00  0.00     0.347 A 
ATOM     11  H2  UNL     1      81.787 -17.166   4.553  1.00  0.00     0.175 HD
HETATM   12  O2  UNL     1      79.320 -17.120   5.541  1.00  0.00    -0.245 OA
ENDBRANCH   3   4
BRANCH   3  13
HETATM   13  C12 UNL     1      78.343 -14.789   7.415  1.00  0.00     0.232 C 
BRANCH  13  14
HETATM   14  N12 UNL     1      77.195 -14.524   8.197  1.00  0.00    -0.071 N 
ATOM     15 3H12 UNL     1      76.636 -13.789   7.762  1.00  0.00     0.274 HD
ATOM     16 2H12 UNL     1      76.541 -15.305   8.138  1.00  0.00     0.274 HD
ATOM     17 1H12 UNL     1      77.379 -14.293   9.173  1.00  0.00     0.274 HD
ENDBRANCH  13  14
BRANCH  13  18
HETATM   18  C13 UNL     1      79.019 -13.492   7.042  1.00  0.00     0.097 C 
BRANCH  18  19
HETATM   19  C14 UNL     1      78.021 -12.454   6.600  1.00  0.00     0.256 C 
BRANCH  19  20
HETATM   20  O4  UNL     1      77.509 -11.792   7.705  1.00  0.00    -0.371 OA
ATOM     21  H4  UNL     1      76.575 -11.954   7.774  1.00  0.00     0.212 HD
ENDBRANCH  19  20
BRANCH  19  22
HETATM   22  O5  UNL     1      77.025 -13.048   5.821  1.00  0.00    -0.371 OA
ATOM     23  H5  UNL     1      76.726 -12.440   5.155  1.00  0.00     0.212 HD
ENDBRANCH  19  22
ENDBRANCH  18  19
ENDBRANCH  13  18
ENDBRANCH   3  13
ENDBRANCH   1   3
BRANCH   1  24
HETATM   24  C5  UNL     1      78.873 -17.354   9.938  1.00  0.00     0.086 A 
HETATM   25  C6  UNL     1      79.924 -17.833  10.575  1.00  0.00     0.104 A 
HETATM   26  N5  UNL     1      81.203 -17.985  10.031  1.00  0.00    -0.097 NA
HETATM   27  C7  UNL     1      79.593 -18.192  11.959  1.00  0.00     0.097 A 
HETATM   28  N6  UNL     1      80.048 -18.688  13.129  1.00  0.00    -0.330 N 
HETATM   29  C10 UNL     1      78.265 -17.915  12.181  1.00  0.00     0.135 A 
HETATM   30  C8  UNL     1      79.013 -18.693  13.984  1.00  0.00     0.196 A 
ATOM     31  H6  UNL     1      80.999 -19.001  13.326  1.00  0.00     0.168 HD
HETATM   32  O3  UNL     1      77.938 -18.223  13.402  1.00  0.00    -0.285 OA
HETATM   33  C11 UNL     1      77.779 -17.377  10.903  1.00  0.00     0.091 A 
HETATM   34  N11 UNL     1      76.553 -16.999  10.754  1.00  0.00    -0.395 N 
ATOM     35 2H11 UNL     1      76.215 -16.625   9.867  1.00  0.00     0.156 HD
ATOM     36 1H11 UNL     1      75.788 -17.015  11.430  1.00  0.00     0.156 HD
BRANCH  30  37
HETATM   37  C9  UNL     1      79.047 -19.147  15.370  1.00  0.00     0.189 A 
HETATM   38  N7  UNL     1      79.631 -18.558  16.427  1.00  0.00    -0.265 N 
HETATM   39  N8  UNL     1      79.421 -19.307  17.509  1.00  0.00    -0.226 N 
ATOM     40  H7  UNL     1      80.150 -17.680  16.404  1.00  0.00     0.190 HD
HETATM   41  N9  UNL     1      78.722 -20.348  17.160  1.00  0.00    -0.226 N 
ATOM     42  H8  UNL     1      79.752 -19.099  18.452  1.00  0.00     0.210 HD
HETATM   43  N10 UNL     1      78.481 -20.280  15.872  1.00  0.00    -0.265 N 
ATOM     44  H9  UNL     1      78.414 -21.094  17.784  1.00  0.00     0.210 HD
ATOM     45  H10 UNL     1      77.953 -20.966  15.334  1.00  0.00     0.190 HD
ENDBRANCH  30  37
ENDBRANCH   1  24
TORSDOF 10
ENDMDL
MODEL 4
REMARK VINA RESULT: -8.342593526      2.106      3.258
REMARK  10 active torsions:
REMARK  status: ('A' for Active; 'I' for Inactive)
REMARK    1  A    between atoms: N3_9  and  C4_10 
REMARK    2  A    between atoms: C4_10  and  N4_11 
REMARK    3  A    between atoms: C4_10  and  C12_35 
REMARK    4  A    between atoms: N4_11  and  C5_13 
REMARK    5  A    between atoms: C8_19  and  C9_20 
REMARK    6  A    between atoms: C12_35  and  N12_36 
REMARK    7  A    between atoms: C12_35  and  C13_40 
REMARK    8  A    between atoms: C13_40  and  C14_41 
REMARK    9  A    between atoms: C14_41  and  O4_42 
REMARK   10  A    between atoms: C14_41  and  O5_44 
ROOT
HETATM    1  N4  UNL     1      81.358 -16.440   8.003  1.00  0.00    -0.362 N 
ATOM      2  H4  UNL     1      81.001 -16.911   7.173  1.00  0.00     0.162 HD
ENDROOT
BRANCH   1   3
HETATM    3  C4  UNL     1      82.396 -15.466   7.803  1.00  0.00     0.242 C 
BRANCH   3   4
HETATM    4  N3  UNL     1      83.370 -15.806   6.812  1.00  0.00    -0.210 N 
HETATM    5  N1  UNL     1      84.600 -16.261   6.960  1.00  0.00    -0.239 N 
HETATM    6  C1  UNL     1      85.349 -16.560   8.133  1.00  0.00     0.183 C 
HETATM    7  C2  UNL     1      85.138 -16.443   5.714  1.00  0.00     0.345 A 
HETATM    8  O1  UNL     1      86.291 -16.864   5.428  1.00  0.00    -0.245 OA
HETATM    9  N2  UNL     1      84.233 -16.096   4.811  1.00  0.00    -0.258 N 
HETATM   10  C3  UNL     1      83.158 -15.709   5.477  1.00  0.00     0.347 A 
ATOM     11  H2  UNL     1      84.344 -16.121   3.798  1.00  0.00     0.175 HD
HETATM   12  O2  UNL     1      82.088 -15.306   4.940  1.00  0.00    -0.245 OA
ENDBRANCH   3   4
BRANCH   3  13
HETATM   13  C12 UNL     1      81.822 -14.076   7.578  1.00  0.00     0.232 C 
BRANCH  13  14
HETATM   14  N12 UNL     1      80.426 -14.030   7.359  1.00  0.00    -0.071 N 
ATOM     15 3H12 UNL     1      80.187 -14.540   6.508  1.00  0.00     0.274 HD
ATOM     16 2H12 UNL     1      79.943 -14.603   8.052  1.00  0.00     0.274 HD
ATOM     17 1H12 UNL     1      80.022 -13.095   7.333  1.00  0.00     0.274 HD
ENDBRANCH  13  14
BRANCH  13  18
HETATM   18  C13 UNL     1      82.185 -13.198   8.751  1.00  0.00     0.097 C 
BRANCH  18  19
HETATM   19  C14 UNL     1      82.016 -11.737   8.422  1.00  0.00     0.256 C 
BRANCH  19  20
HETATM   20  O4  UNL     1      82.813 -10.971   9.258  1.00  0.00    -0.371 OA
ATOM     21  H4  UNL     1      82.780 -10.061   8.989  1.00  0.00     0.212 HD
ENDBRANCH  19  20
BRANCH  19  22
HETATM   22  O5  UNL     1      80.666 -11.384   8.494  1.00  0.00    -0.371 OA
ATOM     23  H5  UNL     1      80.126 -12.164   8.512  1.00  0.00     0.212 HD
ENDBRANCH  19  22
ENDBRANCH  18  19
ENDBRANCH  13  18
ENDBRANCH   3  13
ENDBRANCH   1   3
BRANCH   1  24
HETATM   24  C5  UNL     1      80.786 -16.806   9.242  1.00  0.00     0.086 A 
HETATM   25  C6  UNL     1      79.532 -16.767   9.651  1.00  0.00     0.104 A 
HETATM   26  N5  UNL     1      78.445 -16.326   8.891  1.00  0.00    -0.097 NA
HETATM   27  C7  UNL     1      79.402 -17.257  11.028  1.00  0.00     0.097 A 
HETATM   28  N6  UNL     1      78.564 -17.509  12.056  1.00  0.00    -0.330 N 
HETATM   29  C10 UNL     1      80.647 -17.618  11.488  1.00  0.00     0.135 A 
HETATM   30  C8  UNL     1      79.307 -17.995  13.062  1.00  0.00     0.196 A 
ATOM     31  H6  UNL     1      77.555 -17.358  12.065  1.00  0.00     0.168 HD
HETATM   32  O3  UNL     1      80.567 -18.058  12.709  1.00  0.00    -0.285 OA
HETATM   33  C11 UNL     1      81.552 -17.339  10.364  1.00  0.00     0.091 A 
HETATM   34  N11 UNL     1      82.820 -17.573  10.447  1.00  0.00    -0.395 N 
ATOM     35 2H11 UNL     1      83.448 -17.380   9.666  1.00  0.00     0.156 HD
ATOM     36 1H11 UNL     1      83.355 -17.946  11.231  1.00  0.00     0.156 HD
BRANCH  30  37
HETATM   37  C9  UNL     1      78.816 -18.406  14.372  1.00  0.00     0.189 A 
HETATM   38  N7  UNL     1      77.838 -17.850  15.108  1.00  0.00    -0.265 N 
HETATM   39  N8  UNL     1      77.707 -18.537  16.242  1.00  0.00    -0.226 N 
ATOM     40  H7  UNL     1      77.286 -17.034  14.841  1.00  0.00     0.190 HD
HETATM   41  N9  UNL     1      78.576 -19.507  16.238  1.00  0.00    -0.226 N 
ATOM     42  H8  UNL     1      77.040 -18.337  16.988  1.00  0.00     0.210 HD
HETATM   43  N10 UNL     1      79.261 -19.454  15.121  1.00  0.00    -0.265 N 
ATOM     44  H9  UNL     1      78.702 -20.195  16.981  1.00  0.00     0.210 HD
ATOM     45  H10 UNL     1      80.007 -20.096  14.855  1.00  0.00     0.190 HD
ENDBRANCH  30  37
ENDBRANCH   1  24
TORSDOF 10
ENDMDL
MODEL 5
REMARK VINA RESULT: -8.306707199      2.112      3.448
REMARK  10 active torsions:
REMARK  status: ('A' for Active; 'I' for Inactive)
REMARK    1  A    between atoms: N3_9  and  C4_10 
REMARK    2  A    between atoms: C4_10  and  N4_11 
REMARK    3  A    between atoms: C4_10  and  C12_35 
REMARK    4  A    between atoms: N4_11  and  C5_13 
REMARK    5  A    between atoms: C8_19  and  C9_20 
REMARK    6  A    between atoms: C12_35  and  N12_36 
REMARK    7  A    between atoms: C12_35  and  C13_40 
REMARK    8  A    between atoms: C13_40  and  C14_41 
REMARK    9  A    between atoms: C14_41  and  O4_42 
REMARK   10  A    between atoms: C14_41  and  O5_44 
ROOT
HETATM    1  N4  UNL     1      80.174 -16.711   8.018  1.00  0.00    -0.362 N 
ATOM      2  H4  UNL     1      81.036 -17.033   7.578  1.00  0.00     0.162 HD
ENDROOT
BRANCH   1   3
HETATM    3  C4  UNL     1      79.259 -15.972   7.191  1.00  0.00     0.242 C 
BRANCH   3   4
HETATM    4  N3  UNL     1      79.414 -14.551   7.227  1.00  0.00    -0.210 N 
HETATM    5  N1  UNL     1      78.496 -13.603   7.233  1.00  0.00    -0.239 N 
HETATM    6  C1  UNL     1      77.075 -13.681   7.206  1.00  0.00     0.183 C 
HETATM    7  C2  UNL     1      79.135 -12.393   7.279  1.00  0.00     0.345 A 
HETATM    8  O1  UNL     1      78.611 -11.246   7.298  1.00  0.00    -0.245 OA
HETATM    9  N2  UNL     1      80.441 -12.609   7.300  1.00  0.00    -0.258 N 
HETATM   10  C3  UNL     1      80.612 -13.920   7.269  1.00  0.00     0.347 A 
ATOM     11  H2  UNL     1      81.175 -11.901   7.333  1.00  0.00     0.175 HD
HETATM   12  O2  UNL     1      81.736 -14.498   7.277  1.00  0.00    -0.245 OA
ENDBRANCH   3   4
BRANCH   3  13
HETATM   13  C12 UNL     1      79.241 -16.502   5.766  1.00  0.00     0.232 C 
BRANCH  13  14
HETATM   14  N12 UNL     1      80.272 -17.418   5.452  1.00  0.00    -0.071 N 
ATOM     15 3H12 UNL     1      80.026 -17.950   4.617  1.00  0.00     0.274 HD
ATOM     16 2H12 UNL     1      81.093 -16.918   5.111  1.00  0.00     0.274 HD
ATOM     17 1H12 UNL     1      80.534 -18.051   6.207  1.00  0.00     0.274 HD
ENDBRANCH  13  14
BRANCH  13  18
HETATM   18  C13 UNL     1      77.897 -17.132   5.491  1.00  0.00     0.097 C 
BRANCH  18  19
HETATM   19  C14 UNL     1      77.912 -18.613   5.766  1.00  0.00     0.256 C 
BRANCH  19  20
HETATM   20  O4  UNL     1      76.809 -19.212   5.179  1.00  0.00    -0.371 OA
ATOM     21  H4  UNL     1      77.015 -20.110   4.947  1.00  0.00     0.212 HD
ENDBRANCH  19  20
BRANCH  19  22
HETATM   22  O5  UNL     1      77.981 -18.845   7.142  1.00  0.00    -0.371 OA
ATOM     23  H5  UNL     1      78.537 -19.594   7.318  1.00  0.00     0.212 HD
ENDBRANCH  19  22
ENDBRANCH  18  19
ENDBRANCH  13  18
ENDBRANCH   3  13
ENDBRANCH   1   3
BRANCH   1  24
HETATM   24  C5  UNL     1      79.992 -17.032   9.381  1.00  0.00     0.086 A 
HETATM   25  C6  UNL     1      80.868 -17.393  10.300  1.00  0.00     0.104 A 
HETATM   26  N5  UNL     1      82.242 -17.541  10.096  1.00  0.00    -0.097 NA
HETATM   27  C7  UNL     1      80.219 -17.622  11.596  1.00  0.00     0.097 A 
HETATM   28  N6  UNL     1      80.387 -17.973  12.889  1.00  0.00    -0.330 N 
HETATM   29  C10 UNL     1      78.871 -17.388  11.464  1.00  0.00     0.135 A 
HETATM   30  C8  UNL     1      79.177 -17.938  13.468  1.00  0.00     0.196 A 
ATOM     31  H6  UNL     1      81.268 -18.219  13.340  1.00  0.00     0.168 HD
HETATM   32  O3  UNL     1      78.265 -17.582  12.598  1.00  0.00    -0.285 OA
HETATM   33  C11 UNL     1      78.698 -17.008  10.055  1.00  0.00     0.091 A 
HETATM   34  N11 UNL     1      77.536 -16.705   9.577  1.00  0.00    -0.395 N 
ATOM     35 2H11 UNL     1      77.416 -16.441   8.599  1.00  0.00     0.156 HD
ATOM     36 1H11 UNL     1      76.632 -16.688  10.048  1.00  0.00     0.156 HD
BRANCH  30  37
HETATM   37  C9  UNL     1      78.884 -18.245  14.864  1.00  0.00     0.189 A 
HETATM   38  N7  UNL     1      79.470 -19.157  15.658  1.00  0.00    -0.265 N 
HETATM   39  N8  UNL     1      78.900 -19.110  16.862  1.00  0.00    -0.226 N 
ATOM     40  H7  UNL     1      80.228 -19.782  15.384  1.00  0.00     0.190 HD
HETATM   41  N9  UNL     1      77.973 -18.196  16.844  1.00  0.00    -0.226 N 
ATOM     42  H8  UNL     1      79.148 -19.693  17.663  1.00  0.00     0.210 HD
HETATM   43  N10 UNL     1      77.939 -17.655  15.650  1.00  0.00    -0.265 N 
ATOM     44  H9  UNL     1      77.373 -17.942  17.629  1.00  0.00     0.210 HD
ATOM     45  H10 UNL     1      77.307 -16.911  15.356  1.00  0.00     0.190 HD
ENDBRANCH  30  37
ENDBRANCH   1  24
TORSDOF 10
ENDMDL
