MODEL 1
REMARK VINA RESULT: -5.978041738      0.000      0.000
REMARK  3 active torsions:
REMARK  status: ('A' for Active; 'I' for Inactive)
REMARK    1  A    between atoms: N3_4  and  C2_6 
REMARK    2  A    between atoms: C2_6  and  C3_7 
REMARK    3  A    between atoms: C3_7  and  N4_8 
ROOT
HETATM    1  N4  UNL     1     -45.215   4.433 -33.155  1.00  0.00    -0.285 N 
HETATM    2  C4  UNL     1     -45.459   3.631 -32.109  1.00  0.00     0.201 A 
HETATM    3  N5  UNL     1     -46.420   2.732 -32.407  1.00  0.00    -0.346 N 
ATOM      4  H5  UNL     1     -46.795   2.008 -31.793  1.00  0.00     0.167 HD
HETATM    5  C5  UNL     1     -46.783   2.986 -33.678  1.00  0.00     0.198 A 
HETATM    6  N6  UNL     1     -46.037   4.023 -34.110  1.00  0.00    -0.293 N 
ATOM      7  H6  UNL     1     -46.096   4.435 -35.041  1.00  0.00     0.188 HD
ENDROOT
BRANCH   1   8
HETATM    8  C3  UNL     1     -44.244   5.529 -33.221  1.00  0.00     0.169 C 
BRANCH   8   9
HETATM    9  C2  UNL     1     -44.480   6.396 -32.026  1.00  0.00     0.143 C 
BRANCH   9  10
HETATM   10  N3  UNL     1     -43.512   6.244 -30.987  1.00  0.00    -0.365 N 
HETATM   11  C1  UNL     1     -43.901   6.336 -29.755  1.00  0.00     0.197 C 
HETATM   12  N1  UNL     1     -45.284   6.586 -29.432  1.00  0.00    -0.067 NA
HETATM   13  N2  UNL     1     -43.025   6.203 -28.657  1.00  0.00    -0.067 NA
ATOM     14  H3  UNL     1     -42.533   6.068 -31.211  1.00  0.00     0.161 HD
ENDBRANCH   9  10
ENDBRANCH   8   9
ENDBRANCH   1   8
TORSDOF 3
ENDMDL
MODEL 2
REMARK VINA RESULT: -5.872793269      2.947      4.347
REMARK  3 active torsions:
REMARK  status: ('A' for Active; 'I' for Inactive)
REMARK    1  A    between atoms: N3_4  and  C2_6 
REMARK    2  A    between atoms: C2_6  and  C3_7 
REMARK    3  A    between atoms: C3_7  and  N4_8 
ROOT
HETATM    1  N4  UNL     1     -45.601   1.164 -35.274  1.00  0.00    -0.285 N 
HETATM    2  C4  UNL     1     -45.759   0.021 -35.956  1.00  0.00     0.201 A 
HETATM    3  N5  UNL     1     -44.765  -0.144 -36.852  1.00  0.00    -0.346 N 
ATOM      4  H5  UNL     1     -44.643  -0.925 -37.498  1.00  0.00     0.167 HD
HETATM    5  C5  UNL     1     -43.965   0.931 -36.720  1.00  0.00     0.198 A 
HETATM    6  N6  UNL     1     -44.495   1.710 -35.756  1.00  0.00    -0.293 N 
ATOM      7  H6  UNL     1     -44.099   2.596 -35.441  1.00  0.00     0.188 HD
ENDROOT
BRANCH   1   8
HETATM    8  C3  UNL     1     -46.472   1.692 -34.219  1.00  0.00     0.169 C 
BRANCH   8   9
HETATM    9  C2  UNL     1     -46.152   3.145 -34.074  1.00  0.00     0.143 C 
BRANCH   9  10
HETATM   10  N3  UNL     1     -46.396   3.676 -32.771  1.00  0.00    -0.365 N 
HETATM   11  C1  UNL     1     -45.386   3.921 -31.999  1.00  0.00     0.197 C 
HETATM   12  N1  UNL     1     -44.037   3.665 -32.441  1.00  0.00    -0.067 NA
HETATM   13  N2  UNL     1     -45.519   4.445 -30.696  1.00  0.00    -0.067 NA
ATOM     14  H3  UNL     1     -47.348   3.859 -32.454  1.00  0.00     0.161 HD
ENDBRANCH   9  10
ENDBRANCH   8   9
ENDBRANCH   1   8
TORSDOF 3
ENDMDL
MODEL 3
REMARK VINA RESULT: -5.867368340      3.329      4.658
REMARK  3 active torsions:
REMARK  status: ('A' for Active; 'I' for Inactive)
REMARK    1  A    between atoms: N3_4  and  C2_6 
REMARK    2  A    between atoms: C2_6  and  C3_7 
REMARK    3  A    between atoms: C3_7  and  N4_8 
ROOT
HETATM    1  N4  UNL     1     -44.677   1.279 -36.062  1.00  0.00    -0.285 N 
HETATM    2  C4  UNL     1     -44.279   0.378 -36.972  1.00  0.00     0.201 A 
HETATM    3  N5  UNL     1     -44.994  -0.760 -36.864  1.00  0.00    -0.346 N 
ATOM      4  H5  UNL     1     -44.897  -1.603 -37.432  1.00  0.00     0.167 HD
HETATM    5  C5  UNL     1     -45.863  -0.558 -35.856  1.00  0.00     0.198 A 
HETATM    6  N6  UNL     1     -45.650   0.688 -35.385  1.00  0.00    -0.293 N 
ATOM      7  H6  UNL     1     -46.166   1.115 -34.616  1.00  0.00     0.188 HD
ENDROOT
BRANCH   1   8
HETATM    8  C3  UNL     1     -44.144   2.630 -35.864  1.00  0.00     0.169 C 
BRANCH   8   9
HETATM    9  C2  UNL     1     -45.173   3.399 -35.099  1.00  0.00     0.143 C 
BRANCH   9  10
HETATM   10  N3  UNL     1     -44.749   3.827 -33.805  1.00  0.00    -0.365 N 
HETATM   11  C1  UNL     1     -45.315   3.309 -32.761  1.00  0.00     0.197 C 
HETATM   12  N1  UNL     1     -46.354   2.318 -32.897  1.00  0.00    -0.067 NA
HETATM   13  N2  UNL     1     -44.969   3.664 -31.440  1.00  0.00    -0.067 NA
ATOM     14  H3  UNL     1     -44.015   4.527 -33.703  1.00  0.00     0.161 HD
ENDBRANCH   9  10
ENDBRANCH   8   9
ENDBRANCH   1   8
TORSDOF 3
ENDMDL
MODEL 4
REMARK VINA RESULT: -5.813077763      3.402      4.531
REMARK  3 active torsions:
REMARK  status: ('A' for Active; 'I' for Inactive)
REMARK    1  A    between atoms: N3_4  and  C2_6 
REMARK    2  A    between atoms: C2_6  and  C3_7 
REMARK    3  A    between atoms: C3_7  and  N4_8 
ROOT
HETATM    1  N4  UNL     1     -44.620   1.323 -36.093  1.00  0.00    -0.285 N 
HETATM    2  C4  UNL     1     -44.132   0.540 -37.065  1.00  0.00     0.201 A 
HETATM    3  N5  UNL     1     -44.728  -0.670 -37.053  1.00  0.00    -0.346 N 
ATOM      4  H5  UNL     1     -44.545  -1.452 -37.682  1.00  0.00     0.167 HD
HETATM    5  C5  UNL     1     -45.614  -0.635 -36.039  1.00  0.00     0.198 A 
HETATM    6  N6  UNL     1     -45.529   0.585 -35.472  1.00  0.00    -0.293 N 
ATOM      7  H6  UNL     1     -46.087   0.897 -34.677  1.00  0.00     0.188 HD
ENDROOT
BRANCH   1   8
HETATM    8  C3  UNL     1     -44.227   2.701 -35.786  1.00  0.00     0.169 C 
BRANCH   8   9
HETATM    9  C2  UNL     1     -45.166   3.201 -34.735  1.00  0.00     0.143 C 
BRANCH   9  10
HETATM   10  N3  UNL     1     -45.026   4.588 -34.430  1.00  0.00    -0.365 N 
HETATM   11  C1  UNL     1     -44.490   4.927 -33.301  1.00  0.00     0.197 C 
HETATM   12  N1  UNL     1     -44.040   3.925 -32.365  1.00  0.00    -0.067 NA
HETATM   13  N2  UNL     1     -44.307   6.269 -32.904  1.00  0.00    -0.067 NA
ATOM     14  H3  UNL     1     -45.343   5.300 -35.088  1.00  0.00     0.161 HD
ENDBRANCH   9  10
ENDBRANCH   8   9
ENDBRANCH   1   8
TORSDOF 3
ENDMDL
MODEL 5
REMARK VINA RESULT: -5.765951795      2.773      4.106
REMARK  3 active torsions:
REMARK  status: ('A' for Active; 'I' for Inactive)
REMARK    1  A    between atoms: N3_4  and  C2_6 
REMARK    2  A    between atoms: C2_6  and  C3_7 
REMARK    3  A    between atoms: C3_7  and  N4_8 
ROOT
HETATM    1  N4  UNL     1     -45.300   1.713 -35.268  1.00  0.00    -0.285 N 
HETATM    2  C4  UNL     1     -44.423   2.563 -35.819  1.00  0.00     0.201 A 
HETATM    3  N5  UNL     1     -43.668   1.939 -36.747  1.00  0.00    -0.346 N 
ATOM      4  H5  UNL     1     -42.927   2.352 -37.315  1.00  0.00     0.167 HD
HETATM    5  C5  UNL     1     -44.092   0.661 -36.771  1.00  0.00     0.198 A 
HETATM    6  N6  UNL     1     -45.083   0.549 -35.864  1.00  0.00    -0.293 N 
ATOM      7  H6  UNL     1     -45.595  -0.310 -35.664  1.00  0.00     0.188 HD
ENDROOT
BRANCH   1   8
HETATM    8  C3  UNL     1     -46.288   2.013 -34.227  1.00  0.00     0.169 C 
BRANCH   8   9
HETATM    9  C2  UNL     1     -46.238   3.488 -33.988  1.00  0.00     0.143 C 
BRANCH   9  10
HETATM   10  N3  UNL     1     -46.450   3.874 -32.630  1.00  0.00    -0.365 N 
HETATM   11  C1  UNL     1     -45.420   4.041 -31.863  1.00  0.00     0.197 C 
HETATM   12  N1  UNL     1     -44.082   3.842 -32.364  1.00  0.00    -0.067 NA
HETATM   13  N2  UNL     1     -45.521   4.421 -30.507  1.00  0.00    -0.067 NA
ATOM     14  H3  UNL     1     -47.394   4.016 -32.271  1.00  0.00     0.161 HD
ENDBRANCH   9  10
ENDBRANCH   8   9
ENDBRANCH   1   8
TORSDOF 3
ENDMDL
