MODEL 1
REMARK VINA RESULT: -9.429894251      0.000      0.000
REMARK  4 active torsions:
REMARK  status: ('A' for Active; 'I' for Inactive)
REMARK    1  A    between atoms: C4_7  and  C5_8 
REMARK    2  A    between atoms: C12_15  and  C13_16 
REMARK    3  A    between atoms: C13_16  and  N3_17 
REMARK    4  A    between atoms: C22_28  and  C24_31 
ROOT
HETATM    1  N3  UNL     1      13.787  21.980  15.918  1.00  0.00    -0.313 N 
HETATM    2  C14 UNL     1      13.156  21.194  16.950  1.00  0.00     0.256 A 
HETATM    3  O1  UNL     1      13.463  21.168  18.162  1.00  0.00    -0.267 OA
HETATM    4  C15 UNL     1      12.074  20.400  16.382  1.00  0.00     0.042 A 
HETATM    5  C16 UNL     1      11.192  19.501  16.945  1.00  0.00     0.019 A 
HETATM    6  C17 UNL     1      10.257  18.875  16.172  1.00  0.00     0.024 A 
HETATM    7  C18 UNL     1      10.216  19.162  14.823  1.00  0.00     0.045 A 
HETATM    8  C19 UNL     1       9.224  18.491  14.032  1.00  0.00     0.099 C 
HETATM    9  N4  UNL     1       8.435  17.964  13.383  1.00  0.00    -0.191 NA
HETATM   10  C20 UNL     1      11.101  20.064  14.271  1.00  0.00     0.034 A 
HETATM   11  C21 UNL     1      12.047  20.698  15.050  1.00  0.00     0.006 A 
HETATM   12  C22 UNL     1      13.093  21.708  14.701  1.00  0.00     0.181 A 
HETATM   13  C23 UNL     1      12.343  22.989  14.410  1.00  0.00     0.101 C 
HETATM   14  N5  UNL     1      11.767  23.955  14.170  1.00  0.00    -0.194 NA
ENDROOT
BRANCH  12  15
HETATM   15  C24 UNL     1      13.874  21.366  13.521  1.00  0.00    -0.011 A 
HETATM   16  C25 UNL     1      14.558  20.146  13.436  1.00  0.00     0.011 A 
HETATM   17  C26 UNL     1      15.320  19.810  12.335  1.00  0.00     0.001 A 
HETATM   18  C27 UNL     1      15.432  20.677  11.269  1.00  0.00     0.000 A 
HETATM   19  C28 UNL     1      14.767  21.881  11.333  1.00  0.00     0.001 A 
HETATM   20  C29 UNL     1      13.994  22.224  12.451  1.00  0.00     0.011 A 
ENDBRANCH  12  15
BRANCH   1  21
HETATM   21  C13 UNL     1      14.858  22.896  16.211  1.00  0.00     0.168 C 
BRANCH  21  22
HETATM   22  C12 UNL     1      15.945  22.798  15.250  1.00  0.00    -0.029 A 
HETATM   23  C11 UNL     1      16.769  21.706  15.081  1.00  0.00     0.010 A 
HETATM   24  C10 UNL     1      17.806  21.707  14.157  1.00  0.00     0.002 A 
HETATM   25  C9  UNL     1      18.060  22.790  13.369  1.00  0.00     0.012 A 
HETATM   26  C8  UNL     1      17.254  23.890  13.518  1.00  0.00    -0.025 A 
HETATM   27  C7  UNL     1      17.486  25.005  12.740  1.00  0.00     0.013 A 
HETATM   28  C30 UNL     1      16.227  23.898  14.431  1.00  0.00    -0.017 A 
HETATM   29  C6  UNL     1      16.717  26.125  12.851  1.00  0.00     0.014 A 
HETATM   30  C5  UNL     1      15.659  26.142  13.786  1.00  0.00    -0.007 A 
HETATM   31  C31 UNL     1      15.431  25.034  14.557  1.00  0.00     0.026 A 
BRANCH  30  32
HETATM   32  C4  UNL     1      14.833  27.332  13.866  1.00  0.00     0.061 A 
HETATM   33  N1  UNL     1      13.883  27.786  13.064  1.00  0.00    -0.296 N 
HETATM   34  C1  UNL     1      13.357  27.234  11.815  1.00  0.00     0.178 C 
HETATM   35  N2  UNL     1      13.346  28.929  13.550  1.00  0.00    -0.310 N 
HETATM   36  C2  UNL     1      13.954  29.220  14.682  1.00  0.00     0.109 A 
ATOM     37  H2  UNL     1      12.600  29.471  13.115  1.00  0.00     0.186 HD
HETATM   38  C3  UNL     1      14.886  28.246  14.909  1.00  0.00     0.050 A 
ENDBRANCH  30  32
ENDBRANCH  21  22
ENDBRANCH   1  21
TORSDOF 4
ENDMDL
MODEL 2
REMARK VINA RESULT: -8.946416716      2.922      4.572
REMARK  4 active torsions:
REMARK  status: ('A' for Active; 'I' for Inactive)
REMARK    1  A    between atoms: C4_7  and  C5_8 
REMARK    2  A    between atoms: C12_15  and  C13_16 
REMARK    3  A    between atoms: C13_16  and  N3_17 
REMARK    4  A    between atoms: C22_28  and  C24_31 
ROOT
HETATM    1  N3  UNL     1      16.128  21.635  12.724  1.00  0.00    -0.313 N 
HETATM    2  C14 UNL     1      16.266  20.416  11.965  1.00  0.00     0.256 A 
HETATM    3  O1  UNL     1      16.768  20.299  10.825  1.00  0.00    -0.267 OA
HETATM    4  C15 UNL     1      15.723  19.294  12.719  1.00  0.00     0.042 A 
HETATM    5  C16 UNL     1      15.615  17.950  12.428  1.00  0.00     0.019 A 
HETATM    6  C17 UNL     1      15.047  17.092  13.326  1.00  0.00     0.024 A 
HETATM    7  C18 UNL     1      14.586  17.600  14.523  1.00  0.00     0.045 A 
HETATM    8  C19 UNL     1      13.993  16.679  15.449  1.00  0.00     0.099 C 
HETATM    9  N4  UNL     1      13.515  15.955  16.205  1.00  0.00    -0.191 NA
HETATM   10  C20 UNL     1      14.701  18.946  14.804  1.00  0.00     0.034 A 
HETATM   11  C21 UNL     1      15.275  19.814  13.898  1.00  0.00     0.006 A 
HETATM   12  C22 UNL     1      15.523  21.287  13.969  1.00  0.00     0.181 A 
HETATM   13  C23 UNL     1      16.633  21.466  14.981  1.00  0.00     0.101 C 
HETATM   14  N5  UNL     1      17.463  21.598  15.765  1.00  0.00    -0.194 NA
ENDROOT
BRANCH  12  15
HETATM   15  C24 UNL     1      14.374  22.059  14.420  1.00  0.00    -0.011 A 
HETATM   16  C25 UNL     1      13.247  22.220  13.604  1.00  0.00     0.011 A 
HETATM   17  C26 UNL     1      12.155  22.963  14.004  1.00  0.00     0.001 A 
HETATM   18  C27 UNL     1      12.140  23.579  15.237  1.00  0.00     0.000 A 
HETATM   19  C28 UNL     1      13.239  23.433  16.055  1.00  0.00     0.001 A 
HETATM   20  C29 UNL     1      14.349  22.679  15.649  1.00  0.00     0.011 A 
ENDBRANCH  12  15
BRANCH   1  21
HETATM   21  C13 UNL     1      16.627  22.894  12.235  1.00  0.00     0.168 C 
BRANCH  21  22
HETATM   22  C12 UNL     1      15.633  23.617  11.459  1.00  0.00    -0.029 A 
HETATM   23  C11 UNL     1      15.217  23.289  10.187  1.00  0.00     0.010 A 
HETATM   24  C10 UNL     1      14.279  24.054   9.503  1.00  0.00     0.002 A 
HETATM   25  C9  UNL     1      13.725  25.168  10.059  1.00  0.00     0.012 A 
HETATM   26  C8  UNL     1      14.123  25.516  11.325  1.00  0.00    -0.025 A 
HETATM   27  C7  UNL     1      13.585  26.641  11.915  1.00  0.00     0.013 A 
HETATM   28  C30 UNL     1      15.050  24.766  12.007  1.00  0.00    -0.017 A 
HETATM   29  C6  UNL     1      13.949  27.032  13.168  1.00  0.00     0.014 A 
HETATM   30  C5  UNL     1      14.900  26.267  13.878  1.00  0.00    -0.007 A 
HETATM   31  C31 UNL     1      15.433  25.152  13.290  1.00  0.00     0.026 A 
BRANCH  30  32
HETATM   32  C4  UNL     1      15.251  26.682  15.223  1.00  0.00     0.061 A 
HETATM   33  N1  UNL     1      15.037  27.821  15.864  1.00  0.00    -0.296 N 
HETATM   34  C1  UNL     1      14.379  29.049  15.416  1.00  0.00     0.178 C 
HETATM   35  N2  UNL     1      15.508  27.758  17.130  1.00  0.00    -0.310 N 
HETATM   36  C2  UNL     1      16.033  26.563  17.315  1.00  0.00     0.109 A 
ATOM     37  H2  UNL     1      15.464  28.506  17.822  1.00  0.00     0.186 HD
HETATM   38  C3  UNL     1      15.889  25.868  16.146  1.00  0.00     0.050 A 
ENDBRANCH  30  32
ENDBRANCH  21  22
ENDBRANCH   1  21
TORSDOF 4
ENDMDL
MODEL 3
REMARK VINA RESULT: -8.893350767      2.148      4.045
REMARK  4 active torsions:
REMARK  status: ('A' for Active; 'I' for Inactive)
REMARK    1  A    between atoms: C4_7  and  C5_8 
REMARK    2  A    between atoms: C12_15  and  C13_16 
REMARK    3  A    between atoms: C13_16  and  N3_17 
REMARK    4  A    between atoms: C22_28  and  C24_31 
ROOT
HETATM    1  N3  UNL     1      13.916  21.322  15.898  1.00  0.00    -0.313 N 
HETATM    2  C14 UNL     1      12.881  21.395  16.900  1.00  0.00     0.256 A 
HETATM    3  O1  UNL     1      12.936  22.013  17.987  1.00  0.00    -0.267 OA
HETATM    4  C15 UNL     1      11.719  20.626  16.475  1.00  0.00     0.042 A 
HETATM    5  C16 UNL     1      10.500  20.385  17.075  1.00  0.00     0.019 A 
HETATM    6  C17 UNL     1       9.567  19.606  16.452  1.00  0.00     0.024 A 
HETATM    7  C18 UNL     1       9.871  19.072  15.217  1.00  0.00     0.045 A 
HETATM    8  C19 UNL     1       8.873  18.258  14.583  1.00  0.00     0.099 C 
HETATM    9  N4  UNL     1       8.084  17.604  14.059  1.00  0.00    -0.191 NA
HETATM   10  C20 UNL     1      11.091  19.322  14.626  1.00  0.00     0.034 A 
HETATM   11  C21 UNL     1      12.036  20.108  15.254  1.00  0.00     0.006 A 
HETATM   12  C22 UNL     1      13.405  20.531  14.825  1.00  0.00     0.181 A 
HETATM   13  C23 UNL     1      13.193  21.524  13.703  1.00  0.00     0.101 C 
HETATM   14  N5  UNL     1      13.027  22.262  12.838  1.00  0.00    -0.194 NA
ENDROOT
BRANCH  12  15
HETATM   15  C24 UNL     1      14.227  19.443  14.315  1.00  0.00    -0.011 A 
HETATM   16  C25 UNL     1      14.270  18.204  14.965  1.00  0.00     0.011 A 
HETATM   17  C26 UNL     1      15.057  17.165  14.510  1.00  0.00     0.001 A 
HETATM   18  C27 UNL     1      15.837  17.320  13.383  1.00  0.00     0.000 A 
HETATM   19  C28 UNL     1      15.810  18.531  12.729  1.00  0.00     0.001 A 
HETATM   20  C29 UNL     1      15.011  19.586  13.192  1.00  0.00     0.011 A 
ENDBRANCH  12  15
BRANCH   1  21
HETATM   21  C13 UNL     1      15.160  22.033  16.038  1.00  0.00     0.168 C 
BRANCH  21  22
HETATM   22  C12 UNL     1      15.051  23.421  15.621  1.00  0.00    -0.029 A 
HETATM   23  C11 UNL     1      14.297  24.390  16.246  1.00  0.00     0.010 A 
HETATM   24  C10 UNL     1      14.225  25.691  15.762  1.00  0.00     0.002 A 
HETATM   25  C9  UNL     1      14.901  26.073  14.642  1.00  0.00     0.012 A 
HETATM   26  C8  UNL     1      15.660  25.127  14.000  1.00  0.00    -0.025 A 
HETATM   27  C7  UNL     1      16.353  25.480  12.860  1.00  0.00     0.013 A 
HETATM   28  C30 UNL     1      15.734  23.838  14.471  1.00  0.00    -0.017 A 
HETATM   29  C6  UNL     1      17.117  24.578  12.183  1.00  0.00     0.014 A 
HETATM   30  C5  UNL     1      17.201  23.252  12.660  1.00  0.00    -0.007 A 
HETATM   31  C31 UNL     1      16.512  22.905  13.791  1.00  0.00     0.026 A 
BRANCH  30  32
HETATM   32  C4  UNL     1      18.045  22.315  11.943  1.00  0.00     0.061 A 
HETATM   33  N1  UNL     1      17.762  21.453  10.978  1.00  0.00    -0.296 N 
HETATM   34  C1  UNL     1      16.489  21.154  10.321  1.00  0.00     0.178 C 
HETATM   35  N2  UNL     1      18.875  20.800  10.573  1.00  0.00    -0.310 N 
HETATM   36  C2  UNL     1      19.894  21.244  11.283  1.00  0.00     0.109 A 
ATOM     37  H2  UNL     1      18.918  20.088   9.845  1.00  0.00     0.186 HD
HETATM   38  C3  UNL     1      19.412  22.189  12.145  1.00  0.00     0.050 A 
ENDBRANCH  30  32
ENDBRANCH  21  22
ENDBRANCH   1  21
TORSDOF 4
ENDMDL
MODEL 4
REMARK VINA RESULT: -8.789954869      2.450      8.226
REMARK  4 active torsions:
REMARK  status: ('A' for Active; 'I' for Inactive)
REMARK    1  A    between atoms: C4_7  and  C5_8 
REMARK    2  A    between atoms: C12_15  and  C13_16 
REMARK    3  A    between atoms: C13_16  and  N3_17 
REMARK    4  A    between atoms: C22_28  and  C24_31 
ROOT
HETATM    1  N3  UNL     1      13.291  21.331  13.640  1.00  0.00    -0.313 N 
HETATM    2  C14 UNL     1      14.130  20.177  13.852  1.00  0.00     0.256 A 
HETATM    3  O1  UNL     1      13.765  19.053  14.262  1.00  0.00    -0.267 OA
HETATM    4  C15 UNL     1      15.512  20.496  13.519  1.00  0.00     0.042 A 
HETATM    5  C16 UNL     1      16.670  19.747  13.559  1.00  0.00     0.019 A 
HETATM    6  C17 UNL     1      17.863  20.300  13.192  1.00  0.00     0.024 A 
HETATM    7  C18 UNL     1      17.881  21.617  12.781  1.00  0.00     0.045 A 
HETATM    8  C19 UNL     1      19.148  22.175  12.401  1.00  0.00     0.099 C 
HETATM    9  N4  UNL     1      20.154  22.639  12.090  1.00  0.00    -0.191 NA
HETATM   10  C20 UNL     1      16.717  22.356  12.743  1.00  0.00     0.034 A 
HETATM   11  C21 UNL     1      15.511  21.799  13.114  1.00  0.00     0.006 A 
HETATM   12  C22 UNL     1      14.131  22.375  13.148  1.00  0.00     0.181 A 
HETATM   13  C23 UNL     1      13.717  22.530  11.701  1.00  0.00     0.101 C 
HETATM   14  N5  UNL     1      13.416  22.665  10.601  1.00  0.00    -0.194 NA
ENDROOT
BRANCH  12  15
HETATM   15  C24 UNL     1      14.052  23.683  13.782  1.00  0.00    -0.011 A 
HETATM   16  C25 UNL     1      14.830  23.989  14.906  1.00  0.00     0.011 A 
HETATM   17  C26 UNL     1      14.757  25.216  15.534  1.00  0.00     0.001 A 
HETATM   18  C27 UNL     1      13.903  26.192  15.067  1.00  0.00     0.000 A 
HETATM   19  C28 UNL     1      13.129  25.911  13.963  1.00  0.00     0.001 A 
HETATM   20  C29 UNL     1      13.202  24.665  13.325  1.00  0.00     0.011 A 
ENDBRANCH  12  15
BRANCH   1  21
HETATM   21  C13 UNL     1      11.867  21.281  13.845  1.00  0.00     0.168 C 
BRANCH  21  22
HETATM   22  C12 UNL     1      11.511  21.331  15.253  1.00  0.00    -0.029 A 
HETATM   23  C11 UNL     1      11.841  22.343  16.128  1.00  0.00     0.010 A 
HETATM   24  C10 UNL     1      11.485  22.298  17.471  1.00  0.00     0.002 A 
HETATM   25  C9  UNL     1      10.789  21.246  17.989  1.00  0.00     0.012 A 
HETATM   26  C8  UNL     1      10.448  20.225  17.138  1.00  0.00    -0.025 A 
HETATM   27  C7  UNL     1       9.748  19.144  17.631  1.00  0.00     0.013 A 
HETATM   28  C30 UNL     1      10.798  20.262  15.810  1.00  0.00    -0.017 A 
HETATM   29  C6  UNL     1       9.388  18.102  16.831  1.00  0.00     0.014 A 
HETATM   30  C5  UNL     1       9.742  18.131  15.464  1.00  0.00    -0.007 A 
HETATM   31  C31 UNL     1      10.438  19.205  14.977  1.00  0.00     0.026 A 
BRANCH  30  32
HETATM   32  C4  UNL     1       9.323  17.027  14.621  1.00  0.00     0.061 A 
HETATM   33  N1  UNL     1      10.009  16.024  14.097  1.00  0.00    -0.296 N 
HETATM   34  C1  UNL     1      11.435  15.705  14.190  1.00  0.00     0.178 C 
HETATM   35  N2  UNL     1       9.200  15.196  13.400  1.00  0.00    -0.310 N 
HETATM   36  C2  UNL     1       7.970  15.666  13.472  1.00  0.00     0.109 A 
ATOM     37  H2  UNL     1       9.490  14.354  12.903  1.00  0.00     0.186 HD
HETATM   38  C3  UNL     1       8.011  16.806  14.226  1.00  0.00     0.050 A 
ENDBRANCH  30  32
ENDBRANCH  21  22
ENDBRANCH   1  21
TORSDOF 4
ENDMDL
MODEL 5
REMARK VINA RESULT: -8.783634479      3.216      6.883
REMARK  4 active torsions:
REMARK  status: ('A' for Active; 'I' for Inactive)
REMARK    1  A    between atoms: C4_7  and  C5_8 
REMARK    2  A    between atoms: C12_15  and  C13_16 
REMARK    3  A    between atoms: C13_16  and  N3_17 
REMARK    4  A    between atoms: C22_28  and  C24_31 
ROOT
HETATM    1  N3  UNL     1      17.240  21.998  13.420  1.00  0.00    -0.313 N 
HETATM    2  C14 UNL     1      18.672  21.851  13.328  1.00  0.00     0.256 A 
HETATM    3  O1  UNL     1      19.506  22.068  14.235  1.00  0.00    -0.267 OA
HETATM    4  C15 UNL     1      19.043  21.401  11.992  1.00  0.00     0.042 A 
HETATM    5  C16 UNL     1      20.265  21.126  11.415  1.00  0.00     0.019 A 
HETATM    6  C17 UNL     1      20.339  20.717  10.114  1.00  0.00     0.024 A 
HETATM    7  C18 UNL     1      19.167  20.587   9.397  1.00  0.00     0.045 A 
HETATM    8  C19 UNL     1      19.271  20.156   8.032  1.00  0.00     0.099 C 
HETATM    9  N4  UNL     1      19.334  19.810   6.936  1.00  0.00    -0.191 NA
HETATM   10  C20 UNL     1      17.951  20.863   9.985  1.00  0.00     0.034 A 
HETATM   11  C21 UNL     1      17.875  21.276  11.299  1.00  0.00     0.006 A 
HETATM   12  C22 UNL     1      16.698  21.619  12.155  1.00  0.00     0.181 A 
HETATM   13  C23 UNL     1      15.998  20.306  12.433  1.00  0.00     0.101 C 
HETATM   14  N5  UNL     1      15.460  19.309  12.625  1.00  0.00    -0.194 NA
ENDROOT
BRANCH  12  15
HETATM   15  C24 UNL     1      15.742  22.512  11.516  1.00  0.00    -0.011 A 
HETATM   16  C25 UNL     1      16.089  23.830  11.194  1.00  0.00     0.011 A 
HETATM   17  C26 UNL     1      15.193  24.699  10.605  1.00  0.00     0.001 A 
HETATM   18  C27 UNL     1      13.909  24.290  10.313  1.00  0.00     0.000 A 
HETATM   19  C28 UNL     1      13.548  22.997  10.622  1.00  0.00     0.001 A 
HETATM   20  C29 UNL     1      14.457  22.114  11.220  1.00  0.00     0.011 A 
ENDBRANCH  12  15
BRANCH   1  21
HETATM   21  C13 UNL     1      16.595  22.385  14.647  1.00  0.00     0.168 C 
BRANCH  21  22
HETATM   22  C12 UNL     1      15.989  23.703  14.559  1.00  0.00    -0.029 A 
HETATM   23  C11 UNL     1      16.665  24.883  14.337  1.00  0.00     0.010 A 
HETATM   24  C10 UNL     1      16.009  26.108  14.297  1.00  0.00     0.002 A 
HETATM   25  C9  UNL     1      14.661  26.201  14.474  1.00  0.00     0.012 A 
HETATM   26  C8  UNL     1      13.964  25.040  14.698  1.00  0.00    -0.025 A 
HETATM   27  C7  UNL     1      12.599  25.100  14.886  1.00  0.00     0.013 A 
HETATM   28  C30 UNL     1      14.606  23.826  14.740  1.00  0.00    -0.017 A 
HETATM   29  C6  UNL     1      11.861  23.978  15.115  1.00  0.00     0.014 A 
HETATM   30  C5  UNL     1      12.511  22.725  15.159  1.00  0.00    -0.007 A 
HETATM   31  C31 UNL     1      13.866  22.669  14.973  1.00  0.00     0.026 A 
BRANCH  30  32
HETATM   32  C4  UNL     1      11.703  21.539  15.373  1.00  0.00     0.061 A 
HETATM   33  N1  UNL     1      10.888  21.209  16.363  1.00  0.00    -0.296 N 
HETATM   34  C1  UNL     1      10.541  21.938  17.584  1.00  0.00     0.178 C 
HETATM   35  N2  UNL     1      10.306  20.011  16.130  1.00  0.00    -0.310 N 
HETATM   36  C2  UNL     1      10.748  19.556  14.974  1.00  0.00     0.109 A 
ATOM     37  H2  UNL     1       9.641  19.540  16.744  1.00  0.00     0.186 HD
HETATM   38  C3  UNL     1      11.619  20.484  14.476  1.00  0.00     0.050 A 
ENDBRANCH  30  32
ENDBRANCH  21  22
ENDBRANCH   1  21
TORSDOF 4
ENDMDL
