MODEL 1
REMARK VINA RESULT: -10.272283343      0.000      0.000
REMARK  4 active torsions:
REMARK  status: ('A' for Active; 'I' for Inactive)
REMARK    1  A    between atoms: C2_3  and  N1_4 
REMARK    2  A    between atoms: C3_7  and  C4_8 
REMARK    3  A    between atoms: C11_15  and  C12_16 
REMARK    4  A    between atoms: N3_30  and  C24_31 
ROOT
HETATM    1  N1  UNL     1      15.370  20.314  12.972  1.00  0.00    -0.262 N 
HETATM    2  N2  UNL     1      16.251  19.281  13.112  1.00  0.00    -0.295 N 
ATOM      3  H2  UNL     1      17.116  19.217  12.576  1.00  0.00     0.187 HD
HETATM    4  C3  UNL     1      15.894  18.384  13.988  1.00  0.00     0.072 A 
HETATM    5  C10 UNL     1      14.635  18.770  14.540  1.00  0.00     0.035 A 
HETATM    6  C11 UNL     1      13.776  18.185  15.299  1.00  0.00     0.054 C 
HETATM    7  C16 UNL     1      14.309  20.078  13.843  1.00  0.00     0.131 A 
HETATM    8  S1  UNL     1      13.006  20.975  14.075  1.00  0.00    -0.058 SA
ENDROOT
BRANCH   1   9
HETATM    9  C2  UNL     1      15.584  21.408  12.038  1.00  0.00     0.235 C 
HETATM   10  C1  UNL     1      15.145  22.720  12.575  1.00  0.00     0.255 C 
HETATM   11  O1  UNL     1      14.014  23.142  12.303  1.00  0.00    -0.270 OA
HETATM   12  N3  UNL     1      15.995  23.509  13.393  1.00  0.00    -0.297 N 
HETATM   13  C23 UNL     1      17.250  22.919  13.806  1.00  0.00     0.172 C 
HETATM   14  C22 UNL     1      17.865  22.248  12.646  1.00  0.00    -0.031 A 
HETATM   15  C17 UNL     1      17.077  21.511  11.785  1.00  0.00    -0.017 A 
HETATM   16  C21 UNL     1      19.243  22.345  12.415  1.00  0.00     0.009 A 
HETATM   17  C18 UNL     1      17.688  20.894  10.723  1.00  0.00     0.010 A 
HETATM   18  C19 UNL     1      19.042  20.987  10.493  1.00  0.00     0.001 A 
HETATM   19  C20 UNL     1      19.840  21.720  11.346  1.00  0.00     0.001 A 
BRANCH  12  20
HETATM   20  C24 UNL     1      15.698  24.824  13.826  1.00  0.00     0.110 A 
HETATM   21  C25 UNL     1      16.091  25.214  15.090  1.00  0.00     0.049 A 
HETATM   22  C26 UNL     1      15.815  26.483  15.552  1.00  0.00     0.005 A 
HETATM   23  C27 UNL     1      15.139  27.325  14.692  1.00  0.00     0.017 A 
HETATM   24  C28 UNL     1      14.745  26.938  13.430  1.00  0.00     0.089 A 
HETATM   25  N4  UNL     1      15.032  25.703  13.025  1.00  0.00    -0.352 N 
ATOM     26  H4  UNL     1      14.745  25.407  12.092  1.00  0.00     0.166 HD
ENDBRANCH  12  20
ENDBRANCH   1   9
BRANCH   4  27
HETATM   27  C4  UNL     1      16.795  17.255  14.180  1.00  0.00    -0.007 A 
HETATM   28  C5  UNL     1      17.999  17.289  14.791  1.00  0.00     0.014 A 
HETATM   29  C6  UNL     1      18.776  16.140  15.034  1.00  0.00     0.001 A 
HETATM   30  C7  UNL     1      18.331  14.902  14.647  1.00  0.00     0.000 A 
HETATM   31  C8  UNL     1      17.113  14.842  14.023  1.00  0.00     0.001 A 
HETATM   32  C9  UNL     1      16.366  15.966  13.793  1.00  0.00     0.014 A 
ENDBRANCH   4  27
BRANCH   6  33
HETATM   33  C12 UNL     1      13.683  16.890  15.917  1.00  0.00     0.075 A 
HETATM   34  C13 UNL     1      13.007  15.779  15.361  1.00  0.00     0.039 A 
HETATM   35  C14 UNL     1      13.129  14.713  16.214  1.00  0.00     0.027 A 
HETATM   36  C15 UNL     1      13.876  15.195  17.269  1.00  0.00     0.142 A 
HETATM   37  O2  UNL     1      14.163  16.438  17.047  1.00  0.00    -0.323 OA
ENDBRANCH   6  33
TORSDOF 4
ENDMDL
MODEL 2
REMARK VINA RESULT: -10.000599440      2.321      4.854
REMARK  4 active torsions:
REMARK  status: ('A' for Active; 'I' for Inactive)
REMARK    1  A    between atoms: C2_3  and  N1_4 
REMARK    2  A    between atoms: C3_7  and  C4_8 
REMARK    3  A    between atoms: C11_15  and  C12_16 
REMARK    4  A    between atoms: N3_30  and  C24_31 
ROOT
HETATM    1  N1  UNL     1      15.913  21.342  13.461  1.00  0.00    -0.262 N 
HETATM    2  N2  UNL     1      16.160  20.002  13.388  1.00  0.00    -0.295 N 
ATOM      3  H2  UNL     1      16.914  19.608  12.825  1.00  0.00     0.187 HD
HETATM    4  C3  UNL     1      15.352  19.266  14.099  1.00  0.00     0.072 A 
HETATM    5  C10 UNL     1      14.414  20.125  14.748  1.00  0.00     0.035 A 
HETATM    6  C11 UNL     1      13.332  19.925  15.414  1.00  0.00     0.054 C 
HETATM    7  C16 UNL     1      14.820  21.519  14.306  1.00  0.00     0.131 A 
HETATM    8  S1  UNL     1      14.116  22.890  14.732  1.00  0.00    -0.058 SA
ENDROOT
BRANCH   1   9
HETATM    9  C2  UNL     1      16.697  22.325  12.732  1.00  0.00     0.235 C 
HETATM   10  C1  UNL     1      17.880  21.735  12.056  1.00  0.00     0.255 C 
HETATM   11  O1  UNL     1      18.980  21.758  12.623  1.00  0.00    -0.270 OA
HETATM   12  N3  UNL     1      17.782  21.144  10.769  1.00  0.00    -0.297 N 
HETATM   13  C23 UNL     1      16.457  21.007  10.205  1.00  0.00     0.172 C 
HETATM   14  C22 UNL     1      15.711  22.259  10.430  1.00  0.00    -0.031 A 
HETATM   15  C17 UNL     1      15.812  22.906  11.645  1.00  0.00    -0.017 A 
HETATM   16  C21 UNL     1      14.894  22.792   9.425  1.00  0.00     0.009 A 
HETATM   17  C18 UNL     1      15.095  24.062  11.819  1.00  0.00     0.010 A 
HETATM   18  C19 UNL     1      14.291  24.590  10.833  1.00  0.00     0.001 A 
HETATM   19  C20 UNL     1      14.182  23.953   9.615  1.00  0.00     0.001 A 
BRANCH  12  20
HETATM   20  C24 UNL     1      18.885  20.687  10.010  1.00  0.00     0.110 A 
HETATM   21  C25 UNL     1      18.887  20.896   8.646  1.00  0.00     0.049 A 
HETATM   22  C26 UNL     1      19.940  20.461   7.870  1.00  0.00     0.005 A 
HETATM   23  C27 UNL     1      20.973  19.819   8.524  1.00  0.00     0.017 A 
HETATM   24  C28 UNL     1      20.972  19.609   9.886  1.00  0.00     0.089 A 
HETATM   25  N4  UNL     1      19.935  20.045  10.596  1.00  0.00    -0.352 N 
ATOM     26  H4  UNL     1      19.926  19.895  11.606  1.00  0.00     0.166 HD
ENDBRANCH  12  20
ENDBRANCH   1   9
BRANCH   4  27
HETATM   27  C4  UNL     1      15.565  17.825  14.060  1.00  0.00    -0.007 A 
HETATM   28  C5  UNL     1      14.709  16.905  13.565  1.00  0.00     0.014 A 
HETATM   29  C6  UNL     1      15.020  15.535  13.464  1.00  0.00     0.001 A 
HETATM   30  C7  UNL     1      16.239  15.063  13.880  1.00  0.00     0.000 A 
HETATM   31  C8  UNL     1      17.123  15.977  14.389  1.00  0.00     0.001 A 
HETATM   32  C9  UNL     1      16.810  17.307  14.480  1.00  0.00     0.014 A 
ENDBRANCH   4  27
BRANCH   6  33
HETATM   33  C12 UNL     1      12.573  18.763  15.793  1.00  0.00     0.075 A 
HETATM   34  C13 UNL     1      12.954  17.845  16.799  1.00  0.00     0.039 A 
HETATM   35  C14 UNL     1      11.995  16.871  16.896  1.00  0.00     0.027 A 
HETATM   36  C15 UNL     1      11.053  17.214  15.950  1.00  0.00     0.142 A 
HETATM   37  O2  UNL     1      11.432  18.298  15.353  1.00  0.00    -0.323 OA
ENDBRANCH   6  33
TORSDOF 4
ENDMDL
MODEL 3
REMARK VINA RESULT: -9.609682542      2.965      6.195
REMARK  4 active torsions:
REMARK  status: ('A' for Active; 'I' for Inactive)
REMARK    1  A    between atoms: C2_3  and  N1_4 
REMARK    2  A    between atoms: C3_7  and  C4_8 
REMARK    3  A    between atoms: C11_15  and  C12_16 
REMARK    4  A    between atoms: N3_30  and  C24_31 
ROOT
HETATM    1  N1  UNL     1      14.529  23.047  13.093  1.00  0.00    -0.262 N 
HETATM    2  N2  UNL     1      14.861  21.784  13.489  1.00  0.00    -0.295 N 
ATOM      3  H2  UNL     1      14.362  21.286  14.226  1.00  0.00     0.187 HD
HETATM    4  C3  UNL     1      15.869  21.266  12.846  1.00  0.00     0.072 A 
HETATM    5  C10 UNL     1      16.341  22.226  11.899  1.00  0.00     0.035 A 
HETATM    6  C11 UNL     1      17.380  22.299  11.144  1.00  0.00     0.054 C 
HETATM    7  C16 UNL     1      15.415  23.414  12.083  1.00  0.00     0.131 A 
HETATM    8  S1  UNL     1      15.471  24.792  11.274  1.00  0.00    -0.058 SA
ENDROOT
BRANCH   1   9
HETATM    9  C2  UNL     1      13.440  23.798  13.697  1.00  0.00     0.235 C 
HETATM   10  C1  UNL     1      12.618  22.980  14.623  1.00  0.00     0.255 C 
HETATM   11  O1  UNL     1      11.583  22.444  14.206  1.00  0.00    -0.270 OA
HETATM   12  N3  UNL     1      12.988  22.797  15.981  1.00  0.00    -0.297 N 
HETATM   13  C23 UNL     1      14.274  23.317  16.390  1.00  0.00     0.172 C 
HETATM   14  C22 UNL     1      14.446  24.666  15.822  1.00  0.00    -0.031 A 
HETATM   15  C17 UNL     1      14.054  24.915  14.521  1.00  0.00    -0.017 A 
HETATM   16  C21 UNL     1      15.012  25.695  16.584  1.00  0.00     0.009 A 
HETATM   17  C18 UNL     1      14.239  26.180  14.025  1.00  0.00     0.010 A 
HETATM   18  C19 UNL     1      14.796  27.194  14.772  1.00  0.00     0.001 A 
HETATM   19  C20 UNL     1      15.192  26.958  16.072  1.00  0.00     0.001 A 
BRANCH  12  20
HETATM   20  C24 UNL     1      12.187  22.147  16.950  1.00  0.00     0.110 A 
HETATM   21  C25 UNL     1      12.772  21.211  17.779  1.00  0.00     0.049 A 
HETATM   22  C26 UNL     1      12.026  20.552  18.731  1.00  0.00     0.005 A 
HETATM   23  C27 UNL     1      10.686  20.877  18.809  1.00  0.00     0.017 A 
HETATM   24  C28 UNL     1      10.100  21.810  17.983  1.00  0.00     0.089 A 
HETATM   25  N4  UNL     1      10.858  22.423  17.076  1.00  0.00    -0.352 N 
ATOM     26  H4  UNL     1      10.433  23.116  16.460  1.00  0.00     0.166 HD
ENDBRANCH  12  20
ENDBRANCH   1   9
BRANCH   4  27
HETATM   27  C4  UNL     1      16.273  19.918  13.226  1.00  0.00    -0.007 A 
HETATM   28  C5  UNL     1      17.367  19.585  13.943  1.00  0.00     0.014 A 
HETATM   29  C6  UNL     1      17.646  18.270  14.364  1.00  0.00     0.001 A 
HETATM   30  C7  UNL     1      16.793  17.242  14.052  1.00  0.00     0.000 A 
HETATM   31  C8  UNL     1      15.677  17.555  13.322  1.00  0.00     0.001 A 
HETATM   32  C9  UNL     1      15.416  18.837  12.920  1.00  0.00     0.014 A 
ENDBRANCH   4  27
BRANCH   6  33
HETATM   33  C12 UNL     1      18.534  21.470  10.921  1.00  0.00     0.075 A 
HETATM   34  C13 UNL     1      19.808  21.693  11.492  1.00  0.00     0.039 A 
HETATM   35  C14 UNL     1      20.661  20.707  11.070  1.00  0.00     0.027 A 
HETATM   36  C15 UNL     1      19.891  19.906  10.252  1.00  0.00     0.142 A 
HETATM   37  O2  UNL     1      18.690  20.387  10.204  1.00  0.00    -0.323 OA
ENDBRANCH   6  33
TORSDOF 4
ENDMDL
MODEL 4
REMARK VINA RESULT: -9.543419874      3.614      7.815
REMARK  4 active torsions:
REMARK  status: ('A' for Active; 'I' for Inactive)
REMARK    1  A    between atoms: C2_3  and  N1_4 
REMARK    2  A    between atoms: C3_7  and  C4_8 
REMARK    3  A    between atoms: C11_15  and  C12_16 
REMARK    4  A    between atoms: N3_30  and  C24_31 
ROOT
HETATM    1  N1  UNL     1      13.872  18.346  15.324  1.00  0.00    -0.262 N 
HETATM    2  N2  UNL     1      13.820  19.696  15.132  1.00  0.00    -0.295 N 
ATOM      3  H2  UNL     1      13.167  20.301  15.632  1.00  0.00     0.187 HD
HETATM    4  C3  UNL     1      14.673  20.149  14.258  1.00  0.00     0.072 A 
HETATM    5  C10 UNL     1      15.418  19.045  13.741  1.00  0.00     0.035 A 
HETATM    6  C11 UNL     1      16.246  18.905  12.767  1.00  0.00     0.054 C 
HETATM    7  C16 UNL     1      14.862  17.843  14.482  1.00  0.00     0.131 A 
HETATM    8  S1  UNL     1      15.330  16.324  14.309  1.00  0.00    -0.058 SA
ENDROOT
BRANCH   1   9
HETATM    9  C2  UNL     1      12.993  17.650  16.249  1.00  0.00     0.235 C 
HETATM   10  C1  UNL     1      12.288  18.569  17.178  1.00  0.00     0.255 C 
HETATM   11  O1  UNL     1      12.763  18.783  18.300  1.00  0.00    -0.270 OA
HETATM   12  N3  UNL     1      11.075  19.209  16.811  1.00  0.00    -0.297 N 
HETATM   13  C23 UNL     1      10.631  19.047  15.444  1.00  0.00     0.172 C 
HETATM   14  C22 UNL     1      10.791  17.634  15.054  1.00  0.00    -0.031 A 
HETATM   15  C17 UNL     1      11.927  16.945  15.431  1.00  0.00    -0.017 A 
HETATM   16  C21 UNL     1       9.806  16.987  14.298  1.00  0.00     0.009 A 
HETATM   17  C18 UNL     1      12.044  15.636  15.041  1.00  0.00     0.010 A 
HETATM   18  C19 UNL     1      11.077  14.996  14.298  1.00  0.00     0.001 A 
HETATM   19  C20 UNL     1       9.938  15.673  13.915  1.00  0.00     0.001 A 
BRANCH  12  20
HETATM   20  C24 UNL     1      10.281  19.986  17.688  1.00  0.00     0.110 A 
HETATM   21  C25 UNL     1       9.626  21.093  17.188  1.00  0.00     0.049 A 
HETATM   22  C26 UNL     1       8.847  21.879  18.009  1.00  0.00     0.005 A 
HETATM   23  C27 UNL     1       8.760  21.501  19.334  1.00  0.00     0.017 A 
HETATM   24  C28 UNL     1       9.413  20.396  19.835  1.00  0.00     0.089 A 
HETATM   25  N4  UNL     1      10.155  19.665  19.006  1.00  0.00    -0.352 N 
ATOM     26  H4  UNL     1      10.642  18.844  19.367  1.00  0.00     0.166 HD
ENDBRANCH  12  20
ENDBRANCH   1   9
BRANCH   4  27
HETATM   27  C4  UNL     1      14.664  21.585  14.009  1.00  0.00    -0.007 A 
HETATM   28  C5  UNL     1      15.632  22.461  14.353  1.00  0.00     0.014 A 
HETATM   29  C6  UNL     1      15.608  23.822  13.992  1.00  0.00     0.001 A 
HETATM   30  C7  UNL     1      14.568  24.331  13.256  1.00  0.00     0.000 A 
HETATM   31  C8  UNL     1      13.572  23.461  12.897  1.00  0.00     0.001 A 
HETATM   32  C9  UNL     1      13.608  22.140  13.253  1.00  0.00     0.014 A 
ENDBRANCH   4  27
BRANCH   6  33
HETATM   33  C12 UNL     1      16.782  19.776  11.756  1.00  0.00     0.075 A 
HETATM   34  C13 UNL     1      16.006  20.495  10.818  1.00  0.00     0.039 A 
HETATM   35  C14 UNL     1      16.843  21.226  10.017  1.00  0.00     0.027 A 
HETATM   36  C15 UNL     1      18.110  20.938  10.482  1.00  0.00     0.142 A 
HETATM   37  O2  UNL     1      18.015  20.109  11.472  1.00  0.00    -0.323 OA
ENDBRANCH   6  33
TORSDOF 4
ENDMDL
MODEL 5
REMARK VINA RESULT: -9.452171606      3.067      4.915
REMARK  4 active torsions:
REMARK  status: ('A' for Active; 'I' for Inactive)
REMARK    1  A    between atoms: C2_3  and  N1_4 
REMARK    2  A    between atoms: C3_7  and  C4_8 
REMARK    3  A    between atoms: C11_15  and  C12_16 
REMARK    4  A    between atoms: N3_30  and  C24_31 
ROOT
HETATM    1  N1  UNL     1      13.431  22.082  14.029  1.00  0.00    -0.262 N 
HETATM    2  N2  UNL     1      12.342  22.289  14.824  1.00  0.00    -0.295 N 
ATOM      3  H2  UNL     1      11.802  23.155  14.808  1.00  0.00     0.187 HD
HETATM    4  C3  UNL     1      12.047  21.288  15.604  1.00  0.00     0.072 A 
HETATM    5  C10 UNL     1      13.003  20.250  15.386  1.00  0.00     0.035 A 
HETATM    6  C11 UNL     1      13.274  19.144  15.986  1.00  0.00     0.054 C 
HETATM    7  C16 UNL     1      13.920  20.809  14.314  1.00  0.00     0.131 A 
HETATM    8  S1  UNL     1      15.183  20.071  13.668  1.00  0.00    -0.058 SA
ENDROOT
BRANCH   1   9
HETATM    9  C2  UNL     1      13.925  23.083  13.098  1.00  0.00     0.235 C 
HETATM   10  C1  UNL     1      13.731  24.472  13.586  1.00  0.00     0.255 C 
HETATM   11  O1  UNL     1      12.731  25.108  13.232  1.00  0.00    -0.270 OA
HETATM   12  N3  UNL     1      14.670  25.093  14.451  1.00  0.00    -0.297 N 
HETATM   13  C23 UNL     1      15.747  24.270  14.957  1.00  0.00     0.172 C 
HETATM   14  C22 UNL     1      16.286  23.457  13.851  1.00  0.00    -0.031 A 
HETATM   15  C17 UNL     1      15.421  22.873  12.947  1.00  0.00    -0.017 A 
HETATM   16  C21 UNL     1      17.666  23.265  13.714  1.00  0.00     0.009 A 
HETATM   17  C18 UNL     1      15.960  22.117  11.938  1.00  0.00     0.010 A 
HETATM   18  C19 UNL     1      17.317  21.926  11.801  1.00  0.00     0.001 A 
HETATM   19  C20 UNL     1      18.191  22.504  12.697  1.00  0.00     0.001 A 
BRANCH  12  20
HETATM   20  C24 UNL     1      14.621  26.451  14.846  1.00  0.00     0.110 A 
HETATM   21  C25 UNL     1      14.987  26.784  16.134  1.00  0.00     0.049 A 
HETATM   22  C26 UNL     1      14.947  28.094  16.560  1.00  0.00     0.005 A 
HETATM   23  C27 UNL     1      14.531  29.036  15.640  1.00  0.00     0.017 A 
HETATM   24  C28 UNL     1      14.166  28.706  14.353  1.00  0.00     0.089 A 
HETATM   25  N4  UNL     1      14.218  27.428  13.985  1.00  0.00    -0.352 N 
ATOM     26  H4  UNL     1      13.950  27.173  13.034  1.00  0.00     0.166 HD
ENDBRANCH  12  20
ENDBRANCH   1   9
BRANCH   4  27
HETATM   27  C4  UNL     1      10.893  21.451  16.479  1.00  0.00    -0.007 A 
HETATM   28  C5  UNL     1      10.564  22.566  17.167  1.00  0.00     0.014 A 
HETATM   29  C6  UNL     1       9.377  22.691  17.915  1.00  0.00     0.001 A 
HETATM   30  C7  UNL     1       8.482  21.654  17.982  1.00  0.00     0.000 A 
HETATM   31  C8  UNL     1       8.795  20.512  17.295  1.00  0.00     0.001 A 
HETATM   32  C9  UNL     1       9.951  20.403  16.569  1.00  0.00     0.014 A 
ENDBRANCH   4  27
BRANCH   6  33
HETATM   33  C12 UNL     1      12.757  18.465  17.144  1.00  0.00     0.075 A 
HETATM   34  C13 UNL     1      12.857  18.944  18.470  1.00  0.00     0.039 A 
HETATM   35  C14 UNL     1      12.251  18.048  19.312  1.00  0.00     0.027 A 
HETATM   36  C15 UNL     1      11.796  17.044  18.483  1.00  0.00     0.142 A 
HETATM   37  O2  UNL     1      12.111  17.334  17.261  1.00  0.00    -0.323 OA
ENDBRANCH   6  33
TORSDOF 4
ENDMDL
