MODEL 1
REMARK VINA RESULT: -7.654999994      0.000      0.000
REMARK  12 active torsions:
REMARK  status: ('A' for Active; 'I' for Inactive)
REMARK    1  A    between atoms: N1_1  and  C1_5 
REMARK    2  A    between atoms: C1_5  and  C2_6 
REMARK    3  A    between atoms: C2_6  and  C3_7 
REMARK    4  A    between atoms: C3_7  and  C4_8 
REMARK    5  A    between atoms: C4_8  and  C5_9 
REMARK    6  A    between atoms: C5_9  and  C6_10 
REMARK    7  A    between atoms: C10_15  and  C11_16 
REMARK    8  A    between atoms: C11_16  and  C12_17 
REMARK    9  A    between atoms: C14_22  and  C15_23 
REMARK   10  A    between atoms: C15_23  and  N3_24 
REMARK   11  A    between atoms: N3_24  and  S1_26 
REMARK   12  A    between atoms: S1_26  and  N4_27 
ROOT
HETATM    1  C12 UNL     1      18.944  45.128  43.971  1.00  0.00     0.111 C 
HETATM    2  C13 UNL     1      19.141  45.082  45.462  1.00  0.00     0.258 C 
HETATM    3  N2  UNL     1      20.477  44.664  45.865  1.00  0.00    -0.062 N 
ATOM      4  H21 UNL     1      20.657  43.687  45.633  1.00  0.00     0.278 HD
ATOM      5  H22 UNL     1      20.565  44.597  46.879  1.00  0.00     0.278 HD
HETATM    6  C14 UNL     1      21.488  45.561  45.285  1.00  0.00     0.254 C 
HETATM    7  C16 UNL     1      21.391  45.312  43.823  1.00  0.00     0.048 C 
HETATM    8  C17 UNL     1      22.399  45.618  43.043  1.00  0.00    -0.012 A 
HETATM    9  C18 UNL     1      22.529  45.465  41.599  1.00  0.00     0.013 A 
HETATM   10  C19 UNL     1      23.711  45.897  41.249  1.00  0.00     0.001 A 
HETATM   11  C20 UNL     1      24.443  46.362  42.421  1.00  0.00     0.001 A 
HETATM   12  C21 UNL     1      23.652  46.192  43.492  1.00  0.00     0.013 A 
HETATM   13  N5  UNL     1      20.185  44.732  43.358  1.00  0.00    -0.384 N 
ATOM     14  H5  UNL     1      20.196  44.047  42.602  1.00  0.00     0.160 HD
ENDROOT
BRANCH   1  15
HETATM   15  C11 UNL     1      17.893  44.166  43.488  1.00  0.00     0.065 C 
BRANCH  15  16
HETATM   16  C10 UNL     1      17.276  44.485  42.188  1.00  0.00    -0.054 A 
HETATM   17  C9  UNL     1      16.808  43.540  41.309  1.00  0.00     0.026 A 
HETATM   18  C8  UNL     1      16.211  43.887  40.088  1.00  0.00     0.012 A 
HETATM   19  C7  UNL     1      16.075  45.199  39.733  1.00  0.00     0.026 A 
HETATM   20 BR1  UNL     1      15.600  42.463  38.952  1.00  0.00    -0.051 Br
HETATM   21  C6  UNL     1      16.529  46.172  40.581  1.00  0.00    -0.056 A 
HETATM   22  C22 UNL     1      17.119  45.820  41.790  1.00  0.00     0.014 A 
BRANCH  21  23
HETATM   23  C5  UNL     1      16.441  47.627  40.296  1.00  0.00     0.038 C 
BRANCH  23  24
HETATM   24  C4  UNL     1      15.197  48.063  39.628  1.00  0.00     0.005 C 
BRANCH  24  25
HETATM   25  C3  UNL     1      13.950  48.008  40.425  1.00  0.00     0.002 C 
BRANCH  25  26
HETATM   26  C2  UNL     1      12.733  47.576  39.700  1.00  0.00     0.027 C 
BRANCH  26  27
HETATM   27  C1  UNL     1      12.897  47.791  38.208  1.00  0.00     0.229 C 
BRANCH  27  28
HETATM   28  N1  UNL     1      11.588  47.711  37.592  1.00  0.00    -0.079 N 
ATOM     29  H13 UNL     1      11.633  47.685  36.574  1.00  0.00     0.274 HD
ATOM     30  H12 UNL     1      11.141  46.805  37.733  1.00  0.00     0.274 HD
ATOM     31  H11 UNL     1      11.024  48.486  37.942  1.00  0.00     0.274 HD
ENDBRANCH  27  28
ENDBRANCH  26  27
ENDBRANCH  25  26
ENDBRANCH  24  25
ENDBRANCH  23  24
ENDBRANCH  21  23
ENDBRANCH  15  16
ENDBRANCH   1  15
BRANCH   6  32
HETATM   32  C15 UNL     1      21.158  47.010  45.524  1.00  0.00     0.173 C 
BRANCH  32  33
HETATM   33  N3  UNL     1      22.190  47.668  46.301  1.00  0.00    -0.301 N 
ATOM     34  H3  UNL     1      22.538  47.321  47.195  1.00  0.00     0.173 HD
BRANCH  33  35
HETATM   35  S1  UNL     1      22.756  49.091  45.544  1.00  0.00     0.312 S 
HETATM   36  O1  UNL     1      24.235  48.948  45.315  1.00  0.00    -0.183 OA
HETATM   37  O2  UNL     1      22.529  50.303  46.407  1.00  0.00    -0.183 OA
BRANCH  35  38
HETATM   38  N4  UNL     1      21.917  49.384  44.051  1.00  0.00    -0.312 N 
ATOM     39  H42 UNL     1      21.116  48.835  43.737  1.00  0.00     0.170 HD
ATOM     40  H41 UNL     1      22.330  50.168  43.544  1.00  0.00     0.170 HD
ENDBRANCH  35  38
ENDBRANCH  33  35
ENDBRANCH  32  33
ENDBRANCH   6  32
TORSDOF 12
ENDMDL
MODEL 2
REMARK VINA RESULT: -7.554910116      3.815      6.082
REMARK  12 active torsions:
REMARK  status: ('A' for Active; 'I' for Inactive)
REMARK    1  A    between atoms: N1_1  and  C1_5 
REMARK    2  A    between atoms: C1_5  and  C2_6 
REMARK    3  A    between atoms: C2_6  and  C3_7 
REMARK    4  A    between atoms: C3_7  and  C4_8 
REMARK    5  A    between atoms: C4_8  and  C5_9 
REMARK    6  A    between atoms: C5_9  and  C6_10 
REMARK    7  A    between atoms: C10_15  and  C11_16 
REMARK    8  A    between atoms: C11_16  and  C12_17 
REMARK    9  A    between atoms: C14_22  and  C15_23 
REMARK   10  A    between atoms: C15_23  and  N3_24 
REMARK   11  A    between atoms: N3_24  and  S1_26 
REMARK   12  A    between atoms: S1_26  and  N4_27 
ROOT
HETATM    1  C12 UNL     1      23.967  48.401  43.969  1.00  0.00     0.111 C 
HETATM    2  C13 UNL     1      23.077  49.421  43.311  1.00  0.00     0.258 C 
HETATM    3  N2  UNL     1      21.996  49.895  44.165  1.00  0.00    -0.062 N 
ATOM      4  H21 UNL     1      21.314  49.162  44.359  1.00  0.00     0.278 HD
ATOM      5  H22 UNL     1      21.383  50.548  43.677  1.00  0.00     0.278 HD
HETATM    6  C14 UNL     1      22.542  50.476  45.401  1.00  0.00     0.254 C 
HETATM    7  C16 UNL     1      23.156  49.318  46.102  1.00  0.00     0.048 C 
HETATM    8  C17 UNL     1      23.366  49.375  47.394  1.00  0.00    -0.012 A 
HETATM    9  C18 UNL     1      23.948  48.375  48.281  1.00  0.00     0.013 A 
HETATM   10  C19 UNL     1      23.956  48.862  49.493  1.00  0.00     0.001 A 
HETATM   11  C20 UNL     1      23.387  50.204  49.499  1.00  0.00     0.001 A 
HETATM   12  C21 UNL     1      23.036  50.506  48.239  1.00  0.00     0.013 A 
HETATM   13  N5  UNL     1      23.470  48.190  45.304  1.00  0.00    -0.384 N 
ATOM     14  H5  UNL     1      23.348  47.245  45.669  1.00  0.00     0.160 HD
ENDROOT
BRANCH   1  15
HETATM   15  C11 UNL     1      23.941  47.066  43.277  1.00  0.00     0.065 C 
BRANCH  15  16
HETATM   16  C10 UNL     1      22.838  46.164  43.658  1.00  0.00    -0.054 A 
HETATM   17  C9  UNL     1      22.984  45.087  44.496  1.00  0.00     0.026 A 
HETATM   18  C8  UNL     1      21.904  44.264  44.847  1.00  0.00     0.012 A 
HETATM   19  C7  UNL     1      20.654  44.515  44.357  1.00  0.00     0.026 A 
HETATM   20 BR1  UNL     1      22.249  42.789  46.030  1.00  0.00    -0.051 Br
HETATM   21  C6  UNL     1      20.467  45.580  43.518  1.00  0.00    -0.056 A 
HETATM   22  C22 UNL     1      21.543  46.391  43.175  1.00  0.00     0.014 A 
BRANCH  21  23
HETATM   23  C5  UNL     1      19.157  45.943  42.919  1.00  0.00     0.038 C 
BRANCH  23  24
HETATM   24  C4  UNL     1      18.112  44.902  43.013  1.00  0.00     0.005 C 
BRANCH  24  25
HETATM   25  C3  UNL     1      17.437  44.510  41.755  1.00  0.00     0.002 C 
BRANCH  25  26
HETATM   26  C2  UNL     1      16.675  45.576  41.065  1.00  0.00     0.027 C 
BRANCH  26  27
HETATM   27  C1  UNL     1      15.206  45.507  41.437  1.00  0.00     0.229 C 
BRANCH  27  28
HETATM   28  N1  UNL     1      14.830  44.111  41.533  1.00  0.00    -0.079 N 
ATOM     29  H13 UNL     1      14.037  43.876  40.937  1.00  0.00     0.274 HD
ATOM     30  H12 UNL     1      15.514  43.488  41.104  1.00  0.00     0.274 HD
ATOM     31  H11 UNL     1      14.661  43.893  42.515  1.00  0.00     0.274 HD
ENDBRANCH  27  28
ENDBRANCH  26  27
ENDBRANCH  25  26
ENDBRANCH  24  25
ENDBRANCH  23  24
ENDBRANCH  21  23
ENDBRANCH  15  16
ENDBRANCH   1  15
BRANCH   6  32
HETATM   32  C15 UNL     1      23.636  51.471  45.120  1.00  0.00     0.173 C 
BRANCH  32  33
HETATM   33  N3  UNL     1      23.339  52.765  45.703  1.00  0.00    -0.301 N 
ATOM     34  H3  UNL     1      22.394  53.127  45.834  1.00  0.00     0.173 HD
BRANCH  33  35
HETATM   35  S1  UNL     1      24.755  53.610  46.146  1.00  0.00     0.312 S 
HETATM   36  O1  UNL     1      25.773  53.431  45.054  1.00  0.00    -0.183 OA
HETATM   37  O2  UNL     1      25.340  53.075  47.425  1.00  0.00    -0.183 OA
BRANCH  35  38
HETATM   38  N4  UNL     1      24.422  55.293  46.422  1.00  0.00    -0.312 N 
ATOM     39  H42 UNL     1      23.972  55.899  45.735  1.00  0.00     0.170 HD
ATOM     40  H41 UNL     1      24.734  55.583  47.349  1.00  0.00     0.170 HD
ENDBRANCH  35  38
ENDBRANCH  33  35
ENDBRANCH  32  33
ENDBRANCH   6  32
TORSDOF 12
ENDMDL
MODEL 3
REMARK VINA RESULT: -7.443297402      4.675      7.699
REMARK  12 active torsions:
REMARK  status: ('A' for Active; 'I' for Inactive)
REMARK    1  A    between atoms: N1_1  and  C1_5 
REMARK    2  A    between atoms: C1_5  and  C2_6 
REMARK    3  A    between atoms: C2_6  and  C3_7 
REMARK    4  A    between atoms: C3_7  and  C4_8 
REMARK    5  A    between atoms: C4_8  and  C5_9 
REMARK    6  A    between atoms: C5_9  and  C6_10 
REMARK    7  A    between atoms: C10_15  and  C11_16 
REMARK    8  A    between atoms: C11_16  and  C12_17 
REMARK    9  A    between atoms: C14_22  and  C15_23 
REMARK   10  A    between atoms: C15_23  and  N3_24 
REMARK   11  A    between atoms: N3_24  and  S1_26 
REMARK   12  A    between atoms: S1_26  and  N4_27 
ROOT
HETATM    1  C12 UNL     1      23.324  49.076  44.176  1.00  0.00     0.111 C 
HETATM    2  C13 UNL     1      22.651  50.329  43.685  1.00  0.00     0.258 C 
HETATM    3  N2  UNL     1      21.795  50.964  44.679  1.00  0.00    -0.062 N 
ATOM      4  H21 UNL     1      20.976  50.396  44.895  1.00  0.00     0.278 HD
ATOM      5  H22 UNL     1      21.317  51.783  44.302  1.00  0.00     0.278 HD
HETATM    6  C14 UNL     1      22.571  51.290  45.885  1.00  0.00     0.254 C 
HETATM    7  C16 UNL     1      22.947  49.963  46.439  1.00  0.00     0.048 C 
HETATM    8  C17 UNL     1      23.277  49.855  47.702  1.00  0.00    -0.012 A 
HETATM    9  C18 UNL     1      23.676  48.672  48.455  1.00  0.00     0.013 A 
HETATM   10  C19 UNL     1      23.907  49.034  49.689  1.00  0.00     0.001 A 
HETATM   11  C20 UNL     1      23.681  50.466  49.843  1.00  0.00     0.001 A 
HETATM   12  C21 UNL     1      23.304  50.952  48.650  1.00  0.00     0.013 A 
HETATM   13  N5  UNL     1      22.909  48.868  45.540  1.00  0.00    -0.384 N 
ATOM     14  H5  UNL     1      22.595  47.950  45.853  1.00  0.00     0.160 HD
ENDROOT
BRANCH   1  15
HETATM   15  C11 UNL     1      22.917  47.851  43.406  1.00  0.00     0.065 C 
BRANCH  15  16
HETATM   16  C10 UNL     1      23.498  46.577  43.867  1.00  0.00    -0.054 A 
HETATM   17  C9  UNL     1      24.846  46.350  43.991  1.00  0.00     0.026 A 
HETATM   18  C8  UNL     1      25.358  45.127  44.451  1.00  0.00     0.012 A 
HETATM   19  C7  UNL     1      24.514  44.110  44.796  1.00  0.00     0.026 A 
HETATM   20 BR1  UNL     1      27.267  44.945  44.575  1.00  0.00    -0.051 Br
HETATM   21  C6  UNL     1      23.163  44.296  44.686  1.00  0.00    -0.056 A 
HETATM   22  C22 UNL     1      22.664  45.511  44.230  1.00  0.00     0.014 A 
BRANCH  21  23
HETATM   23  C5  UNL     1      22.154  43.260  45.024  1.00  0.00     0.038 C 
BRANCH  23  24
HETATM   24  C4  UNL     1      20.877  43.777  45.559  1.00  0.00     0.005 C 
BRANCH  24  25
HETATM   25  C3  UNL     1      19.653  43.493  44.774  1.00  0.00     0.002 C 
BRANCH  25  26
HETATM   26  C2  UNL     1      19.281  44.505  43.759  1.00  0.00     0.027 C 
BRANCH  26  27
HETATM   27  C1  UNL     1      17.844  44.310  43.314  1.00  0.00     0.229 C 
BRANCH  27  28
HETATM   28  N1  UNL     1      17.138  43.605  44.365  1.00  0.00    -0.079 N 
ATOM     29  H13 UNL     1      17.748  43.333  45.135  1.00  0.00     0.274 HD
ATOM     30  H12 UNL     1      16.512  44.212  44.894  1.00  0.00     0.274 HD
ATOM     31  H11 UNL     1      16.654  42.811  43.947  1.00  0.00     0.274 HD
ENDBRANCH  27  28
ENDBRANCH  26  27
ENDBRANCH  25  26
ENDBRANCH  24  25
ENDBRANCH  23  24
ENDBRANCH  21  23
ENDBRANCH  15  16
ENDBRANCH   1  15
BRANCH   6  32
HETATM   32  C15 UNL     1      23.843  52.023  45.555  1.00  0.00     0.173 C 
BRANCH  32  33
HETATM   33  N3  UNL     1      23.759  53.423  45.923  1.00  0.00    -0.301 N 
ATOM     34  H3  UNL     1      22.881  53.923  46.067  1.00  0.00     0.173 HD
BRANCH  33  35
HETATM   35  S1  UNL     1      25.301  54.138  46.088  1.00  0.00     0.312 S 
HETATM   36  O1  UNL     1      25.175  55.607  45.791  1.00  0.00    -0.183 OA
HETATM   37  O2  UNL     1      26.290  53.547  45.119  1.00  0.00    -0.183 OA
BRANCH  35  38
HETATM   38  N4  UNL     1      25.949  53.875  47.678  1.00  0.00    -0.312 N 
ATOM     39  H42 UNL     1      25.811  53.013  48.207  1.00  0.00     0.170 HD
ATOM     40  H41 UNL     1      26.477  54.687  48.000  1.00  0.00     0.170 HD
ENDBRANCH  35  38
ENDBRANCH  33  35
ENDBRANCH  32  33
ENDBRANCH   6  32
TORSDOF 12
ENDMDL
MODEL 4
REMARK VINA RESULT: -7.368001946      4.123      6.529
REMARK  12 active torsions:
REMARK  status: ('A' for Active; 'I' for Inactive)
REMARK    1  A    between atoms: N1_1  and  C1_5 
REMARK    2  A    between atoms: C1_5  and  C2_6 
REMARK    3  A    between atoms: C2_6  and  C3_7 
REMARK    4  A    between atoms: C3_7  and  C4_8 
REMARK    5  A    between atoms: C4_8  and  C5_9 
REMARK    6  A    between atoms: C5_9  and  C6_10 
REMARK    7  A    between atoms: C10_15  and  C11_16 
REMARK    8  A    between atoms: C11_16  and  C12_17 
REMARK    9  A    between atoms: C14_22  and  C15_23 
REMARK   10  A    between atoms: C15_23  and  N3_24 
REMARK   11  A    between atoms: N3_24  and  S1_26 
REMARK   12  A    between atoms: S1_26  and  N4_27 
ROOT
HETATM    1  C12 UNL     1      23.558  49.440  43.779  1.00  0.00     0.111 C 
HETATM    2  C13 UNL     1      22.662  50.606  43.458  1.00  0.00     0.258 C 
HETATM    3  N2  UNL     1      21.686  50.900  44.499  1.00  0.00    -0.062 N 
ATOM      4  H21 UNL     1      20.990  50.160  44.588  1.00  0.00     0.278 HD
ATOM      5  H22 UNL     1      21.063  51.662  44.232  1.00  0.00     0.278 HD
HETATM    6  C14 UNL     1      22.367  51.168  45.774  1.00  0.00     0.254 C 
HETATM    7  C16 UNL     1      22.986  49.865  46.133  1.00  0.00     0.048 C 
HETATM    8  C17 UNL     1      23.314  49.621  47.377  1.00  0.00    -0.012 A 
HETATM    9  C18 UNL     1      23.924  48.430  47.955  1.00  0.00     0.013 A 
HETATM   10  C19 UNL     1      24.064  48.626  49.239  1.00  0.00     0.001 A 
HETATM   11  C20 UNL     1      23.562  49.946  49.603  1.00  0.00     0.001 A 
HETATM   12  C21 UNL     1      23.114  50.536  48.483  1.00  0.00     0.013 A 
HETATM   13  N5  UNL     1      23.174  48.942  45.074  1.00  0.00    -0.384 N 
ATOM     14  H5  UNL     1      23.040  47.943  45.228  1.00  0.00     0.160 HD
ENDROOT
BRANCH   1  15
HETATM   15  C11 UNL     1      23.408  48.300  42.811  1.00  0.00     0.065 C 
BRANCH  15  16
HETATM   16  C10 UNL     1      22.744  47.092  43.336  1.00  0.00    -0.054 A 
HETATM   17  C9  UNL     1      23.414  46.025  43.880  1.00  0.00     0.026 A 
HETATM   18  C8  UNL     1      22.743  44.901  44.385  1.00  0.00     0.012 A 
HETATM   19  C7  UNL     1      21.379  44.836  44.349  1.00  0.00     0.026 A 
HETATM   20 BR1  UNL     1      23.805  43.478  45.119  1.00  0.00    -0.051 Br
HETATM   21  C6  UNL     1      20.673  45.879  43.814  1.00  0.00    -0.056 A 
HETATM   22  C22 UNL     1      21.346  46.990  43.316  1.00  0.00     0.014 A 
BRANCH  21  23
HETATM   23  C5  UNL     1      19.192  45.915  43.715  1.00  0.00     0.038 C 
BRANCH  23  24
HETATM   24  C4  UNL     1      18.520  44.608  43.874  1.00  0.00     0.005 C 
BRANCH  24  25
HETATM   25  C3  UNL     1      17.669  44.147  42.753  1.00  0.00     0.002 C 
BRANCH  25  26
HETATM   26  C2  UNL     1      17.429  45.130  41.671  1.00  0.00     0.027 C 
BRANCH  26  27
HETATM   27  C1  UNL     1      15.948  45.229  41.360  1.00  0.00     0.229 C 
BRANCH  27  28
HETATM   28  N1  UNL     1      15.324  43.975  41.733  1.00  0.00    -0.079 N 
ATOM     29  H13 UNL     1      14.452  43.807  41.233  1.00  0.00     0.274 HD
ATOM     30  H12 UNL     1      15.837  43.163  41.392  1.00  0.00     0.274 HD
ATOM     31  H11 UNL     1      15.204  43.968  42.746  1.00  0.00     0.274 HD
ENDBRANCH  27  28
ENDBRANCH  26  27
ENDBRANCH  25  26
ENDBRANCH  24  25
ENDBRANCH  23  24
ENDBRANCH  21  23
ENDBRANCH  15  16
ENDBRANCH   1  15
BRANCH   6  32
HETATM   32  C15 UNL     1      23.477  52.173  45.618  1.00  0.00     0.173 C 
BRANCH  32  33
HETATM   33  N3  UNL     1      22.977  53.532  45.692  1.00  0.00    -0.301 N 
ATOM     34  H3  UNL     1      21.990  53.771  45.791  1.00  0.00     0.173 HD
BRANCH  33  35
HETATM   35  S1  UNL     1      24.233  54.685  45.593  1.00  0.00     0.312 S 
HETATM   36  O1  UNL     1      23.893  55.662  44.501  1.00  0.00    -0.183 OA
HETATM   37  O2  UNL     1      25.550  54.040  45.251  1.00  0.00    -0.183 OA
BRANCH  35  38
HETATM   38  N4  UNL     1      24.462  55.498  47.111  1.00  0.00    -0.312 N 
ATOM     39  H42 UNL     1      24.990  55.101  47.889  1.00  0.00     0.170 HD
ATOM     40  H41 UNL     1      24.002  56.409  47.114  1.00  0.00     0.170 HD
ENDBRANCH  35  38
ENDBRANCH  33  35
ENDBRANCH  32  33
ENDBRANCH   6  32
TORSDOF 12
ENDMDL
MODEL 5
REMARK VINA RESULT: -7.236025932      3.551      5.865
REMARK  12 active torsions:
REMARK  status: ('A' for Active; 'I' for Inactive)
REMARK    1  A    between atoms: N1_1  and  C1_5 
REMARK    2  A    between atoms: C1_5  and  C2_6 
REMARK    3  A    between atoms: C2_6  and  C3_7 
REMARK    4  A    between atoms: C3_7  and  C4_8 
REMARK    5  A    between atoms: C4_8  and  C5_9 
REMARK    6  A    between atoms: C5_9  and  C6_10 
REMARK    7  A    between atoms: C10_15  and  C11_16 
REMARK    8  A    between atoms: C11_16  and  C12_17 
REMARK    9  A    between atoms: C14_22  and  C15_23 
REMARK   10  A    between atoms: C15_23  and  N3_24 
REMARK   11  A    between atoms: N3_24  and  S1_26 
REMARK   12  A    between atoms: S1_26  and  N4_27 
ROOT
HETATM    1  C12 UNL     1      23.604  48.258  43.998  1.00  0.00     0.111 C 
HETATM    2  C13 UNL     1      22.504  49.119  43.440  1.00  0.00     0.258 C 
HETATM    3  N2  UNL     1      21.477  49.463  44.414  1.00  0.00    -0.062 N 
ATOM      4  H21 UNL     1      20.935  48.648  44.701  1.00  0.00     0.278 HD
ATOM      5  H22 UNL     1      20.722  50.007  43.995  1.00  0.00     0.278 HD
HETATM    6  C14 UNL     1      22.077  50.155  45.564  1.00  0.00     0.254 C 
HETATM    7  C16 UNL     1      22.931  49.119  46.201  1.00  0.00     0.048 C 
HETATM    8  C17 UNL     1      23.285  49.247  47.456  1.00  0.00    -0.012 A 
HETATM    9  C18 UNL     1      24.106  48.368  48.279  1.00  0.00     0.013 A 
HETATM   10  C19 UNL     1      24.190  48.891  49.474  1.00  0.00     0.001 A 
HETATM   11  C20 UNL     1      23.438  50.138  49.530  1.00  0.00     0.001 A 
HETATM   12  C21 UNL     1      22.898  50.346  48.319  1.00  0.00     0.013 A 
HETATM   13  N5  UNL     1      23.307  48.021  45.387  1.00  0.00    -0.384 N 
ATOM     14  H5  UNL     1      23.366  47.081  45.778  1.00  0.00     0.160 HD
ENDROOT
BRANCH   1  15
HETATM   15  C11 UNL     1      23.688  46.911  43.335  1.00  0.00     0.065 C 
BRANCH  15  16
HETATM   16  C10 UNL     1      22.626  45.951  43.688  1.00  0.00    -0.054 A 
HETATM   17  C9  UNL     1      22.818  44.859  44.497  1.00  0.00     0.026 A 
HETATM   18  C8  UNL     1      21.776  43.980  44.823  1.00  0.00     0.012 A 
HETATM   19  C7  UNL     1      20.516  44.188  44.336  1.00  0.00     0.026 A 
HETATM   20 BR1  UNL     1      22.183  42.490  45.967  1.00  0.00    -0.051 Br
HETATM   21  C6  UNL     1      20.283  45.265  43.525  1.00  0.00    -0.056 A 
HETATM   22  C22 UNL     1      21.323  46.133  43.207  1.00  0.00     0.014 A 
BRANCH  21  23
HETATM   23  C5  UNL     1      18.960  45.586  42.932  1.00  0.00     0.038 C 
BRANCH  23  24
HETATM   24  C4  UNL     1      17.961  44.498  42.998  1.00  0.00     0.005 C 
BRANCH  24  25
HETATM   25  C3  UNL     1      17.186  44.220  41.767  1.00  0.00     0.002 C 
BRANCH  25  26
HETATM   26  C2  UNL     1      16.594  45.397  41.090  1.00  0.00     0.027 C 
BRANCH  26  27
HETATM   27  C1  UNL     1      15.089  45.415  41.273  1.00  0.00     0.229 C 
BRANCH  27  28
HETATM   28  N1  UNL     1      14.646  44.055  41.508  1.00  0.00    -0.079 N 
ATOM     29  H13 UNL     1      15.204  43.367  41.004  1.00  0.00     0.274 HD
ATOM     30  H12 UNL     1      14.850  43.732  42.454  1.00  0.00     0.274 HD
ATOM     31  H11 UNL     1      13.654  44.000  41.280  1.00  0.00     0.274 HD
ENDBRANCH  27  28
ENDBRANCH  26  27
ENDBRANCH  25  26
ENDBRANCH  24  25
ENDBRANCH  23  24
ENDBRANCH  21  23
ENDBRANCH  15  16
ENDBRANCH   1  15
BRANCH   6  32
HETATM   32  C15 UNL     1      22.975  51.285  45.136  1.00  0.00     0.173 C 
BRANCH  32  33
HETATM   33  N3  UNL     1      22.846  52.429  46.018  1.00  0.00    -0.301 N 
ATOM     34  H3  UNL     1      23.600  52.779  46.609  1.00  0.00     0.173 HD
BRANCH  33  35
HETATM   35  S1  UNL     1      21.286  53.119  45.953  1.00  0.00     0.312 S 
HETATM   36  O1  UNL     1      21.428  54.579  45.621  1.00  0.00    -0.183 OA
HETATM   37  O2  UNL     1      20.575  53.005  47.275  1.00  0.00    -0.183 OA
BRANCH  35  38
HETATM   38  N4  UNL     1      20.288  52.307  44.785  1.00  0.00    -0.312 N 
ATOM     39  H42 UNL     1      19.710  52.795  44.100  1.00  0.00     0.170 HD
ATOM     40  H41 UNL     1      20.359  51.293  44.880  1.00  0.00     0.170 HD
ENDBRANCH  35  38
ENDBRANCH  33  35
ENDBRANCH  32  33
ENDBRANCH   6  32
TORSDOF 12
ENDMDL
