MODEL 1
REMARK VINA RESULT: -6.281900945      0.000      0.000
REMARK  11 active torsions:
REMARK  status: ('A' for Active; 'I' for Inactive)
REMARK    1  A    between atoms: C2_2  and  C4_4 
REMARK    2  A    between atoms: C4_4  and  C5_5 
REMARK    3  A    between atoms: N2_10  and  C8_11 
REMARK    4  A    between atoms: C8_11  and  C9_12 
REMARK    5  A    between atoms: C9_12  and  C10_13 
REMARK    6  A    between atoms: C10_13  and  C11_14 
REMARK    7  A    between atoms: C11_14  and  N3_15 
REMARK    8  A    between atoms: N3_15  and  C12_17 
REMARK    9  A    between atoms: C12_17  and  C13_18 
REMARK   10  A    between atoms: C16_26  and  C18_28 
REMARK   11  A    between atoms: C18_28  and  C19_29 
ROOT
HETATM    1  C5  UNL     1      23.296  49.573  47.362  1.00  0.00     0.086 A 
HETATM    2  N1  UNL     1      23.439  48.261  47.151  1.00  0.00    -0.338 N 
ATOM      3  H1  UNL     1      24.001  47.645  47.739  1.00  0.00     0.167 HD
HETATM    4  C6  UNL     1      22.742  47.848  46.058  1.00  0.00     0.146 A 
HETATM    5  C7  UNL     1      22.137  49.000  45.573  1.00  0.00     0.139 A 
HETATM    6  N2  UNL     1      22.479  50.025  46.366  1.00  0.00    -0.321 N 
HETATM    7  N4  UNL     1      21.327  48.854  44.407  1.00  0.00    -0.351 N 
ATOM      8  H4  UNL     1      21.016  49.700  43.928  1.00  0.00     0.163 HD
HETATM    9  C14 UNL     1      20.931  47.598  43.873  1.00  0.00     0.206 C 
HETATM   10  C15 UNL     1      19.499  47.209  44.296  1.00  0.00     0.161 C 
HETATM   11  N5  UNL     1      19.136  46.133  43.417  1.00  0.00    -0.409 N 
ATOM     12  H5  UNL     1      18.789  46.309  42.474  1.00  0.00     0.154 HD
HETATM   13  C16 UNL     1      19.281  44.817  43.918  1.00  0.00     0.031 C 
HETATM   14  C17 UNL     1      18.654  44.686  45.296  1.00  0.00     0.038 C 
HETATM   15  C20 UNL     1      20.668  44.276  44.014  1.00  0.00     0.050 C 
HETATM   16  C21 UNL     1      21.767  45.191  43.605  1.00  0.00     0.131 C 
HETATM   17  N7  UNL     1      21.730  46.468  44.275  1.00  0.00    -0.324 N 
HETATM   18  C22 UNL     1      22.549  46.560  45.414  1.00  0.00     0.276 C 
HETATM   19  O2  UNL     1      23.117  45.548  45.887  1.00  0.00    -0.266 OA
ENDROOT
BRANCH   6  20
HETATM   20  C8  UNL     1      22.066  51.381  46.216  1.00  0.00     0.132 C 
BRANCH  20  21
HETATM   21  C9  UNL     1      22.821  52.180  45.205  1.00  0.00     0.025 C 
BRANCH  21  22
HETATM   22  C10 UNL     1      23.585  53.259  45.968  1.00  0.00     0.046 C 
BRANCH  22  23
HETATM   23  C11 UNL     1      23.290  54.622  45.466  1.00  0.00     0.060 C 
BRANCH  23  24
HETATM   24  N3  UNL     1      24.081  55.636  46.013  1.00  0.00    -0.382 N 
ATOM     25  H3  UNL     1      24.067  55.748  47.026  1.00  0.00     0.164 HD
BRANCH  24  26
HETATM   26  C12 UNL     1      24.881  56.497  45.287  1.00  0.00     0.071 C 
BRANCH  26  27
HETATM   27  C13 UNL     1      26.358  56.378  45.285  1.00  0.00     0.129 C 
HETATM   28 BR1  UNL     1      26.990  54.701  45.985  1.00  0.00    -0.091 Br
ENDBRANCH  26  27
ENDBRANCH  24  26
ENDBRANCH  23  24
ENDBRANCH  22  23
ENDBRANCH  21  22
ENDBRANCH  20  21
ENDBRANCH   6  20
BRANCH   1  29
HETATM   29  C4  UNL     1      23.871  50.409  48.445  1.00  0.00     0.080 C 
BRANCH  29  30
HETATM   30  C2  UNL     1      23.116  50.317  49.722  1.00  0.00    -0.016 C 
HETATM   31  C1  UNL     1      23.887  51.040  50.809  1.00  0.00     0.010 C 
HETATM   32  C3  UNL     1      22.805  48.894  50.120  1.00  0.00     0.010 C 
ENDBRANCH  29  30
ENDBRANCH   1  29
BRANCH  13  33
HETATM   33  C18 UNL     1      18.470  43.911  42.970  1.00  0.00     0.129 C 
BRANCH  33  34
HETATM   34  C19 UNL     1      17.581  44.705  42.104  1.00  0.00     0.233 C 
HETATM   35  N6  UNL     1      17.989  45.030  40.800  1.00  0.00    -0.062 NA
HETATM   36  O1  UNL     1      16.467  45.093  42.515  1.00  0.00    -0.277 OA
ENDBRANCH  33  34
ENDBRANCH  13  33
TORSDOF 11
ENDMDL
MODEL 2
REMARK VINA RESULT: -5.766300485      3.808      5.351
REMARK  11 active torsions:
REMARK  status: ('A' for Active; 'I' for Inactive)
REMARK    1  A    between atoms: C2_2  and  C4_4 
REMARK    2  A    between atoms: C4_4  and  C5_5 
REMARK    3  A    between atoms: N2_10  and  C8_11 
REMARK    4  A    between atoms: C8_11  and  C9_12 
REMARK    5  A    between atoms: C9_12  and  C10_13 
REMARK    6  A    between atoms: C10_13  and  C11_14 
REMARK    7  A    between atoms: C11_14  and  N3_15 
REMARK    8  A    between atoms: N3_15  and  C12_17 
REMARK    9  A    between atoms: C12_17  and  C13_18 
REMARK   10  A    between atoms: C16_26  and  C18_28 
REMARK   11  A    between atoms: C18_28  and  C19_29 
ROOT
HETATM    1  C5  UNL     1      22.188  48.445  45.964  1.00  0.00     0.086 A 
HETATM    2  N1  UNL     1      21.370  47.493  46.422  1.00  0.00    -0.338 N 
ATOM      3  H1  UNL     1      21.089  47.401  47.399  1.00  0.00     0.167 HD
HETATM    4  C6  UNL     1      20.959  46.661  45.427  1.00  0.00     0.146 A 
HETATM    5  C7  UNL     1      21.578  47.150  44.284  1.00  0.00     0.139 A 
HETATM    6  N2  UNL     1      22.311  48.220  44.623  1.00  0.00    -0.321 N 
HETATM    7  N4  UNL     1      21.316  46.452  43.067  1.00  0.00    -0.351 N 
ATOM      8  H4  UNL     1      21.887  46.675  42.252  1.00  0.00     0.163 HD
HETATM    9  C14 UNL     1      20.303  45.464  42.926  1.00  0.00     0.206 C 
HETATM   10  C15 UNL     1      19.020  46.030  42.285  1.00  0.00     0.161 C 
HETATM   11  N5  UNL     1      18.262  44.873  41.899  1.00  0.00    -0.409 N 
ATOM     12  H5  UNL     1      18.454  44.376  41.029  1.00  0.00     0.154 HD
HETATM   13  C16 UNL     1      17.236  44.454  42.780  1.00  0.00     0.031 C 
HETATM   14  C17 UNL     1      16.355  45.624  43.187  1.00  0.00     0.038 C 
HETATM   15  C20 UNL     1      17.656  43.764  44.033  1.00  0.00     0.050 C 
HETATM   16  C21 UNL     1      19.120  43.617  44.250  1.00  0.00     0.131 C 
HETATM   17  N7  UNL     1      19.843  44.862  44.152  1.00  0.00    -0.324 N 
HETATM   18  C22 UNL     1      20.080  45.505  45.379  1.00  0.00     0.276 C 
HETATM   19  O2  UNL     1      19.543  45.100  46.437  1.00  0.00    -0.266 OA
ENDROOT
BRANCH   6  20
HETATM   20  C8  UNL     1      23.101  49.013  43.742  1.00  0.00     0.132 C 
BRANCH  20  21
HETATM   21  C9  UNL     1      24.111  48.271  42.929  1.00  0.00     0.025 C 
BRANCH  21  22
HETATM   22  C10 UNL     1      24.963  47.462  43.906  1.00  0.00     0.046 C 
BRANCH  22  23
HETATM   23  C11 UNL     1      24.856  46.002  43.672  1.00  0.00     0.060 C 
BRANCH  23  24
HETATM   24  N3  UNL     1      25.159  45.205  44.777  1.00  0.00    -0.382 N 
ATOM     25  H3  UNL     1      25.889  45.533  45.409  1.00  0.00     0.164 HD
BRANCH  24  26
HETATM   26  C12 UNL     1      24.546  44.005  45.082  1.00  0.00     0.071 C 
BRANCH  26  27
HETATM   27  C13 UNL     1      23.137  43.732  44.713  1.00  0.00     0.129 C 
HETATM   28 BR1  UNL     1      22.257  42.506  45.906  1.00  0.00    -0.091 Br
ENDBRANCH  26  27
ENDBRANCH  24  26
ENDBRANCH  23  24
ENDBRANCH  22  23
ENDBRANCH  21  22
ENDBRANCH  20  21
ENDBRANCH   6  20
BRANCH   1  29
HETATM   29  C4  UNL     1      22.839  49.550  46.711  1.00  0.00     0.080 C 
BRANCH  29  30
HETATM   30  C2  UNL     1      23.046  49.245  48.150  1.00  0.00    -0.016 C 
HETATM   31  C1  UNL     1      23.254  50.540  48.909  1.00  0.00     0.010 C 
HETATM   32  C3  UNL     1      24.181  48.278  48.388  1.00  0.00     0.010 C 
ENDBRANCH  29  30
ENDBRANCH   1  29
BRANCH  13  33
HETATM   33  C18 UNL     1      16.349  43.489  41.968  1.00  0.00     0.129 C 
BRANCH  33  34
HETATM   34  C19 UNL     1      15.722  44.174  40.825  1.00  0.00     0.233 C 
HETATM   35  N6  UNL     1      16.475  44.428  39.666  1.00  0.00    -0.062 NA
HETATM   36  O1  UNL     1      14.526  44.534  40.871  1.00  0.00    -0.277 OA
ENDBRANCH  33  34
ENDBRANCH  13  33
TORSDOF 11
ENDMDL
MODEL 3
REMARK VINA RESULT: -5.489681605      3.875      6.048
REMARK  11 active torsions:
REMARK  status: ('A' for Active; 'I' for Inactive)
REMARK    1  A    between atoms: C2_2  and  C4_4 
REMARK    2  A    between atoms: C4_4  and  C5_5 
REMARK    3  A    between atoms: N2_10  and  C8_11 
REMARK    4  A    between atoms: C8_11  and  C9_12 
REMARK    5  A    between atoms: C9_12  and  C10_13 
REMARK    6  A    between atoms: C10_13  and  C11_14 
REMARK    7  A    between atoms: C11_14  and  N3_15 
REMARK    8  A    between atoms: N3_15  and  C12_17 
REMARK    9  A    between atoms: C12_17  and  C13_18 
REMARK   10  A    between atoms: C16_26  and  C18_28 
REMARK   11  A    between atoms: C18_28  and  C19_29 
ROOT
HETATM    1  C5  UNL     1      21.800  48.006  45.060  1.00  0.00     0.086 A 
HETATM    2  N1  UNL     1      20.732  47.363  45.541  1.00  0.00    -0.338 N 
ATOM      3  H1  UNL     1      20.325  47.536  46.460  1.00  0.00     0.167 HD
HETATM    4  C6  UNL     1      20.254  46.448  44.654  1.00  0.00     0.146 A 
HETATM    5  C7  UNL     1      21.101  46.549  43.558  1.00  0.00     0.139 A 
HETATM    6  N2  UNL     1      22.021  47.487  43.817  1.00  0.00    -0.321 N 
HETATM    7  N4  UNL     1      20.824  45.685  42.455  1.00  0.00    -0.351 N 
ATOM      8  H4  UNL     1      21.523  45.609  41.716  1.00  0.00     0.163 HD
HETATM    9  C14 UNL     1      19.630  44.924  42.330  1.00  0.00     0.206 C 
HETATM   10  C15 UNL     1      18.601  45.601  41.402  1.00  0.00     0.161 C 
HETATM   11  N5  UNL     1      17.641  44.575  41.107  1.00  0.00    -0.409 N 
ATOM     12  H5  UNL     1      17.810  43.879  40.380  1.00  0.00     0.154 HD
HETATM   13  C16 UNL     1      16.449  44.572  41.872  1.00  0.00     0.031 C 
HETATM   14  C17 UNL     1      15.829  45.958  41.921  1.00  0.00     0.038 C 
HETATM   15  C20 UNL     1      16.545  44.084  43.277  1.00  0.00     0.050 C 
HETATM   16  C21 UNL     1      17.897  43.682  43.750  1.00  0.00     0.131 C 
HETATM   17  N7  UNL     1      18.900  44.699  43.552  1.00  0.00    -0.324 N 
HETATM   18  C22 UNL     1      19.138  45.518  44.669  1.00  0.00     0.276 C 
HETATM   19  O2  UNL     1      18.401  45.462  45.682  1.00  0.00    -0.266 OA
ENDROOT
BRANCH   6  20
HETATM   20  C8  UNL     1      23.074  47.897  42.949  1.00  0.00     0.132 C 
BRANCH  20  21
HETATM   21  C9  UNL     1      24.055  46.835  42.571  1.00  0.00     0.025 C 
BRANCH  21  22
HETATM   22  C10 UNL     1      25.165  46.858  43.619  1.00  0.00     0.046 C 
BRANCH  22  23
HETATM   23  C11 UNL     1      24.799  46.107  44.844  1.00  0.00     0.060 C 
BRANCH  23  24
HETATM   24  N3  UNL     1      25.135  44.751  44.825  1.00  0.00    -0.382 N 
ATOM     25  H3  UNL     1      26.126  44.512  44.809  1.00  0.00     0.164 HD
BRANCH  24  26
HETATM   26  C12 UNL     1      24.228  43.710  44.828  1.00  0.00     0.071 C 
BRANCH  26  27
HETATM   27  C13 UNL     1      22.765  43.947  44.807  1.00  0.00     0.129 C 
HETATM   28 BR1  UNL     1      21.773  42.714  45.900  1.00  0.00    -0.091 Br
ENDBRANCH  26  27
ENDBRANCH  24  26
ENDBRANCH  23  24
ENDBRANCH  22  23
ENDBRANCH  21  22
ENDBRANCH  20  21
ENDBRANCH   6  20
BRANCH   1  29
HETATM   29  C4  UNL     1      22.603  49.080  45.697  1.00  0.00     0.080 C 
BRANCH  29  30
HETATM   30  C2  UNL     1      22.413  50.410  45.063  1.00  0.00    -0.016 C 
HETATM   31  C1  UNL     1      22.830  51.492  46.040  1.00  0.00     0.010 C 
HETATM   32  C3  UNL     1      21.005  50.630  44.566  1.00  0.00     0.010 C 
ENDBRANCH  29  30
ENDBRANCH   1  29
BRANCH  13  33
HETATM   33  C18 UNL     1      15.460  43.667  41.110  1.00  0.00     0.129 C 
BRANCH  33  34
HETATM   34  C19 UNL     1      15.714  43.700  39.660  1.00  0.00     0.233 C 
HETATM   35  N6  UNL     1      15.819  42.496  38.944  1.00  0.00    -0.062 NA
HETATM   36  O1  UNL     1      15.839  44.787  39.056  1.00  0.00    -0.277 OA
ENDBRANCH  33  34
ENDBRANCH  13  33
TORSDOF 11
ENDMDL
MODEL 4
REMARK VINA RESULT: -5.476977637      3.366      4.745
REMARK  11 active torsions:
REMARK  status: ('A' for Active; 'I' for Inactive)
REMARK    1  A    between atoms: C2_2  and  C4_4 
REMARK    2  A    between atoms: C4_4  and  C5_5 
REMARK    3  A    between atoms: N2_10  and  C8_11 
REMARK    4  A    between atoms: C8_11  and  C9_12 
REMARK    5  A    between atoms: C9_12  and  C10_13 
REMARK    6  A    between atoms: C10_13  and  C11_14 
REMARK    7  A    between atoms: C11_14  and  N3_15 
REMARK    8  A    between atoms: N3_15  and  C12_17 
REMARK    9  A    between atoms: C12_17  and  C13_18 
REMARK   10  A    between atoms: C16_26  and  C18_28 
REMARK   11  A    between atoms: C18_28  and  C19_29 
ROOT
HETATM    1  C5  UNL     1      22.271  48.409  46.048  1.00  0.00     0.086 A 
HETATM    2  N1  UNL     1      21.440  47.468  46.505  1.00  0.00    -0.338 N 
ATOM      3  H1  UNL     1      21.145  47.389  47.479  1.00  0.00     0.167 HD
HETATM    4  C6  UNL     1      21.036  46.628  45.513  1.00  0.00     0.146 A 
HETATM    5  C7  UNL     1      21.674  47.100  44.374  1.00  0.00     0.139 A 
HETATM    6  N2  UNL     1      22.410  48.168  44.712  1.00  0.00    -0.321 N 
HETATM    7  N4  UNL     1      21.423  46.391  43.161  1.00  0.00    -0.351 N 
ATOM      8  H4  UNL     1      22.007  46.600  42.351  1.00  0.00     0.163 HD
HETATM    9  C14 UNL     1      20.405  45.409  43.017  1.00  0.00     0.206 C 
HETATM   10  C15 UNL     1      19.135  45.977  42.353  1.00  0.00     0.161 C 
HETATM   11  N5  UNL     1      18.374  44.822  41.969  1.00  0.00    -0.409 N 
ATOM     12  H5  UNL     1      18.574  44.314  41.107  1.00  0.00     0.154 HD
HETATM   13  C16 UNL     1      17.332  44.420  42.840  1.00  0.00     0.031 C 
HETATM   14  C17 UNL     1      16.455  45.600  43.222  1.00  0.00     0.038 C 
HETATM   15  C20 UNL     1      17.730  43.741  44.106  1.00  0.00     0.050 C 
HETATM   16  C21 UNL     1      19.190  43.585  44.345  1.00  0.00     0.131 C 
HETATM   17  N7  UNL     1      19.923  44.824  44.243  1.00  0.00    -0.324 N 
HETATM   18  C22 UNL     1      20.149  45.478  45.466  1.00  0.00     0.276 C 
HETATM   19  O2  UNL     1      19.595  45.088  46.521  1.00  0.00    -0.266 OA
ENDROOT
BRANCH   6  20
HETATM   20  C8  UNL     1      23.218  48.945  43.832  1.00  0.00     0.132 C 
BRANCH  20  21
HETATM   21  C9  UNL     1      24.352  48.222  43.182  1.00  0.00     0.025 C 
BRANCH  21  22
HETATM   22  C10 UNL     1      25.160  47.562  44.297  1.00  0.00     0.046 C 
BRANCH  22  23
HETATM   23  C11 UNL     1      25.261  46.093  44.127  1.00  0.00     0.060 C 
BRANCH  23  24
HETATM   24  N3  UNL     1      26.407  45.514  44.677  1.00  0.00    -0.382 N 
ATOM     25  H3  UNL     1      26.276  44.767  45.358  1.00  0.00     0.164 HD
BRANCH  24  26
HETATM   26  C12 UNL     1      27.704  45.874  44.369  1.00  0.00     0.071 C 
BRANCH  26  27
HETATM   27  C13 UNL     1      28.848  45.484  45.226  1.00  0.00     0.129 C 
HETATM   28 BR1  UNL     1      29.910  46.978  45.811  1.00  0.00    -0.091 Br
ENDBRANCH  26  27
ENDBRANCH  24  26
ENDBRANCH  23  24
ENDBRANCH  22  23
ENDBRANCH  21  22
ENDBRANCH  20  21
ENDBRANCH   6  20
BRANCH   1  29
HETATM   29  C4  UNL     1      22.920  49.517  46.792  1.00  0.00     0.080 C 
BRANCH  29  30
HETATM   30  C2  UNL     1      23.084  49.235  48.242  1.00  0.00    -0.016 C 
HETATM   31  C1  UNL     1      23.212  50.546  48.992  1.00  0.00     0.010 C 
HETATM   32  C3  UNL     1      24.246  48.317  48.534  1.00  0.00     0.010 C 
ENDBRANCH  29  30
ENDBRANCH   1  29
BRANCH  13  33
HETATM   33  C18 UNL     1      16.449  43.453  42.027  1.00  0.00     0.129 C 
BRANCH  33  34
HETATM   34  C19 UNL     1      15.832  44.133  40.875  1.00  0.00     0.233 C 
HETATM   35  N6  UNL     1      16.610  44.427  39.742  1.00  0.00    -0.062 NA
HETATM   36  O1  UNL     1      14.625  44.454  40.892  1.00  0.00    -0.277 OA
ENDBRANCH  33  34
ENDBRANCH  13  33
TORSDOF 11
ENDMDL
MODEL 5
REMARK VINA RESULT: -5.466031617      1.412      1.700
REMARK  11 active torsions:
REMARK  status: ('A' for Active; 'I' for Inactive)
REMARK    1  A    between atoms: C2_2  and  C4_4 
REMARK    2  A    between atoms: C4_4  and  C5_5 
REMARK    3  A    between atoms: N2_10  and  C8_11 
REMARK    4  A    between atoms: C8_11  and  C9_12 
REMARK    5  A    between atoms: C9_12  and  C10_13 
REMARK    6  A    between atoms: C10_13  and  C11_14 
REMARK    7  A    between atoms: C11_14  and  N3_15 
REMARK    8  A    between atoms: N3_15  and  C12_17 
REMARK    9  A    between atoms: C12_17  and  C13_18 
REMARK   10  A    between atoms: C16_26  and  C18_28 
REMARK   11  A    between atoms: C18_28  and  C19_29 
ROOT
HETATM    1  C5  UNL     1      22.726  48.660  46.746  1.00  0.00     0.086 A 
HETATM    2  N1  UNL     1      22.171  47.479  47.034  1.00  0.00    -0.338 N 
ATOM      3  H1  UNL     1      22.066  47.111  47.979  1.00  0.00     0.167 HD
HETATM    4  C6  UNL     1      21.762  46.828  45.910  1.00  0.00     0.146 A 
HETATM    5  C7  UNL     1      22.099  47.683  44.869  1.00  0.00     0.139 A 
HETATM    6  N2  UNL     1      22.675  48.776  45.387  1.00  0.00    -0.321 N 
HETATM    7  N4  UNL     1      21.777  47.242  43.550  1.00  0.00    -0.351 N 
ATOM      8  H4  UNL     1      22.166  47.759  42.761  1.00  0.00     0.163 HD
HETATM    9  C14 UNL     1      20.946  46.122  43.274  1.00  0.00     0.206 C 
HETATM   10  C15 UNL     1      19.498  46.537  42.940  1.00  0.00     0.161 C 
HETATM   11  N5  UNL     1      18.906  45.366  42.358  1.00  0.00    -0.409 N 
ATOM     12  H5  UNL     1      19.044  45.132  41.374  1.00  0.00     0.154 HD
HETATM   13  C16 UNL     1      18.120  44.553  43.209  1.00  0.00     0.031 C 
HETATM   14  C17 UNL     1      17.122  45.387  43.993  1.00  0.00     0.038 C 
HETATM   15  C20 UNL     1      18.847  43.699  44.193  1.00  0.00     0.050 C 
HETATM   16  C21 UNL     1      20.329  43.816  44.206  1.00  0.00     0.131 C 
HETATM   17  N7  UNL     1      20.796  45.174  44.349  1.00  0.00    -0.324 N 
HETATM   18  C22 UNL     1      21.105  45.556  45.666  1.00  0.00     0.276 C 
HETATM   19  O2  UNL     1      20.821  44.817  46.638  1.00  0.00    -0.266 OA
ENDROOT
BRANCH   6  20
HETATM   20  C8  UNL     1      23.165  49.897  44.656  1.00  0.00     0.132 C 
BRANCH  20  21
HETATM   21  C9  UNL     1      22.170  50.976  44.377  1.00  0.00     0.025 C 
BRANCH  21  22
HETATM   22  C10 UNL     1      22.124  51.871  45.614  1.00  0.00     0.046 C 
BRANCH  22  23
HETATM   23  C11 UNL     1      23.321  52.737  45.729  1.00  0.00     0.060 C 
BRANCH  23  24
HETATM   24  N3  UNL     1      23.065  54.108  45.656  1.00  0.00    -0.382 N 
ATOM     25  H3  UNL     1      22.090  54.405  45.641  1.00  0.00     0.164 HD
BRANCH  24  26
HETATM   26  C12 UNL     1      24.032  55.093  45.601  1.00  0.00     0.071 C 
BRANCH  26  27
HETATM   27  C13 UNL     1      25.438  54.830  45.988  1.00  0.00     0.129 C 
HETATM   28 BR1  UNL     1      26.671  56.159  45.342  1.00  0.00    -0.091 Br
ENDBRANCH  26  27
ENDBRANCH  24  26
ENDBRANCH  23  24
ENDBRANCH  22  23
ENDBRANCH  21  22
ENDBRANCH  20  21
ENDBRANCH   6  20
BRANCH   1  29
HETATM   29  C4  UNL     1      23.280  49.677  47.674  1.00  0.00     0.080 C 
BRANCH  29  30
HETATM   30  C2  UNL     1      23.357  49.209  49.082  1.00  0.00    -0.016 C 
HETATM   31  C1  UNL     1      23.261  50.403  50.010  1.00  0.00     0.010 C 
HETATM   32  C3  UNL     1      24.594  48.391  49.363  1.00  0.00     0.010 C 
ENDBRANCH  29  30
ENDBRANCH   1  29
BRANCH  13  33
HETATM   33  C18 UNL     1      17.302  43.633  42.280  1.00  0.00     0.129 C 
BRANCH  33  34
HETATM   34  C19 UNL     1      16.898  44.340  41.052  1.00  0.00     0.233 C 
HETATM   35  N6  UNL     1      17.726  44.296  39.919  1.00  0.00    -0.062 NA
HETATM   36  O1  UNL     1      15.825  44.979  41.005  1.00  0.00    -0.277 OA
ENDBRANCH  33  34
ENDBRANCH  13  33
TORSDOF 11
ENDMDL
