MODEL 1
REMARK VINA RESULT: -5.885376316      0.000      0.000
REMARK  13 active torsions:
REMARK  status: ('A' for Active; 'I' for Inactive)
REMARK    1  A    between atoms: C3_3  and  C4_4 
REMARK    2  A    between atoms: C4_4  and  C5_5 
REMARK    3  A    between atoms: C5_5  and  C6_6 
REMARK    4  A    between atoms: C7_7  and  N1_8 
REMARK       I    between atoms: N1_8  and  C8_10 
REMARK    5  A    between atoms: C8_10  and  C9_12 
REMARK       I    between atoms: C9_12  and  N2_14 
REMARK    6  A    between atoms: N2_14  and  C10_15 
REMARK    7  A    between atoms: N2_14  and  C15_26 
REMARK    8  A    between atoms: C10_15  and  C11_16 
REMARK    9  A    between atoms: C11_16  and  C12_17 
REMARK   10  A    between atoms: C12_17  and  C13_18 
REMARK   11  A    between atoms: C13_18  and  N3_19 
REMARK       I    between atoms: N3_19  and  C14_21 
REMARK   12  A    between atoms: C15_26  and  C16_27 
REMARK   13  A    between atoms: C23_36  and  C24_37 
ROOT
HETATM    1  C1  UNL     1      22.649  42.924  45.648  1.00  0.00     0.012 C 
HETATM    2  C2  UNL     1      21.481  43.202  45.754  1.00  0.00    -0.117 C 
HETATM    3  C3  UNL     1      20.049  43.559  45.900  1.00  0.00     0.093 C 
ENDROOT
BRANCH   3   4
HETATM    4  C4  UNL     1      19.328  43.378  44.581  1.00  0.00     0.012 C 
BRANCH   4   5
HETATM    5  C5  UNL     1      17.940  43.915  44.701  1.00  0.00     0.009 C 
BRANCH   5   6
HETATM    6  C6  UNL     1      17.547  44.798  43.530  1.00  0.00     0.031 C 
HETATM    7  C7  UNL     1      18.811  45.386  43.013  1.00  0.00     0.091 C 
HETATM    8  C17 UNL     1      18.632  46.276  41.764  1.00  0.00     0.031 C 
HETATM    9  C18 UNL     1      17.323  45.797  41.247  1.00  0.00     0.002 C 
HETATM   10  C19 UNL     1      17.436  44.304  41.209  1.00  0.00     0.013 C 
HETATM   11  C26 UNL     1      16.695  46.291  40.045  1.00  0.00    -0.035 C 
HETATM   12  C20 UNL     1      16.832  43.568  40.086  1.00  0.00     0.008 C 
HETATM   13  C25 UNL     1      16.756  43.955  42.558  1.00  0.00     0.091 C 
HETATM   14  C21 UNL     1      15.711  44.167  39.338  1.00  0.00     0.011 C 
HETATM   15  C22 UNL     1      15.378  45.518  39.983  1.00  0.00     0.040 C 
HETATM   16  C23 UNL     1      14.867  45.105  41.327  1.00  0.00     0.001 C 
HETATM   17  N7  UNL     1      15.419  44.493  42.328  1.00  0.00    -0.390 N 
ATOM     18  H7  UNL     1      14.788  44.359  43.118  1.00  0.00     0.159 HD
HETATM   19  C27 UNL     1      16.328  47.758  40.171  1.00  0.00     0.016 C 
HETATM   20  C28 UNL     1      17.519  46.141  38.804  1.00  0.00     0.016 C 
BRANCH   7  21
HETATM   21  N1  UNL     1      19.299  46.296  44.040  1.00  0.00    -0.348 N 
HETATM   22  C8  UNL     1      20.672  46.721  44.086  1.00  0.00     0.309 C 
HETATM   23  O1  UNL     1      21.421  46.269  43.197  1.00  0.00    -0.262 OA
ATOM     24  H1  UNL     1      18.648  46.641  44.746  1.00  0.00     0.163 HD
BRANCH  22  25
HETATM   25  C9  UNL     1      21.150  47.622  45.110  1.00  0.00     0.311 C 
HETATM   26  O2  UNL     1      20.329  48.555  45.453  1.00  0.00    -0.262 OA
HETATM   27  N2  UNL     1      22.404  47.578  45.753  1.00  0.00    -0.336 N 
BRANCH  27  28
HETATM   28  C10 UNL     1      22.715  48.578  46.749  1.00  0.00     0.127 C 
BRANCH  28  29
HETATM   29  C11 UNL     1      23.070  49.930  46.122  1.00  0.00     0.021 C 
BRANCH  29  30
HETATM   30  C12 UNL     1      23.452  50.971  47.116  1.00  0.00     0.021 C 
BRANCH  30  31
HETATM   31  C13 UNL     1      22.864  50.809  48.475  1.00  0.00     0.122 C 
BRANCH  31  32
HETATM   32  N3  UNL     1      23.729  50.447  49.545  1.00  0.00    -0.365 N 
HETATM   33  C14 UNL     1      23.346  49.826  50.752  1.00  0.00     0.181 C 
HETATM   34  N4  UNL     1      23.875  50.178  51.874  1.00  0.00    -0.374 N 
HETATM   35  N5  UNL     1      22.378  48.793  50.759  1.00  0.00    -0.064 NA
ATOM     36  H42 UNL     1      24.573  50.923  51.869  1.00  0.00     0.158 HD
ATOM     37  H41 UNL     1      23.598  49.730  52.746  1.00  0.00     0.158 HD
ATOM     38  H3  UNL     1      24.720  50.657  49.429  1.00  0.00     0.162 HD
ENDBRANCH  31  32
ENDBRANCH  30  31
ENDBRANCH  29  30
ENDBRANCH  28  29
ENDBRANCH  27  28
BRANCH  27  39
HETATM   39  C15 UNL     1      23.403  46.582  45.445  1.00  0.00     0.225 C 
BRANCH  39  40
HETATM   40  C16 UNL     1      24.482  47.254  44.667  1.00  0.00     0.249 C 
HETATM   41  N6  UNL     1      24.212  47.827  43.407  1.00  0.00    -0.061 NA
HETATM   42  O3  UNL     1      25.632  47.308  45.136  1.00  0.00    -0.275 OA
ENDBRANCH  39  40
ENDBRANCH  27  39
ENDBRANCH  22  25
ENDBRANCH   7  21
BRANCH  16  43
HETATM   43  C24 UNL     1      13.428  45.421  41.616  1.00  0.00     0.167 C 
HETATM   44 CL1  UNL     1      12.977  46.878  40.748  1.00  0.00    -0.124 Cl
ENDBRANCH  16  43
ENDBRANCH   5   6
ENDBRANCH   4   5
ENDBRANCH   3   4
TORSDOF 13
ENDMDL
MODEL 2
REMARK VINA RESULT: -5.661440391      3.762      8.718
REMARK  13 active torsions:
REMARK  status: ('A' for Active; 'I' for Inactive)
REMARK    1  A    between atoms: C3_3  and  C4_4 
REMARK    2  A    between atoms: C4_4  and  C5_5 
REMARK    3  A    between atoms: C5_5  and  C6_6 
REMARK    4  A    between atoms: C7_7  and  N1_8 
REMARK       I    between atoms: N1_8  and  C8_10 
REMARK    5  A    between atoms: C8_10  and  C9_12 
REMARK       I    between atoms: C9_12  and  N2_14 
REMARK    6  A    between atoms: N2_14  and  C10_15 
REMARK    7  A    between atoms: N2_14  and  C15_26 
REMARK    8  A    between atoms: C10_15  and  C11_16 
REMARK    9  A    between atoms: C11_16  and  C12_17 
REMARK   10  A    between atoms: C12_17  and  C13_18 
REMARK   11  A    between atoms: C13_18  and  N3_19 
REMARK       I    between atoms: N3_19  and  C14_21 
REMARK   12  A    between atoms: C15_26  and  C16_27 
REMARK   13  A    between atoms: C23_36  and  C24_37 
ROOT
HETATM    1  C1  UNL     1      22.273  42.229  45.859  1.00  0.00     0.012 C 
HETATM    2  C2  UNL     1      21.225  42.804  46.021  1.00  0.00    -0.117 C 
HETATM    3  C3  UNL     1      19.927  43.493  46.214  1.00  0.00     0.093 C 
ENDROOT
BRANCH   3   4
HETATM    4  C4  UNL     1      20.029  44.495  47.345  1.00  0.00     0.012 C 
BRANCH   4   5
HETATM    5  C5  UNL     1      20.016  45.877  46.781  1.00  0.00     0.009 C 
BRANCH   5   6
HETATM    6  C6  UNL     1      20.825  45.999  45.502  1.00  0.00     0.031 C 
HETATM    7  C7  UNL     1      20.069  46.929  44.620  1.00  0.00     0.091 C 
HETATM    8  C17 UNL     1      20.767  47.240  43.280  1.00  0.00     0.031 C 
HETATM    9  C18 UNL     1      22.177  46.888  43.593  1.00  0.00     0.002 C 
HETATM   10  C19 UNL     1      22.481  47.586  44.882  1.00  0.00     0.013 C 
HETATM   11  C26 UNL     1      23.274  47.030  42.666  1.00  0.00    -0.035 C 
HETATM   12  C20 UNL     1      23.811  48.189  45.075  1.00  0.00     0.008 C 
HETATM   13  C25 UNL     1      22.225  46.425  45.876  1.00  0.00     0.091 C 
HETATM   14  C21 UNL     1      24.964  47.674  44.313  1.00  0.00     0.011 C 
HETATM   15  C22 UNL     1      24.477  46.504  43.449  1.00  0.00     0.040 C 
HETATM   16  C23 UNL     1      24.115  45.483  44.480  1.00  0.00     0.001 C 
HETATM   17  N7  UNL     1      23.228  45.465  45.427  1.00  0.00    -0.390 N 
ATOM     18  H7  UNL     1      23.234  44.601  45.969  1.00  0.00     0.159 HD
HETATM   19  C27 UNL     1      23.110  46.117  41.465  1.00  0.00     0.016 C 
HETATM   20  C28 UNL     1      23.477  48.420  42.148  1.00  0.00     0.016 C 
BRANCH   7  21
HETATM   21  N1  UNL     1      18.843  46.240  44.242  1.00  0.00    -0.348 N 
HETATM   22  C8  UNL     1      18.863  45.047  43.440  1.00  0.00     0.309 C 
HETATM   23  O1  UNL     1      19.986  44.633  43.090  1.00  0.00    -0.262 OA
ATOM     24  H1  UNL     1      17.947  46.615  44.553  1.00  0.00     0.163 HD
BRANCH  22  25
HETATM   25  C9  UNL     1      17.642  44.369  43.065  1.00  0.00     0.311 C 
HETATM   26  O2  UNL     1      17.316  43.366  43.807  1.00  0.00    -0.262 OA
HETATM   27  N2  UNL     1      16.794  44.694  41.986  1.00  0.00    -0.336 N 
BRANCH  27  28
HETATM   28  C10 UNL     1      15.617  43.889  41.754  1.00  0.00     0.127 C 
BRANCH  28  29
HETATM   29  C11 UNL     1      14.552  44.638  40.947  1.00  0.00     0.021 C 
BRANCH  29  30
HETATM   30  C12 UNL     1      13.839  45.690  41.724  1.00  0.00     0.021 C 
BRANCH  30  31
HETATM   31  C13 UNL     1      13.362  46.860  40.937  1.00  0.00     0.122 C 
BRANCH  31  32
HETATM   32  N3  UNL     1      14.192  48.015  40.874  1.00  0.00    -0.365 N 
HETATM   33  C14 UNL     1      14.699  48.613  39.701  1.00  0.00     0.181 C 
HETATM   34  N4  UNL     1      15.903  49.072  39.661  1.00  0.00    -0.374 N 
HETATM   35  N5  UNL     1      13.893  48.733  38.544  1.00  0.00    -0.064 NA
ATOM     36  H42 UNL     1      16.484  48.985  40.496  1.00  0.00     0.158 HD
ATOM     37  H41 UNL     1      16.269  49.504  38.814  1.00  0.00     0.158 HD
ATOM     38  H3  UNL     1      14.444  48.451  41.760  1.00  0.00     0.162 HD
ENDBRANCH  31  32
ENDBRANCH  30  31
ENDBRANCH  29  30
ENDBRANCH  28  29
ENDBRANCH  27  28
BRANCH  27  39
HETATM   39  C15 UNL     1      17.064  45.791  41.086  1.00  0.00     0.225 C 
BRANCH  39  40
HETATM   40  C16 UNL     1      17.211  45.223  39.717  1.00  0.00     0.249 C 
HETATM   41  N6  UNL     1      16.240  45.472  38.725  1.00  0.00    -0.061 NA
HETATM   42  O3  UNL     1      18.203  44.523  39.448  1.00  0.00    -0.275 OA
ENDBRANCH  39  40
ENDBRANCH  27  39
ENDBRANCH  22  25
ENDBRANCH   7  21
BRANCH  16  43
HETATM   43  C24 UNL     1      24.923  44.218  44.475  1.00  0.00     0.167 C 
HETATM   44 CL1  UNL     1      26.603  44.611  44.793  1.00  0.00    -0.124 Cl
ENDBRANCH  16  43
ENDBRANCH   5   6
ENDBRANCH   4   5
ENDBRANCH   3   4
TORSDOF 13
ENDMDL
MODEL 3
REMARK VINA RESULT: -5.458588536      1.785      2.251
REMARK  13 active torsions:
REMARK  status: ('A' for Active; 'I' for Inactive)
REMARK    1  A    between atoms: C3_3  and  C4_4 
REMARK    2  A    between atoms: C4_4  and  C5_5 
REMARK    3  A    between atoms: C5_5  and  C6_6 
REMARK    4  A    between atoms: C7_7  and  N1_8 
REMARK       I    between atoms: N1_8  and  C8_10 
REMARK    5  A    between atoms: C8_10  and  C9_12 
REMARK       I    between atoms: C9_12  and  N2_14 
REMARK    6  A    between atoms: N2_14  and  C10_15 
REMARK    7  A    between atoms: N2_14  and  C15_26 
REMARK    8  A    between atoms: C10_15  and  C11_16 
REMARK    9  A    between atoms: C11_16  and  C12_17 
REMARK   10  A    between atoms: C12_17  and  C13_18 
REMARK   11  A    between atoms: C13_18  and  N3_19 
REMARK       I    between atoms: N3_19  and  C14_21 
REMARK   12  A    between atoms: C15_26  and  C16_27 
REMARK   13  A    between atoms: C23_36  and  C24_37 
ROOT
HETATM    1  C1  UNL     1      22.596  42.816  45.754  1.00  0.00     0.012 C 
HETATM    2  C2  UNL     1      21.443  43.157  45.832  1.00  0.00    -0.117 C 
HETATM    3  C3  UNL     1      20.029  43.591  45.942  1.00  0.00     0.093 C 
ENDROOT
BRANCH   3   4
HETATM    4  C4  UNL     1      19.327  43.428  44.610  1.00  0.00     0.012 C 
BRANCH   4   5
HETATM    5  C5  UNL     1      17.937  43.962  44.718  1.00  0.00     0.009 C 
BRANCH   5   6
HETATM    6  C6  UNL     1      17.541  44.818  43.528  1.00  0.00     0.031 C 
HETATM    7  C7  UNL     1      18.805  45.393  42.993  1.00  0.00     0.091 C 
HETATM    8  C17 UNL     1      18.622  46.253  41.724  1.00  0.00     0.031 C 
HETATM    9  C18 UNL     1      17.312  45.762  41.222  1.00  0.00     0.002 C 
HETATM   10  C19 UNL     1      17.424  44.269  41.219  1.00  0.00     0.013 C 
HETATM   11  C26 UNL     1      16.681  46.227  40.010  1.00  0.00    -0.035 C 
HETATM   12  C20 UNL     1      16.817  43.506  40.115  1.00  0.00     0.008 C 
HETATM   13  C25 UNL     1      16.748  43.952  42.578  1.00  0.00     0.091 C 
HETATM   14  C21 UNL     1      15.694  44.087  39.356  1.00  0.00     0.011 C 
HETATM   15  C22 UNL     1      15.364  45.453  39.970  1.00  0.00     0.040 C 
HETATM   16  C23 UNL     1      14.856  45.073  41.325  1.00  0.00     0.001 C 
HETATM   17  N7  UNL     1      15.410  44.484  42.339  1.00  0.00    -0.390 N 
ATOM     18  H7  UNL     1      14.781  44.370  43.133  1.00  0.00     0.159 HD
HETATM   19  C27 UNL     1      16.314  47.697  40.102  1.00  0.00     0.016 C 
HETATM   20  C28 UNL     1      17.501  46.048  38.771  1.00  0.00     0.016 C 
BRANCH   7  21
HETATM   21  N1  UNL     1      19.295  46.327  43.997  1.00  0.00    -0.348 N 
HETATM   22  C8  UNL     1      20.663  46.770  44.016  1.00  0.00     0.309 C 
HETATM   23  O1  UNL     1      21.405  46.312  43.124  1.00  0.00    -0.262 OA
ATOM     24  H1  UNL     1      18.650  46.676  44.707  1.00  0.00     0.163 HD
BRANCH  22  25
HETATM   25  C9  UNL     1      21.144  47.695  45.017  1.00  0.00     0.311 C 
HETATM   26  O2  UNL     1      20.337  48.654  45.317  1.00  0.00    -0.262 OA
HETATM   27  N2  UNL     1      22.388  47.648  45.680  1.00  0.00    -0.336 N 
BRANCH  27  28
HETATM   28  C10 UNL     1      22.704  48.674  46.647  1.00  0.00     0.127 C 
BRANCH  28  29
HETATM   29  C11 UNL     1      23.542  49.804  46.040  1.00  0.00     0.021 C 
BRANCH  29  30
HETATM   30  C12 UNL     1      22.730  50.871  45.390  1.00  0.00     0.021 C 
BRANCH  30  31
HETATM   31  C13 UNL     1      22.638  52.155  46.137  1.00  0.00     0.122 C 
BRANCH  31  32
HETATM   32  N3  UNL     1      23.037  53.350  45.477  1.00  0.00    -0.365 N 
HETATM   33  C14 UNL     1      24.095  54.200  45.862  1.00  0.00     0.181 C 
HETATM   34  N4  UNL     1      23.972  55.482  45.789  1.00  0.00    -0.374 N 
HETATM   35  N5  UNL     1      25.321  53.666  46.327  1.00  0.00    -0.064 NA
ATOM     36  H42 UNL     1      23.089  55.867  45.454  1.00  0.00     0.158 HD
ATOM     37  H41 UNL     1      24.737  56.097  46.068  1.00  0.00     0.158 HD
ATOM     38  H3  UNL     1      22.509  53.618  44.647  1.00  0.00     0.162 HD
ENDBRANCH  31  32
ENDBRANCH  30  31
ENDBRANCH  29  30
ENDBRANCH  28  29
ENDBRANCH  27  28
BRANCH  27  39
HETATM   39  C15 UNL     1      23.372  46.624  45.419  1.00  0.00     0.225 C 
BRANCH  39  40
HETATM   40  C16 UNL     1      24.451  47.237  44.594  1.00  0.00     0.249 C 
HETATM   41  N6  UNL     1      24.162  47.797  43.332  1.00  0.00    -0.061 NA
HETATM   42  O3  UNL     1      25.616  47.253  45.025  1.00  0.00    -0.275 OA
ENDBRANCH  39  40
ENDBRANCH  27  39
ENDBRANCH  22  25
ENDBRANCH   7  21
BRANCH  16  43
HETATM   43  C24 UNL     1      13.418  45.396  41.610  1.00  0.00     0.167 C 
HETATM   44 CL1  UNL     1      12.972  46.847  40.729  1.00  0.00    -0.124 Cl
ENDBRANCH  16  43
ENDBRANCH   5   6
ENDBRANCH   4   5
ENDBRANCH   3   4
TORSDOF 13
ENDMDL
MODEL 4
REMARK VINA RESULT: -5.399963366      1.306      1.673
REMARK  13 active torsions:
REMARK  status: ('A' for Active; 'I' for Inactive)
REMARK    1  A    between atoms: C3_3  and  C4_4 
REMARK    2  A    between atoms: C4_4  and  C5_5 
REMARK    3  A    between atoms: C5_5  and  C6_6 
REMARK    4  A    between atoms: C7_7  and  N1_8 
REMARK       I    between atoms: N1_8  and  C8_10 
REMARK    5  A    between atoms: C8_10  and  C9_12 
REMARK       I    between atoms: C9_12  and  N2_14 
REMARK    6  A    between atoms: N2_14  and  C10_15 
REMARK    7  A    between atoms: N2_14  and  C15_26 
REMARK    8  A    between atoms: C10_15  and  C11_16 
REMARK    9  A    between atoms: C11_16  and  C12_17 
REMARK   10  A    between atoms: C12_17  and  C13_18 
REMARK   11  A    between atoms: C13_18  and  N3_19 
REMARK       I    between atoms: N3_19  and  C14_21 
REMARK   12  A    between atoms: C15_26  and  C16_27 
REMARK   13  A    between atoms: C23_36  and  C24_37 
ROOT
HETATM    1  C1  UNL     1      22.455  42.711  45.849  1.00  0.00     0.012 C 
HETATM    2  C2  UNL     1      21.278  42.969  45.887  1.00  0.00    -0.117 C 
HETATM    3  C3  UNL     1      19.834  43.298  45.951  1.00  0.00     0.093 C 
ENDROOT
BRANCH   3   4
HETATM    4  C4  UNL     1      19.218  43.215  44.569  1.00  0.00     0.012 C 
BRANCH   4   5
HETATM    5  C5  UNL     1      17.811  43.711  44.628  1.00  0.00     0.009 C 
BRANCH   5   6
HETATM    6  C6  UNL     1      17.485  44.690  43.514  1.00  0.00     0.031 C 
HETATM    7  C7  UNL     1      18.791  45.205  43.020  1.00  0.00     0.091 C 
HETATM    8  C17 UNL     1      18.679  46.178  41.828  1.00  0.00     0.031 C 
HETATM    9  C18 UNL     1      17.333  45.836  41.295  1.00  0.00     0.002 C 
HETATM   10  C19 UNL     1      17.325  44.344  41.169  1.00  0.00     0.013 C 
HETATM   11  C26 UNL     1      16.742  46.449  40.130  1.00  0.00    -0.035 C 
HETATM   12  C20 UNL     1      16.660  43.726  40.010  1.00  0.00     0.008 C 
HETATM   13  C25 UNL     1      16.625  43.972  42.501  1.00  0.00     0.091 C 
HETATM   14  C21 UNL     1      15.587  44.456  39.309  1.00  0.00     0.011 C 
HETATM   15  C22 UNL     1      15.367  45.789  40.034  1.00  0.00     0.040 C 
HETATM   16  C23 UNL     1      14.830  45.340  41.356  1.00  0.00     0.001 C 
HETATM   17  N7  UNL     1      15.335  44.628  42.315  1.00  0.00    -0.390 N 
ATOM     18  H7  UNL     1      14.698  44.499  43.102  1.00  0.00     0.159 HD
HETATM   19  C27 UNL     1      16.494  47.931  40.344  1.00  0.00     0.016 C 
HETATM   20  C28 UNL     1      17.546  46.307  38.875  1.00  0.00     0.016 C 
BRANCH   7  21
HETATM   21  N1  UNL     1      19.354  46.011  44.095  1.00  0.00    -0.348 N 
HETATM   22  C8  UNL     1      20.774  46.136  44.282  1.00  0.00     0.309 C 
HETATM   23  O1  UNL     1      21.496  45.520  43.474  1.00  0.00    -0.262 OA
ATOM     24  H1  UNL     1      18.724  46.499  44.732  1.00  0.00     0.163 HD
BRANCH  22  25
HETATM   25  C9  UNL     1      21.327  46.936  45.352  1.00  0.00     0.311 C 
HETATM   26  O2  UNL     1      21.265  46.408  46.526  1.00  0.00    -0.262 OA
HETATM   27  N2  UNL     1      21.914  48.213  45.234  1.00  0.00    -0.336 N 
BRANCH  27  28
HETATM   28  C10 UNL     1      22.402  48.871  46.424  1.00  0.00     0.127 C 
BRANCH  28  29
HETATM   29  C11 UNL     1      23.891  48.601  46.666  1.00  0.00     0.021 C 
BRANCH  29  30
HETATM   30  C12 UNL     1      24.247  48.456  48.106  1.00  0.00     0.021 C 
BRANCH  30  31
HETATM   31  C13 UNL     1      23.344  49.149  49.065  1.00  0.00     0.122 C 
BRANCH  31  32
HETATM   32  N3  UNL     1      23.855  49.487  50.349  1.00  0.00    -0.365 N 
HETATM   33  C14 UNL     1      23.110  49.584  51.543  1.00  0.00     0.181 C 
HETATM   34  N4  UNL     1      23.346  50.524  52.394  1.00  0.00    -0.374 N 
HETATM   35  N5  UNL     1      22.093  48.646  51.840  1.00  0.00    -0.064 NA
ATOM     36  H42 UNL     1      24.079  51.201  52.180  1.00  0.00     0.158 HD
ATOM     37  H41 UNL     1      22.807  50.594  53.257  1.00  0.00     0.158 HD
ATOM     38  H3  UNL     1      24.855  49.677  50.413  1.00  0.00     0.162 HD
ENDBRANCH  31  32
ENDBRANCH  30  31
ENDBRANCH  29  30
ENDBRANCH  28  29
ENDBRANCH  27  28
BRANCH  27  39
HETATM   39  C15 UNL     1      22.031  48.903  43.971  1.00  0.00     0.225 C 
BRANCH  39  40
HETATM   40  C16 UNL     1      21.712  50.338  44.211  1.00  0.00     0.249 C 
HETATM   41  N6  UNL     1      22.742  51.294  44.336  1.00  0.00    -0.061 NA
HETATM   42  O3  UNL     1      20.525  50.695  44.303  1.00  0.00    -0.275 OA
ENDBRANCH  39  40
ENDBRANCH  27  39
ENDBRANCH  22  25
ENDBRANCH   7  21
BRANCH  16  43
HETATM   43  C24 UNL     1      13.423  45.752  41.676  1.00  0.00     0.167 C 
HETATM   44 CL1  UNL     1      12.990  47.131  40.680  1.00  0.00    -0.124 Cl
ENDBRANCH  16  43
ENDBRANCH   5   6
ENDBRANCH   4   5
ENDBRANCH   3   4
TORSDOF 13
ENDMDL
MODEL 5
REMARK VINA RESULT: -5.192395122      2.108      2.430
REMARK  13 active torsions:
REMARK  status: ('A' for Active; 'I' for Inactive)
REMARK    1  A    between atoms: C3_3  and  C4_4 
REMARK    2  A    between atoms: C4_4  and  C5_5 
REMARK    3  A    between atoms: C5_5  and  C6_6 
REMARK    4  A    between atoms: C7_7  and  N1_8 
REMARK       I    between atoms: N1_8  and  C8_10 
REMARK    5  A    between atoms: C8_10  and  C9_12 
REMARK       I    between atoms: C9_12  and  N2_14 
REMARK    6  A    between atoms: N2_14  and  C10_15 
REMARK    7  A    between atoms: N2_14  and  C15_26 
REMARK    8  A    between atoms: C10_15  and  C11_16 
REMARK    9  A    between atoms: C11_16  and  C12_17 
REMARK   10  A    between atoms: C12_17  and  C13_18 
REMARK   11  A    between atoms: C13_18  and  N3_19 
REMARK       I    between atoms: N3_19  and  C14_21 
REMARK   12  A    between atoms: C15_26  and  C16_27 
REMARK   13  A    between atoms: C23_36  and  C24_37 
ROOT
HETATM    1  C1  UNL     1      22.457  42.623  45.768  1.00  0.00     0.012 C 
HETATM    2  C2  UNL     1      21.328  43.029  45.883  1.00  0.00    -0.117 C 
HETATM    3  C3  UNL     1      19.946  43.542  46.041  1.00  0.00     0.093 C 
ENDROOT
BRANCH   3   4
HETATM    4  C4  UNL     1      19.208  43.470  44.720  1.00  0.00     0.012 C 
BRANCH   4   5
HETATM    5  C5  UNL     1      17.921  44.217  44.834  1.00  0.00     0.009 C 
BRANCH   5   6
HETATM    6  C6  UNL     1      17.593  45.019  43.587  1.00  0.00     0.031 C 
HETATM    7  C7  UNL     1      18.897  45.345  42.949  1.00  0.00     0.091 C 
HETATM    8  C17 UNL     1      18.777  46.111  41.615  1.00  0.00     0.031 C 
HETATM    9  C18 UNL     1      17.382  45.787  41.215  1.00  0.00     0.002 C 
HETATM   10  C19 UNL     1      17.268  44.299  41.345  1.00  0.00     0.013 C 
HETATM   11  C26 UNL     1      16.763  46.239  39.992  1.00  0.00    -0.035 C 
HETATM   12  C20 UNL     1      16.495  43.548  40.343  1.00  0.00     0.008 C 
HETATM   13  C25 UNL     1      16.628  44.208  42.754  1.00  0.00     0.091 C 
HETATM   14  C21 UNL     1      15.432  44.229  39.580  1.00  0.00     0.011 C 
HETATM   15  C22 UNL     1      15.344  45.677  40.078  1.00  0.00     0.040 C 
HETATM   16  C23 UNL     1      14.860  45.496  41.482  1.00  0.00     0.001 C 
HETATM   17  N7  UNL     1      15.374  44.918  42.522  1.00  0.00    -0.390 N 
ATOM     18  H7  UNL     1      14.780  44.970  43.349  1.00  0.00     0.159 HD
HETATM   19  C27 UNL     1      16.626  47.750  39.963  1.00  0.00     0.016 C 
HETATM   20  C28 UNL     1      17.478  45.830  38.742  1.00  0.00     0.016 C 
BRANCH   7  21
HETATM   21  N1  UNL     1      19.576  46.274  43.842  1.00  0.00    -0.348 N 
HETATM   22  C8  UNL     1      21.004  46.258  44.008  1.00  0.00     0.309 C 
HETATM   23  O1  UNL     1      21.629  45.406  43.344  1.00  0.00    -0.262 OA
ATOM     24  H1  UNL     1      19.023  46.955  44.363  1.00  0.00     0.163 HD
BRANCH  22  25
HETATM   25  C9  UNL     1      21.672  47.181  44.897  1.00  0.00     0.311 C 
HETATM   26  O2  UNL     1      20.986  47.557  45.921  1.00  0.00    -0.262 OA
HETATM   27  N2  UNL     1      22.976  47.699  44.750  1.00  0.00    -0.336 N 
BRANCH  27  28
HETATM   28  C10 UNL     1      23.474  48.629  45.738  1.00  0.00     0.127 C 
BRANCH  28  29
HETATM   29  C11 UNL     1      23.643  50.043  45.171  1.00  0.00     0.021 C 
BRANCH  29  30
HETATM   30  C12 UNL     1      22.468  50.519  44.388  1.00  0.00     0.021 C 
BRANCH  30  31
HETATM   31  C13 UNL     1      21.464  51.310  45.152  1.00  0.00     0.122 C 
BRANCH  31  32
HETATM   32  N3  UNL     1      21.886  52.522  45.767  1.00  0.00    -0.365 N 
HETATM   33  C14 UNL     1      21.129  53.707  45.877  1.00  0.00     0.181 C 
HETATM   34  N4  UNL     1      21.681  54.861  45.714  1.00  0.00    -0.374 N 
HETATM   35  N5  UNL     1      19.748  53.658  46.181  1.00  0.00    -0.064 NA
ATOM     36  H42 UNL     1      22.677  54.897  45.496  1.00  0.00     0.158 HD
ATOM     37  H41 UNL     1      21.134  55.718  45.794  1.00  0.00     0.158 HD
ATOM     38  H3  UNL     1      22.824  52.535  46.165  1.00  0.00     0.162 HD
ENDBRANCH  31  32
ENDBRANCH  30  31
ENDBRANCH  29  30
ENDBRANCH  28  29
ENDBRANCH  27  28
BRANCH  27  39
HETATM   39  C15 UNL     1      23.832  47.354  43.640  1.00  0.00     0.225 C 
BRANCH  39  40
HETATM   40  C16 UNL     1      24.812  46.343  44.126  1.00  0.00     0.249 C 
HETATM   41  N6  UNL     1      26.179  46.448  43.796  1.00  0.00    -0.061 NA
HETATM   42  O3  UNL     1      24.418  45.397  44.830  1.00  0.00    -0.275 OA
ENDBRANCH  39  40
ENDBRANCH  27  39
ENDBRANCH  22  25
ENDBRANCH   7  21
BRANCH  16  43
HETATM   43  C24 UNL     1      13.505  46.060  41.795  1.00  0.00     0.167 C 
HETATM   44 CL1  UNL     1      13.134  47.331  40.643  1.00  0.00    -0.124 Cl
ENDBRANCH  16  43
ENDBRANCH   5   6
ENDBRANCH   4   5
ENDBRANCH   3   4
TORSDOF 13
ENDMDL
