MODEL 1
REMARK VINA RESULT: -5.912363171      0.000      0.000
REMARK  4 active torsions:
REMARK  status: ('A' for Active; 'I' for Inactive)
REMARK    1  A    between atoms: N1_1  and  C1_4 
REMARK    2  A    between atoms: C3_9  and  O1_10 
REMARK    3  A    between atoms: O1_10  and  S1_11 
REMARK    4  A    between atoms: S1_11  and  N4_12 
ROOT
HETATM    1  C1  UNL     1      86.727  84.212 117.293  1.00  0.00     0.680 A 
HETATM    2  N2  UNL     1      86.937  83.055 116.645  1.00  0.00    -0.176 N 
ATOM      3  H2  UNL     1      87.467  83.057 115.774  1.00  0.00     0.185 HD
HETATM    4  C2  UNL     1      86.461  81.894 117.127  1.00  0.00     0.172 A 
HETATM    5  N3  UNL     1      86.721  80.714 116.394  1.00  0.00    -0.079 NA
HETATM    6  C3  UNL     1      85.730  81.841 118.315  1.00  0.00     0.200 A 
HETATM    7  C4  UNL     1      85.527  83.038 118.959  1.00  0.00     0.298 A 
HETATM    8  O4  UNL     1      84.873  83.021 120.031  1.00  0.00    -0.264 OA
HETATM    9  N5  UNL     1      86.016  84.186 118.454  1.00  0.00    -0.154 N 
ATOM     10  H5  UNL     1      85.851  85.059 118.955  1.00  0.00     0.187 HD
ENDROOT
BRANCH   6  11
HETATM   11  O1  UNL     1      85.283  80.624 118.733  1.00  0.00    -0.208 OA
BRANCH  11  12
HETATM   12  S1  UNL     1      83.764  79.971 118.478  1.00  0.00     0.360 S 
HETATM   13  O2  UNL     1      83.817  78.507 118.892  1.00  0.00    -0.176 OA
HETATM   14  O3  UNL     1      82.706  80.601 119.353  1.00  0.00    -0.176 OA
BRANCH  12  15
HETATM   15  N4  UNL     1      83.270  80.002 116.830  1.00  0.00    -0.305 N 
ATOM     16  H42 UNL     1      83.902  79.763 116.066  1.00  0.00     0.171 HD
ATOM     17  H41 UNL     1      82.296  80.280 116.702  1.00  0.00     0.171 HD
ENDBRANCH  12  15
ENDBRANCH  11  12
ENDBRANCH   6  11
BRANCH   1  18
HETATM   18  N1  UNL     1      87.191  85.330 116.821  1.00  0.00    -0.234 N 
ATOM     19  H12 UNL     1      87.159  85.528 115.821  1.00  0.00     0.174 HD
ATOM     20  H11 UNL     1      87.596  86.029 117.444  1.00  0.00     0.174 HD
ENDBRANCH   1  18
TORSDOF 4
ENDMDL
MODEL 2
REMARK VINA RESULT: -5.888303029      1.373      2.428
REMARK  4 active torsions:
REMARK  status: ('A' for Active; 'I' for Inactive)
REMARK    1  A    between atoms: N1_1  and  C1_4 
REMARK    2  A    between atoms: C3_9  and  O1_10 
REMARK    3  A    between atoms: O1_10  and  S1_11 
REMARK    4  A    between atoms: S1_11  and  N4_12 
ROOT
HETATM    1  C1  UNL     1      86.692  84.173 117.114  1.00  0.00     0.680 A 
HETATM    2  N2  UNL     1      85.972  84.100 118.244  1.00  0.00    -0.176 N 
ATOM      3  H2  UNL     1      85.689  84.959 118.715  1.00  0.00     0.185 HD
HETATM    4  C2  UNL     1      85.617  82.912 118.765  1.00  0.00     0.172 A 
HETATM    5  N3  UNL     1      84.857  82.909 119.957  1.00  0.00    -0.079 NA
HETATM    6  C3  UNL     1      85.981  81.709 118.157  1.00  0.00     0.200 A 
HETATM    7  C4  UNL     1      86.719  81.810 117.002  1.00  0.00     0.298 A 
HETATM    8  O4  UNL     1      87.061  80.745 116.433  1.00  0.00    -0.264 OA
HETATM    9  N5  UNL     1      87.060  83.013 116.502  1.00  0.00    -0.154 N 
ATOM     10  H5  UNL     1      87.608  83.057 115.643  1.00  0.00     0.187 HD
ENDROOT
BRANCH   6  11
HETATM   11  O1  UNL     1      85.581  80.550 118.750  1.00  0.00    -0.208 OA
BRANCH  11  12
HETATM   12  S1  UNL     1      84.123  79.760 118.526  1.00  0.00     0.360 S 
HETATM   13  O2  UNL     1      83.997  79.436 117.044  1.00  0.00    -0.176 OA
HETATM   14  O3  UNL     1      84.069  78.429 119.239  1.00  0.00    -0.176 OA
BRANCH  12  15
HETATM   15  N4  UNL     1      82.753  80.714 118.942  1.00  0.00    -0.305 N 
ATOM     16  H42 UNL     1      82.838  81.669 119.291  1.00  0.00     0.171 HD
ATOM     17  H41 UNL     1      81.864  80.232 118.805  1.00  0.00     0.171 HD
ENDBRANCH  12  15
ENDBRANCH  11  12
ENDBRANCH   6  11
BRANCH   1  18
HETATM   18  N1  UNL     1      87.031  85.324 116.617  1.00  0.00    -0.234 N 
ATOM     19  H12 UNL     1      86.430  85.801 115.945  1.00  0.00     0.174 HD
ATOM     20  H11 UNL     1      87.906  85.773 116.892  1.00  0.00     0.174 HD
ENDBRANCH   1  18
TORSDOF 4
ENDMDL
MODEL 3
REMARK VINA RESULT: -5.861572953      1.073      2.165
REMARK  4 active torsions:
REMARK  status: ('A' for Active; 'I' for Inactive)
REMARK    1  A    between atoms: N1_1  and  C1_4 
REMARK    2  A    between atoms: C3_9  and  O1_10 
REMARK    3  A    between atoms: O1_10  and  S1_11 
REMARK    4  A    between atoms: S1_11  and  N4_12 
ROOT
HETATM    1  C1  UNL     1      86.843  84.396 117.122  1.00  0.00     0.680 A 
HETATM    2  N2  UNL     1      86.435  84.235 118.391  1.00  0.00    -0.176 N 
ATOM      3  H2  UNL     1      86.477  85.024 119.036  1.00  0.00     0.185 HD
HETATM    4  C2  UNL     1      85.970  83.050 118.825  1.00  0.00     0.172 A 
HETATM    5  N3  UNL     1      85.557  82.952 120.173  1.00  0.00    -0.079 NA
HETATM    6  C3  UNL     1      85.895  81.941 117.981  1.00  0.00     0.200 A 
HETATM    7  C4  UNL     1      86.320  82.130 116.688  1.00  0.00     0.298 A 
HETATM    8  O4  UNL     1      86.262  81.150 115.905  1.00  0.00    -0.264 OA
HETATM    9  N5  UNL     1      86.779  83.328 116.279  1.00  0.00    -0.154 N 
ATOM     10  H5  UNL     1      87.086  83.439 115.313  1.00  0.00     0.187 HD
ENDROOT
BRANCH   6  11
HETATM   11  O1  UNL     1      85.413  80.778 118.501  1.00  0.00    -0.208 OA
BRANCH  11  12
HETATM   12  S1  UNL     1      83.850  80.194 118.375  1.00  0.00     0.360 S 
HETATM   13  O2  UNL     1      83.848  78.766 118.902  1.00  0.00    -0.176 OA
HETATM   14  O3  UNL     1      82.875  80.950 119.247  1.00  0.00    -0.176 OA
BRANCH  12  15
HETATM   15  N4  UNL     1      83.270  80.124 116.756  1.00  0.00    -0.305 N 
ATOM     16  H42 UNL     1      82.597  79.423 116.447  1.00  0.00     0.171 HD
ATOM     17  H41 UNL     1      83.665  80.845 116.151  1.00  0.00     0.171 HD
ENDBRANCH  12  15
ENDBRANCH  11  12
ENDBRANCH   6  11
BRANCH   1  18
HETATM   18  N1  UNL     1      87.289  85.543 116.710  1.00  0.00    -0.234 N 
ATOM     19  H12 UNL     1      86.786  86.077 116.002  1.00  0.00     0.174 HD
ATOM     20  H11 UNL     1      88.154  85.932 117.089  1.00  0.00     0.174 HD
ENDBRANCH   1  18
TORSDOF 4
ENDMDL
MODEL 4
REMARK VINA RESULT: -5.054543609      8.236      9.237
REMARK  4 active torsions:
REMARK  status: ('A' for Active; 'I' for Inactive)
REMARK    1  A    between atoms: N1_1  and  C1_4 
REMARK    2  A    between atoms: C3_9  and  O1_10 
REMARK    3  A    between atoms: O1_10  and  S1_11 
REMARK    4  A    between atoms: S1_11  and  N4_12 
ROOT
HETATM    1  C1  UNL     1      88.176  86.643 112.104  1.00  0.00     0.680 A 
HETATM    2  N2  UNL     1      87.838  86.548 113.399  1.00  0.00    -0.176 N 
ATOM      3  H2  UNL     1      87.861  85.637 113.858  1.00  0.00     0.185 HD
HETATM    4  C2  UNL     1      87.470  87.634 114.102  1.00  0.00     0.172 A 
HETATM    5  N3  UNL     1      87.128  87.460 115.462  1.00  0.00    -0.079 NA
HETATM    6  C3  UNL     1      87.422  88.900 113.518  1.00  0.00     0.200 A 
HETATM    7  C4  UNL     1      87.771  88.972 112.190  1.00  0.00     0.298 A 
HETATM    8  O4  UNL     1      87.738  90.099 111.638  1.00  0.00    -0.264 OA
HETATM    9  N5  UNL     1      88.137  87.868 111.511  1.00  0.00    -0.154 N 
ATOM     10  H5  UNL     1      88.392  87.953 110.527  1.00  0.00     0.187 HD
ENDROOT
BRANCH   6  11
HETATM   11  O1  UNL     1      87.038  89.947 114.300  1.00  0.00    -0.208 OA
BRANCH  11  12
HETATM   12  S1  UNL     1      85.471  90.438 114.622  1.00  0.00     0.360 S 
HETATM   13  O2  UNL     1      85.546  91.608 115.592  1.00  0.00    -0.176 OA
HETATM   14  O3  UNL     1      84.767  90.972 113.397  1.00  0.00    -0.176 OA
BRANCH  12  15
HETATM   15  N4  UNL     1      84.513  89.226 115.379  1.00  0.00    -0.305 N 
ATOM     16  H42 UNL     1      84.212  88.383 114.889  1.00  0.00     0.171 HD
ATOM     17  H41 UNL     1      84.283  89.437 116.351  1.00  0.00     0.171 HD
ENDBRANCH  12  15
ENDBRANCH  11  12
ENDBRANCH   6  11
BRANCH   1  18
HETATM   18  N1  UNL     1      88.531  85.590 111.432  1.00  0.00    -0.234 N 
ATOM     19  H12 UNL     1      87.834  85.002 110.974  1.00  0.00     0.174 HD
ATOM     20  H11 UNL     1      89.515  85.331 111.351  1.00  0.00     0.174 HD
ENDBRANCH   1  18
TORSDOF 4
ENDMDL
MODEL 5
REMARK VINA RESULT: -4.977652928      2.700      4.643
REMARK  4 active torsions:
REMARK  status: ('A' for Active; 'I' for Inactive)
REMARK    1  A    between atoms: N1_1  and  C1_4 
REMARK    2  A    between atoms: C3_9  and  O1_10 
REMARK    3  A    between atoms: O1_10  and  S1_11 
REMARK    4  A    between atoms: S1_11  and  N4_12 
ROOT
HETATM    1  C1  UNL     1      83.320  79.636 118.549  1.00  0.00     0.680 A 
HETATM    2  N2  UNL     1      84.386  79.544 117.739  1.00  0.00    -0.176 N 
ATOM      3  H2  UNL     1      84.683  78.628 117.403  1.00  0.00     0.185 HD
HETATM    4  C2  UNL     1      85.069  80.640 117.363  1.00  0.00     0.172 A 
HETATM    5  N3  UNL     1      86.181  80.469 116.507  1.00  0.00    -0.079 NA
HETATM    6  C3  UNL     1      84.701  81.914 117.797  1.00  0.00     0.200 A 
HETATM    7  C4  UNL     1      83.608  81.983 118.626  1.00  0.00     0.298 A 
HETATM    8  O4  UNL     1      83.253  83.117 119.032  1.00  0.00    -0.264 OA
HETATM    9  N5  UNL     1      82.942  80.869 118.986  1.00  0.00    -0.154 N 
ATOM     10  H5  UNL     1      82.133  80.952 119.602  1.00  0.00     0.187 HD
ENDROOT
BRANCH   6  11
HETATM   11  O1  UNL     1      85.447  82.971 117.369  1.00  0.00    -0.208 OA
BRANCH  11  12
HETATM   12  S1  UNL     1      86.842  83.567 118.076  1.00  0.00     0.360 S 
HETATM   13  O2  UNL     1      87.047  84.985 117.564  1.00  0.00    -0.176 OA
HETATM   14  O3  UNL     1      86.726  83.689 119.577  1.00  0.00    -0.176 OA
BRANCH  12  15
HETATM   15  N4  UNL     1      88.256  82.680 117.658  1.00  0.00    -0.305 N 
ATOM     16  H42 UNL     1      88.398  82.285 116.728  1.00  0.00     0.171 HD
ATOM     17  H41 UNL     1      88.924  82.594 118.424  1.00  0.00     0.171 HD
ENDBRANCH  12  15
ENDBRANCH  11  12
ENDBRANCH   6  11
BRANCH   1  18
HETATM   18  N1  UNL     1      82.665  78.573 118.907  1.00  0.00    -0.234 N 
ATOM     19  H12 UNL     1      81.745  78.647 119.341  1.00  0.00     0.174 HD
ATOM     20  H11 UNL     1      83.061  77.644 118.762  1.00  0.00     0.174 HD
ENDBRANCH   1  18
TORSDOF 4
ENDMDL
