MODEL 1
REMARK VINA RESULT: -7.806491224      0.000      0.000
REMARK  5 active torsions:
REMARK  status: ('A' for Active; 'I' for Inactive)
REMARK    1  A    between atoms: N1_1  and  C1_4 
REMARK    2  A    between atoms: C1_4  and  N2_5 
REMARK    3  A    between atoms: C1_4  and  C3_16 
REMARK    4  A    between atoms: N2_5  and  C2_7 
REMARK    5  A    between atoms: C4_21  and  N9_22 
ROOT
HETATM    1  C1  UNL     1      83.659  80.514 117.551  1.00  0.00     0.148 C 
ENDROOT
BRANCH   1   2
HETATM    2  N1  UNL     1      83.344  79.906 116.462  1.00  0.00    -0.383 N 
ATOM      3  H12 UNL     1      83.152  78.904 116.466  1.00  0.00     0.157 HD
ATOM      4  H11 UNL     1      83.288  80.441 115.595  1.00  0.00     0.157 HD
ENDBRANCH   1   2
BRANCH   1   5
HETATM    5  N2  UNL     1      83.070  80.091 118.770  1.00  0.00    -0.172 N 
ATOM      6  H2  UNL     1      82.642  80.789 119.377  1.00  0.00     0.186 HD
BRANCH   5   7
HETATM    7  C2  UNL     1      83.057  78.876 119.131  1.00  0.00     0.715 A 
HETATM    8  N3  UNL     1      84.148  78.097 119.231  1.00  0.00    -0.115 N 
HETATM    9  N4  UNL     1      83.765  76.895 119.632  1.00  0.00    -0.213 N 
ATOM     10  H3  UNL     1      85.106  78.383 119.032  1.00  0.00     0.207 HD
HETATM   11  N5  UNL     1      82.456  76.888 119.789  1.00  0.00    -0.213 N 
ATOM     12  H4  UNL     1      84.384  76.101 119.793  1.00  0.00     0.210 HD
HETATM   13  N6  UNL     1      82.019  78.101 119.482  1.00  0.00    -0.115 N 
ATOM     14  H5  UNL     1      81.886  76.097 120.090  1.00  0.00     0.210 HD
ATOM     15  H6  UNL     1      81.044  78.400 119.509  1.00  0.00     0.207 HD
ENDBRANCH   5   7
ENDBRANCH   1   5
BRANCH   1  16
HETATM   16  C3  UNL     1      84.617  81.630 117.533  1.00  0.00     0.161 A 
HETATM   17  N7  UNL     1      84.306  82.858 117.975  1.00  0.00    -0.278 N 
HETATM   18  N8  UNL     1      85.202  83.846 117.943  1.00  0.00    -0.132 N 
ATOM     19  H7  UNL     1      83.371  83.039 118.341  1.00  0.00     0.188 HD
HETATM   20  C4  UNL     1      86.452  83.686 117.475  1.00  0.00     0.693 A 
ATOM     21  H8  UNL     1      84.925  84.765 118.290  1.00  0.00     0.205 HD
HETATM   22  N10 UNL     1      86.795  82.469 117.026  1.00  0.00    -0.153 N 
HETATM   23  C5  UNL     1      85.894  81.444 117.049  1.00  0.00     0.291 A 
ATOM     24  H10 UNL     1      87.734  82.309 116.664  1.00  0.00     0.187 HD
HETATM   25  O1  UNL     1      86.215  80.300 116.626  1.00  0.00    -0.265 OA
BRANCH  20  26
HETATM   26  N9  UNL     1      87.290  84.686 117.466  1.00  0.00    -0.233 N 
ATOM     27  H92 UNL     1      88.048  84.761 118.145  1.00  0.00     0.174 HD
ATOM     28  H91 UNL     1      87.205  85.427 116.771  1.00  0.00     0.174 HD
ENDBRANCH  20  26
ENDBRANCH   1  16
TORSDOF 5
ENDMDL
MODEL 2
REMARK VINA RESULT: -7.599520440      1.243      1.615
REMARK  5 active torsions:
REMARK  status: ('A' for Active; 'I' for Inactive)
REMARK    1  A    between atoms: N1_1  and  C1_4 
REMARK    2  A    between atoms: C1_4  and  N2_5 
REMARK    3  A    between atoms: C1_4  and  C3_16 
REMARK    4  A    between atoms: N2_5  and  C2_7 
REMARK    5  A    between atoms: C4_21  and  N9_22 
ROOT
HETATM    1  C1  UNL     1      83.648  80.483 117.559  1.00  0.00     0.148 C 
ENDROOT
BRANCH   1   2
HETATM    2  N1  UNL     1      83.280  79.998 116.426  1.00  0.00    -0.383 N 
ATOM      3  H12 UNL     1      83.704  79.141 116.069  1.00  0.00     0.157 HD
ATOM      4  H11 UNL     1      82.558  80.482 115.891  1.00  0.00     0.157 HD
ENDBRANCH   1   2
BRANCH   1   5
HETATM    5  N2  UNL     1      82.990  80.051 118.739  1.00  0.00    -0.172 N 
ATOM      6  H2  UNL     1      82.483  80.735 119.299  1.00  0.00     0.186 HD
BRANCH   5   7
HETATM    7  C2  UNL     1      83.010  78.842 119.122  1.00  0.00     0.715 A 
HETATM    8  N3  UNL     1      84.123  78.097 119.241  1.00  0.00    -0.115 N 
HETATM    9  N4  UNL     1      83.773  76.892 119.662  1.00  0.00    -0.213 N 
ATOM     10  H3  UNL     1      85.074  78.407 119.042  1.00  0.00     0.207 HD
HETATM   11  N5  UNL     1      82.464  76.849 119.812  1.00  0.00    -0.213 N 
ATOM     12  H4  UNL     1      84.414  76.119 119.841  1.00  0.00     0.210 HD
HETATM   13  N6  UNL     1      81.993  78.043 119.482  1.00  0.00    -0.115 N 
ATOM     14  H5  UNL     1      81.916  76.048 120.125  1.00  0.00     0.210 HD
ATOM     15  H6  UNL     1      81.010  78.314 119.498  1.00  0.00     0.207 HD
ENDBRANCH   5   7
ENDBRANCH   1   5
BRANCH   1  16
HETATM   16  C3  UNL     1      84.735  81.472 117.631  1.00  0.00     0.161 A 
HETATM   17  N7  UNL     1      85.904  81.309 116.993  1.00  0.00    -0.278 N 
HETATM   18  N8  UNL     1      86.867  82.227 117.080  1.00  0.00    -0.132 N 
ATOM     19  H7  UNL     1      86.059  80.470 116.433  1.00  0.00     0.188 HD
HETATM   20  C4  UNL     1      86.739  83.357 117.798  1.00  0.00     0.693 A 
ATOM     21  H8  UNL     1      87.741  82.065 116.580  1.00  0.00     0.205 HD
HETATM   22  N10 UNL     1      85.580  83.550 118.448  1.00  0.00    -0.153 N 
HETATM   23  C5  UNL     1      84.582  82.623 118.372  1.00  0.00     0.291 A 
ATOM     24  H10 UNL     1      85.446  84.396 119.002  1.00  0.00     0.187 HD
HETATM   25  O1  UNL     1      83.493  82.804 118.983  1.00  0.00    -0.265 OA
BRANCH  20  26
HETATM   26  N9  UNL     1      87.712  84.224 117.851  1.00  0.00    -0.233 N 
ATOM     27  H92 UNL     1      88.004  84.655 118.729  1.00  0.00     0.174 HD
ATOM     28  H91 UNL     1      88.211  84.495 117.005  1.00  0.00     0.174 HD
ENDBRANCH  20  26
ENDBRANCH   1  16
TORSDOF 5
ENDMDL
MODEL 3
REMARK VINA RESULT: -7.394173266      8.809     10.383
REMARK  5 active torsions:
REMARK  status: ('A' for Active; 'I' for Inactive)
REMARK    1  A    between atoms: N1_1  and  C1_4 
REMARK    2  A    between atoms: C1_4  and  N2_5 
REMARK    3  A    between atoms: C1_4  and  C3_16 
REMARK    4  A    between atoms: N2_5  and  C2_7 
REMARK    5  A    between atoms: C4_21  and  N9_22 
ROOT
HETATM    1  C1  UNL     1      87.815  88.910 112.200  1.00  0.00     0.148 C 
ENDROOT
BRANCH   1   2
HETATM    2  N1  UNL     1      87.965  89.349 110.999  1.00  0.00    -0.383 N 
ATOM      3  H12 UNL     1      87.865  88.720 110.202  1.00  0.00     0.157 HD
ATOM      4  H11 UNL     1      88.184  90.335 110.857  1.00  0.00     0.157 HD
ENDBRANCH   1   2
BRANCH   1   5
HETATM    5  N2  UNL     1      88.535  87.758 112.606  1.00  0.00    -0.172 N 
ATOM      6  H2  UNL     1      89.395  87.879 113.140  1.00  0.00     0.186 HD
BRANCH   5   7
HETATM    7  C2  UNL     1      88.148  86.583 112.327  1.00  0.00     0.715 A 
HETATM    8  N3  UNL     1      87.318  85.852 113.089  1.00  0.00    -0.115 N 
HETATM    9  N4  UNL     1      87.131  84.683 112.497  1.00  0.00    -0.213 N 
ATOM     10  H3  UNL     1      86.903  86.146 113.973  1.00  0.00     0.207 HD
HETATM   11  N5  UNL     1      87.823  84.651 111.375  1.00  0.00    -0.213 N 
ATOM     12  H4  UNL     1      86.545  83.927 112.852  1.00  0.00     0.210 HD
HETATM   13  N6  UNL     1      88.448  85.815 111.268  1.00  0.00    -0.115 N 
ATOM     14  H5  UNL     1      87.868  83.876 110.713  1.00  0.00     0.210 HD
ATOM     15  H6  UNL     1      89.062  86.085 110.500  1.00  0.00     0.207 HD
ENDBRANCH   5   7
ENDBRANCH   1   5
BRANCH   1  16
HETATM   16  C3  UNL     1      86.911  89.594 113.137  1.00  0.00     0.161 A 
HETATM   17  N7  UNL     1      85.981  88.942 113.851  1.00  0.00    -0.278 N 
HETATM   18  N8  UNL     1      85.178  89.596 114.692  1.00  0.00    -0.132 N 
ATOM     19  H7  UNL     1      85.886  87.932 113.749  1.00  0.00     0.188 HD
HETATM   20  C4  UNL     1      85.242  90.926 114.880  1.00  0.00     0.693 A 
ATOM     21  H8  UNL     1      84.484  89.063 115.217  1.00  0.00     0.205 HD
HETATM   22  N10 UNL     1      86.163  91.607 114.181  1.00  0.00    -0.153 N 
HETATM   23  C5  UNL     1      86.994  90.958 113.315  1.00  0.00     0.291 A 
ATOM     24  H10 UNL     1      86.242  92.617 114.298  1.00  0.00     0.187 HD
HETATM   25  O1  UNL     1      87.859  91.598 112.657  1.00  0.00    -0.265 OA
BRANCH  20  26
HETATM   26  N9  UNL     1      84.433  91.517 115.715  1.00  0.00    -0.233 N 
ATOM     27  H92 UNL     1      84.359  92.534 115.767  1.00  0.00     0.174 HD
ATOM     28  H91 UNL     1      83.848  90.970 116.346  1.00  0.00     0.174 HD
ENDBRANCH  20  26
ENDBRANCH   1  16
TORSDOF 5
ENDMDL
MODEL 4
REMARK VINA RESULT: -7.284681066      3.440      6.741
REMARK  5 active torsions:
REMARK  status: ('A' for Active; 'I' for Inactive)
REMARK    1  A    between atoms: N1_1  and  C1_4 
REMARK    2  A    between atoms: C1_4  and  N2_5 
REMARK    3  A    between atoms: C1_4  and  C3_16 
REMARK    4  A    between atoms: N2_5  and  C2_7 
REMARK    5  A    between atoms: C4_21  and  N9_22 
ROOT
HETATM    1  C1  UNL     1      87.302  82.117 114.748  1.00  0.00     0.148 C 
ENDROOT
BRANCH   1   2
HETATM    2  N1  UNL     1      88.326  81.358 114.577  1.00  0.00    -0.383 N 
ATOM      3  H12 UNL     1      88.266  80.357 114.764  1.00  0.00     0.157 HD
ATOM      4  H11 UNL     1      89.199  81.772 114.249  1.00  0.00     0.157 HD
ENDBRANCH   1   2
BRANCH   1   5
HETATM    5  N2  UNL     1      86.619  82.618 113.611  1.00  0.00    -0.172 N 
ATOM      6  H2  UNL     1      85.761  82.157 113.309  1.00  0.00     0.186 HD
BRANCH   5   7
HETATM    7  C2  UNL     1      87.038  83.620 112.956  1.00  0.00     0.715 A 
HETATM    8  N3  UNL     1      86.957  84.895 113.374  1.00  0.00    -0.115 N 
HETATM    9  N4  UNL     1      87.489  85.672 112.444  1.00  0.00    -0.213 N 
ATOM     10  H3  UNL     1      86.554  85.209 114.256  1.00  0.00     0.207 HD
HETATM   11  N5  UNL     1      87.907  84.924 111.442  1.00  0.00    -0.213 N 
ATOM     12  H4  UNL     1      87.563  86.688 112.495  1.00  0.00     0.210 HD
HETATM   13  N6  UNL     1      87.631  83.665 111.753  1.00  0.00    -0.115 N 
ATOM     14  H5  UNL     1      88.358  85.252 110.588  1.00  0.00     0.210 HD
ATOM     15  H6  UNL     1      87.839  82.856 111.168  1.00  0.00     0.207 HD
ENDBRANCH   5   7
ENDBRANCH   1   5
BRANCH   1  16
HETATM   16  C3  UNL     1      86.844  82.459 116.104  1.00  0.00     0.161 A 
HETATM   17  N7  UNL     1      86.828  83.718 116.566  1.00  0.00    -0.278 N 
HETATM   18  N8  UNL     1      86.406  83.991 117.802  1.00  0.00    -0.132 N 
ATOM     19  H7  UNL     1      87.143  84.479 115.963  1.00  0.00     0.188 HD
HETATM   20  C4  UNL     1      85.977  83.044 118.654  1.00  0.00     0.693 A 
ATOM     21  H8  UNL     1      86.410  84.962 118.114  1.00  0.00     0.205 HD
HETATM   22  N10 UNL     1      85.980  81.774 118.222  1.00  0.00    -0.153 N 
HETATM   23  C5  UNL     1      86.408  81.473 116.961  1.00  0.00     0.291 A 
ATOM     24  H10 UNL     1      85.661  81.028 118.840  1.00  0.00     0.187 HD
HETATM   25  O1  UNL     1      86.412  80.278 116.555  1.00  0.00    -0.265 OA
BRANCH  20  26
HETATM   26  N9  UNL     1      85.575  83.364 119.853  1.00  0.00    -0.233 N 
ATOM     27  H92 UNL     1      86.223  83.442 120.637  1.00  0.00     0.174 HD
ATOM     28  H91 UNL     1      84.589  83.545 120.038  1.00  0.00     0.174 HD
ENDBRANCH  20  26
ENDBRANCH   1  16
TORSDOF 5
ENDMDL
MODEL 5
REMARK VINA RESULT: -7.196807932      8.852     10.409
REMARK  5 active torsions:
REMARK  status: ('A' for Active; 'I' for Inactive)
REMARK    1  A    between atoms: N1_1  and  C1_4 
REMARK    2  A    between atoms: C1_4  and  N2_5 
REMARK    3  A    between atoms: C1_4  and  C3_16 
REMARK    4  A    between atoms: N2_5  and  C2_7 
REMARK    5  A    between atoms: C4_21  and  N9_22 
ROOT
HETATM    1  C1  UNL     1      88.239  88.888 113.097  1.00  0.00     0.148 C 
ENDROOT
BRANCH   1   2
HETATM    2  N1  UNL     1      89.326  89.053 113.765  1.00  0.00    -0.383 N 
ATOM      3  H12 UNL     1      89.878  88.248 114.062  1.00  0.00     0.157 HD
ATOM      4  H11 UNL     1      89.629  90.001 113.991  1.00  0.00     0.157 HD
ENDBRANCH   1   2
BRANCH   1   5
HETATM    5  N2  UNL     1      88.244  88.014 111.980  1.00  0.00    -0.172 N 
ATOM      6  H2  UNL     1      88.471  88.391 111.061  1.00  0.00     0.186 HD
BRANCH   5   7
HETATM    7  C2  UNL     1      87.976  86.779 112.085  1.00  0.00     0.715 A 
HETATM    8  N3  UNL     1      88.241  85.857 111.144  1.00  0.00    -0.115 N 
HETATM    9  N4  UNL     1      87.828  84.679 111.587  1.00  0.00    -0.213 N 
ATOM     10  H3  UNL     1      88.683  86.033 110.242  1.00  0.00     0.207 HD
HETATM   11  N5  UNL     1      87.306  84.828 112.789  1.00  0.00    -0.213 N 
ATOM     12  H4  UNL     1      87.903  83.798 111.080  1.00  0.00     0.210 HD
HETATM   13  N6  UNL     1      87.395  86.115 113.097  1.00  0.00    -0.115 N 
ATOM     14  H5  UNL     1      86.909  84.092 113.372  1.00  0.00     0.210 HD
ATOM     15  H6  UNL     1      87.072  86.535 113.968  1.00  0.00     0.207 HD
ENDBRANCH   5   7
ENDBRANCH   1   5
BRANCH   1  16
HETATM   16  C3  UNL     1      87.009  89.595 113.487  1.00  0.00     0.161 A 
HETATM   17  N7  UNL     1      86.000  88.989 114.130  1.00  0.00    -0.278 N 
HETATM   18  N8  UNL     1      84.899  89.662 114.468  1.00  0.00    -0.132 N 
ATOM     19  H7  UNL     1      86.075  87.999 114.364  1.00  0.00     0.188 HD
HETATM   20  C4  UNL     1      84.725  90.967 114.194  1.00  0.00     0.693 A 
ATOM     21  H8  UNL     1      84.155  89.164 114.957  1.00  0.00     0.205 HD
HETATM   22  N10 UNL     1      85.718  91.602 113.551  1.00  0.00    -0.153 N 
HETATM   23  C5  UNL     1      86.852  90.932 113.196  1.00  0.00     0.291 A 
ATOM     24  H10 UNL     1      85.623  92.592 113.326  1.00  0.00     0.187 HD
HETATM   25  O1  UNL     1      87.785  91.529 112.591  1.00  0.00    -0.265 OA
BRANCH  20  26
HETATM   26  N9  UNL     1      83.629  91.579 114.546  1.00  0.00    -0.233 N 
ATOM     27  H92 UNL     1      83.599  92.587 114.698  1.00  0.00     0.174 HD
ATOM     28  H91 UNL     1      82.764  91.056 114.681  1.00  0.00     0.174 HD
ENDBRANCH  20  26
ENDBRANCH   1  16
TORSDOF 5
ENDMDL
