MODEL 1
REMARK VINA RESULT: -7.514473779      0.000      0.000
REMARK  13 active torsions:
REMARK  status: ('A' for Active; 'I' for Inactive)
REMARK    1  A    between atoms: O1_2  and  C2_3 
REMARK    2  A    between atoms: C3_4  and  O2_5 
REMARK    3  A    between atoms: C4_7  and  O3_8 
REMARK    4  A    between atoms: C5_10  and  O4_11 
REMARK    5  A    between atoms: N1_14  and  C7_15 
REMARK    6  A    between atoms: C7_15  and  C8_16 
REMARK    7  A    between atoms: C8_16  and  C9_17 
REMARK    8  A    between atoms: C9_17  and  N2_18 
REMARK    9  A    between atoms: N2_18  and  C10_21 
REMARK   10  A    between atoms: C15_27  and  C16_28 
REMARK   11  A    between atoms: C16_28  and  N3_29 
REMARK   12  A    between atoms: N3_29  and  C17_31 
REMARK   13  A    between atoms: C17_31  and  C18_32 
ROOT
HETATM    1  N2  UNL     1      39.863  51.847  11.637  1.00  0.00    -0.070 N 
ATOM      2  H21 UNL     1      40.340  51.173  12.236  1.00  0.00     0.277 HD
ATOM      3  H22 UNL     1      39.640  52.565  12.327  1.00  0.00     0.277 HD
ENDROOT
BRANCH   1   4
HETATM    4  C9  UNL     1      38.678  51.285  11.104  1.00  0.00     0.234 C 
BRANCH   4   5
HETATM    5  C8  UNL     1      38.427  49.840  11.582  1.00  0.00     0.058 C 
BRANCH   5   6
HETATM    6  C7  UNL     1      37.273  49.857  12.552  1.00  0.00     0.277 C 
BRANCH   6   7
HETATM    7  N1  UNL     1      37.423  50.672  13.701  1.00  0.00     0.122 N 
HETATM    8  C2  UNL     1      36.192  51.268  14.170  1.00  0.00     0.390 C 
HETATM    9  C3  UNL     1      35.973  50.911  15.612  1.00  0.00     0.208 C 
HETATM   10  C4  UNL     1      37.141  51.485  16.420  1.00  0.00     0.181 C 
HETATM   11  C5  UNL     1      38.478  51.147  15.784  1.00  0.00     0.177 C 
HETATM   12  C6  UNL     1      38.187  50.067  14.764  1.00  0.00     0.310 C 
BRANCH   8  13
HETATM   13  O1  UNL     1      35.117  51.082  13.346  1.00  0.00    -0.360 OA
HETATM   14  C1  UNL     1      34.665  52.281  12.807  1.00  0.00     0.204 C 
ENDBRANCH   8  13
BRANCH   9  15
HETATM   15  O2  UNL     1      34.796  51.558  16.074  1.00  0.00    -0.388 OA
ATOM     16  H2  UNL     1      34.148  51.555  15.380  1.00  0.00     0.210 HD
ENDBRANCH   9  15
BRANCH  10  17
HETATM   17  O3  UNL     1      37.114  50.978  17.729  1.00  0.00    -0.390 OA
ATOM     18  H3  UNL     1      37.889  51.257  18.202  1.00  0.00     0.210 HD
ENDBRANCH  10  17
BRANCH  11  19
HETATM   19  O4  UNL     1      39.384  50.684  16.744  1.00  0.00    -0.391 OA
ATOM     20  H4  UNL     1      40.237  50.527  16.356  1.00  0.00     0.210 HD
ENDBRANCH  11  19
ENDBRANCH   6   7
ENDBRANCH   5   6
ENDBRANCH   4   5
ENDBRANCH   1   4
BRANCH   1  21
HETATM   21  C10 UNL     1      40.764  52.365  10.647  1.00  0.00     0.197 C 
HETATM   22  C11 UNL     1      41.041  53.813  10.899  1.00  0.00     0.036 C 
HETATM   23  C12 UNL     1      39.751  54.580  10.755  1.00  0.00     0.028 C 
HETATM   24  C13 UNL     1      39.108  54.508   9.421  1.00  0.00     0.167 C 
HETATM   25  O5  UNL     1      39.991  54.404   8.409  1.00  0.00    -0.390 OA
HETATM   26  C14 UNL     1      40.687  53.210   8.263  1.00  0.00     0.179 C 
HETATM   27  C15 UNL     1      40.354  52.166   9.227  1.00  0.00     0.078 C 
BRANCH  27  28
HETATM   28  C16 UNL     1      40.715  50.776   8.742  1.00  0.00     0.069 C 
BRANCH  28  29
HETATM   29  N3  UNL     1      41.911  50.224   9.195  1.00  0.00    -0.379 N 
ATOM     30  H3  UNL     1      42.782  50.679   8.924  1.00  0.00     0.164 HD
BRANCH  29  31
HETATM   31  C17 UNL     1      41.987  49.085  10.001  1.00  0.00     0.091 C 
BRANCH  31  32
HETATM   32  C18 UNL     1      40.873  48.137   9.573  1.00  0.00     0.159 C 
HETATM   33  C19 UNL     1      41.132  47.419   8.284  1.00  0.00     0.037 C 
HETATM   34  C20 UNL     1      39.807  46.730   7.928  1.00  0.00     0.003 C 
HETATM   35  C21 UNL     1      39.636  45.476   8.714  1.00  0.00     0.002 C 
HETATM   36  C22 UNL     1      40.894  45.096   9.476  1.00  0.00     0.026 C 
HETATM   37  C23 UNL     1      41.311  46.114  10.481  1.00  0.00     0.168 C 
HETATM   38  O6  UNL     1      40.513  47.236  10.552  1.00  0.00    -0.381 OA
ENDBRANCH  31  32
ENDBRANCH  29  31
ENDBRANCH  28  29
ENDBRANCH  27  28
ENDBRANCH   1  21
TORSDOF 13
ENDMDL
MODEL 2
REMARK VINA RESULT: -7.381933929      1.129      1.666
REMARK  13 active torsions:
REMARK  status: ('A' for Active; 'I' for Inactive)
REMARK    1  A    between atoms: O1_2  and  C2_3 
REMARK    2  A    between atoms: C3_4  and  O2_5 
REMARK    3  A    between atoms: C4_7  and  O3_8 
REMARK    4  A    between atoms: C5_10  and  O4_11 
REMARK    5  A    between atoms: N1_14  and  C7_15 
REMARK    6  A    between atoms: C7_15  and  C8_16 
REMARK    7  A    between atoms: C8_16  and  C9_17 
REMARK    8  A    between atoms: C9_17  and  N2_18 
REMARK    9  A    between atoms: N2_18  and  C10_21 
REMARK   10  A    between atoms: C15_27  and  C16_28 
REMARK   11  A    between atoms: C16_28  and  N3_29 
REMARK   12  A    between atoms: N3_29  and  C17_31 
REMARK   13  A    between atoms: C17_31  and  C18_32 
ROOT
HETATM    1  N2  UNL     1      38.995  51.304  10.540  1.00  0.00    -0.070 N 
ATOM      2  H21 UNL     1      38.665  52.259  10.396  1.00  0.00     0.277 HD
ATOM      3  H22 UNL     1      38.403  50.813   9.871  1.00  0.00     0.277 HD
ENDROOT
BRANCH   1   4
HETATM    4  C9  UNL     1      38.714  50.876  11.860  1.00  0.00     0.234 C 
BRANCH   4   5
HETATM    5  C8  UNL     1      38.039  49.490  11.914  1.00  0.00     0.058 C 
BRANCH   5   6
HETATM    6  C7  UNL     1      37.080  49.477  13.077  1.00  0.00     0.277 C 
BRANCH   6   7
HETATM    7  N1  UNL     1      37.273  50.468  14.070  1.00  0.00     0.122 N 
HETATM    8  C2  UNL     1      36.083  51.224  14.393  1.00  0.00     0.390 C 
HETATM    9  C3  UNL     1      35.816  51.143  15.868  1.00  0.00     0.208 C 
HETATM   10  C4  UNL     1      37.012  51.764  16.596  1.00  0.00     0.181 C 
HETATM   11  C5  UNL     1      38.329  51.224  16.067  1.00  0.00     0.177 C 
HETATM   12  C6  UNL     1      37.973  50.006  15.243  1.00  0.00     0.310 C 
BRANCH   8  13
HETATM   13  O1  UNL     1      35.010  50.973  13.584  1.00  0.00    -0.360 OA
HETATM   14  C1  UNL     1      34.684  52.075  12.802  1.00  0.00     0.204 C 
ENDBRANCH   8  13
BRANCH   9  15
HETATM   15  O2  UNL     1      34.685  51.943  16.178  1.00  0.00    -0.388 OA
ATOM     16  H2  UNL     1      34.107  51.453  16.750  1.00  0.00     0.210 HD
ENDBRANCH   9  15
BRANCH  10  17
HETATM   17  O3  UNL     1      36.927  51.499  17.973  1.00  0.00    -0.390 OA
ATOM     18  H3  UNL     1      37.714  51.801  18.412  1.00  0.00     0.210 HD
ENDBRANCH  10  17
BRANCH  11  19
HETATM   19  O4  UNL     1      39.183  50.874  17.118  1.00  0.00    -0.391 OA
ATOM     20  H4  UNL     1      40.091  51.025  16.881  1.00  0.00     0.210 HD
ENDBRANCH  11  19
ENDBRANCH   6   7
ENDBRANCH   5   6
ENDBRANCH   4   5
ENDBRANCH   1   4
BRANCH   1  21
HETATM   21  C10 UNL     1      40.376  51.189  10.168  1.00  0.00     0.197 C 
HETATM   22  C11 UNL     1      41.134  52.408  10.588  1.00  0.00     0.036 C 
HETATM   23  C12 UNL     1      40.582  53.597   9.842  1.00  0.00     0.028 C 
HETATM   24  C13 UNL     1      40.688  53.532   8.365  1.00  0.00     0.167 C 
HETATM   25  O5  UNL     1      41.780  52.868   7.938  1.00  0.00    -0.390 OA
HETATM   26  C14 UNL     1      41.823  51.491   8.113  1.00  0.00     0.179 C 
HETATM   27  C15 UNL     1      40.641  50.898   8.729  1.00  0.00     0.078 C 
BRANCH  27  28
HETATM   28  C16 UNL     1      40.499  49.417   8.435  1.00  0.00     0.069 C 
BRANCH  28  29
HETATM   29  N3  UNL     1      41.400  48.549   9.046  1.00  0.00    -0.379 N 
ATOM     30  H3  UNL     1      42.382  48.608   8.778  1.00  0.00     0.164 HD
BRANCH  29  31
HETATM   31  C17 UNL     1      41.037  47.600  10.007  1.00  0.00     0.091 C 
BRANCH  31  32
HETATM   32  C18 UNL     1      41.093  46.227   9.349  1.00  0.00     0.159 C 
HETATM   33  C19 UNL     1      40.470  45.128  10.155  1.00  0.00     0.037 C 
HETATM   34  C20 UNL     1      40.853  43.827   9.435  1.00  0.00     0.003 C 
HETATM   35  C21 UNL     1      39.975  43.600   8.252  1.00  0.00     0.002 C 
HETATM   36  C22 UNL     1      38.810  44.574   8.202  1.00  0.00     0.026 C 
HETATM   37  C23 UNL     1      39.230  45.999   8.089  1.00  0.00     0.168 C 
HETATM   38  O6  UNL     1      40.591  46.214   8.065  1.00  0.00    -0.381 OA
ENDBRANCH  31  32
ENDBRANCH  29  31
ENDBRANCH  28  29
ENDBRANCH  27  28
ENDBRANCH   1  21
TORSDOF 13
ENDMDL
MODEL 3
REMARK VINA RESULT: -7.363880053      1.587      2.147
REMARK  13 active torsions:
REMARK  status: ('A' for Active; 'I' for Inactive)
REMARK    1  A    between atoms: O1_2  and  C2_3 
REMARK    2  A    between atoms: C3_4  and  O2_5 
REMARK    3  A    between atoms: C4_7  and  O3_8 
REMARK    4  A    between atoms: C5_10  and  O4_11 
REMARK    5  A    between atoms: N1_14  and  C7_15 
REMARK    6  A    between atoms: C7_15  and  C8_16 
REMARK    7  A    between atoms: C8_16  and  C9_17 
REMARK    8  A    between atoms: C9_17  and  N2_18 
REMARK    9  A    between atoms: N2_18  and  C10_21 
REMARK   10  A    between atoms: C15_27  and  C16_28 
REMARK   11  A    between atoms: C16_28  and  N3_29 
REMARK   12  A    between atoms: N3_29  and  C17_31 
REMARK   13  A    between atoms: C17_31  and  C18_32 
ROOT
HETATM    1  N2  UNL     1      39.628  52.857   9.281  1.00  0.00    -0.070 N 
ATOM      2  H21 UNL     1      38.942  53.508   8.897  1.00  0.00     0.277 HD
ATOM      3  H22 UNL     1      39.278  51.984   8.886  1.00  0.00     0.277 HD
ENDROOT
BRANCH   1   4
HETATM    4  C9  UNL     1      39.549  52.829  10.694  1.00  0.00     0.234 C 
BRANCH   4   5
HETATM    5  C8  UNL     1      38.510  51.818  11.221  1.00  0.00     0.058 C 
BRANCH   5   6
HETATM    6  C7  UNL     1      37.509  52.565  12.064  1.00  0.00     0.277 C 
BRANCH   6   7
HETATM    7  N1  UNL     1      37.238  52.033  13.348  1.00  0.00     0.122 N 
HETATM    8  C2  UNL     1      35.882  51.560  13.520  1.00  0.00     0.390 C 
HETATM    9  C3  UNL     1      35.898  50.127  13.967  1.00  0.00     0.208 C 
HETATM   10  C4  UNL     1      36.620  50.064  15.317  1.00  0.00     0.181 C 
HETATM   11  C5  UNL     1      37.933  50.828  15.282  1.00  0.00     0.177 C 
HETATM   12  C6  UNL     1      38.220  51.087  13.819  1.00  0.00     0.310 C 
BRANCH   8  13
HETATM   13  O1  UNL     1      35.042  51.846  12.481  1.00  0.00    -0.360 OA
HETATM   14  C1  UNL     1      34.057  52.755  12.847  1.00  0.00     0.204 C 
ENDBRANCH   8  13
BRANCH   9  15
HETATM   15  O2  UNL     1      34.564  49.699  14.195  1.00  0.00    -0.388 OA
ATOM     16  H2  UNL     1      34.018  49.990  13.474  1.00  0.00     0.210 HD
ENDBRANCH   9  15
BRANCH  10  17
HETATM   17  O3  UNL     1      36.876  48.727  15.663  1.00  0.00    -0.390 OA
ATOM     18  H3  UNL     1      36.402  48.500  16.454  1.00  0.00     0.210 HD
ENDBRANCH  10  17
BRANCH  11  19
HETATM   19  O4  UNL     1      38.962  50.076  15.858  1.00  0.00    -0.391 OA
ATOM     20  H4  UNL     1      39.219  50.441  16.698  1.00  0.00     0.210 HD
ENDBRANCH  11  19
ENDBRANCH   6   7
ENDBRANCH   5   6
ENDBRANCH   4   5
ENDBRANCH   1   4
BRANCH   1  21
HETATM   21  C10 UNL     1      40.938  53.149   8.771  1.00  0.00     0.197 C 
HETATM   22  C11 UNL     1      41.110  54.623   8.589  1.00  0.00     0.036 C 
HETATM   23  C12 UNL     1      40.126  55.096   7.549  1.00  0.00     0.028 C 
HETATM   24  C13 UNL     1      40.275  54.493   6.204  1.00  0.00     0.167 C 
HETATM   25  O5  UNL     1      41.551  54.195   5.892  1.00  0.00    -0.390 OA
HETATM   26  C14 UNL     1      42.162  53.139   6.556  1.00  0.00     0.179 C 
HETATM   27  C15 UNL     1      41.324  52.434   7.521  1.00  0.00     0.078 C 
BRANCH  27  28
HETATM   28  C16 UNL     1      41.818  51.032   7.822  1.00  0.00     0.069 C 
BRANCH  28  29
HETATM   29  N3  UNL     1      40.886  49.998   7.787  1.00  0.00    -0.379 N 
ATOM     30  H3  UNL     1      40.592  49.648   6.875  1.00  0.00     0.164 HD
BRANCH  29  31
HETATM   31  C17 UNL     1      40.331  49.411   8.927  1.00  0.00     0.091 C 
BRANCH  31  32
HETATM   32  C18 UNL     1      40.938  48.021   9.077  1.00  0.00     0.159 C 
HETATM   33  C19 UNL     1      40.457  47.261  10.275  1.00  0.00     0.037 C 
HETATM   34  C20 UNL     1      41.363  46.025  10.364  1.00  0.00     0.003 C 
HETATM   35  C21 UNL     1      40.927  44.980   9.395  1.00  0.00     0.002 C 
HETATM   36  C22 UNL     1      39.592  45.312   8.750  1.00  0.00     0.026 C 
HETATM   37  C23 UNL     1      39.612  46.573   7.957  1.00  0.00     0.168 C 
HETATM   38  O6  UNL     1      40.816  47.244   7.945  1.00  0.00    -0.381 OA
ENDBRANCH  31  32
ENDBRANCH  29  31
ENDBRANCH  28  29
ENDBRANCH  27  28
ENDBRANCH   1  21
TORSDOF 13
ENDMDL
MODEL 4
REMARK VINA RESULT: -7.356101546      2.587      7.495
REMARK  13 active torsions:
REMARK  status: ('A' for Active; 'I' for Inactive)
REMARK    1  A    between atoms: O1_2  and  C2_3 
REMARK    2  A    between atoms: C3_4  and  O2_5 
REMARK    3  A    between atoms: C4_7  and  O3_8 
REMARK    4  A    between atoms: C5_10  and  O4_11 
REMARK    5  A    between atoms: N1_14  and  C7_15 
REMARK    6  A    between atoms: C7_15  and  C8_16 
REMARK    7  A    between atoms: C8_16  and  C9_17 
REMARK    8  A    between atoms: C9_17  and  N2_18 
REMARK    9  A    between atoms: N2_18  and  C10_21 
REMARK   10  A    between atoms: C15_27  and  C16_28 
REMARK   11  A    between atoms: C16_28  and  N3_29 
REMARK   12  A    between atoms: N3_29  and  C17_31 
REMARK   13  A    between atoms: C17_31  and  C18_32 
ROOT
HETATM    1  N2  UNL     1      40.260  51.877  11.704  1.00  0.00    -0.070 N 
ATOM      2  H21 UNL     1      40.216  52.771  12.192  1.00  0.00     0.277 HD
ATOM      3  H22 UNL     1      40.705  51.308  12.424  1.00  0.00     0.277 HD
ENDROOT
BRANCH   1   4
HETATM    4  C9  UNL     1      41.094  51.975  10.564  1.00  0.00     0.234 C 
BRANCH   4   5
HETATM    5  C8  UNL     1      40.318  52.321   9.276  1.00  0.00     0.058 C 
BRANCH   5   6
HETATM    6  C7  UNL     1      40.886  51.499   8.147  1.00  0.00     0.277 C 
BRANCH   6   7
HETATM    7  N1  UNL     1      41.859  52.128   7.332  1.00  0.00     0.122 N 
HETATM    8  C2  UNL     1      42.387  51.285   6.282  1.00  0.00     0.390 C 
HETATM    9  C3  UNL     1      42.208  51.960   4.953  1.00  0.00     0.208 C 
HETATM   10  C4  UNL     1      42.999  53.271   4.982  1.00  0.00     0.181 C 
HETATM   11  C5  UNL     1      42.713  54.067   6.244  1.00  0.00     0.177 C 
HETATM   12  C6  UNL     1      41.482  53.436   6.857  1.00  0.00     0.310 C 
BRANCH   8  13
HETATM   13  O1  UNL     1      41.986  49.980   6.341  1.00  0.00    -0.360 OA
HETATM   14  C1  UNL     1      43.067  49.109   6.413  1.00  0.00     0.204 C 
ENDBRANCH   8  13
BRANCH   9  15
HETATM   15  O2  UNL     1      42.791  51.150   3.942  1.00  0.00    -0.388 OA
ATOM     16  H2  UNL     1      43.251  51.708   3.327  1.00  0.00     0.210 HD
ENDBRANCH   9  15
BRANCH  10  17
HETATM   17  O3  UNL     1      42.674  54.053   3.862  1.00  0.00    -0.390 OA
ATOM     18  H3  UNL     1      42.000  53.623   3.349  1.00  0.00     0.210 HD
ENDBRANCH  10  17
BRANCH  11  19
HETATM   19  O4  UNL     1      42.477  55.412   5.941  1.00  0.00    -0.391 OA
ATOM     20  H4  UNL     1      41.552  55.566   5.784  1.00  0.00     0.210 HD
ENDBRANCH  11  19
ENDBRANCH   6   7
ENDBRANCH   5   6
ENDBRANCH   4   5
ENDBRANCH   1   4
BRANCH   1  21
HETATM   21  C10 UNL     1      38.939  51.391  11.425  1.00  0.00     0.197 C 
HETATM   22  C11 UNL     1      37.915  52.239  12.110  1.00  0.00     0.036 C 
HETATM   23  C12 UNL     1      38.115  52.120  13.600  1.00  0.00     0.028 C 
HETATM   24  C13 UNL     1      37.965  50.756  14.161  1.00  0.00     0.167 C 
HETATM   25  O5  UNL     1      37.061  50.006  13.501  1.00  0.00    -0.390 OA
HETATM   26  C14 UNL     1      37.376  49.567  12.222  1.00  0.00     0.179 C 
HETATM   27  C15 UNL     1      38.696  49.952  11.732  1.00  0.00     0.078 C 
BRANCH  27  28
HETATM   28  C16 UNL     1      39.196  49.060  10.613  1.00  0.00     0.069 C 
BRANCH  28  29
HETATM   29  N3  UNL     1      40.362  48.333  10.839  1.00  0.00    -0.379 N 
ATOM     30  H3  UNL     1      40.480  47.885  11.748  1.00  0.00     0.164 HD
BRANCH  29  31
HETATM   31  C17 UNL     1      41.382  48.180   9.895  1.00  0.00     0.091 C 
BRANCH  31  32
HETATM   32  C18 UNL     1      41.411  46.715   9.476  1.00  0.00     0.159 C 
HETATM   33  C19 UNL     1      40.648  45.797  10.381  1.00  0.00     0.037 C 
HETATM   34  C20 UNL     1      41.013  44.378   9.924  1.00  0.00     0.003 C 
HETATM   35  C21 UNL     1      40.235  43.998   8.710  1.00  0.00     0.002 C 
HETATM   36  C22 UNL     1      39.144  45.004   8.385  1.00  0.00     0.026 C 
HETATM   37  C23 UNL     1      39.662  46.368   8.087  1.00  0.00     0.168 C 
HETATM   38  O6  UNL     1      41.030  46.512   8.167  1.00  0.00    -0.381 OA
ENDBRANCH  31  32
ENDBRANCH  29  31
ENDBRANCH  28  29
ENDBRANCH  27  28
ENDBRANCH   1  21
TORSDOF 13
ENDMDL
MODEL 5
REMARK VINA RESULT: -7.342262379      1.096      1.574
REMARK  13 active torsions:
REMARK  status: ('A' for Active; 'I' for Inactive)
REMARK    1  A    between atoms: O1_2  and  C2_3 
REMARK    2  A    between atoms: C3_4  and  O2_5 
REMARK    3  A    between atoms: C4_7  and  O3_8 
REMARK    4  A    between atoms: C5_10  and  O4_11 
REMARK    5  A    between atoms: N1_14  and  C7_15 
REMARK    6  A    between atoms: C7_15  and  C8_16 
REMARK    7  A    between atoms: C8_16  and  C9_17 
REMARK    8  A    between atoms: C9_17  and  N2_18 
REMARK    9  A    between atoms: N2_18  and  C10_21 
REMARK   10  A    between atoms: C15_27  and  C16_28 
REMARK   11  A    between atoms: C16_28  and  N3_29 
REMARK   12  A    between atoms: N3_29  and  C17_31 
REMARK   13  A    between atoms: C17_31  and  C18_32 
ROOT
HETATM    1  N2  UNL     1      38.476  51.135  11.094  1.00  0.00    -0.070 N 
ATOM      2  H21 UNL     1      37.571  51.579  11.254  1.00  0.00     0.277 HD
ATOM      3  H22 UNL     1      38.419  50.982  10.087  1.00  0.00     0.277 HD
ENDROOT
BRANCH   1   4
HETATM    4  C9  UNL     1      38.549  49.899  11.781  1.00  0.00     0.234 C 
BRANCH   4   5
HETATM    5  C8  UNL     1      37.256  49.557  12.550  1.00  0.00     0.058 C 
BRANCH   5   6
HETATM    6  C7  UNL     1      36.600  50.848  12.967  1.00  0.00     0.277 C 
BRANCH   6   7
HETATM    7  N1  UNL     1      37.042  51.419  14.186  1.00  0.00     0.122 N 
HETATM    8  C2  UNL     1      35.993  52.033  14.969  1.00  0.00     0.390 C 
HETATM    9  C3  UNL     1      35.975  51.439  16.347  1.00  0.00     0.208 C 
HETATM   10  C4  UNL     1      37.325  51.740  17.006  1.00  0.00     0.181 C 
HETATM   11  C5  UNL     1      38.482  51.398  16.083  1.00  0.00     0.177 C 
HETATM   12  C6  UNL     1      37.890  50.558  14.973  1.00  0.00     0.310 C 
BRANCH   8  13
HETATM   13  O1  UNL     1      34.780  52.106  14.341  1.00  0.00    -0.360 OA
HETATM   14  C1  UNL     1      34.413  53.420  14.077  1.00  0.00     0.204 C 
ENDBRANCH   8  13
BRANCH   9  15
HETATM   15  O2  UNL     1      34.984  52.098  17.122  1.00  0.00    -0.388 OA
ATOM     16  H2  UNL     1      34.527  51.456  17.652  1.00  0.00     0.210 HD
ENDBRANCH   9  15
BRANCH  10  17
HETATM   17  O3  UNL     1      37.453  51.005  18.195  1.00  0.00    -0.390 OA
ATOM     18  H3  UNL     1      38.354  51.029  18.497  1.00  0.00     0.210 HD
ENDBRANCH  10  17
BRANCH  11  19
HETATM   19  O4  UNL     1      39.470  50.682  16.768  1.00  0.00    -0.391 OA
ATOM     20  H4  UNL     1      40.233  51.225  16.927  1.00  0.00     0.210 HD
ENDBRANCH  11  19
ENDBRANCH   6   7
ENDBRANCH   5   6
ENDBRANCH   4   5
ENDBRANCH   1   4
BRANCH   1  21
HETATM   21  C10 UNL     1      39.542  52.043  11.405  1.00  0.00     0.197 C 
HETATM   22  C11 UNL     1      38.993  53.352  11.877  1.00  0.00     0.036 C 
HETATM   23  C12 UNL     1      38.207  53.976  10.750  1.00  0.00     0.028 C 
HETATM   24  C13 UNL     1      38.976  54.270   9.518  1.00  0.00     0.167 C 
HETATM   25  O5  UNL     1      40.261  54.599   9.758  1.00  0.00    -0.390 OA
HETATM   26  C14 UNL     1      41.125  53.603  10.194  1.00  0.00     0.179 C 
HETATM   27  C15 UNL     1      40.540  52.272  10.320  1.00  0.00     0.078 C 
BRANCH  27  28
HETATM   28  C16 UNL     1      41.574  51.164  10.284  1.00  0.00     0.069 C 
BRANCH  28  29
HETATM   29  N3  UNL     1      41.690  50.429   9.107  1.00  0.00    -0.379 N 
ATOM     30  H3  UNL     1      42.531  50.554   8.544  1.00  0.00     0.164 HD
BRANCH  29  31
HETATM   31  C17 UNL     1      40.722  49.528   8.652  1.00  0.00     0.091 C 
BRANCH  31  32
HETATM   32  C18 UNL     1      41.198  48.122   8.994  1.00  0.00     0.159 C 
HETATM   33  C19 UNL     1      40.528  47.515  10.189  1.00  0.00     0.037 C 
HETATM   34  C20 UNL     1      41.319  46.235  10.494  1.00  0.00     0.003 C 
HETATM   35  C21 UNL     1      40.914  45.133   9.576  1.00  0.00     0.002 C 
HETATM   36  C22 UNL     1      39.690  45.491   8.750  1.00  0.00     0.026 C 
HETATM   37  C23 UNL     1      39.897  46.665   7.857  1.00  0.00     0.168 C 
HETATM   38  O6  UNL     1      41.143  47.249   7.929  1.00  0.00    -0.381 OA
ENDBRANCH  31  32
ENDBRANCH  29  31
ENDBRANCH  28  29
ENDBRANCH  27  28
ENDBRANCH   1  21
TORSDOF 13
ENDMDL
