MODEL 1
REMARK VINA RESULT: -7.921623441      0.000      0.000
REMARK  8 active torsions:
REMARK  status: ('A' for Active; 'I' for Inactive)
REMARK    1  A    between atoms: C7_7  and  C8_8 
REMARK    2  A    between atoms: C8_8  and  C9_9 
REMARK    3  A    between atoms: C9_9  and  C10_10 
REMARK    4  A    between atoms: C10_10  and  C11_11 
REMARK    5  A    between atoms: C11_11  and  C12_12 
REMARK       I    between atoms: C12_12  and  N1_14 
REMARK    6  A    between atoms: N1_14  and  C13_16 
REMARK    7  A    between atoms: C13_16  and  C14_17 
REMARK    8  A    between atoms: C14_17  and  N2_19 
ROOT
HETATM    1  C12 UNL     1     -14.345  13.737 -12.254  1.00  0.00     0.217 C 
HETATM    2  O1  UNL     1     -15.390  14.227 -12.706  1.00  0.00    -0.274 OA
HETATM    3  N1  UNL     1     -14.330  12.417 -11.752  1.00  0.00    -0.359 N 
ATOM      4  H1  UNL     1     -13.420  12.099 -11.420  1.00  0.00     0.162 HD
ENDROOT
BRANCH   1   5
HETATM    5  C11 UNL     1     -13.077  14.532 -12.227  1.00  0.00     0.103 C 
BRANCH   5   6
HETATM    6  C10 UNL     1     -11.872  13.785 -12.692  1.00  0.00     0.010 C 
BRANCH   6   7
HETATM    7  C9  UNL     1     -10.625  14.587 -12.841  1.00  0.00     0.005 C 
BRANCH   7   8
HETATM    8  C8  UNL     1     -10.888  16.006 -12.316  1.00  0.00     0.040 C 
BRANCH   8   9
HETATM    9  C7  UNL     1      -9.675  16.495 -11.659  1.00  0.00    -0.045 A 
HETATM   10  C5  UNL     1      -9.423  16.198 -10.357  1.00  0.00    -0.049 A 
HETATM   11  C3  UNL     1      -8.254  16.680  -9.761  1.00  0.00    -0.049 A 
HETATM   12  C6  UNL     1     -10.331  15.388  -9.531  1.00  0.00     0.049 C 
HETATM   13  C2  UNL     1      -7.360  17.447 -10.474  1.00  0.00    -0.049 A 
HETATM   14  C4  UNL     1      -7.915  16.394  -8.343  1.00  0.00     0.049 C 
HETATM   15  C1  UNL     1      -6.115  17.955  -9.826  1.00  0.00     0.049 C 
HETATM   16  C25 UNL     1      -7.609  17.758 -11.813  1.00  0.00    -0.049 A 
HETATM   17  C23 UNL     1      -8.765  17.275 -12.380  1.00  0.00    -0.049 A 
HETATM   18  C26 UNL     1      -6.653  18.591 -12.586  1.00  0.00     0.049 C 
HETATM   19  C24 UNL     1      -9.071  17.562 -13.806  1.00  0.00     0.049 C 
ENDBRANCH   8   9
ENDBRANCH   7   8
ENDBRANCH   6   7
ENDBRANCH   5   6
ENDBRANCH   1   5
BRANCH   3  20
HETATM   20  C13 UNL     1     -15.371  11.459 -11.632  1.00  0.00     0.158 C 
BRANCH  20  21
HETATM   21  C14 UNL     1     -15.161  10.251 -10.827  1.00  0.00     0.236 C 
HETATM   22  C15 UNL     1     -15.240  10.316  -9.341  1.00  0.00     0.044 C 
BRANCH  21  23
HETATM   23  N2  UNL     1     -15.963   9.117 -11.304  1.00  0.00     0.096 N 
HETATM   24  C16 UNL     1     -15.780   8.837 -12.691  1.00  0.00     0.305 C 
HETATM   25  C17 UNL     1     -16.158   7.433 -13.075  1.00  0.00     0.216 C 
HETATM   26  C18 UNL     1     -16.915   6.747 -11.983  1.00  0.00     0.068 C 
HETATM   27  N3  UNL     1     -17.416   7.483 -13.827  1.00  0.00    -0.064 N 
HETATM   28  C19 UNL     1     -18.093   7.480 -12.525  1.00  0.00     0.193 C 
HETATM   29  C20 UNL     1     -18.295   8.850 -11.975  1.00  0.00     0.040 C 
HETATM   30  C21 UNL     1     -19.675   9.005 -11.335  1.00  0.00     0.014 C 
HETATM   31  C22 UNL     1     -17.307   9.168 -10.851  1.00  0.00     0.279 C 
ATOM     32  H32 UNL     1     -17.595   8.211 -14.519  1.00  0.00     0.278 HD
ATOM     33  H31 UNL     1     -17.637   6.791 -14.544  1.00  0.00     0.278 HD
ENDBRANCH  21  23
ENDBRANCH  20  21
ENDBRANCH   3  20
TORSDOF 8
ENDMDL
MODEL 2
REMARK VINA RESULT: -7.746448160      6.941      9.254
REMARK  8 active torsions:
REMARK  status: ('A' for Active; 'I' for Inactive)
REMARK    1  A    between atoms: C7_7  and  C8_8 
REMARK    2  A    between atoms: C8_8  and  C9_9 
REMARK    3  A    between atoms: C9_9  and  C10_10 
REMARK    4  A    between atoms: C10_10  and  C11_11 
REMARK    5  A    between atoms: C11_11  and  C12_12 
REMARK       I    between atoms: C12_12  and  N1_14 
REMARK    6  A    between atoms: N1_14  and  C13_16 
REMARK    7  A    between atoms: C13_16  and  C14_17 
REMARK    8  A    between atoms: C14_17  and  N2_19 
ROOT
HETATM    1  C12 UNL     1     -20.531   9.710  -8.223  1.00  0.00     0.217 C 
HETATM    2  O1  UNL     1     -20.656   8.625  -7.637  1.00  0.00    -0.274 OA
HETATM    3  N1  UNL     1     -19.856  10.785  -7.606  1.00  0.00    -0.359 N 
ATOM      4  H1  UNL     1     -19.790  11.629  -8.176  1.00  0.00     0.162 HD
ENDROOT
BRANCH   1   5
HETATM    5  C11 UNL     1     -21.095   9.907  -9.596  1.00  0.00     0.103 C 
BRANCH   5   6
HETATM    6  C10 UNL     1     -20.088   9.820 -10.693  1.00  0.00     0.010 C 
BRANCH   6   7
HETATM    7  C9  UNL     1     -18.704   9.453 -10.281  1.00  0.00     0.005 C 
BRANCH   7   8
HETATM    8  C8  UNL     1     -17.711  10.147 -11.224  1.00  0.00     0.040 C 
BRANCH   8   9
HETATM    9  C7  UNL     1     -16.454   9.398 -11.218  1.00  0.00    -0.045 A 
HETATM   10  C5  UNL     1     -16.224   8.421 -12.134  1.00  0.00    -0.049 A 
HETATM   11  C3  UNL     1     -15.011   7.726 -12.100  1.00  0.00    -0.049 A 
HETATM   12  C6  UNL     1     -17.199   8.050 -13.169  1.00  0.00     0.049 C 
HETATM   13  C2  UNL     1     -14.053   8.020 -11.155  1.00  0.00    -0.049 A 
HETATM   14  C4  UNL     1     -14.692   6.646 -13.069  1.00  0.00     0.049 C 
HETATM   15  C1  UNL     1     -12.762   7.271 -11.131  1.00  0.00     0.049 C 
HETATM   16  C25 UNL     1     -14.279   9.023 -10.210  1.00  0.00    -0.049 A 
HETATM   17  C23 UNL     1     -15.478   9.694 -10.259  1.00  0.00    -0.049 A 
HETATM   18  C26 UNL     1     -13.253   9.340  -9.184  1.00  0.00     0.049 C 
HETATM   19  C24 UNL     1     -15.763  10.781  -9.287  1.00  0.00     0.049 C 
ENDBRANCH   8   9
ENDBRANCH   7   8
ENDBRANCH   6   7
ENDBRANCH   5   6
ENDBRANCH   1   5
BRANCH   3  20
HETATM   20  C13 UNL     1     -19.253  10.888  -6.324  1.00  0.00     0.158 C 
BRANCH  20  21
HETATM   21  C14 UNL     1     -17.852  11.307  -6.209  1.00  0.00     0.236 C 
HETATM   22  C15 UNL     1     -17.511  12.643  -5.646  1.00  0.00     0.044 C 
BRANCH  21  23
HETATM   23  N2  UNL     1     -17.016  10.285  -5.566  1.00  0.00     0.096 N 
HETATM   24  C16 UNL     1     -15.742  10.774  -5.148  1.00  0.00     0.305 C 
HETATM   25  C17 UNL     1     -15.102   9.940  -4.074  1.00  0.00     0.216 C 
HETATM   26  C18 UNL     1     -15.803   8.630  -3.900  1.00  0.00     0.068 C 
HETATM   27  N3  UNL     1     -13.991   9.192  -4.670  1.00  0.00    -0.064 N 
HETATM   28  C19 UNL     1     -14.991   8.196  -5.070  1.00  0.00     0.193 C 
HETATM   29  C20 UNL     1     -15.595   8.484  -6.402  1.00  0.00     0.040 C 
HETATM   30  C21 UNL     1     -15.762   7.213  -7.236  1.00  0.00     0.014 C 
HETATM   31  C22 UNL     1     -17.008   9.058  -6.280  1.00  0.00     0.279 C 
ATOM     32  H32 UNL     1     -13.364   9.621  -5.352  1.00  0.00     0.278 HD
ATOM     33  H31 UNL     1     -13.169   8.932  -4.124  1.00  0.00     0.278 HD
ENDBRANCH  21  23
ENDBRANCH  20  21
ENDBRANCH   3  20
TORSDOF 8
ENDMDL
MODEL 3
REMARK VINA RESULT: -7.681683129      0.540      2.079
REMARK  8 active torsions:
REMARK  status: ('A' for Active; 'I' for Inactive)
REMARK    1  A    between atoms: C7_7  and  C8_8 
REMARK    2  A    between atoms: C8_8  and  C9_9 
REMARK    3  A    between atoms: C9_9  and  C10_10 
REMARK    4  A    between atoms: C10_10  and  C11_11 
REMARK    5  A    between atoms: C11_11  and  C12_12 
REMARK       I    between atoms: C12_12  and  N1_14 
REMARK    6  A    between atoms: N1_14  and  C13_16 
REMARK    7  A    between atoms: C13_16  and  C14_17 
REMARK    8  A    between atoms: C14_17  and  N2_19 
ROOT
HETATM    1  C12 UNL     1     -14.083  13.723 -11.484  1.00  0.00     0.217 C 
HETATM    2  O1  UNL     1     -14.338  13.942 -10.291  1.00  0.00    -0.274 OA
HETATM    3  N1  UNL     1     -14.729  12.676 -12.176  1.00  0.00    -0.359 N 
ATOM      4  H1  UNL     1     -14.466  12.588 -13.157  1.00  0.00     0.162 HD
ENDROOT
BRANCH   1   5
HETATM    5  C11 UNL     1     -13.084  14.562 -12.219  1.00  0.00     0.103 C 
BRANCH   5   6
HETATM    6  C10 UNL     1     -11.890  13.811 -12.706  1.00  0.00     0.010 C 
BRANCH   6   7
HETATM    7  C9  UNL     1     -10.626  14.594 -12.812  1.00  0.00     0.005 C 
BRANCH   7   8
HETATM    8  C8  UNL     1     -10.885  16.017 -12.296  1.00  0.00     0.040 C 
BRANCH   8   9
HETATM    9  C7  UNL     1      -9.659  16.523 -11.680  1.00  0.00    -0.045 A 
HETATM   10  C5  UNL     1      -8.762  17.241 -12.406  1.00  0.00    -0.049 A 
HETATM   11  C3  UNL     1      -7.602  17.713 -11.784  1.00  0.00    -0.049 A 
HETATM   12  C6  UNL     1      -8.951  17.549 -13.831  1.00  0.00     0.049 C 
HETATM   13  C2  UNL     1      -7.359  17.459 -10.453  1.00  0.00    -0.049 A 
HETATM   14  C4  UNL     1      -6.579  18.503 -12.517  1.00  0.00     0.049 C 
HETATM   15  C1  UNL     1      -6.116  17.969  -9.801  1.00  0.00     0.049 C 
HETATM   16  C25 UNL     1      -8.274  16.723  -9.697  1.00  0.00    -0.049 A 
HETATM   17  C23 UNL     1      -9.409  16.268 -10.327  1.00  0.00    -0.049 A 
HETATM   18  C26 UNL     1      -8.016  16.440  -8.262  1.00  0.00     0.049 C 
HETATM   19  C24 UNL     1     -10.423  15.494  -9.565  1.00  0.00     0.049 C 
ENDBRANCH   8   9
ENDBRANCH   7   8
ENDBRANCH   6   7
ENDBRANCH   5   6
ENDBRANCH   1   5
BRANCH   3  20
HETATM   20  C13 UNL     1     -15.685  11.724 -11.732  1.00  0.00     0.158 C 
BRANCH  20  21
HETATM   21  C14 UNL     1     -15.241  10.529 -11.005  1.00  0.00     0.236 C 
HETATM   22  C15 UNL     1     -15.121  10.554  -9.521  1.00  0.00     0.044 C 
BRANCH  21  23
HETATM   23  N2  UNL     1     -15.976   9.324 -11.410  1.00  0.00     0.096 N 
HETATM   24  C16 UNL     1     -15.809   8.994 -12.788  1.00  0.00     0.305 C 
HETATM   25  C17 UNL     1     -16.102   7.553 -13.101  1.00  0.00     0.216 C 
HETATM   26  C18 UNL     1     -16.785   6.868 -11.960  1.00  0.00     0.068 C 
HETATM   27  N3  UNL     1     -17.379   7.486 -13.819  1.00  0.00    -0.064 N 
HETATM   28  C19 UNL     1     -18.021   7.498 -12.500  1.00  0.00     0.193 C 
HETATM   29  C20 UNL     1     -18.301   8.875 -12.005  1.00  0.00     0.040 C 
HETATM   30  C21 UNL     1     -19.673   8.968 -11.335  1.00  0.00     0.014 C 
HETATM   31  C22 UNL     1     -17.309   9.308 -10.923  1.00  0.00     0.279 C 
ATOM     32  H32 UNL     1     -17.623   8.169 -14.537  1.00  0.00     0.278 HD
ATOM     33  H31 UNL     1     -17.570   6.749 -14.499  1.00  0.00     0.278 HD
ENDBRANCH  21  23
ENDBRANCH  20  21
ENDBRANCH   3  20
TORSDOF 8
ENDMDL
MODEL 4
REMARK VINA RESULT: -7.635750532      5.938     11.190
REMARK  8 active torsions:
REMARK  status: ('A' for Active; 'I' for Inactive)
REMARK    1  A    between atoms: C7_7  and  C8_8 
REMARK    2  A    between atoms: C8_8  and  C9_9 
REMARK    3  A    between atoms: C9_9  and  C10_10 
REMARK    4  A    between atoms: C10_10  and  C11_11 
REMARK    5  A    between atoms: C11_11  and  C12_12 
REMARK       I    between atoms: C12_12  and  N1_14 
REMARK    6  A    between atoms: N1_14  and  C13_16 
REMARK    7  A    between atoms: C13_16  and  C14_17 
REMARK    8  A    between atoms: C14_17  and  N2_19 
ROOT
HETATM    1  C12 UNL     1      -6.866  18.851 -11.525  1.00  0.00     0.217 C 
HETATM    2  O1  UNL     1      -5.742  19.210 -11.904  1.00  0.00    -0.274 OA
HETATM    3  N1  UNL     1      -7.581  19.611 -10.575  1.00  0.00    -0.359 N 
ATOM      4  H1  UNL     1      -8.503  19.244 -10.342  1.00  0.00     0.162 HD
ENDROOT
BRANCH   1   5
HETATM    5  C11 UNL     1      -7.492  17.602 -12.065  1.00  0.00     0.103 C 
BRANCH   5   6
HETATM    6  C10 UNL     1      -8.331  17.810 -13.281  1.00  0.00     0.010 C 
BRANCH   6   7
HETATM    7  C9  UNL     1      -9.462  16.857 -13.465  1.00  0.00     0.005 C 
BRANCH   7   8
HETATM    8  C8  UNL     1      -9.674  16.090 -12.152  1.00  0.00     0.040 C 
BRANCH   8   9
HETATM    9  C7  UNL     1     -11.104  16.074 -11.843  1.00  0.00    -0.045 A 
HETATM   10  C5  UNL     1     -11.687  17.118 -11.197  1.00  0.00    -0.049 A 
HETATM   11  C3  UNL     1     -13.057  17.071 -10.920  1.00  0.00    -0.049 A 
HETATM   12  C6  UNL     1     -10.939  18.308 -10.766  1.00  0.00     0.049 C 
HETATM   13  C2  UNL     1     -13.817  15.986 -11.293  1.00  0.00    -0.049 A 
HETATM   14  C4  UNL     1     -13.758  18.176 -10.217  1.00  0.00     0.049 C 
HETATM   15  C1  UNL     1     -15.279  15.949 -10.992  1.00  0.00     0.049 C 
HETATM   16  C25 UNL     1     -13.230  14.908 -11.958  1.00  0.00    -0.049 A 
HETATM   17  C23 UNL     1     -11.881  14.972 -12.221  1.00  0.00    -0.049 A 
HETATM   18  C26 UNL     1     -14.043  13.731 -12.358  1.00  0.00     0.049 C 
HETATM   19  C24 UNL     1     -11.208  13.860 -12.941  1.00  0.00     0.049 C 
ENDBRANCH   8   9
ENDBRANCH   7   8
ENDBRANCH   6   7
ENDBRANCH   5   6
ENDBRANCH   1   5
BRANCH   3  20
HETATM   20  C13 UNL     1      -7.228  20.803  -9.888  1.00  0.00     0.158 C 
BRANCH  20  21
HETATM   21  C14 UNL     1      -7.549  22.107 -10.479  1.00  0.00     0.236 C 
HETATM   22  C15 UNL     1      -6.465  23.086 -10.772  1.00  0.00     0.044 C 
BRANCH  21  23
HETATM   23  N2  UNL     1      -8.422  21.987 -11.654  1.00  0.00     0.096 N 
HETATM   24  C16 UNL     1      -7.741  22.196 -12.890  1.00  0.00     0.305 C 
HETATM   25  C17 UNL     1      -8.447  21.594 -14.074  1.00  0.00     0.216 C 
HETATM   26  C18 UNL     1      -9.841  21.174 -13.731  1.00  0.00     0.068 C 
HETATM   27  N3  UNL     1      -9.038  22.680 -14.862  1.00  0.00    -0.064 N 
HETATM   28  C19 UNL     1     -10.178  22.609 -13.942  1.00  0.00     0.193 C 
HETATM   29  C20 UNL     1     -10.014  23.482 -12.746  1.00  0.00     0.040 C 
HETATM   30  C21 UNL     1     -11.314  24.200 -12.384  1.00  0.00     0.014 C 
HETATM   31  C22 UNL     1      -9.651  22.680 -11.495  1.00  0.00     0.279 C 
ATOM     32  H32 UNL     1      -8.537  23.555 -15.023  1.00  0.00     0.278 HD
ATOM     33  H31 UNL     1      -9.161  22.601 -15.871  1.00  0.00     0.278 HD
ENDBRANCH  21  23
ENDBRANCH  20  21
ENDBRANCH   3  20
TORSDOF 8
ENDMDL
MODEL 5
REMARK VINA RESULT: -7.598919536      7.367      9.639
REMARK  8 active torsions:
REMARK  status: ('A' for Active; 'I' for Inactive)
REMARK    1  A    between atoms: C7_7  and  C8_8 
REMARK    2  A    between atoms: C8_8  and  C9_9 
REMARK    3  A    between atoms: C9_9  and  C10_10 
REMARK    4  A    between atoms: C10_10  and  C11_11 
REMARK    5  A    between atoms: C11_11  and  C12_12 
REMARK       I    between atoms: C12_12  and  N1_14 
REMARK    6  A    between atoms: N1_14  and  C13_16 
REMARK    7  A    between atoms: C13_16  and  C14_17 
REMARK    8  A    between atoms: C14_17  and  N2_19 
ROOT
HETATM    1  C12 UNL     1     -21.986   9.436 -11.435  1.00  0.00     0.217 C 
HETATM    2  O1  UNL     1     -23.048   9.113 -11.986  1.00  0.00    -0.274 OA
HETATM    3  N1  UNL     1     -21.774  10.765 -11.008  1.00  0.00    -0.359 N 
ATOM      4  H1  UNL     1     -20.878  10.926 -10.549  1.00  0.00     0.162 HD
ENDROOT
BRANCH   1   5
HETATM    5  C11 UNL     1     -20.903   8.426 -11.210  1.00  0.00     0.103 C 
BRANCH   5   6
HETATM    6  C10 UNL     1     -19.559   8.845 -11.703  1.00  0.00     0.010 C 
BRANCH   6   7
HETATM    7  C9  UNL     1     -18.534   9.112 -10.656  1.00  0.00     0.005 C 
BRANCH   7   8
HETATM    8  C8  UNL     1     -17.397   9.934 -11.280  1.00  0.00     0.040 C 
BRANCH   8   9
HETATM    9  C7  UNL     1     -16.136   9.219 -11.082  1.00  0.00    -0.045 A 
HETATM   10  C5  UNL     1     -15.430   9.363  -9.930  1.00  0.00    -0.049 A 
HETATM   11  C3  UNL     1     -14.230   8.662  -9.773  1.00  0.00    -0.049 A 
HETATM   12  C6  UNL     1     -15.867  10.232  -8.828  1.00  0.00     0.049 C 
HETATM   13  C2  UNL     1     -13.759   7.833 -10.766  1.00  0.00    -0.049 A 
HETATM   14  C4  UNL     1     -13.407   8.773  -8.541  1.00  0.00     0.049 C 
HETATM   15  C1  UNL     1     -12.477   7.090 -10.585  1.00  0.00     0.049 C 
HETATM   16  C25 UNL     1     -14.477   7.676 -11.954  1.00  0.00    -0.049 A 
HETATM   17  C23 UNL     1     -15.655   8.374 -12.089  1.00  0.00    -0.049 A 
HETATM   18  C26 UNL     1     -13.973   6.789 -13.032  1.00  0.00     0.049 C 
HETATM   19  C24 UNL     1     -16.466   8.232 -13.326  1.00  0.00     0.049 C 
ENDBRANCH   8   9
ENDBRANCH   7   8
ENDBRANCH   6   7
ENDBRANCH   5   6
ENDBRANCH   1   5
BRANCH   3  20
HETATM   20  C13 UNL     1     -22.601  11.914 -11.112  1.00  0.00     0.158 C 
BRANCH  20  21
HETATM   21  C14 UNL     1     -22.527  12.961 -10.086  1.00  0.00     0.236 C 
HETATM   22  C15 UNL     1     -23.590  14.001  -9.996  1.00  0.00     0.044 C 
BRANCH  21  23
HETATM   23  N2  UNL     1     -22.273  12.412  -8.747  1.00  0.00     0.096 N 
HETATM   24  C16 UNL     1     -23.461  12.206  -7.984  1.00  0.00     0.305 C 
HETATM   25  C17 UNL     1     -23.295  11.209  -6.871  1.00  0.00     0.216 C 
HETATM   26  C18 UNL     1     -21.855  10.883  -6.632  1.00  0.00     0.068 C 
HETATM   27  N3  UNL     1     -23.274  11.935  -5.598  1.00  0.00    -0.064 N 
HETATM   28  C19 UNL     1     -21.843  12.145  -5.841  1.00  0.00     0.193 C 
HETATM   29  C20 UNL     1     -21.562  13.381  -6.623  1.00  0.00     0.040 C 
HETATM   30  C21 UNL     1     -20.346  14.133  -6.079  1.00  0.00     0.014 C 
HETATM   31  C22 UNL     1     -21.210  13.072  -8.079  1.00  0.00     0.279 C 
ATOM     32  H32 UNL     1     -23.905  12.718  -5.421  1.00  0.00     0.278 HD
ATOM     33  H31 UNL     1     -23.612  11.508  -4.735  1.00  0.00     0.278 HD
ENDBRANCH  21  23
ENDBRANCH  20  21
ENDBRANCH   3  20
TORSDOF 8
ENDMDL
