MODEL 1
REMARK VINA RESULT: -6.725632991      0.000      0.000
REMARK  7 active torsions:
REMARK  status: ('A' for Active; 'I' for Inactive)
REMARK    1  A    between atoms: C8_8  and  N1_9 
REMARK       I    between atoms: N1_9  and  C9_10 
REMARK       I    between atoms: N1_9  and  C10_13 
REMARK       I    between atoms: C10_13  and  N3_15 
REMARK    2  A    between atoms: N3_15  and  C11_17 
REMARK    3  A    between atoms: C11_17  and  C12_18 
REMARK    4  A    between atoms: C12_18  and  C13_19 
REMARK    5  A    between atoms: C13_19  and  S1_20 
REMARK    6  A    between atoms: C18_25  and  C19_26 
REMARK    7  A    between atoms: C19_26  and  C20_27 
ROOT
HETATM    1  C1  UNL     1      23.918  12.473   5.720  1.00  0.00     0.014 C 
HETATM    2  C2  UNL     1      23.031  12.963   6.519  1.00  0.00    -0.084 C 
HETATM    3  C3  UNL     1      23.289  14.237   7.247  1.00  0.00     0.034 C 
HETATM    4  C4  UNL     1      22.407  14.313   8.447  1.00  0.00     0.009 C 
HETATM    5  C5  UNL     1      21.966  13.062   9.075  1.00  0.00    -0.009 C 
HETATM    6  C6  UNL     1      22.706  12.669  10.319  1.00  0.00     0.007 C 
HETATM    7  C7  UNL     1      21.773  11.713  11.043  1.00  0.00     0.027 C 
HETATM    8  C8  UNL     1      21.286  10.588  10.187  1.00  0.00     0.103 C 
HETATM    9  C15 UNL     1      20.892  10.905   8.786  1.00  0.00     0.010 C 
HETATM   10  C16 UNL     1      20.783   9.587   8.045  1.00  0.00     0.012 C 
HETATM   11  C17 UNL     1      21.895  11.828   8.196  1.00  0.00     0.004 C 
HETATM   12  C18 UNL     1      21.739  12.338   6.824  1.00  0.00     0.022 C 
ENDROOT
BRANCH   8  13
HETATM   13  N1  UNL     1      20.265   9.863  10.932  1.00  0.00    -0.249 N 
HETATM   14  C9  UNL     1      20.551   8.487  11.313  1.00  0.00     0.339 C 
HETATM   15  N2  UNL     1      19.603   7.721  11.994  1.00  0.00    -0.039 NA
HETATM   16  O1  UNL     1      21.673   7.960  11.030  1.00  0.00    -0.250 OA
HETATM   17  C10 UNL     1      19.028  10.394  11.350  1.00  0.00     0.326 C 
HETATM   18  O2  UNL     1      18.228   9.597  11.969  1.00  0.00    -0.247 OA
HETATM   19  N3  UNL     1      18.549  11.712  11.175  1.00  0.00    -0.343 N 
ATOM     20  H3  UNL     1      19.111  12.419  10.701  1.00  0.00     0.164 HD
BRANCH  19  21
HETATM   21  C11 UNL     1      17.215  12.025  11.699  1.00  0.00     0.125 C 
BRANCH  21  22
HETATM   22  C12 UNL     1      16.637  13.247  11.047  1.00  0.00     0.030 C 
BRANCH  22  23
HETATM   23  C13 UNL     1      16.499  14.373  12.036  1.00  0.00     0.075 C 
BRANCH  23  24
HETATM   24  S1  UNL     1      17.548  15.770  11.617  1.00  0.00    -0.173 SA
HETATM   25  C14 UNL     1      18.838  15.246  10.425  1.00  0.00     0.089 C 
ENDBRANCH  23  24
ENDBRANCH  22  23
ENDBRANCH  21  22
ENDBRANCH  19  21
ENDBRANCH   8  13
BRANCH  12  26
HETATM   26  C19 UNL     1      21.196  11.550   5.736  1.00  0.00     0.036 C 
BRANCH  26  27
HETATM   27  C20 UNL     1      20.026  12.292   5.125  1.00  0.00    -0.024 C 
HETATM   28  C21 UNL     1      18.793  11.894   5.101  1.00  0.00    -0.091 C 
HETATM   29  C22 UNL     1      18.273  10.630   5.672  1.00  0.00     0.042 C 
HETATM   30  C23 UNL     1      17.756  12.768   4.441  1.00  0.00     0.042 C 
ENDBRANCH  26  27
ENDBRANCH  12  26
TORSDOF 7
ENDMDL
MODEL 2
REMARK VINA RESULT: -6.708059072      3.905      6.874
REMARK  7 active torsions:
REMARK  status: ('A' for Active; 'I' for Inactive)
REMARK    1  A    between atoms: C8_8  and  N1_9 
REMARK       I    between atoms: N1_9  and  C9_10 
REMARK       I    between atoms: N1_9  and  C10_13 
REMARK       I    between atoms: C10_13  and  N3_15 
REMARK    2  A    between atoms: N3_15  and  C11_17 
REMARK    3  A    between atoms: C11_17  and  C12_18 
REMARK    4  A    between atoms: C12_18  and  C13_19 
REMARK    5  A    between atoms: C13_19  and  S1_20 
REMARK    6  A    between atoms: C18_25  and  C19_26 
REMARK    7  A    between atoms: C19_26  and  C20_27 
ROOT
HETATM    1  C1  UNL     1      12.284   8.920   9.549  1.00  0.00     0.014 C 
HETATM    2  C2  UNL     1      13.176   8.164  10.094  1.00  0.00    -0.084 C 
HETATM    3  C3  UNL     1      12.884   7.442  11.365  1.00  0.00     0.034 C 
HETATM    4  C4  UNL     1      14.164   7.090  12.044  1.00  0.00     0.009 C 
HETATM    5  C5  UNL     1      15.338   7.939  11.812  1.00  0.00    -0.009 C 
HETATM    6  C6  UNL     1      15.658   8.913  12.907  1.00  0.00     0.007 C 
HETATM    7  C7  UNL     1      17.124   9.259  12.709  1.00  0.00     0.027 C 
HETATM    8  C8  UNL     1      17.450   9.706  11.320  1.00  0.00     0.103 C 
HETATM    9  C15 UNL     1      16.823   8.965  10.190  1.00  0.00     0.010 C 
HETATM   10  C16 UNL     1      17.019   9.806   8.943  1.00  0.00     0.012 C 
HETATM   11  C17 UNL     1      15.395   8.710  10.508  1.00  0.00     0.004 C 
HETATM   12  C18 UNL     1      14.535   7.961   9.577  1.00  0.00     0.022 C 
ENDROOT
BRANCH   8  13
HETATM   13  N1  UNL     1      18.898   9.822  11.211  1.00  0.00    -0.249 N 
HETATM   14  C9  UNL     1      19.697   8.638  11.491  1.00  0.00     0.339 C 
HETATM   15  N2  UNL     1      21.092   8.688  11.443  1.00  0.00    -0.039 NA
HETATM   16  O1  UNL     1      19.135   7.536  11.785  1.00  0.00    -0.250 OA
HETATM   17  C10 UNL     1      19.597  10.983  10.819  1.00  0.00     0.326 C 
HETATM   18  O2  UNL     1      20.883  10.917  10.813  1.00  0.00    -0.247 OA
HETATM   19  N3  UNL     1      19.054  12.226  10.425  1.00  0.00    -0.343 N 
ATOM     20  H3  UNL     1      18.046  12.377  10.392  1.00  0.00     0.164 HD
BRANCH  19  21
HETATM   21  C11 UNL     1      19.996  13.293  10.064  1.00  0.00     0.125 C 
BRANCH  21  22
HETATM   22  C12 UNL     1      19.947  13.600   8.596  1.00  0.00     0.030 C 
BRANCH  22  23
HETATM   23  C13 UNL     1      20.930  12.751   7.834  1.00  0.00     0.075 C 
BRANCH  23  24
HETATM   24  S1  UNL     1      20.113  11.460   6.890  1.00  0.00    -0.173 SA
HETATM   25  C14 UNL     1      20.684   9.814   7.460  1.00  0.00     0.089 C 
ENDBRANCH  23  24
ENDBRANCH  22  23
ENDBRANCH  21  22
ENDBRANCH  19  21
ENDBRANCH   8  13
BRANCH  12  26
HETATM   26  C19 UNL     1      14.637   8.065   8.136  1.00  0.00     0.036 C 
BRANCH  26  27
HETATM   27  C20 UNL     1      15.454   6.903   7.613  1.00  0.00    -0.024 C 
HETATM   28  C21 UNL     1      16.110   6.867   6.496  1.00  0.00    -0.091 C 
HETATM   29  C22 UNL     1      16.199   7.960   5.501  1.00  0.00     0.042 C 
HETATM   30  C23 UNL     1      16.870   5.615   6.136  1.00  0.00     0.042 C 
ENDBRANCH  26  27
ENDBRANCH  12  26
TORSDOF 7
ENDMDL
MODEL 3
REMARK VINA RESULT: -6.546107954      1.550      2.031
REMARK  7 active torsions:
REMARK  status: ('A' for Active; 'I' for Inactive)
REMARK    1  A    between atoms: C8_8  and  N1_9 
REMARK       I    between atoms: N1_9  and  C9_10 
REMARK       I    between atoms: N1_9  and  C10_13 
REMARK       I    between atoms: C10_13  and  N3_15 
REMARK    2  A    between atoms: N3_15  and  C11_17 
REMARK    3  A    between atoms: C11_17  and  C12_18 
REMARK    4  A    between atoms: C12_18  and  C13_19 
REMARK    5  A    between atoms: C13_19  and  S1_20 
REMARK    6  A    between atoms: C18_25  and  C19_26 
REMARK    7  A    between atoms: C19_26  and  C20_27 
ROOT
HETATM    1  C1  UNL     1      23.918  12.337   5.702  1.00  0.00     0.014 C 
HETATM    2  C2  UNL     1      23.002  12.861   6.445  1.00  0.00    -0.084 C 
HETATM    3  C3  UNL     1      23.227  14.173   7.115  1.00  0.00     0.034 C 
HETATM    4  C4  UNL     1      22.305  14.304   8.279  1.00  0.00     0.009 C 
HETATM    5  C5  UNL     1      21.851  13.084   8.956  1.00  0.00    -0.009 C 
HETATM    6  C6  UNL     1      22.551  12.761  10.242  1.00  0.00     0.007 C 
HETATM    7  C7  UNL     1      21.600  11.837  10.984  1.00  0.00     0.027 C 
HETATM    8  C8  UNL     1      21.150  10.665  10.172  1.00  0.00     0.103 C 
HETATM    9  C15 UNL     1      20.801  10.906   8.744  1.00  0.00     0.010 C 
HETATM   10  C16 UNL     1      20.725   9.550   8.070  1.00  0.00     0.012 C 
HETATM   11  C17 UNL     1      21.817  11.805   8.141  1.00  0.00     0.004 C 
HETATM   12  C18 UNL     1      21.704  12.242   6.739  1.00  0.00     0.022 C 
ENDROOT
BRANCH   8  13
HETATM   13  N1  UNL     1      20.109   9.971  10.919  1.00  0.00    -0.249 N 
HETATM   14  C9  UNL     1      20.362   8.593  11.315  1.00  0.00     0.339 C 
HETATM   15  N2  UNL     1      19.393   7.855  12.000  1.00  0.00    -0.039 NA
HETATM   16  O1  UNL     1      21.473   8.037  11.043  1.00  0.00    -0.250 OA
HETATM   17  C10 UNL     1      18.882  10.535  11.326  1.00  0.00     0.326 C 
HETATM   18  O2  UNL     1      18.062   9.762  11.949  1.00  0.00    -0.247 OA
HETATM   19  N3  UNL     1      18.435  11.861  11.135  1.00  0.00    -0.343 N 
ATOM     20  H3  UNL     1      19.015  12.550  10.657  1.00  0.00     0.164 HD
BRANCH  19  21
HETATM   21  C11 UNL     1      17.106  12.209  11.650  1.00  0.00     0.125 C 
BRANCH  21  22
HETATM   22  C12 UNL     1      16.114  12.395  10.538  1.00  0.00     0.030 C 
BRANCH  22  23
HETATM   23  C13 UNL     1      14.897  11.535  10.751  1.00  0.00     0.075 C 
BRANCH  23  24
HETATM   24  S1  UNL     1      15.095   9.900  10.031  1.00  0.00    -0.173 SA
HETATM   25  C14 UNL     1      14.643   8.618  11.261  1.00  0.00     0.089 C 
ENDBRANCH  23  24
ENDBRANCH  22  23
ENDBRANCH  21  22
ENDBRANCH  19  21
ENDBRANCH   8  13
BRANCH  12  26
HETATM   26  C19 UNL     1      21.202  11.394   5.677  1.00  0.00     0.036 C 
BRANCH  26  27
HETATM   27  C20 UNL     1      20.109  12.131   4.932  1.00  0.00    -0.024 C 
HETATM   28  C21 UNL     1      18.848  11.832   4.928  1.00  0.00    -0.091 C 
HETATM   29  C22 UNL     1      18.215  10.710   5.659  1.00  0.00     0.042 C 
HETATM   30  C23 UNL     1      17.899  12.682   4.121  1.00  0.00     0.042 C 
ENDBRANCH  26  27
ENDBRANCH  12  26
TORSDOF 7
ENDMDL
MODEL 4
REMARK VINA RESULT: -6.516325651      3.645      6.545
REMARK  7 active torsions:
REMARK  status: ('A' for Active; 'I' for Inactive)
REMARK    1  A    between atoms: C8_8  and  N1_9 
REMARK       I    between atoms: N1_9  and  C9_10 
REMARK       I    between atoms: N1_9  and  C10_13 
REMARK       I    between atoms: C10_13  and  N3_15 
REMARK    2  A    between atoms: N3_15  and  C11_17 
REMARK    3  A    between atoms: C11_17  and  C12_18 
REMARK    4  A    between atoms: C12_18  and  C13_19 
REMARK    5  A    between atoms: C13_19  and  S1_20 
REMARK    6  A    between atoms: C18_25  and  C19_26 
REMARK    7  A    between atoms: C19_26  and  C20_27 
ROOT
HETATM    1  C1  UNL     1      12.318   8.784   9.650  1.00  0.00     0.014 C 
HETATM    2  C2  UNL     1      13.262   8.075  10.171  1.00  0.00    -0.084 C 
HETATM    3  C3  UNL     1      13.038   7.334  11.445  1.00  0.00     0.034 C 
HETATM    4  C4  UNL     1      14.351   7.049  12.093  1.00  0.00     0.009 C 
HETATM    5  C5  UNL     1      15.473   7.960  11.837  1.00  0.00    -0.009 C 
HETATM    6  C6  UNL     1      15.765   8.946  12.929  1.00  0.00     0.007 C 
HETATM    7  C7  UNL     1      17.206   9.370  12.698  1.00  0.00     0.027 C 
HETATM    8  C8  UNL     1      17.475   9.838  11.304  1.00  0.00     0.103 C 
HETATM    9  C15 UNL     1      16.863   9.068  10.185  1.00  0.00     0.010 C 
HETATM   10  C16 UNL     1      16.984   9.922   8.938  1.00  0.00     0.012 C 
HETATM   11  C17 UNL     1      15.458   8.737  10.535  1.00  0.00     0.004 C 
HETATM   12  C18 UNL     1      14.617   7.946   9.622  1.00  0.00     0.022 C 
ENDROOT
BRANCH   8  13
HETATM   13  N1  UNL     1      18.912  10.031  11.162  1.00  0.00    -0.249 N 
HETATM   14  C9  UNL     1      19.777   8.880  11.374  1.00  0.00     0.339 C 
HETATM   15  N2  UNL     1      21.166   9.001  11.292  1.00  0.00    -0.039 NA
HETATM   16  O1  UNL     1      19.279   7.740  11.640  1.00  0.00    -0.250 OA
HETATM   17  C10 UNL     1      19.542  11.240  10.798  1.00  0.00     0.326 C 
HETATM   18  O2  UNL     1      20.829  11.239  10.756  1.00  0.00    -0.247 OA
HETATM   19  N3  UNL     1      18.928  12.468  10.467  1.00  0.00    -0.343 N 
ATOM     20  H3  UNL     1      17.912  12.568  10.466  1.00  0.00     0.164 HD
BRANCH  19  21
HETATM   21  C11 UNL     1      19.804  13.594  10.124  1.00  0.00     0.125 C 
BRANCH  21  22
HETATM   22  C12 UNL     1      19.083  14.907  10.227  1.00  0.00     0.030 C 
BRANCH  22  23
HETATM   23  C13 UNL     1      17.623  14.748   9.898  1.00  0.00     0.075 C 
BRANCH  23  24
HETATM   24  S1  UNL     1      16.566  15.344  11.223  1.00  0.00    -0.173 SA
HETATM   25  C14 UNL     1      16.269  14.001  12.435  1.00  0.00     0.089 C 
ENDBRANCH  23  24
ENDBRANCH  22  23
ENDBRANCH  21  22
ENDBRANCH  19  21
ENDBRANCH   8  13
BRANCH  12  26
HETATM   26  C19 UNL     1      14.680   8.060   8.179  1.00  0.00     0.036 C 
BRANCH  26  27
HETATM   27  C20 UNL     1      15.483   6.902   7.626  1.00  0.00    -0.024 C 
HETATM   28  C21 UNL     1      16.140   6.887   6.510  1.00  0.00    -0.091 C 
HETATM   29  C22 UNL     1      16.246   8.006   5.545  1.00  0.00     0.042 C 
HETATM   30  C23 UNL     1      16.885   5.636   6.117  1.00  0.00     0.042 C 
ENDBRANCH  26  27
ENDBRANCH  12  26
TORSDOF 7
ENDMDL
MODEL 5
REMARK VINA RESULT: -6.496290672      4.087      7.551
REMARK  7 active torsions:
REMARK  status: ('A' for Active; 'I' for Inactive)
REMARK    1  A    between atoms: C8_8  and  N1_9 
REMARK       I    between atoms: N1_9  and  C9_10 
REMARK       I    between atoms: N1_9  and  C10_13 
REMARK       I    between atoms: C10_13  and  N3_15 
REMARK    2  A    between atoms: N3_15  and  C11_17 
REMARK    3  A    between atoms: C11_17  and  C12_18 
REMARK    4  A    between atoms: C12_18  and  C13_19 
REMARK    5  A    between atoms: C13_19  and  S1_20 
REMARK    6  A    between atoms: C18_25  and  C19_26 
REMARK    7  A    between atoms: C19_26  and  C20_27 
ROOT
HETATM    1  C1  UNL     1      12.122   7.493  10.899  1.00  0.00     0.014 C 
HETATM    2  C2  UNL     1      13.399   7.393  11.064  1.00  0.00    -0.084 C 
HETATM    3  C3  UNL     1      13.958   6.823  12.322  1.00  0.00     0.034 C 
HETATM    4  C4  UNL     1      15.365   7.284  12.496  1.00  0.00     0.009 C 
HETATM    5  C5  UNL     1      15.761   8.569  11.909  1.00  0.00    -0.009 C 
HETATM    6  C6  UNL     1      15.841   9.720  12.868  1.00  0.00     0.007 C 
HETATM    7  C7  UNL     1      16.744  10.734  12.187  1.00  0.00     0.027 C 
HETATM    8  C8  UNL     1      16.320  11.072  10.794  1.00  0.00     0.103 C 
HETATM    9  C15 UNL     1      15.864   9.956   9.920  1.00  0.00     0.010 C 
HETATM   10  C16 UNL     1      15.174  10.580   8.723  1.00  0.00     0.012 C 
HETATM   11  C17 UNL     1      14.980   9.055  10.703  1.00  0.00     0.004 C 
HETATM   12  C18 UNL     1      14.408   7.842  10.097  1.00  0.00     0.022 C 
ENDROOT
BRANCH   8  13
HETATM   13  N1  UNL     1      17.360  11.897  10.193  1.00  0.00    -0.249 N 
HETATM   14  C9  UNL     1      17.112  13.327  10.082  1.00  0.00     0.339 C 
HETATM   15  N2  UNL     1      18.049  14.172   9.482  1.00  0.00    -0.039 NA
HETATM   16  O1  UNL     1      16.034  13.831  10.530  1.00  0.00    -0.250 OA
HETATM   17  C10 UNL     1      18.611  11.431   9.739  1.00  0.00     0.326 C 
HETATM   18  O2  UNL     1      19.397  12.298   9.200  1.00  0.00    -0.247 OA
HETATM   19  N3  UNL     1      19.119  10.115   9.804  1.00  0.00    -0.343 N 
ATOM     20  H3  UNL     1      18.574   9.358  10.218  1.00  0.00     0.164 HD
BRANCH  19  21
HETATM   21  C11 UNL     1      20.459   9.876   9.255  1.00  0.00     0.125 C 
BRANCH  21  22
HETATM   22  C12 UNL     1      20.394   9.317   7.863  1.00  0.00     0.030 C 
BRANCH  22  23
HETATM   23  C13 UNL     1      20.987  10.277   6.867  1.00  0.00     0.075 C 
BRANCH  23  24
HETATM   24  S1  UNL     1      19.741  10.966   5.772  1.00  0.00    -0.173 SA
HETATM   25  C14 UNL     1      18.093  10.283   6.194  1.00  0.00     0.089 C 
ENDBRANCH  23  24
ENDBRANCH  22  23
ENDBRANCH  21  22
ENDBRANCH  19  21
ENDBRANCH   8  13
BRANCH  12  26
HETATM   26  C19 UNL     1      13.974   7.767   8.716  1.00  0.00     0.036 C 
BRANCH  26  27
HETATM   27  C20 UNL     1      15.075   7.142   7.886  1.00  0.00    -0.024 C 
HETATM   28  C21 UNL     1      15.394   7.458   6.671  1.00  0.00    -0.091 C 
HETATM   29  C22 UNL     1      14.748   8.504   5.844  1.00  0.00     0.042 C 
HETATM   30  C23 UNL     1      16.524   6.721   5.996  1.00  0.00     0.042 C 
ENDBRANCH  26  27
ENDBRANCH  12  26
TORSDOF 7
ENDMDL
