MODEL 1
REMARK VINA RESULT: -9.626835851      0.000      0.000
REMARK  12 active torsions:
REMARK  status: ('A' for Active; 'I' for Inactive)
REMARK    1  A    between atoms: C2_2  and  C3_3 
REMARK    2  A    between atoms: C4_4  and  C5_5 
REMARK    3  A    between atoms: C6_6  and  C7_7 
REMARK    4  A    between atoms: C14_14  and  C15_15 
REMARK    5  A    between atoms: C15_15  and  C16_16 
REMARK    6  A    between atoms: C16_16  and  C17_17 
REMARK    7  A    between atoms: C18_18  and  O1_19 
REMARK    8  A    between atoms: O1_19  and  C19_20 
REMARK    9  A    between atoms: C21_23  and  O3_24 
REMARK   10  A    between atoms: C22_26  and  O4_27 
REMARK   11  A    between atoms: C23_29  and  O5_30 
REMARK   12  A    between atoms: C28_37  and  C29_38 
ROOT
HETATM    1  C5  UNL     1      20.141  37.899  22.280  1.00  0.00     0.079 C 
HETATM    2  C6  UNL     1      21.316  38.511  22.995  1.00  0.00     0.005 C 
HETATM    3  C10 UNL     1      21.420  39.990  22.753  1.00  0.00     0.007 C 
HETATM    4  C11 UNL     1      21.050  40.592  21.508  1.00  0.00     0.011 C 
HETATM    5  C12 UNL     1      20.179  39.820  20.582  1.00  0.00    -0.025 C 
HETATM    6  C13 UNL     1      19.187  40.828  20.020  1.00  0.00     0.016 C 
HETATM    7  C14 UNL     1      21.049  39.218  19.459  1.00  0.00     0.064 C 
HETATM    8  C24 UNL     1      20.709  37.774  19.471  1.00  0.00     0.132 C 
HETATM    9  O6  UNL     1      21.470  36.864  19.181  1.00  0.00    -0.298 OA
HETATM   10  C25 UNL     1      19.325  37.785  19.900  1.00  0.00     0.090 C 
HETATM   11  C26 UNL     1      19.463  38.644  21.186  1.00  0.00    -0.015 C 
HETATM   12  C27 UNL     1      17.998  38.992  21.460  1.00  0.00     0.018 C 
ENDROOT
BRANCH   7  13
HETATM   13  C15 UNL     1      20.888  39.765  18.106  1.00  0.00     0.017 C 
BRANCH  13  14
HETATM   14  C16 UNL     1      22.133  40.186  17.385  1.00  0.00     0.030 C 
BRANCH  14  15
HETATM   15  C17 UNL     1      23.295  39.274  17.502  1.00  0.00    -0.003 C 
HETATM   16  C18 UNL     1      24.110  38.792  16.417  1.00  0.00     0.134 C 
BRANCH  16  17
HETATM   17  O1  UNL     1      23.664  37.991  15.405  1.00  0.00    -0.330 OA
BRANCH  17  18
HETATM   18  C19 UNL     1      24.631  37.135  14.896  1.00  0.00     0.296 C 
HETATM   19  O2  UNL     1      25.092  36.273  15.828  1.00  0.00    -0.356 OA
HETATM   20  C20 UNL     1      24.277  35.323  16.337  1.00  0.00     0.205 C 
HETATM   21  C21 UNL     1      23.468  34.521  15.329  1.00  0.00     0.173 C 
HETATM   22  C22 UNL     1      22.841  35.514  14.318  1.00  0.00     0.182 C 
HETATM   23  C23 UNL     1      23.958  36.286  13.773  1.00  0.00     0.205 C 
BRANCH  21  24
HETATM   24  O3  UNL     1      22.418  33.885  16.000  1.00  0.00    -0.391 OA
ATOM     25  H3  UNL     1      22.084  33.185  15.451  1.00  0.00     0.210 HD
ENDBRANCH  21  24
BRANCH  22  26
HETATM   26  O4  UNL     1      22.302  34.735  13.258  1.00  0.00    -0.390 OA
ATOM     27  H4  UNL     1      22.285  35.293  12.490  1.00  0.00     0.210 HD
ENDBRANCH  22  26
BRANCH  23  28
HETATM   28  O5  UNL     1      23.652  37.065  12.674  1.00  0.00    -0.388 OA
ATOM     29  H5  UNL     1      22.829  37.523  12.795  1.00  0.00     0.210 HD
ENDBRANCH  23  28
ENDBRANCH  17  18
ENDBRANCH  16  17
ENDBRANCH  14  15
ENDBRANCH  13  14
ENDBRANCH   7  13
BRANCH   1  30
HETATM   30  C4  UNL     1      19.758  36.589  22.675  1.00  0.00    -0.095 C 
HETATM   31  C3  UNL     1      19.436  35.517  22.965  1.00  0.00    -0.071 C 
BRANCH  31  32
HETATM   32  C2  UNL     1      19.039  34.179  23.342  1.00  0.00    -0.002 C 
HETATM   33  C1  UNL     1      18.632  33.674  24.616  1.00  0.00     0.058 C 
HETATM   34  C28 UNL     1      19.002  33.297  22.307  1.00  0.00     0.100 C 
BRANCH  34  35
HETATM   35  C29 UNL     1      18.599  31.947  22.385  1.00  0.00     0.199 C 
HETATM   36  O7  UNL     1      17.473  31.436  22.286  1.00  0.00    -0.644 OA
HETATM   37  O8  UNL     1      19.676  30.972  22.626  1.00  0.00    -0.644 OA
ENDBRANCH  34  35
ENDBRANCH  31  32
ENDBRANCH   1  30
BRANCH   2  38
HETATM   38  C7  UNL     1      21.309  38.214  24.484  1.00  0.00    -0.017 C 
HETATM   39  C8  UNL     1      22.615  38.514  25.188  1.00  0.00     0.010 C 
HETATM   40  C9  UNL     1      20.258  38.979  25.272  1.00  0.00     0.010 C 
ENDBRANCH   2  38
TORSDOF 12
ENDMDL
MODEL 2
REMARK VINA RESULT: -9.453965150      0.807      1.097
REMARK  12 active torsions:
REMARK  status: ('A' for Active; 'I' for Inactive)
REMARK    1  A    between atoms: C2_2  and  C3_3 
REMARK    2  A    between atoms: C4_4  and  C5_5 
REMARK    3  A    between atoms: C6_6  and  C7_7 
REMARK    4  A    between atoms: C14_14  and  C15_15 
REMARK    5  A    between atoms: C15_15  and  C16_16 
REMARK    6  A    between atoms: C16_16  and  C17_17 
REMARK    7  A    between atoms: C18_18  and  O1_19 
REMARK    8  A    between atoms: O1_19  and  C19_20 
REMARK    9  A    between atoms: C21_23  and  O3_24 
REMARK   10  A    between atoms: C22_26  and  O4_27 
REMARK   11  A    between atoms: C23_29  and  O5_30 
REMARK   12  A    between atoms: C28_37  and  C29_38 
ROOT
HETATM    1  C5  UNL     1      20.342  37.976  22.123  1.00  0.00     0.079 C 
HETATM    2  C6  UNL     1      21.463  38.672  22.847  1.00  0.00     0.005 C 
HETATM    3  C10 UNL     1      21.464  40.154  22.597  1.00  0.00     0.007 C 
HETATM    4  C11 UNL     1      21.065  40.723  21.346  1.00  0.00     0.011 C 
HETATM    5  C12 UNL     1      20.261  39.886  20.415  1.00  0.00    -0.025 C 
HETATM    6  C13 UNL     1      19.205  40.817  19.838  1.00  0.00     0.016 C 
HETATM    7  C14 UNL     1      21.183  39.342  19.304  1.00  0.00     0.064 C 
HETATM    8  C24 UNL     1      20.947  37.877  19.321  1.00  0.00     0.132 C 
HETATM    9  O6  UNL     1      21.773  37.023  19.044  1.00  0.00    -0.298 OA
HETATM   10  C25 UNL     1      19.561  37.792  19.736  1.00  0.00     0.090 C 
HETATM   11  C26 UNL     1      19.624  38.665  21.019  1.00  0.00    -0.015 C 
HETATM   12  C27 UNL     1      18.135  38.908  21.277  1.00  0.00     0.018 C 
ENDROOT
BRANCH   7  13
HETATM   13  C15 UNL     1      20.997  39.870  17.947  1.00  0.00     0.017 C 
BRANCH  13  14
HETATM   14  C16 UNL     1      22.232  40.236  17.180  1.00  0.00     0.030 C 
BRANCH  14  15
HETATM   15  C17 UNL     1      23.372  39.296  17.291  1.00  0.00    -0.003 C 
HETATM   16  C18 UNL     1      24.156  38.777  16.200  1.00  0.00     0.134 C 
BRANCH  16  17
HETATM   17  O1  UNL     1      23.671  37.973  15.207  1.00  0.00    -0.330 OA
BRANCH  17  18
HETATM   18  C19 UNL     1      24.615  37.103  14.677  1.00  0.00     0.296 C 
HETATM   19  O2  UNL     1      25.252  36.396  15.636  1.00  0.00    -0.356 OA
HETATM   20  C20 UNL     1      24.578  35.487  16.373  1.00  0.00     0.205 C 
HETATM   21  C21 UNL     1      23.694  34.519  15.601  1.00  0.00     0.173 C 
HETATM   22  C22 UNL     1      22.872  35.336  14.573  1.00  0.00     0.182 C 
HETATM   23  C23 UNL     1      23.852  36.080  13.780  1.00  0.00     0.205 C 
BRANCH  21  24
HETATM   24  O3  UNL     1      22.787  33.931  16.491  1.00  0.00    -0.391 OA
ATOM     25  H3  UNL     1      22.541  34.574  17.145  1.00  0.00     0.210 HD
ENDBRANCH  21  24
BRANCH  22  26
HETATM   26  O4  UNL     1      22.246  34.397  13.708  1.00  0.00    -0.390 OA
ATOM     27  H4  UNL     1      22.206  34.801  12.849  1.00  0.00     0.210 HD
ENDBRANCH  22  26
BRANCH  23  28
HETATM   28  O5  UNL     1      23.349  36.688  12.646  1.00  0.00    -0.388 OA
ATOM     29  H5  UNL     1      23.357  36.094  11.905  1.00  0.00     0.210 HD
ENDBRANCH  23  28
ENDBRANCH  17  18
ENDBRANCH  16  17
ENDBRANCH  14  15
ENDBRANCH  13  14
ENDBRANCH   7  13
BRANCH   1  30
HETATM   30  C4  UNL     1      20.050  36.644  22.522  1.00  0.00    -0.095 C 
HETATM   31  C3  UNL     1      19.804  35.552  22.814  1.00  0.00    -0.071 C 
BRANCH  31  32
HETATM   32  C2  UNL     1      19.501  34.191  23.195  1.00  0.00    -0.002 C 
HETATM   33  C1  UNL     1      20.124  32.970  22.789  1.00  0.00     0.058 C 
HETATM   34  C28 UNL     1      18.508  34.079  24.119  1.00  0.00     0.100 C 
BRANCH  34  35
HETATM   35  C29 UNL     1      18.051  32.878  24.701  1.00  0.00     0.199 C 
HETATM   36  O7  UNL     1      18.461  32.259  25.695  1.00  0.00    -0.644 OA
HETATM   37  O8  UNL     1      16.906  32.240  24.033  1.00  0.00    -0.644 OA
ENDBRANCH  34  35
ENDBRANCH  31  32
ENDBRANCH   1  30
BRANCH   2  38
HETATM   38  C7  UNL     1      21.463  38.383  24.337  1.00  0.00    -0.017 C 
HETATM   39  C8  UNL     1      22.804  38.570  25.012  1.00  0.00     0.010 C 
HETATM   40  C9  UNL     1      20.499  39.241  25.143  1.00  0.00     0.010 C 
ENDBRANCH   2  38
TORSDOF 12
ENDMDL
MODEL 3
REMARK VINA RESULT: -8.303327642      2.703      4.165
REMARK  12 active torsions:
REMARK  status: ('A' for Active; 'I' for Inactive)
REMARK    1  A    between atoms: C2_2  and  C3_3 
REMARK    2  A    between atoms: C4_4  and  C5_5 
REMARK    3  A    between atoms: C6_6  and  C7_7 
REMARK    4  A    between atoms: C14_14  and  C15_15 
REMARK    5  A    between atoms: C15_15  and  C16_16 
REMARK    6  A    between atoms: C16_16  and  C17_17 
REMARK    7  A    between atoms: C18_18  and  O1_19 
REMARK    8  A    between atoms: O1_19  and  C19_20 
REMARK    9  A    between atoms: C21_23  and  O3_24 
REMARK   10  A    between atoms: C22_26  and  O4_27 
REMARK   11  A    between atoms: C23_29  and  O5_30 
REMARK   12  A    between atoms: C28_37  and  C29_38 
ROOT
HETATM    1  C5  UNL     1      19.508  36.198  23.049  1.00  0.00     0.079 C 
HETATM    2  C6  UNL     1      19.298  35.054  22.094  1.00  0.00     0.005 C 
HETATM    3  C10 UNL     1      20.284  35.074  20.960  1.00  0.00     0.007 C 
HETATM    4  C11 UNL     1      20.779  36.292  20.394  1.00  0.00     0.011 C 
HETATM    5  C12 UNL     1      20.639  37.545  21.183  1.00  0.00    -0.025 C 
HETATM    6  C13 UNL     1      21.948  38.297  20.991  1.00  0.00     0.016 C 
HETATM    7  C14 UNL     1      19.450  38.357  20.629  1.00  0.00     0.064 C 
HETATM    8  C24 UNL     1      18.609  38.630  21.821  1.00  0.00     0.132 C 
HETATM    9  O6  UNL     1      17.394  38.740  21.821  1.00  0.00    -0.298 OA
HETATM   10  C25 UNL     1      19.593  38.709  22.882  1.00  0.00     0.090 C 
HETATM   11  C26 UNL     1      20.335  37.366  22.645  1.00  0.00    -0.015 C 
HETATM   12  C27 UNL     1      21.596  37.579  23.485  1.00  0.00     0.018 C 
ENDROOT
BRANCH   7  13
HETATM   13  C15 UNL     1      19.752  39.609  19.925  1.00  0.00     0.017 C 
BRANCH  13  14
HETATM   14  C16 UNL     1      20.193  39.502  18.496  1.00  0.00     0.030 C 
BRANCH  14  15
HETATM   15  C17 UNL     1      21.442  40.218  18.143  1.00  0.00    -0.003 C 
HETATM   16  C18 UNL     1      22.128  40.157  16.879  1.00  0.00     0.134 C 
BRANCH  16  17
HETATM   17  O1  UNL     1      22.700  39.032  16.356  1.00  0.00    -0.330 OA
BRANCH  17  18
HETATM   18  C19 UNL     1      23.951  38.740  16.883  1.00  0.00     0.296 C 
HETATM   19  O2  UNL     1      23.869  38.032  18.031  1.00  0.00    -0.356 OA
HETATM   20  C20 UNL     1      23.391  36.769  18.018  1.00  0.00     0.205 C 
HETATM   21  C21 UNL     1      23.959  35.846  16.950  1.00  0.00     0.173 C 
HETATM   22  C22 UNL     1      23.952  36.612  15.603  1.00  0.00     0.182 C 
HETATM   23  C23 UNL     1      24.698  37.848  15.843  1.00  0.00     0.205 C 
BRANCH  21  24
HETATM   24  O3  UNL     1      23.109  34.743  16.810  1.00  0.00    -0.391 OA
ATOM     25  H3  UNL     1      23.514  33.992  17.226  1.00  0.00     0.210 HD
ENDBRANCH  21  24
BRANCH  22  26
HETATM   26  O4  UNL     1      24.705  35.831  14.683  1.00  0.00    -0.390 OA
ATOM     27  H4  UNL     1      25.429  36.373  14.393  1.00  0.00     0.210 HD
ENDBRANCH  22  26
BRANCH  23  28
HETATM   28  O5  UNL     1      25.021  38.568  14.709  1.00  0.00    -0.388 OA
ATOM     29  H5  UNL     1      25.883  38.960  14.785  1.00  0.00     0.210 HD
ENDBRANCH  23  28
ENDBRANCH  17  18
ENDBRANCH  16  17
ENDBRANCH  14  15
ENDBRANCH  13  14
ENDBRANCH   7  13
BRANCH   1  30
HETATM   30  C4  UNL     1      18.854  36.114  24.307  1.00  0.00    -0.095 C 
HETATM   31  C3  UNL     1      18.292  36.043  25.316  1.00  0.00    -0.071 C 
BRANCH  31  32
HETATM   32  C2  UNL     1      17.603  35.956  26.584  1.00  0.00    -0.002 C 
HETATM   33  C1  UNL     1      18.099  36.168  27.907  1.00  0.00     0.058 C 
HETATM   34  C28 UNL     1      16.275  35.683  26.478  1.00  0.00     0.100 C 
BRANCH  34  35
HETATM   35  C29 UNL     1      15.360  35.595  27.549  1.00  0.00     0.199 C 
HETATM   36  O7  UNL     1      15.034  34.627  28.251  1.00  0.00    -0.644 OA
HETATM   37  O8  UNL     1      14.667  36.846  27.900  1.00  0.00    -0.644 OA
ENDBRANCH  34  35
ENDBRANCH  31  32
ENDBRANCH   1  30
BRANCH   2  38
HETATM   38  C7  UNL     1      19.312  33.705  22.789  1.00  0.00    -0.017 C 
HETATM   39  C8  UNL     1      18.272  32.729  22.284  1.00  0.00     0.010 C 
HETATM   40  C9  UNL     1      20.631  32.957  22.681  1.00  0.00     0.010 C 
ENDBRANCH   2  38
TORSDOF 12
ENDMDL
MODEL 4
REMARK VINA RESULT: -8.132126323      1.057      1.805
REMARK  12 active torsions:
REMARK  status: ('A' for Active; 'I' for Inactive)
REMARK    1  A    between atoms: C2_2  and  C3_3 
REMARK    2  A    between atoms: C4_4  and  C5_5 
REMARK    3  A    between atoms: C6_6  and  C7_7 
REMARK    4  A    between atoms: C14_14  and  C15_15 
REMARK    5  A    between atoms: C15_15  and  C16_16 
REMARK    6  A    between atoms: C16_16  and  C17_17 
REMARK    7  A    between atoms: C18_18  and  O1_19 
REMARK    8  A    between atoms: O1_19  and  C19_20 
REMARK    9  A    between atoms: C21_23  and  O3_24 
REMARK   10  A    between atoms: C22_26  and  O4_27 
REMARK   11  A    between atoms: C23_29  and  O5_30 
REMARK   12  A    between atoms: C28_37  and  C29_38 
ROOT
HETATM    1  C5  UNL     1      20.029  37.902  22.567  1.00  0.00     0.079 C 
HETATM    2  C6  UNL     1      21.230  38.481  23.264  1.00  0.00     0.005 C 
HETATM    3  C10 UNL     1      21.324  39.971  23.089  1.00  0.00     0.007 C 
HETATM    4  C11 UNL     1      20.906  40.630  21.890  1.00  0.00     0.011 C 
HETATM    5  C12 UNL     1      20.000  39.901  20.962  1.00  0.00    -0.025 C 
HETATM    6  C13 UNL     1      18.986  40.932  20.488  1.00  0.00     0.016 C 
HETATM    7  C14 UNL     1      20.826  39.355  19.779  1.00  0.00     0.064 C 
HETATM    8  C24 UNL     1      20.487  37.911  19.735  1.00  0.00     0.132 C 
HETATM    9  O6  UNL     1      21.236  37.019  19.373  1.00  0.00    -0.298 OA
HETATM   10  C25 UNL     1      19.121  37.899  20.218  1.00  0.00     0.090 C 
HETATM   11  C26 UNL     1      19.309  38.696  21.537  1.00  0.00    -0.015 C 
HETATM   12  C27 UNL     1      17.855  39.027  21.884  1.00  0.00     0.018 C 
ENDROOT
BRANCH   7  13
HETATM   13  C15 UNL     1      20.612  39.966  18.461  1.00  0.00     0.017 C 
BRANCH  13  14
HETATM   14  C16 UNL     1      21.823  40.468  17.734  1.00  0.00     0.030 C 
BRANCH  14  15
HETATM   15  C17 UNL     1      23.126  40.244  18.405  1.00  0.00    -0.003 C 
HETATM   16  C18 UNL     1      24.280  39.605  17.827  1.00  0.00     0.134 C 
BRANCH  16  17
HETATM   17  O1  UNL     1      24.330  38.298  17.433  1.00  0.00    -0.330 OA
BRANCH  17  18
HETATM   18  C19 UNL     1      23.229  37.892  16.691  1.00  0.00     0.296 C 
HETATM   19  O2  UNL     1      23.136  38.548  15.513  1.00  0.00    -0.356 OA
HETATM   20  C20 UNL     1      24.067  38.358  14.554  1.00  0.00     0.205 C 
HETATM   21  C21 UNL     1      24.430  36.913  14.245  1.00  0.00     0.173 C 
HETATM   22  C22 UNL     1      24.650  36.177  15.591  1.00  0.00     0.182 C 
HETATM   23  C23 UNL     1      23.422  36.379  16.362  1.00  0.00     0.205 C 
BRANCH  21  24
HETATM   24  O3  UNL     1      25.645  36.893  13.552  1.00  0.00    -0.391 OA
ATOM     25  H3  UNL     1      26.184  37.611  13.860  1.00  0.00     0.210 HD
ENDBRANCH  21  24
BRANCH  22  26
HETATM   26  O4  UNL     1      24.742  34.790  15.290  1.00  0.00    -0.390 OA
ATOM     27  H4  UNL     1      23.971  34.569  14.782  1.00  0.00     0.210 HD
ENDBRANCH  22  26
BRANCH  23  28
HETATM   28  O5  UNL     1      23.308  35.602  17.499  1.00  0.00    -0.388 OA
ATOM     29  H5  UNL     1      22.929  34.755  17.299  1.00  0.00     0.210 HD
ENDBRANCH  23  28
ENDBRANCH  17  18
ENDBRANCH  16  17
ENDBRANCH  14  15
ENDBRANCH  13  14
ENDBRANCH   7  13
BRANCH   1  30
HETATM   30  C4  UNL     1      19.662  36.574  22.913  1.00  0.00    -0.095 C 
HETATM   31  C3  UNL     1      19.344  35.491  23.168  1.00  0.00    -0.071 C 
BRANCH  31  32
HETATM   32  C2  UNL     1      18.957  34.139  23.499  1.00  0.00    -0.002 C 
HETATM   33  C1  UNL     1      18.491  33.601  24.739  1.00  0.00     0.058 C 
HETATM   34  C28 UNL     1      18.997  33.275  22.449  1.00  0.00     0.100 C 
BRANCH  34  35
HETATM   35  C29 UNL     1      18.621  31.915  22.480  1.00  0.00     0.199 C 
HETATM   36  O7  UNL     1      17.502  31.388  22.393  1.00  0.00    -0.644 OA
HETATM   37  O8  UNL     1      19.721  30.952  22.646  1.00  0.00    -0.644 OA
ENDBRANCH  34  35
ENDBRANCH  31  32
ENDBRANCH   1  30
BRANCH   2  38
HETATM   38  C7  UNL     1      21.282  38.113  24.736  1.00  0.00    -0.017 C 
HETATM   39  C8  UNL     1      22.563  38.512  25.437  1.00  0.00     0.010 C 
HETATM   40  C9  UNL     1      20.173  38.728  25.576  1.00  0.00     0.010 C 
ENDBRANCH   2  38
TORSDOF 12
ENDMDL
MODEL 5
REMARK VINA RESULT: -8.004647037      5.067      8.109
REMARK  12 active torsions:
REMARK  status: ('A' for Active; 'I' for Inactive)
REMARK    1  A    between atoms: C2_2  and  C3_3 
REMARK    2  A    between atoms: C4_4  and  C5_5 
REMARK    3  A    between atoms: C6_6  and  C7_7 
REMARK    4  A    between atoms: C14_14  and  C15_15 
REMARK    5  A    between atoms: C15_15  and  C16_16 
REMARK    6  A    between atoms: C16_16  and  C17_17 
REMARK    7  A    between atoms: C18_18  and  O1_19 
REMARK    8  A    between atoms: O1_19  and  C19_20 
REMARK    9  A    between atoms: C21_23  and  O3_24 
REMARK   10  A    between atoms: C22_26  and  O4_27 
REMARK   11  A    between atoms: C23_29  and  O5_30 
REMARK   12  A    between atoms: C28_37  and  C29_38 
ROOT
HETATM    1  C5  UNL     1      20.731  38.253  20.868  1.00  0.00     0.079 C 
HETATM    2  C6  UNL     1      21.044  38.899  19.545  1.00  0.00     0.005 C 
HETATM    3  C10 UNL     1      21.623  40.277  19.709  1.00  0.00     0.007 C 
HETATM    4  C11 UNL     1      21.226  41.155  20.768  1.00  0.00     0.011 C 
HETATM    5  C12 UNL     1      20.540  40.569  21.950  1.00  0.00    -0.025 C 
HETATM    6  C13 UNL     1      21.128  41.284  23.159  1.00  0.00     0.016 C 
HETATM    7  C14 UNL     1      19.024  40.836  21.835  1.00  0.00     0.064 C 
HETATM    8  C24 UNL     1      18.407  39.497  21.998  1.00  0.00     0.132 C 
HETATM    9  O6  UNL     1      17.369  39.128  21.473  1.00  0.00    -0.298 OA
HETATM   10  C25 UNL     1      19.339  38.831  22.885  1.00  0.00     0.090 C 
HETATM   11  C26 UNL     1      20.657  39.078  22.102  1.00  0.00    -0.015 C 
HETATM   12  C27 UNL     1      21.697  38.728  23.170  1.00  0.00     0.018 C 
ENDROOT
BRANCH   7  13
HETATM   13  C15 UNL     1      18.428  41.788  22.781  1.00  0.00     0.017 C 
BRANCH  13  14
HETATM   14  C16 UNL     1      18.420  43.233  22.384  1.00  0.00     0.030 C 
BRANCH  14  15
HETATM   15  C17 UNL     1      17.127  43.769  21.896  1.00  0.00    -0.003 C 
HETATM   16  C18 UNL     1      16.812  44.124  20.537  1.00  0.00     0.134 C 
BRANCH  16  17
HETATM   17  O1  UNL     1      17.420  45.125  19.833  1.00  0.00    -0.330 OA
BRANCH  17  18
HETATM   18  C19 UNL     1      16.838  46.372  20.013  1.00  0.00     0.296 C 
HETATM   19  O2  UNL     1      17.661  47.233  20.650  1.00  0.00    -0.356 OA
HETATM   20  C20 UNL     1      18.795  47.660  20.052  1.00  0.00     0.205 C 
HETATM   21  C21 UNL     1      18.657  48.137  18.614  1.00  0.00     0.173 C 
HETATM   22  C22 UNL     1      17.807  47.095  17.843  1.00  0.00     0.182 C 
HETATM   23  C23 UNL     1      16.559  46.964  18.596  1.00  0.00     0.205 C 
BRANCH  21  24
HETATM   24  O3  UNL     1      19.926  48.160  18.025  1.00  0.00    -0.391 OA
ATOM     25  H3  UNL     1      19.900  48.731  17.266  1.00  0.00     0.210 HD
ENDBRANCH  21  24
BRANCH  22  26
HETATM   26  O4  UNL     1      17.488  47.676  16.585  1.00  0.00    -0.390 OA
ATOM     27  H4  UNL     1      18.282  48.085  16.263  1.00  0.00     0.210 HD
ENDBRANCH  22  26
BRANCH  23  28
HETATM   28  O5  UNL     1      15.556  46.265  17.952  1.00  0.00    -0.388 OA
ATOM     29  H5  UNL     1      14.803  46.144  18.519  1.00  0.00     0.210 HD
ENDBRANCH  23  28
ENDBRANCH  17  18
ENDBRANCH  16  17
ENDBRANCH  14  15
ENDBRANCH  13  14
ENDBRANCH   7  13
BRANCH   1  30
HETATM   30  C4  UNL     1      20.478  36.855  20.856  1.00  0.00    -0.095 C 
HETATM   31  C3  UNL     1      20.239  35.723  20.854  1.00  0.00    -0.071 C 
BRANCH  31  32
HETATM   32  C2  UNL     1      19.956  34.306  20.848  1.00  0.00    -0.002 C 
HETATM   33  C1  UNL     1      19.892  33.393  19.750  1.00  0.00     0.058 C 
HETATM   34  C28 UNL     1      19.780  33.768  22.086  1.00  0.00     0.100 C 
BRANCH  34  35
HETATM   35  C29 UNL     1      19.546  32.406  22.371  1.00  0.00     0.199 C 
HETATM   36  O7  UNL     1      20.337  31.502  22.680  1.00  0.00    -0.644 OA
HETATM   37  O8  UNL     1      18.143  31.969  22.289  1.00  0.00    -0.644 OA
ENDBRANCH  34  35
ENDBRANCH  31  32
ENDBRANCH   1  30
BRANCH   2  38
HETATM   38  C7  UNL     1      21.948  38.042  18.677  1.00  0.00    -0.017 C 
HETATM   39  C8  UNL     1      22.236  38.620  17.309  1.00  0.00     0.010 C 
HETATM   40  C9  UNL     1      23.318  37.766  19.278  1.00  0.00     0.010 C 
ENDBRANCH   2  38
TORSDOF 12
ENDMDL
