MODEL 1
REMARK VINA RESULT: -8.670869229      0.000      0.000
REMARK  5 active torsions:
REMARK  status: ('A' for Active; 'I' for Inactive)
REMARK    1  A    between atoms: C2_2  and  C3_3 
REMARK    2  A    between atoms: C4_4  and  C5_5 
REMARK    3  A    between atoms: C10_14  and  C11_15 
REMARK    4  A    between atoms: C13_17  and  C15_19 
REMARK    5  A    between atoms: C15_19  and  C16_20 
ROOT
HETATM    1  C11 UNL     1      11.426  15.558 -18.827  1.00  0.00     0.069 C 
HETATM    2  C12 UNL     1      12.239  14.432 -18.324  1.00  0.00     0.031 C 
HETATM    3  C13 UNL     1      13.099  13.792 -19.480  1.00  0.00    -0.002 C 
HETATM    4  C14 UNL     1      13.480  12.433 -18.768  1.00  0.00     0.024 C 
HETATM    5  C24 UNL     1      12.213  13.397 -20.529  1.00  0.00    -0.071 C 
HETATM    6  C25 UNL     1      12.242  12.035 -21.197  1.00  0.00     0.044 C 
HETATM    7  C26 UNL     1      11.195  14.203 -20.926  1.00  0.00     0.037 C 
HETATM    8  C27 UNL     1      10.990  15.508 -20.263  1.00  0.00     0.204 C 
HETATM    9  F1  UNL     1       9.596  15.748 -20.260  1.00  0.00    -0.220 F 
HETATM   10 CL1  UNL     1      11.605  16.871 -21.230  1.00  0.00    -0.077 Cl
ENDROOT
BRANCH   1  11
HETATM   11  C10 UNL     1      10.245  15.774 -17.950  1.00  0.00    -0.011 C 
HETATM   12  C2  UNL     1       9.887  16.937 -17.447  1.00  0.00    -0.066 C 
HETATM   13  C1  UNL     1      10.733  18.109 -17.788  1.00  0.00     0.048 C 
BRANCH  12  14
HETATM   14  C3  UNL     1       8.704  17.004 -16.600  1.00  0.00     0.005 C 
HETATM   15  C4  UNL     1       8.697  17.383 -15.344  1.00  0.00     0.008 C 
BRANCH  15  16
HETATM   16  C5  UNL     1       7.455  17.419 -14.569  1.00  0.00     0.184 C 
HETATM   17  O1  UNL     1       7.046  18.764 -14.279  1.00  0.00    -0.292 OA
HETATM   18  C6  UNL     1       6.193  18.631 -13.167  1.00  0.00     0.362 C 
HETATM   19  O2  UNL     1       5.263  19.411 -12.841  1.00  0.00    -0.238 OA
HETATM   20  N1  UNL     1       6.548  17.455 -12.449  1.00  0.00    -0.326 N 
HETATM   21  C7  UNL     1       7.663  16.870 -13.164  1.00  0.00     0.058 C 
ATOM     22  H1  UNL     1       6.107  17.097 -11.602  1.00  0.00     0.165 HD
HETATM   23  C8  UNL     1       7.620  15.366 -13.143  1.00  0.00     0.041 C 
HETATM   24  C9  UNL     1       8.939  17.412 -12.562  1.00  0.00     0.041 C 
ENDBRANCH  15  16
ENDBRANCH  12  14
ENDBRANCH   1  11
BRANCH   3  25
HETATM   25  C15 UNL     1      14.331  14.540 -19.523  1.00  0.00    -0.005 C 
BRANCH  25  26
HETATM   26  C16 UNL     1      15.385  14.575 -20.492  1.00  0.00    -0.045 A 
HETATM   27  C17 UNL     1      16.489  13.843 -20.159  1.00  0.00     0.062 A 
HETATM   28  C18 UNL     1      17.661  13.752 -20.988  1.00  0.00     0.172 A 
HETATM   29  O3  UNL     1      18.671  13.041 -20.654  1.00  0.00    -0.289 OA
HETATM   30  C19 UNL     1      17.690  14.492 -22.238  1.00  0.00     0.052 A 
HETATM   31  C20 UNL     1      16.673  15.217 -22.545  1.00  0.00    -0.009 A 
HETATM   32  C21 UNL     1      15.461  15.366 -21.705  1.00  0.00    -0.003 A 
HETATM   33  C22 UNL     1      14.317  15.321 -22.673  1.00  0.00     0.024 C 
HETATM   34  C23 UNL     1      15.535  16.882 -21.298  1.00  0.00     0.024 C 
ENDBRANCH  25  26
ENDBRANCH   3  25
TORSDOF 5
ENDMDL
MODEL 2
REMARK VINA RESULT: -8.333346485      1.455      1.954
REMARK  5 active torsions:
REMARK  status: ('A' for Active; 'I' for Inactive)
REMARK    1  A    between atoms: C2_2  and  C3_3 
REMARK    2  A    between atoms: C4_4  and  C5_5 
REMARK    3  A    between atoms: C10_14  and  C11_15 
REMARK    4  A    between atoms: C13_17  and  C15_19 
REMARK    5  A    between atoms: C15_19  and  C16_20 
ROOT
HETATM    1  C11 UNL     1      11.169  15.207 -18.931  1.00  0.00     0.069 C 
HETATM    2  C12 UNL     1      11.850  13.950 -18.553  1.00  0.00     0.031 C 
HETATM    3  C13 UNL     1      12.623  13.332 -19.780  1.00  0.00    -0.002 C 
HETATM    4  C14 UNL     1      12.848  11.876 -19.209  1.00  0.00     0.024 C 
HETATM    5  C24 UNL     1      11.693  13.146 -20.847  1.00  0.00    -0.071 C 
HETATM    6  C25 UNL     1      11.561  11.862 -21.644  1.00  0.00     0.044 C 
HETATM    7  C26 UNL     1      10.772  14.098 -21.147  1.00  0.00     0.037 C 
HETATM    8  C27 UNL     1      10.724  15.347 -20.358  1.00  0.00     0.204 C 
HETATM    9  F1  UNL     1       9.367  15.745 -20.310  1.00  0.00    -0.220 F 
HETATM   10 CL1  UNL     1      11.488  16.719 -21.199  1.00  0.00    -0.077 Cl
ENDROOT
BRANCH   1  11
HETATM   11  C10 UNL     1      10.026  15.469 -18.019  1.00  0.00    -0.011 C 
HETATM   12  C2  UNL     1       9.792  16.620 -17.422  1.00  0.00    -0.066 C 
HETATM   13  C1  UNL     1      10.746  17.726 -17.690  1.00  0.00     0.048 C 
BRANCH  12  14
HETATM   14  C3  UNL     1       8.631  16.737 -16.550  1.00  0.00     0.005 C 
HETATM   15  C4  UNL     1       8.616  17.356 -15.394  1.00  0.00     0.008 C 
BRANCH  15  16
HETATM   16  C5  UNL     1       7.398  17.424 -14.584  1.00  0.00     0.184 C 
HETATM   17  O1  UNL     1       7.021  18.779 -14.300  1.00  0.00    -0.292 OA
HETATM   18  C6  UNL     1       6.199  18.675 -13.162  1.00  0.00     0.362 C 
HETATM   19  O2  UNL     1       5.293  19.475 -12.819  1.00  0.00    -0.238 OA
HETATM   20  N1  UNL     1       6.555  17.502 -12.439  1.00  0.00    -0.326 N 
HETATM   21  C7  UNL     1       7.638  16.888 -13.179  1.00  0.00     0.058 C 
ATOM     22  H1  UNL     1       6.132  17.162 -11.575  1.00  0.00     0.165 HD
HETATM   23  C8  UNL     1       7.569  15.386 -13.137  1.00  0.00     0.041 C 
HETATM   24  C9  UNL     1       8.940  17.415 -12.621  1.00  0.00     0.041 C 
ENDBRANCH  15  16
ENDBRANCH  12  14
ENDBRANCH   1  11
BRANCH   3  25
HETATM   25  C15 UNL     1      13.933  13.935 -19.770  1.00  0.00    -0.005 C 
BRANCH  25  26
HETATM   26  C16 UNL     1      14.426  15.140 -20.367  1.00  0.00    -0.045 A 
HETATM   27  C17 UNL     1      14.242  16.265 -19.614  1.00  0.00     0.062 A 
HETATM   28  C18 UNL     1      14.654  17.578 -20.033  1.00  0.00     0.172 A 
HETATM   29  O3  UNL     1      14.483  18.608 -19.294  1.00  0.00    -0.289 OA
HETATM   30  C19 UNL     1      15.283  17.728 -21.334  1.00  0.00     0.052 A 
HETATM   31  C20 UNL     1      15.428  16.683 -22.069  1.00  0.00    -0.009 A 
HETATM   32  C21 UNL     1      14.986  15.320 -21.692  1.00  0.00    -0.003 A 
HETATM   33  C22 UNL     1      16.100  14.421 -22.137  1.00  0.00     0.024 C 
HETATM   34  C23 UNL     1      13.852  15.044 -22.744  1.00  0.00     0.024 C 
ENDBRANCH  25  26
ENDBRANCH   3  25
TORSDOF 5
ENDMDL
MODEL 3
REMARK VINA RESULT: -8.207951602      1.722      2.151
REMARK  5 active torsions:
REMARK  status: ('A' for Active; 'I' for Inactive)
REMARK    1  A    between atoms: C2_2  and  C3_3 
REMARK    2  A    between atoms: C4_4  and  C5_5 
REMARK    3  A    between atoms: C10_14  and  C11_15 
REMARK    4  A    between atoms: C13_17  and  C15_19 
REMARK    5  A    between atoms: C15_19  and  C16_20 
ROOT
HETATM    1  C11 UNL     1      10.890  15.150 -18.928  1.00  0.00     0.069 C 
HETATM    2  C12 UNL     1      11.687  13.997 -18.459  1.00  0.00     0.031 C 
HETATM    3  C13 UNL     1      12.434  13.298 -19.659  1.00  0.00    -0.002 C 
HETATM    4  C14 UNL     1      12.805  11.937 -18.946  1.00  0.00     0.024 C 
HETATM    5  C24 UNL     1      11.460  12.924 -20.634  1.00  0.00    -0.071 C 
HETATM    6  C25 UNL     1      11.382  11.551 -21.273  1.00  0.00     0.044 C 
HETATM    7  C26 UNL     1      10.452  13.768 -20.976  1.00  0.00     0.037 C 
HETATM    8  C27 UNL     1      10.352  15.093 -20.329  1.00  0.00     0.204 C 
HETATM    9  F1  UNL     1       8.973  15.396 -20.234  1.00  0.00    -0.220 F 
HETATM   10 CL1  UNL     1      10.957  16.409 -21.366  1.00  0.00    -0.077 Cl
ENDROOT
BRANCH   1  11
HETATM   11  C10 UNL     1       9.784  15.434 -17.976  1.00  0.00    -0.011 C 
HETATM   12  C2  UNL     1       9.559  16.606 -17.417  1.00  0.00    -0.066 C 
HETATM   13  C1  UNL     1      10.482  17.713 -17.773  1.00  0.00     0.048 C 
BRANCH  12  14
HETATM   14  C3  UNL     1       8.436  16.743 -16.499  1.00  0.00     0.005 C 
HETATM   15  C4  UNL     1       8.486  17.342 -15.332  1.00  0.00     0.008 C 
BRANCH  15  16
HETATM   16  C5  UNL     1       7.302  17.432 -14.475  1.00  0.00     0.184 C 
HETATM   17  O1  UNL     1       6.959  18.794 -14.182  1.00  0.00    -0.292 OA
HETATM   18  C6  UNL     1       6.181  18.708 -13.012  1.00  0.00     0.362 C 
HETATM   19  O2  UNL     1       5.302  19.524 -12.637  1.00  0.00    -0.238 OA
HETATM   20  N1  UNL     1       6.547  17.533 -12.298  1.00  0.00    -0.326 N 
HETATM   21  C7  UNL     1       7.589  16.899 -13.078  1.00  0.00     0.058 C 
ATOM     22  H1  UNL     1       6.154  17.203 -11.417  1.00  0.00     0.165 HD
HETATM   23  C8  UNL     1       7.499  15.397 -13.026  1.00  0.00     0.041 C 
HETATM   24  C9  UNL     1       8.921  17.407 -12.575  1.00  0.00     0.041 C 
ENDBRANCH  15  16
ENDBRANCH  12  14
ENDBRANCH   1  11
BRANCH   3  25
HETATM   25  C15 UNL     1      13.691  13.989 -19.803  1.00  0.00    -0.005 C 
BRANCH  25  26
HETATM   26  C16 UNL     1      14.018  15.243 -20.414  1.00  0.00    -0.045 A 
HETATM   27  C17 UNL     1      13.794  15.297 -21.760  1.00  0.00     0.062 A 
HETATM   28  C18 UNL     1      14.064  16.458 -22.565  1.00  0.00     0.172 A 
HETATM   29  O3  UNL     1      13.824  16.480 -23.822  1.00  0.00    -0.289 OA
HETATM   30  C19 UNL     1      14.625  17.634 -21.924  1.00  0.00     0.052 A 
HETATM   31  C20 UNL     1      14.878  17.584 -20.664  1.00  0.00    -0.009 A 
HETATM   32  C21 UNL     1      14.648  16.398 -19.806  1.00  0.00    -0.003 A 
HETATM   33  C22 UNL     1      14.075  16.952 -18.535  1.00  0.00     0.024 C 
HETATM   34  C23 UNL     1      16.114  16.002 -19.402  1.00  0.00     0.024 C 
ENDBRANCH  25  26
ENDBRANCH   3  25
TORSDOF 5
ENDMDL
MODEL 4
REMARK VINA RESULT: -8.170674865      1.478      2.068
REMARK  5 active torsions:
REMARK  status: ('A' for Active; 'I' for Inactive)
REMARK    1  A    between atoms: C2_2  and  C3_3 
REMARK    2  A    between atoms: C4_4  and  C5_5 
REMARK    3  A    between atoms: C10_14  and  C11_15 
REMARK    4  A    between atoms: C13_17  and  C15_19 
REMARK    5  A    between atoms: C15_19  and  C16_20 
ROOT
HETATM    1  C11 UNL     1      11.718  16.584 -18.109  1.00  0.00     0.069 C 
HETATM    2  C12 UNL     1      11.643  15.320 -18.871  1.00  0.00     0.031 C 
HETATM    3  C13 UNL     1      12.483  15.410 -20.202  1.00  0.00    -0.002 C 
HETATM    4  C14 UNL     1      11.875  14.157 -20.951  1.00  0.00     0.024 C 
HETATM    5  C24 UNL     1      12.009  16.527 -20.955  1.00  0.00    -0.071 C 
HETATM    6  C25 UNL     1      11.663  16.471 -22.431  1.00  0.00     0.044 C 
HETATM    7  C26 UNL     1      11.731  17.711 -20.351  1.00  0.00     0.037 C 
HETATM    8  C27 UNL     1      11.914  17.851 -18.891  1.00  0.00     0.204 C 
HETATM    9  F1  UNL     1      10.918  18.749 -18.441  1.00  0.00    -0.220 F 
HETATM   10 CL1  UNL     1      13.415  18.710 -18.467  1.00  0.00    -0.077 Cl
ENDROOT
BRANCH   1  11
HETATM   11  C10 UNL     1      10.536  16.720 -17.218  1.00  0.00    -0.011 C 
HETATM   12  C2  UNL     1       9.348  16.206 -17.464  1.00  0.00    -0.066 C 
HETATM   13  C1  UNL     1       9.193  15.438 -18.726  1.00  0.00     0.048 C 
BRANCH  12  14
HETATM   14  C3  UNL     1       8.276  16.418 -16.502  1.00  0.00     0.005 C 
HETATM   15  C4  UNL     1       8.340  17.223 -15.467  1.00  0.00     0.008 C 
BRANCH  15  16
HETATM   16  C5  UNL     1       7.208  17.373 -14.551  1.00  0.00     0.184 C 
HETATM   17  O1  UNL     1       6.905  18.753 -14.298  1.00  0.00    -0.292 OA
HETATM   18  C6  UNL     1       6.192  18.731 -13.084  1.00  0.00     0.362 C 
HETATM   19  O2  UNL     1       5.351  19.580 -12.697  1.00  0.00    -0.238 OA
HETATM   20  N1  UNL     1       6.576  17.579 -12.343  1.00  0.00    -0.326 N 
HETATM   21  C7  UNL     1       7.562  16.892 -13.150  1.00  0.00     0.058 C 
ATOM     22  H1  UNL     1       6.227  17.294 -11.428  1.00  0.00     0.165 HD
HETATM   23  C8  UNL     1       7.447  15.396 -13.031  1.00  0.00     0.041 C 
HETATM   24  C9  UNL     1       8.929  17.393 -12.743  1.00  0.00     0.041 C 
ENDBRANCH  15  16
ENDBRANCH  12  14
ENDBRANCH   1  11
BRANCH   3  25
HETATM   25  C15 UNL     1      13.825  15.012 -19.855  1.00  0.00    -0.005 C 
BRANCH  25  26
HETATM   26  C16 UNL     1      15.066  15.150 -20.557  1.00  0.00    -0.045 A 
HETATM   27  C17 UNL     1      15.529  13.999 -21.128  1.00  0.00     0.062 A 
HETATM   28  C18 UNL     1      16.759  13.918 -21.869  1.00  0.00     0.172 A 
HETATM   29  O3  UNL     1      17.153  12.827 -22.408  1.00  0.00    -0.289 OA
HETATM   30  C19 UNL     1      17.570  15.116 -22.004  1.00  0.00     0.052 A 
HETATM   31  C20 UNL     1      17.166  16.198 -21.437  1.00  0.00    -0.009 A 
HETATM   32  C21 UNL     1      15.924  16.315 -20.637  1.00  0.00    -0.003 A 
HETATM   33  C22 UNL     1      15.328  17.629 -21.049  1.00  0.00     0.024 C 
HETATM   34  C23 UNL     1      16.491  16.607 -19.201  1.00  0.00     0.024 C 
ENDBRANCH  25  26
ENDBRANCH   3  25
TORSDOF 5
ENDMDL
MODEL 5
REMARK VINA RESULT: -7.924249517      1.098      1.413
REMARK  5 active torsions:
REMARK  status: ('A' for Active; 'I' for Inactive)
REMARK    1  A    between atoms: C2_2  and  C3_3 
REMARK    2  A    between atoms: C4_4  and  C5_5 
REMARK    3  A    between atoms: C10_14  and  C11_15 
REMARK    4  A    between atoms: C13_17  and  C15_19 
REMARK    5  A    between atoms: C15_19  and  C16_20 
ROOT
HETATM    1  C11 UNL     1      11.269  15.641 -19.144  1.00  0.00     0.069 C 
HETATM    2  C12 UNL     1      12.326  14.818 -18.519  1.00  0.00     0.031 C 
HETATM    3  C13 UNL     1      13.220  14.117 -19.612  1.00  0.00    -0.002 C 
HETATM    4  C14 UNL     1      13.915  13.036 -18.692  1.00  0.00     0.024 C 
HETATM    5  C24 UNL     1      12.366  13.351 -20.463  1.00  0.00    -0.071 C 
HETATM    6  C25 UNL     1      12.627  11.908 -20.851  1.00  0.00     0.044 C 
HETATM    7  C26 UNL     1      11.181  13.851 -20.899  1.00  0.00     0.037 C 
HETATM    8  C27 UNL     1      10.760  15.206 -20.487  1.00  0.00     0.204 C 
HETATM    9  F1  UNL     1       9.349  15.179 -20.383  1.00  0.00    -0.220 F 
HETATM   10 CL1  UNL     1      11.020  16.422 -21.763  1.00  0.00    -0.077 Cl
ENDROOT
BRANCH   1  11
HETATM   11  C10 UNL     1      10.130  15.816 -18.206  1.00  0.00    -0.011 C 
HETATM   12  C2  UNL     1       9.827  16.943 -17.594  1.00  0.00    -0.066 C 
HETATM   13  C1  UNL     1      10.695  18.115 -17.872  1.00  0.00     0.048 C 
BRANCH  12  14
HETATM   14  C3  UNL     1       8.679  16.972 -16.698  1.00  0.00     0.005 C 
HETATM   15  C4  UNL     1       8.710  17.367 -15.447  1.00  0.00     0.008 C 
BRANCH  15  16
HETATM   16  C5  UNL     1       7.501  17.362 -14.620  1.00  0.00     0.184 C 
HETATM   17  O1  UNL     1       7.042  18.692 -14.339  1.00  0.00    -0.292 OA
HETATM   18  C6  UNL     1       6.244  18.543 -13.188  1.00  0.00     0.362 C 
HETATM   19  O2  UNL     1       5.294  19.286 -12.837  1.00  0.00    -0.238 OA
HETATM   20  N1  UNL     1       6.685  17.400 -12.464  1.00  0.00    -0.326 N 
HETATM   21  C7  UNL     1       7.794  16.852 -13.216  1.00  0.00     0.058 C 
ATOM     22  H1  UNL     1       6.298  17.040 -11.592  1.00  0.00     0.165 HD
HETATM   23  C8  UNL     1       7.823  15.348 -13.165  1.00  0.00     0.041 C 
HETATM   24  C9  UNL     1       9.068  17.465 -12.680  1.00  0.00     0.041 C 
ENDBRANCH  15  16
ENDBRANCH  12  14
ENDBRANCH   1  11
BRANCH   3  25
HETATM   25  C15 UNL     1      14.268  15.054 -19.932  1.00  0.00    -0.005 C 
BRANCH  25  26
HETATM   26  C16 UNL     1      15.693  14.908 -19.962  1.00  0.00    -0.045 A 
HETATM   27  C17 UNL     1      16.354  15.561 -18.960  1.00  0.00     0.062 A 
HETATM   28  C18 UNL     1      17.784  15.551 -18.814  1.00  0.00     0.172 A 
HETATM   29  O3  UNL     1      18.370  16.158 -17.852  1.00  0.00    -0.289 OA
HETATM   30  C19 UNL     1      18.579  14.827 -19.792  1.00  0.00     0.052 A 
HETATM   31  C20 UNL     1      17.972  14.241 -20.763  1.00  0.00    -0.009 A 
HETATM   32  C21 UNL     1      16.505  14.256 -20.970  1.00  0.00    -0.003 A 
HETATM   33  C22 UNL     1      16.164  12.855 -21.382  1.00  0.00     0.024 C 
HETATM   34  C23 UNL     1      16.375  15.071 -22.307  1.00  0.00     0.024 C 
ENDBRANCH  25  26
ENDBRANCH   3  25
TORSDOF 5
ENDMDL
