MODEL 1
REMARK VINA RESULT: -8.648886498      0.000      0.000
REMARK  8 active torsions:
REMARK  status: ('A' for Active; 'I' for Inactive)
REMARK    1  A    between atoms: C3_3  and  N1_4 
REMARK       I    between atoms: N1_4  and  C4_6 
REMARK    2  A    between atoms: C4_6  and  C5_8 
REMARK    3  A    between atoms: C14_19  and  N3_20 
REMARK       I    between atoms: N3_20  and  C15_22 
REMARK    4  A    between atoms: C15_22  and  C16_24 
REMARK    5  A    between atoms: C16_24  and  C17_25 
REMARK    6  A    between atoms: C17_25  and  C18_26 
REMARK    7  A    between atoms: C18_26  and  O3_27 
REMARK    8  A    between atoms: N5_32  and  C21_33 
ROOT
HETATM    1  C5  UNL     1     -17.888 -32.083  25.472  1.00  0.00     0.130 C 
HETATM    2  C6  UNL     1     -16.648 -32.659  24.908  1.00  0.00     0.079 C 
HETATM    3  N2  UNL     1     -15.668 -33.108  24.480  1.00  0.00    -0.196 NA
HETATM    4  C7  UNL     1     -18.003 -30.684  25.003  1.00  0.00     0.034 C 
HETATM    5  C8  UNL     1     -18.654 -30.495  23.678  1.00  0.00     0.002 C 
HETATM    6  C9  UNL     1     -19.913 -31.289  23.502  1.00  0.00     0.000 C 
HETATM    7  C10 UNL     1     -19.557 -32.747  23.709  1.00  0.00     0.002 C 
HETATM    8  C11 UNL     1     -19.021 -32.986  25.078  1.00  0.00     0.034 C 
ENDROOT
BRANCH   1   9
HETATM    9  C4  UNL     1     -17.719 -32.090  26.940  1.00  0.00     0.245 C 
HETATM   10  N1  UNL     1     -18.019 -30.922  27.657  1.00  0.00    -0.319 N 
ATOM     11  H1  UNL     1     -18.347 -30.093  27.161  1.00  0.00     0.169 HD
HETATM   12  O1  UNL     1     -17.313 -33.123  27.527  1.00  0.00    -0.271 OA
BRANCH  10  13
HETATM   13  C3  UNL     1     -17.866 -30.884  29.101  1.00  0.00     0.085 A 
HETATM   14  C2  UNL     1     -18.690 -31.435  30.041  1.00  0.00    -0.013 A 
HETATM   15  C1  UNL     1     -19.942 -32.196  29.612  1.00  0.00     0.052 C 
HETATM   16  C13 UNL     1     -18.343 -31.267  31.342  1.00  0.00     0.036 A 
HETATM   17  C12 UNL     1     -17.200 -30.561  31.592  1.00  0.00     0.093 A 
HETATM   18  C14 UNL     1     -18.813 -31.605  32.627  1.00  0.00     0.086 A 
HETATM   19  S1  UNL     1     -16.644 -30.155  30.033  1.00  0.00    -0.053 SA
HETATM   20  N5  UNL     1     -16.954 -30.452  32.934  1.00  0.00    -0.325 N 
HETATM   21  C19 UNL     1     -17.929 -31.084  33.565  1.00  0.00     0.145 A 
HETATM   22  C20 UNL     1     -18.023 -31.191  35.005  1.00  0.00     0.120 C 
HETATM   23  N4  UNL     1     -18.093 -31.296  36.162  1.00  0.00    -0.190 NA
BRANCH  20  24
HETATM   24  C21 UNL     1     -15.799 -29.747  33.446  1.00  0.00     0.092 A 
HETATM   25  C22 UNL     1     -16.142 -28.413  34.106  1.00  0.00     0.028 A 
HETATM   26  C23 UNL     1     -15.492 -28.433  32.744  1.00  0.00     0.028 A 
ENDBRANCH  20  24
BRANCH  18  27
HETATM   27  N3  UNL     1     -19.951 -32.344  33.013  1.00  0.00    -0.324 N 
HETATM   28  C15 UNL     1     -20.077 -33.739  32.895  1.00  0.00     0.222 C 
HETATM   29  O2  UNL     1     -19.100 -34.401  32.405  1.00  0.00    -0.273 OA
ATOM     30  H3  UNL     1     -20.739 -31.829  33.406  1.00  0.00     0.169 HD
BRANCH  28  31
HETATM   31  C16 UNL     1     -21.312 -34.437  33.327  1.00  0.00     0.105 C 
BRANCH  31  32
HETATM   32  C17 UNL     1     -21.048 -35.153  34.613  1.00  0.00     0.035 C 
BRANCH  32  33
HETATM   33  C18 UNL     1     -20.188 -34.358  35.559  1.00  0.00     0.164 C 
BRANCH  33  34
HETATM   34  O3  UNL     1     -20.726 -33.133  35.885  1.00  0.00    -0.401 OA
ATOM     35  H3  UNL     1     -20.245 -32.682  36.569  1.00  0.00     0.209 HD
ENDBRANCH  33  34
ENDBRANCH  32  33
ENDBRANCH  31  32
ENDBRANCH  28  31
ENDBRANCH  18  27
ENDBRANCH  10  13
ENDBRANCH   1   9
TORSDOF 8
ENDMDL
MODEL 2
REMARK VINA RESULT: -8.632722311      0.931      1.072
REMARK  8 active torsions:
REMARK  status: ('A' for Active; 'I' for Inactive)
REMARK    1  A    between atoms: C3_3  and  N1_4 
REMARK       I    between atoms: N1_4  and  C4_6 
REMARK    2  A    between atoms: C4_6  and  C5_8 
REMARK    3  A    between atoms: C14_19  and  N3_20 
REMARK       I    between atoms: N3_20  and  C15_22 
REMARK    4  A    between atoms: C15_22  and  C16_24 
REMARK    5  A    between atoms: C16_24  and  C17_25 
REMARK    6  A    between atoms: C17_25  and  C18_26 
REMARK    7  A    between atoms: C18_26  and  O3_27 
REMARK    8  A    between atoms: N5_32  and  C21_33 
ROOT
HETATM    1  C5  UNL     1     -17.885 -32.077  25.505  1.00  0.00     0.130 C 
HETATM    2  C6  UNL     1     -16.630 -32.619  24.941  1.00  0.00     0.079 C 
HETATM    3  N2  UNL     1     -15.638 -33.042  24.513  1.00  0.00    -0.196 NA
HETATM    4  C7  UNL     1     -18.026 -30.674  25.054  1.00  0.00     0.034 C 
HETATM    5  C8  UNL     1     -18.672 -30.480  23.728  1.00  0.00     0.002 C 
HETATM    6  C9  UNL     1     -19.913 -31.297  23.533  1.00  0.00     0.000 C 
HETATM    7  C10 UNL     1     -19.529 -32.750  23.722  1.00  0.00     0.002 C 
HETATM    8  C11 UNL     1     -18.996 -32.998  25.091  1.00  0.00     0.034 C 
ENDROOT
BRANCH   1   9
HETATM    9  C4  UNL     1     -17.724 -32.100  26.974  1.00  0.00     0.245 C 
HETATM   10  N1  UNL     1     -17.995 -30.931  27.698  1.00  0.00    -0.319 N 
ATOM     11  H1  UNL     1     -18.297 -30.089  27.208  1.00  0.00     0.169 HD
HETATM   12  O1  UNL     1     -17.352 -33.149  27.554  1.00  0.00    -0.271 OA
BRANCH  10  13
HETATM   13  C3  UNL     1     -17.850 -30.909  29.144  1.00  0.00     0.085 A 
HETATM   14  C2  UNL     1     -18.696 -31.441  30.074  1.00  0.00    -0.013 A 
HETATM   15  C1  UNL     1     -19.969 -32.160  29.632  1.00  0.00     0.052 C 
HETATM   16  C13 UNL     1     -18.352 -31.294  31.378  1.00  0.00     0.036 A 
HETATM   17  C12 UNL     1     -17.189 -30.626  31.641  1.00  0.00     0.093 A 
HETATM   18  C14 UNL     1     -18.840 -31.628  32.658  1.00  0.00     0.086 A 
HETATM   19  S1  UNL     1     -16.611 -30.226  30.089  1.00  0.00    -0.053 SA
HETATM   20  N5  UNL     1     -16.948 -30.536  32.986  1.00  0.00    -0.325 N 
HETATM   21  C19 UNL     1     -17.947 -31.142  33.605  1.00  0.00     0.145 A 
HETATM   22  C20 UNL     1     -18.052 -31.258  35.044  1.00  0.00     0.120 C 
HETATM   23  N4  UNL     1     -18.133 -31.370  36.199  1.00  0.00    -0.190 NA
BRANCH  20  24
HETATM   24  C21 UNL     1     -15.775 -29.872  33.510  1.00  0.00     0.092 A 
HETATM   25  C22 UNL     1     -16.080 -28.532  34.176  1.00  0.00     0.028 A 
HETATM   26  C23 UNL     1     -15.422 -28.563  32.819  1.00  0.00     0.028 A 
ENDBRANCH  20  24
BRANCH  18  27
HETATM   27  N3  UNL     1     -20.003 -32.334  33.032  1.00  0.00    -0.324 N 
HETATM   28  C15 UNL     1     -20.164 -33.726  32.920  1.00  0.00     0.222 C 
HETATM   29  O2  UNL     1     -19.199 -34.417  32.449  1.00  0.00    -0.273 OA
ATOM     30  H3  UNL     1     -20.783 -31.796  33.410  1.00  0.00     0.169 HD
BRANCH  28  31
HETATM   31  C16 UNL     1     -21.424 -34.388  33.338  1.00  0.00     0.105 C 
BRANCH  31  32
HETATM   32  C17 UNL     1     -21.112 -35.756  33.856  1.00  0.00     0.035 C 
BRANCH  32  33
HETATM   33  C18 UNL     1     -22.331 -36.635  33.957  1.00  0.00     0.164 C 
BRANCH  33  34
HETATM   34  O3  UNL     1     -23.409 -36.154  33.247  1.00  0.00    -0.401 OA
ATOM     35  H3  UNL     1     -23.737 -36.768  32.602  1.00  0.00     0.209 HD
ENDBRANCH  33  34
ENDBRANCH  32  33
ENDBRANCH  31  32
ENDBRANCH  28  31
ENDBRANCH  18  27
ENDBRANCH  10  13
ENDBRANCH   1   9
TORSDOF 8
ENDMDL
MODEL 3
REMARK VINA RESULT: -8.166276651      2.290      4.744
REMARK  8 active torsions:
REMARK  status: ('A' for Active; 'I' for Inactive)
REMARK    1  A    between atoms: C3_3  and  N1_4 
REMARK       I    between atoms: N1_4  and  C4_6 
REMARK    2  A    between atoms: C4_6  and  C5_8 
REMARK    3  A    between atoms: C14_19  and  N3_20 
REMARK       I    between atoms: N3_20  and  C15_22 
REMARK    4  A    between atoms: C15_22  and  C16_24 
REMARK    5  A    between atoms: C16_24  and  C17_25 
REMARK    6  A    between atoms: C17_25  and  C18_26 
REMARK    7  A    between atoms: C18_26  and  O3_27 
REMARK    8  A    between atoms: N5_32  and  C21_33 
ROOT
HETATM    1  C5  UNL     1     -18.447 -31.880  25.620  1.00  0.00     0.130 C 
HETATM    2  C6  UNL     1     -17.159 -32.588  25.456  1.00  0.00     0.079 C 
HETATM    3  N2  UNL     1     -16.145 -33.140  25.342  1.00  0.00    -0.196 NA
HETATM    4  C7  UNL     1     -18.338 -30.562  24.955  1.00  0.00     0.034 C 
HETATM    5  C8  UNL     1     -18.643 -30.541  23.499  1.00  0.00     0.002 C 
HETATM    6  C9  UNL     1     -19.885 -31.295  23.130  1.00  0.00     0.000 C 
HETATM    7  C10 UNL     1     -19.705 -32.721  23.609  1.00  0.00     0.002 C 
HETATM    8  C11 UNL     1     -19.524 -32.779  25.087  1.00  0.00     0.034 C 
ENDROOT
BRANCH   1   9
HETATM    9  C4  UNL     1     -18.626 -31.676  27.073  1.00  0.00     0.245 C 
HETATM   10  N1  UNL     1     -17.935 -32.514  27.960  1.00  0.00    -0.319 N 
ATOM     11  H1  UNL     1     -17.325 -33.245  27.595  1.00  0.00     0.169 HD
HETATM   12  O1  UNL     1     -19.383 -30.769  27.496  1.00  0.00    -0.271 OA
BRANCH  10  13
HETATM   13  C3  UNL     1     -18.084 -32.349  29.396  1.00  0.00     0.085 A 
HETATM   14  C2  UNL     1     -17.295 -31.614  30.235  1.00  0.00    -0.013 A 
HETATM   15  C1  UNL     1     -16.096 -30.845  29.686  1.00  0.00     0.052 C 
HETATM   16  C13 UNL     1     -17.629 -31.611  31.551  1.00  0.00     0.036 A 
HETATM   17  C12 UNL     1     -18.723 -32.344  31.915  1.00  0.00     0.093 A 
HETATM   18  C14 UNL     1     -17.179 -31.058  32.767  1.00  0.00     0.086 A 
HETATM   19  S1  UNL     1     -19.254 -33.010  30.438  1.00  0.00    -0.053 SA
HETATM   20  N5  UNL     1     -18.959 -32.270  33.261  1.00  0.00    -0.325 N 
HETATM   21  C19 UNL     1     -18.026 -31.491  33.781  1.00  0.00     0.145 A 
HETATM   22  C20 UNL     1     -17.937 -31.167  35.189  1.00  0.00     0.120 C 
HETATM   23  N4  UNL     1     -17.872 -30.889  36.317  1.00  0.00    -0.190 NA
BRANCH  20  24
HETATM   24  C21 UNL     1     -20.065 -32.964  33.883  1.00  0.00     0.092 A 
HETATM   25  C22 UNL     1     -19.676 -34.314  34.484  1.00  0.00     0.028 A 
HETATM   26  C23 UNL     1     -20.468 -34.263  33.200  1.00  0.00     0.028 A 
ENDBRANCH  20  24
BRANCH  18  27
HETATM   27  N3  UNL     1     -16.091 -30.199  33.028  1.00  0.00    -0.324 N 
HETATM   28  C15 UNL     1     -16.012 -28.859  32.612  1.00  0.00     0.222 C 
HETATM   29  O2  UNL     1     -16.987 -28.366  31.948  1.00  0.00    -0.273 OA
ATOM     30  H3  UNL     1     -15.305 -30.577  33.557  1.00  0.00     0.169 HD
BRANCH  28  31
HETATM   31  C16 UNL     1     -14.828 -28.024  32.930  1.00  0.00     0.105 C 
BRANCH  31  32
HETATM   32  C17 UNL     1     -14.048 -27.779  31.678  1.00  0.00     0.035 C 
BRANCH  32  33
HETATM   33  C18 UNL     1     -14.234 -26.385  31.138  1.00  0.00     0.164 C 
BRANCH  33  34
HETATM   34  O3  UNL     1     -15.553 -25.995  31.082  1.00  0.00    -0.401 OA
ATOM     35  H3  UNL     1     -15.853 -25.570  31.877  1.00  0.00     0.209 HD
ENDBRANCH  33  34
ENDBRANCH  32  33
ENDBRANCH  31  32
ENDBRANCH  28  31
ENDBRANCH  18  27
ENDBRANCH  10  13
ENDBRANCH   1   9
TORSDOF 8
ENDMDL
MODEL 4
REMARK VINA RESULT: -7.947222561      1.458      1.568
REMARK  8 active torsions:
REMARK  status: ('A' for Active; 'I' for Inactive)
REMARK    1  A    between atoms: C3_3  and  N1_4 
REMARK       I    between atoms: N1_4  and  C4_6 
REMARK    2  A    between atoms: C4_6  and  C5_8 
REMARK    3  A    between atoms: C14_19  and  N3_20 
REMARK       I    between atoms: N3_20  and  C15_22 
REMARK    4  A    between atoms: C15_22  and  C16_24 
REMARK    5  A    between atoms: C16_24  and  C17_25 
REMARK    6  A    between atoms: C17_25  and  C18_26 
REMARK    7  A    between atoms: C18_26  and  O3_27 
REMARK    8  A    between atoms: N5_32  and  C21_33 
ROOT
HETATM    1  C5  UNL     1     -18.147 -31.643  25.670  1.00  0.00     0.130 C 
HETATM    2  C6  UNL     1     -16.834 -32.271  25.408  1.00  0.00     0.079 C 
HETATM    3  N2  UNL     1     -15.799 -32.759  25.217  1.00  0.00    -0.196 NA
HETATM    4  C7  UNL     1     -18.230 -30.396  24.877  1.00  0.00     0.034 C 
HETATM    5  C8  UNL     1     -18.710 -30.549  23.476  1.00  0.00     0.002 C 
HETATM    6  C9  UNL     1     -19.920 -31.423  23.343  1.00  0.00     0.000 C 
HETATM    7  C10 UNL     1     -19.565 -32.775  23.926  1.00  0.00     0.002 C 
HETATM    8  C11 UNL     1     -19.202 -32.667  25.367  1.00  0.00     0.034 C 
ENDROOT
BRANCH   1   9
HETATM    9  C4  UNL     1     -18.165 -31.304  27.109  1.00  0.00     0.245 C 
HETATM   10  N1  UNL     1     -17.061 -31.656  27.897  1.00  0.00    -0.319 N 
ATOM     11  H1  UNL     1     -16.267 -32.137  27.472  1.00  0.00     0.169 HD
HETATM   12  O1  UNL     1     -19.154 -30.712  27.607  1.00  0.00    -0.271 OA
BRANCH  10  13
HETATM   13  C3  UNL     1     -17.038 -31.342  29.316  1.00  0.00     0.085 A 
HETATM   14  C2  UNL     1     -17.471 -32.124  30.348  1.00  0.00    -0.013 A 
HETATM   15  C1  UNL     1     -18.064 -33.503  30.071  1.00  0.00     0.052 C 
HETATM   16  C13 UNL     1     -17.351 -31.615  31.601  1.00  0.00     0.036 A 
HETATM   17  C12 UNL     1     -16.808 -30.366  31.713  1.00  0.00     0.093 A 
HETATM   18  C14 UNL     1     -17.628 -31.978  32.935  1.00  0.00     0.086 A 
HETATM   19  S1  UNL     1     -16.482 -29.937  30.096  1.00  0.00    -0.053 SA
HETATM   20  N5  UNL     1     -16.741 -29.956  33.017  1.00  0.00    -0.325 N 
HETATM   21  C19 UNL     1     -17.237 -30.931  33.761  1.00  0.00     0.145 A 
HETATM   22  C20 UNL     1     -17.339 -30.873  35.203  1.00  0.00     0.120 C 
HETATM   23  N4  UNL     1     -17.406 -30.841  36.364  1.00  0.00    -0.190 NA
BRANCH  20  24
HETATM   24  C21 UNL     1     -16.203 -28.666  33.387  1.00  0.00     0.092 A 
HETATM   25  C22 UNL     1     -17.273 -27.595  33.594  1.00  0.00     0.028 A 
HETATM   26  C23 UNL     1     -16.412 -27.568  32.355  1.00  0.00     0.028 A 
ENDBRANCH  20  24
BRANCH  18  27
HETATM   27  N3  UNL     1     -18.185 -33.164  33.456  1.00  0.00    -0.324 N 
HETATM   28  C15 UNL     1     -19.562 -33.442  33.518  1.00  0.00     0.222 C 
HETATM   29  O2  UNL     1     -20.382 -32.569  33.074  1.00  0.00    -0.273 OA
ATOM     30  H3  UNL     1     -17.543 -33.871  33.815  1.00  0.00     0.169 HD
BRANCH  28  31
HETATM   31  C16 UNL     1     -20.062 -34.719  34.084  1.00  0.00     0.105 C 
BRANCH  31  32
HETATM   32  C17 UNL     1     -21.273 -35.153  33.322  1.00  0.00     0.035 C 
BRANCH  32  33
HETATM   33  C18 UNL     1     -22.188 -36.035  34.131  1.00  0.00     0.164 C 
BRANCH  33  34
HETATM   34  O3  UNL     1     -23.341 -36.381  33.462  1.00  0.00    -0.401 OA
ATOM     35  H3  UNL     1     -23.208 -36.519  32.532  1.00  0.00     0.209 HD
ENDBRANCH  33  34
ENDBRANCH  32  33
ENDBRANCH  31  32
ENDBRANCH  28  31
ENDBRANCH  18  27
ENDBRANCH  10  13
ENDBRANCH   1   9
TORSDOF 8
ENDMDL
MODEL 5
REMARK VINA RESULT: -7.924354753      2.004      4.497
REMARK  8 active torsions:
REMARK  status: ('A' for Active; 'I' for Inactive)
REMARK    1  A    between atoms: C3_3  and  N1_4 
REMARK       I    between atoms: N1_4  and  C4_6 
REMARK    2  A    between atoms: C4_6  and  C5_8 
REMARK    3  A    between atoms: C14_19  and  N3_20 
REMARK       I    between atoms: N3_20  and  C15_22 
REMARK    4  A    between atoms: C15_22  and  C16_24 
REMARK    5  A    between atoms: C16_24  and  C17_25 
REMARK    6  A    between atoms: C17_25  and  C18_26 
REMARK    7  A    between atoms: C18_26  and  O3_27 
REMARK    8  A    between atoms: N5_32  and  C21_33 
ROOT
HETATM    1  C5  UNL     1     -18.027 -32.242  25.598  1.00  0.00     0.130 C 
HETATM    2  C6  UNL     1     -16.742 -32.776  25.098  1.00  0.00     0.079 C 
HETATM    3  N2  UNL     1     -15.728 -33.194  24.720  1.00  0.00    -0.196 NA
HETATM    4  C7  UNL     1     -18.108 -30.811  25.229  1.00  0.00     0.034 C 
HETATM    5  C8  UNL     1     -18.646 -30.520  23.872  1.00  0.00     0.002 C 
HETATM    6  C9  UNL     1     -19.883 -31.296  23.532  1.00  0.00     0.000 C 
HETATM    7  C10 UNL     1     -19.540 -32.766  23.656  1.00  0.00     0.002 C 
HETATM    8  C11 UNL     1     -19.119 -33.110  25.044  1.00  0.00     0.034 C 
ENDROOT
BRANCH   1   9
HETATM    9  C4  UNL     1     -17.980 -32.360  27.071  1.00  0.00     0.245 C 
HETATM   10  N1  UNL     1     -18.755 -31.481  27.840  1.00  0.00    -0.319 N 
ATOM     11  H1  UNL     1     -19.335 -30.780  27.379  1.00  0.00     0.169 HD
HETATM   12  O1  UNL     1     -17.259 -33.232  27.614  1.00  0.00    -0.271 OA
BRANCH  10  13
HETATM   13  C3  UNL     1     -18.739 -31.562  29.291  1.00  0.00     0.085 A 
HETATM   14  C2  UNL     1     -18.006 -30.803  30.159  1.00  0.00    -0.013 A 
HETATM   15  C1  UNL     1     -17.067 -29.721  29.629  1.00  0.00     0.052 C 
HETATM   16  C13 UNL     1     -18.153 -31.063  31.482  1.00  0.00     0.036 A 
HETATM   17  C12 UNL     1     -19.022 -32.061  31.826  1.00  0.00     0.093 A 
HETATM   18  C14 UNL     1     -17.663 -30.608  32.724  1.00  0.00     0.086 A 
HETATM   19  S1  UNL     1     -19.604 -32.605  30.319  1.00  0.00    -0.053 SA
HETATM   20  N5  UNL     1     -19.085 -32.235  33.182  1.00  0.00    -0.325 N 
HETATM   21  C19 UNL     1     -18.263 -31.356  33.729  1.00  0.00     0.145 A 
HETATM   22  C20 UNL     1     -18.051 -31.228  35.155  1.00  0.00     0.120 C 
HETATM   23  N4  UNL     1     -17.891 -31.108  36.302  1.00  0.00    -0.190 NA
BRANCH  20  24
HETATM   24  C21 UNL     1     -19.937 -33.235  33.786  1.00  0.00     0.092 A 
HETATM   25  C22 UNL     1     -19.498 -34.668  33.492  1.00  0.00     0.028 A 
HETATM   26  C23 UNL     1     -20.709 -34.096  32.797  1.00  0.00     0.028 A 
ENDBRANCH  20  24
BRANCH  18  27
HETATM   27  N3  UNL     1     -16.742 -29.580  33.015  1.00  0.00    -0.324 N 
HETATM   28  C15 UNL     1     -15.350 -29.680  32.843  1.00  0.00     0.222 C 
HETATM   29  O2  UNL     1     -14.868 -30.774  32.393  1.00  0.00    -0.273 OA
ATOM     30  H3  UNL     1     -17.112 -28.700  33.376  1.00  0.00     0.169 HD
BRANCH  28  31
HETATM   31  C16 UNL     1     -14.452 -28.547  33.175  1.00  0.00     0.105 C 
BRANCH  31  32
HETATM   32  C17 UNL     1     -13.861 -28.003  31.915  1.00  0.00     0.035 C 
BRANCH  32  33
HETATM   33  C18 UNL     1     -14.873 -27.295  31.052  1.00  0.00     0.164 C 
BRANCH  33  34
HETATM   34  O3  UNL     1     -15.921 -26.763  31.770  1.00  0.00    -0.401 OA
ATOM     35  H3  UNL     1     -15.968 -25.815  31.719  1.00  0.00     0.209 HD
ENDBRANCH  33  34
ENDBRANCH  32  33
ENDBRANCH  31  32
ENDBRANCH  28  31
ENDBRANCH  18  27
ENDBRANCH  10  13
ENDBRANCH   1   9
TORSDOF 8
ENDMDL
