MODEL 1
REMARK VINA RESULT: -6.206420477      0.000      0.000
REMARK  11 active torsions:
REMARK  status: ('A' for Active; 'I' for Inactive)
REMARK    1  A    between atoms: C2_2  and  S1_3 
REMARK    2  A    between atoms: C4_6  and  S3_7 
REMARK    3  A    between atoms: S3_7  and  C5_8 
REMARK    4  A    between atoms: C5_8  and  C6_9 
REMARK    5  A    between atoms: C6_9  and  O1_10 
REMARK    6  A    between atoms: C6_9  and  C7_12 
REMARK    7  A    between atoms: C7_12  and  C8_13 
REMARK    8  A    between atoms: C8_13  and  N1_14 
REMARK    9  A    between atoms: C9_18  and  O2_19 
REMARK   10  A    between atoms: C10_21  and  O3_22 
REMARK   11  A    between atoms: C11_24  and  O4_25 
ROOT
HETATM    1  C1  UNL     1      16.006  22.092  16.640  1.00  0.00     0.031 C 
HETATM    2  C2  UNL     1      14.735  22.123  15.822  1.00  0.00     0.045 C 
HETATM    3  C3  UNL     1      14.908  21.613  14.443  1.00  0.00     0.041 C 
HETATM    4  C4  UNL     1      14.515  20.118  14.291  1.00  0.00     0.080 C 
HETATM    5  C9  UNL     1      13.111  19.927  14.686  1.00  0.00     0.163 C 
HETATM    6  C10 UNL     1      12.583  21.060  15.570  1.00  0.00     0.178 C 
HETATM    7  C11 UNL     1      13.619  21.438  16.581  1.00  0.00     0.168 C 
ENDROOT
BRANCH   4   8
HETATM    8  S3  UNL     1      14.935  19.670  12.658  1.00  0.00    -0.159 SA
BRANCH   8   9
HETATM    9  C5  UNL     1      13.901  19.761  11.301  1.00  0.00     0.106 C 
BRANCH   9  10
HETATM   10  C6  UNL     1      13.398  18.649  10.480  1.00  0.00     0.129 C 
BRANCH  10  11
HETATM   11  O1  UNL     1      12.002  18.534  10.706  1.00  0.00    -0.395 OA
ATOM     12  H1  UNL     1      11.617  18.105   9.951  1.00  0.00     0.210 HD
ENDBRANCH  10  11
BRANCH  10  13
HETATM   13  C7  UNL     1      13.756  18.573   9.074  1.00  0.00     0.059 C 
BRANCH  13  14
HETATM   14  C8  UNL     1      13.097  19.680   8.236  1.00  0.00     0.232 C 
BRANCH  14  15
HETATM   15  N1  UNL     1      11.768  19.386   7.840  1.00  0.00    -0.079 N 
ATOM     16  H13 UNL     1      11.648  18.382   7.704  1.00  0.00     0.274 HD
ATOM     17  H12 UNL     1      11.122  19.533   8.614  1.00  0.00     0.274 HD
ATOM     18  H11 UNL     1      11.460  19.899   7.013  1.00  0.00     0.274 HD
ENDBRANCH  14  15
ENDBRANCH  13  14
ENDBRANCH  10  13
ENDBRANCH   9  10
ENDBRANCH   8   9
ENDBRANCH   4   8
BRANCH   5  19
HETATM   19  O2  UNL     1      13.048  18.791  15.511  1.00  0.00    -0.392 OA
ATOM     20  H2  UNL     1      12.792  18.053  14.969  1.00  0.00     0.210 HD
ENDBRANCH   5  19
BRANCH   2  21
HETATM   21  S1  UNL     1      14.234  23.886  15.711  1.00  0.00    -0.073 SA
HETATM   22  S2  UNL     1      14.994  24.989  17.370  1.00  0.00    -0.012 SA
ENDBRANCH   2  21
BRANCH   6  23
HETATM   23  O3  UNL     1      11.437  20.644  16.243  1.00  0.00    -0.390 OA
ATOM     24  H3  UNL     1      11.023  21.385  16.670  1.00  0.00     0.210 HD
ENDBRANCH   6  23
BRANCH   7  25
HETATM   25  O4  UNL     1      14.040  20.333  17.281  1.00  0.00    -0.391 OA
ATOM     26  H4  UNL     1      13.467  20.107  18.005  1.00  0.00     0.210 HD
ENDBRANCH   7  25
TORSDOF 11
ENDMDL
MODEL 2
REMARK VINA RESULT: -5.830056840      1.332      1.670
REMARK  11 active torsions:
REMARK  status: ('A' for Active; 'I' for Inactive)
REMARK    1  A    between atoms: C2_2  and  S1_3 
REMARK    2  A    between atoms: C4_6  and  S3_7 
REMARK    3  A    between atoms: S3_7  and  C5_8 
REMARK    4  A    between atoms: C5_8  and  C6_9 
REMARK    5  A    between atoms: C6_9  and  O1_10 
REMARK    6  A    between atoms: C6_9  and  C7_12 
REMARK    7  A    between atoms: C7_12  and  C8_13 
REMARK    8  A    between atoms: C8_13  and  N1_14 
REMARK    9  A    between atoms: C9_18  and  O2_19 
REMARK   10  A    between atoms: C10_21  and  O3_22 
REMARK   11  A    between atoms: C11_24  and  O4_25 
ROOT
HETATM    1  C1  UNL     1      16.015  22.161  16.674  1.00  0.00     0.031 C 
HETATM    2  C2  UNL     1      14.752  22.160  15.843  1.00  0.00     0.045 C 
HETATM    3  C3  UNL     1      14.943  21.612  14.482  1.00  0.00     0.041 C 
HETATM    4  C4  UNL     1      14.560  20.110  14.370  1.00  0.00     0.080 C 
HETATM    5  C9  UNL     1      13.154  19.922  14.756  1.00  0.00     0.163 C 
HETATM    6  C10 UNL     1      12.609  21.077  15.601  1.00  0.00     0.178 C 
HETATM    7  C11 UNL     1      13.633  21.491  16.611  1.00  0.00     0.168 C 
ENDROOT
BRANCH   4   8
HETATM    8  S3  UNL     1      15.000  19.617  12.755  1.00  0.00    -0.159 SA
BRANCH   8   9
HETATM    9  C5  UNL     1      13.976  19.652  11.388  1.00  0.00     0.106 C 
BRANCH   9  10
HETATM   10  C6  UNL     1      12.724  18.909  11.185  1.00  0.00     0.129 C 
BRANCH  10  11
HETATM   11  O1  UNL     1      12.700  18.449   9.842  1.00  0.00    -0.395 OA
ATOM     12  H1  UNL     1      12.471  17.527   9.852  1.00  0.00     0.210 HD
ENDBRANCH  10  11
BRANCH  10  13
HETATM   13  C7  UNL     1      12.327  17.892  12.143  1.00  0.00     0.059 C 
BRANCH  13  14
HETATM   14  C8  UNL     1      11.144  17.044  11.650  1.00  0.00     0.232 C 
BRANCH  14  15
HETATM   15  N1  UNL     1      10.065  17.808  11.137  1.00  0.00    -0.079 N 
ATOM     16  H13 UNL     1       9.223  17.656  11.692  1.00  0.00     0.274 HD
ATOM     17  H12 UNL     1      10.211  18.801  11.316  1.00  0.00     0.274 HD
ATOM     18  H11 UNL     1       9.877  17.645  10.148  1.00  0.00     0.274 HD
ENDBRANCH  14  15
ENDBRANCH  13  14
ENDBRANCH  10  13
ENDBRANCH   9  10
ENDBRANCH   8   9
ENDBRANCH   4   8
BRANCH   5  19
HETATM   19  O2  UNL     1      13.089  18.810  15.613  1.00  0.00    -0.392 OA
ATOM     20  H2  UNL     1      13.812  18.233  15.394  1.00  0.00     0.210 HD
ENDBRANCH   5  19
BRANCH   2  21
HETATM   21  S1  UNL     1      14.242  23.916  15.676  1.00  0.00    -0.073 SA
HETATM   22  S2  UNL     1      14.957  25.067  17.322  1.00  0.00    -0.012 SA
ENDBRANCH   2  21
BRANCH   6  23
HETATM   23  O3  UNL     1      11.460  20.674  16.274  1.00  0.00    -0.390 OA
ATOM     24  H3  UNL     1      11.181  21.353  16.877  1.00  0.00     0.210 HD
ENDBRANCH   6  23
BRANCH   7  25
HETATM   25  O4  UNL     1      14.053  20.409  17.347  1.00  0.00    -0.391 OA
ATOM     26  H4  UNL     1      14.027  19.593  16.860  1.00  0.00     0.210 HD
ENDBRANCH   7  25
TORSDOF 11
ENDMDL
MODEL 3
REMARK VINA RESULT: -5.802043365      2.152      2.592
REMARK  11 active torsions:
REMARK  status: ('A' for Active; 'I' for Inactive)
REMARK    1  A    between atoms: C2_2  and  S1_3 
REMARK    2  A    between atoms: C4_6  and  S3_7 
REMARK    3  A    between atoms: S3_7  and  C5_8 
REMARK    4  A    between atoms: C5_8  and  C6_9 
REMARK    5  A    between atoms: C6_9  and  O1_10 
REMARK    6  A    between atoms: C6_9  and  C7_12 
REMARK    7  A    between atoms: C7_12  and  C8_13 
REMARK    8  A    between atoms: C8_13  and  N1_14 
REMARK    9  A    between atoms: C9_18  and  O2_19 
REMARK   10  A    between atoms: C10_21  and  O3_22 
REMARK   11  A    between atoms: C11_24  and  O4_25 
ROOT
HETATM    1  C1  UNL     1      13.127  21.232  16.881  1.00  0.00     0.031 C 
HETATM    2  C2  UNL     1      14.258  21.684  15.984  1.00  0.00     0.045 C 
HETATM    3  C3  UNL     1      14.595  20.709  14.924  1.00  0.00     0.041 C 
HETATM    4  C4  UNL     1      13.905  21.020  13.567  1.00  0.00     0.080 C 
HETATM    5  C9  UNL     1      14.290  22.362  13.106  1.00  0.00     0.163 C 
HETATM    6  C10 UNL     1      14.817  23.251  14.236  1.00  0.00     0.178 C 
HETATM    7  C11 UNL     1      13.970  23.073  15.457  1.00  0.00     0.168 C 
ENDROOT
BRANCH   4   8
HETATM    8  S3  UNL     1      14.295  19.689  12.509  1.00  0.00    -0.159 SA
BRANCH   8   9
HETATM    9  C5  UNL     1      13.869  19.569  10.859  1.00  0.00     0.106 C 
BRANCH   9  10
HETATM   10  C6  UNL     1      13.307  18.403  10.159  1.00  0.00     0.129 C 
BRANCH  10  11
HETATM   11  O1  UNL     1      11.956  18.256  10.569  1.00  0.00    -0.395 OA
ATOM     12  H1  UNL     1      11.421  18.169   9.788  1.00  0.00     0.210 HD
ENDBRANCH  10  11
BRANCH  10  13
HETATM   13  C7  UNL     1      13.486  18.270   8.724  1.00  0.00     0.059 C 
BRANCH  13  14
HETATM   14  C8  UNL     1      13.015  19.513   7.951  1.00  0.00     0.232 C 
BRANCH  14  15
HETATM   15  N1  UNL     1      11.630  19.510   7.649  1.00  0.00    -0.079 N 
ATOM     16  H13 UNL     1      11.409  20.236   6.968  1.00  0.00     0.274 HD
ATOM     17  H12 UNL     1      11.382  18.684   7.105  1.00  0.00     0.274 HD
ATOM     18  H11 UNL     1      11.028  19.593   8.470  1.00  0.00     0.274 HD
ENDBRANCH  14  15
ENDBRANCH  13  14
ENDBRANCH  10  13
ENDBRANCH   9  10
ENDBRANCH   8   9
ENDBRANCH   4   8
BRANCH   5  19
HETATM   19  O2  UNL     1      13.125  23.017  12.670  1.00  0.00    -0.392 OA
ATOM     20  H2  UNL     1      13.175  23.920  12.961  1.00  0.00     0.210 HD
ENDBRANCH   5  19
BRANCH   2  21
HETATM   21  S1  UNL     1      15.731  21.873  17.064  1.00  0.00    -0.073 SA
HETATM   22  S2  UNL     1      15.208  22.850  18.886  1.00  0.00    -0.012 SA
ENDBRANCH   2  21
BRANCH   6  23
HETATM   23  O3  UNL     1      14.768  24.588  13.853  1.00  0.00    -0.390 OA
ATOM     24  H3  UNL     1      13.937  24.775  13.431  1.00  0.00     0.210 HD
ENDBRANCH   6  23
BRANCH   7  25
HETATM   25  O4  UNL     1      12.643  23.274  15.159  1.00  0.00    -0.391 OA
ATOM     26  H4  UNL     1      12.208  22.491  14.844  1.00  0.00     0.210 HD
ENDBRANCH   7  25
TORSDOF 11
ENDMDL
MODEL 4
REMARK VINA RESULT: -5.731302098      1.444      1.651
REMARK  11 active torsions:
REMARK  status: ('A' for Active; 'I' for Inactive)
REMARK    1  A    between atoms: C2_2  and  S1_3 
REMARK    2  A    between atoms: C4_6  and  S3_7 
REMARK    3  A    between atoms: S3_7  and  C5_8 
REMARK    4  A    between atoms: C5_8  and  C6_9 
REMARK    5  A    between atoms: C6_9  and  O1_10 
REMARK    6  A    between atoms: C6_9  and  C7_12 
REMARK    7  A    between atoms: C7_12  and  C8_13 
REMARK    8  A    between atoms: C8_13  and  N1_14 
REMARK    9  A    between atoms: C9_18  and  O2_19 
REMARK   10  A    between atoms: C10_21  and  O3_22 
REMARK   11  A    between atoms: C11_24  and  O4_25 
ROOT
HETATM    1  C1  UNL     1      15.964  22.093  16.670  1.00  0.00     0.031 C 
HETATM    2  C2  UNL     1      14.722  22.078  15.808  1.00  0.00     0.045 C 
HETATM    3  C3  UNL     1      14.949  21.521  14.456  1.00  0.00     0.041 C 
HETATM    4  C4  UNL     1      14.578  20.016  14.346  1.00  0.00     0.080 C 
HETATM    5  C9  UNL     1      13.164  19.822  14.700  1.00  0.00     0.163 C 
HETATM    6  C10 UNL     1      12.592  20.980  15.523  1.00  0.00     0.178 C 
HETATM    7  C11 UNL     1      13.588  21.408  16.554  1.00  0.00     0.168 C 
ENDROOT
BRANCH   4   8
HETATM    8  S3  UNL     1      15.060  19.514  12.747  1.00  0.00    -0.159 SA
BRANCH   8   9
HETATM    9  C5  UNL     1      14.040  19.427  11.379  1.00  0.00     0.106 C 
BRANCH   9  10
HETATM   10  C6  UNL     1      13.896  20.419  10.303  1.00  0.00     0.129 C 
BRANCH  10  11
HETATM   11  O1  UNL     1      12.784  20.041   9.505  1.00  0.00    -0.395 OA
ATOM     12  H1  UNL     1      12.444  20.824   9.087  1.00  0.00     0.210 HD
ENDBRANCH  10  11
BRANCH  10  13
HETATM   13  C7  UNL     1      13.914  21.836  10.622  1.00  0.00     0.059 C 
BRANCH  13  14
HETATM   14  C8  UNL     1      14.797  22.648   9.661  1.00  0.00     0.232 C 
BRANCH  14  15
HETATM   15  N1  UNL     1      14.691  22.245   8.306  1.00  0.00    -0.079 N 
ATOM     16  H13 UNL     1      13.909  21.603   8.183  1.00  0.00     0.274 HD
ATOM     17  H12 UNL     1      14.372  23.019   7.725  1.00  0.00     0.274 HD
ATOM     18  H11 UNL     1      15.549  21.842   7.927  1.00  0.00     0.274 HD
ENDBRANCH  14  15
ENDBRANCH  13  14
ENDBRANCH  10  13
ENDBRANCH   9  10
ENDBRANCH   8   9
ENDBRANCH   4   8
BRANCH   5  19
HETATM   19  O2  UNL     1      13.086  18.716  15.564  1.00  0.00    -0.392 OA
ATOM     20  H2  UNL     1      12.839  17.959  15.044  1.00  0.00     0.210 HD
ENDBRANCH   5  19
BRANCH   2  21
HETATM   21  S1  UNL     1      14.205  23.829  15.615  1.00  0.00    -0.073 SA
HETATM   22  S2  UNL     1      15.004  25.027  17.188  1.00  0.00    -0.012 SA
ENDBRANCH   2  21
BRANCH   6  23
HETATM   23  O3  UNL     1      11.429  20.574  16.171  1.00  0.00    -0.390 OA
ATOM     24  H3  UNL     1      11.576  19.746  16.614  1.00  0.00     0.210 HD
ENDBRANCH   6  23
BRANCH   7  25
HETATM   25  O4  UNL     1      13.997  20.334  17.308  1.00  0.00    -0.391 OA
ATOM     26  H4  UNL     1      13.576  19.520  17.059  1.00  0.00     0.210 HD
ENDBRANCH   7  25
TORSDOF 11
ENDMDL
MODEL 5
REMARK VINA RESULT: -5.569102832      3.617      5.265
REMARK  11 active torsions:
REMARK  status: ('A' for Active; 'I' for Inactive)
REMARK    1  A    between atoms: C2_2  and  S1_3 
REMARK    2  A    between atoms: C4_6  and  S3_7 
REMARK    3  A    between atoms: S3_7  and  C5_8 
REMARK    4  A    between atoms: C5_8  and  C6_9 
REMARK    5  A    between atoms: C6_9  and  O1_10 
REMARK    6  A    between atoms: C6_9  and  C7_12 
REMARK    7  A    between atoms: C7_12  and  C8_13 
REMARK    8  A    between atoms: C8_13  and  N1_14 
REMARK    9  A    between atoms: C9_18  and  O2_19 
REMARK   10  A    between atoms: C10_21  and  O3_22 
REMARK   11  A    between atoms: C11_24  and  O4_25 
ROOT
HETATM    1  C1  UNL     1      15.376  19.219  12.216  1.00  0.00     0.031 C 
HETATM    2  C2  UNL     1      14.198  20.047  12.677  1.00  0.00     0.045 C 
HETATM    3  C3  UNL     1      12.964  19.256  12.877  1.00  0.00     0.041 C 
HETATM    4  C4  UNL     1      12.748  18.824  14.354  1.00  0.00     0.080 C 
HETATM    5  C9  UNL     1      12.686  20.012  15.219  1.00  0.00     0.163 C 
HETATM    6  C10 UNL     1      13.318  21.250  14.575  1.00  0.00     0.178 C 
HETATM    7  C11 UNL     1      14.590  20.868  13.887  1.00  0.00     0.168 C 
ENDROOT
BRANCH   4   8
HETATM    8  S3  UNL     1      11.348  17.783  14.355  1.00  0.00    -0.159 SA
BRANCH   8   9
HETATM    9  C5  UNL     1       9.726  18.292  14.190  1.00  0.00     0.106 C 
BRANCH   9  10
HETATM   10  C6  UNL     1       8.779  18.631  15.263  1.00  0.00     0.129 C 
BRANCH  10  11
HETATM   11  O1  UNL     1       9.489  19.341  16.266  1.00  0.00    -0.395 OA
ATOM     12  H1  UNL     1       9.575  20.244  15.982  1.00  0.00     0.210 HD
ENDBRANCH  10  11
BRANCH  10  13
HETATM   13  C7  UNL     1       7.502  19.240  14.930  1.00  0.00     0.059 C 
BRANCH  13  14
HETATM   14  C8  UNL     1       7.179  19.154  13.429  1.00  0.00     0.232 C 
BRANCH  14  15
HETATM   15  N1  UNL     1       5.956  19.774  13.069  1.00  0.00    -0.079 N 
ATOM     16  H13 UNL     1       5.164  19.238  13.423  1.00  0.00     0.274 HD
ATOM     17  H12 UNL     1       5.825  20.640  13.592  1.00  0.00     0.274 HD
ATOM     18  H11 UNL     1       5.857  19.942  12.068  1.00  0.00     0.274 HD
ENDBRANCH  14  15
ENDBRANCH  13  14
ENDBRANCH  10  13
ENDBRANCH   9  10
ENDBRANCH   8   9
ENDBRANCH   4   8
BRANCH   5  19
HETATM   19  O2  UNL     1      13.489  19.764  16.346  1.00  0.00    -0.392 OA
ATOM     20  H2  UNL     1      14.382  19.646  16.045  1.00  0.00     0.210 HD
ENDBRANCH   5  19
BRANCH   2  21
HETATM   21  S1  UNL     1      13.873  21.270  11.347  1.00  0.00    -0.073 SA
HETATM   22  S2  UNL     1      13.658  20.294   9.464  1.00  0.00    -0.012 SA
ENDBRANCH   2  21
BRANCH   6  23
HETATM   23  O3  UNL     1      13.609  22.198  15.552  1.00  0.00    -0.390 OA
ATOM     24  H3  UNL     1      14.333  22.744  15.270  1.00  0.00     0.210 HD
ENDBRANCH   6  23
BRANCH   7  25
HETATM   25  O4  UNL     1      15.425  20.198  14.748  1.00  0.00    -0.391 OA
ATOM     26  H4  UNL     1      16.264  20.629  14.867  1.00  0.00     0.210 HD
ENDBRANCH   7  25
TORSDOF 11
ENDMDL
