MODEL 1
REMARK VINA RESULT: -7.681143130      0.000      0.000
REMARK  10 active torsions:
REMARK  status: ('A' for Active; 'I' for Inactive)
REMARK    1  A    between atoms: C2_2  and  C3_4 
REMARK    2  A    between atoms: C3_4  and  N1_5 
REMARK    3  A    between atoms: C3_4  and  C4_9 
REMARK    4  A    between atoms: C4_9  and  N2_10 
REMARK    5  A    between atoms: C4_9  and  C12_30 
REMARK       I    between atoms: N2_10  and  C5_12 
REMARK       I    between atoms: C5_12  and  N3_14 
REMARK    6  A    between atoms: N3_14  and  C6_16 
REMARK    7  A    between atoms: C10_20  and  N4_21 
REMARK    8  A    between atoms: C11_26  and  N6_27 
REMARK    9  A    between atoms: C12_30  and  N7_31 
REMARK   10  A    between atoms: C12_30  and  O5_35 
ROOT
HETATM    1  N2  UNL     1      14.908  22.083  16.358  1.00  0.00    -0.332 N 
ATOM      2  H2  UNL     1      15.811  21.671  16.595  1.00  0.00     0.164 HD
HETATM    3  C5  UNL     1      14.254  21.675  15.137  1.00  0.00     0.321 C 
HETATM    4  O2  UNL     1      13.148  22.244  14.948  1.00  0.00    -0.247 OA
HETATM    5  N3  UNL     1      14.855  20.734  14.300  1.00  0.00    -0.306 N 
ATOM      6  H3  UNL     1      15.758  20.360  14.591  1.00  0.00     0.170 HD
ENDROOT
BRANCH   1   7
HETATM    7  C4  UNL     1      14.319  23.062  17.262  1.00  0.00     0.179 C 
BRANCH   7   8
HETATM    8  C3  UNL     1      14.271  22.556  18.663  1.00  0.00     0.278 C 
BRANCH   8   9
HETATM    9  C2  UNL     1      14.331  21.100  18.844  1.00  0.00     0.155 C 
HETATM   10  C1  UNL     1      15.219  20.483  19.847  1.00  0.00     0.093 C 
HETATM   11  O1  UNL     1      13.628  20.346  18.145  1.00  0.00    -0.296 OA
ENDBRANCH   8   9
BRANCH   8  12
HETATM   12  N1  UNL     1      15.454  23.084  19.403  1.00  0.00    -0.066 N 
ATOM     13  H13 UNL     1      16.340  22.949  18.917  1.00  0.00     0.275 HD
ATOM     14  H12 UNL     1      15.497  24.103  19.442  1.00  0.00     0.275 HD
ATOM     15  H11 UNL     1      15.412  22.636  20.319  1.00  0.00     0.275 HD
ENDBRANCH   8  12
ENDBRANCH   7   8
BRANCH   7  16
HETATM   16  C12 UNL     1      14.937  24.402  17.052  1.00  0.00     0.341 C 
BRANCH  16  17
HETATM   17  N7  UNL     1      14.604  24.905  15.697  1.00  0.00    -0.051 N 
ATOM     18  H73 UNL     1      15.415  24.903  15.078  1.00  0.00     0.277 HD
ATOM     19  H72 UNL     1      14.020  24.250  15.178  1.00  0.00     0.277 HD
ATOM     20  H71 UNL     1      14.177  25.829  15.764  1.00  0.00     0.277 HD
ENDBRANCH  16  17
BRANCH  16  21
HETATM   21  O5  UNL     1      16.328  24.398  17.084  1.00  0.00    -0.368 OA
ATOM     22  H5  UNL     1      16.728  23.699  16.580  1.00  0.00     0.212 HD
ENDBRANCH  16  21
ENDBRANCH   7  16
ENDBRANCH   1   7
BRANCH   5  23
HETATM   23  C6  UNL     1      14.319  20.257  13.086  1.00  0.00     0.071 A 
HETATM   24  C7  UNL     1      14.590  20.723  11.829  1.00  0.00     0.032 A 
HETATM   25  C8  UNL     1      14.011  20.186  10.668  1.00  0.00     0.005 A 
HETATM   26  C9  UNL     1      13.127  19.142  10.755  1.00  0.00     0.034 A 
HETATM   27  C10 UNL     1      12.846  18.663  12.017  1.00  0.00     0.082 A 
HETATM   28  C11 UNL     1      13.403  19.178  13.155  1.00  0.00     0.157 A 
BRANCH  27  29
HETATM   29  N4  UNL     1      11.918  17.568  12.102  1.00  0.00    -0.305 N 
HETATM   30  N5  UNL     1      10.920  17.564  11.328  1.00  0.00    -0.345 N 
ATOM     31  H52 UNL     1      10.790  18.326  10.663  1.00  0.00     0.176 HD
ATOM     32  H51 UNL     1      10.261  16.787  11.389  1.00  0.00     0.176 HD
ATOM     33  H4  UNL     1      12.062  16.813  12.772  1.00  0.00     0.186 HD
ENDBRANCH  27  29
BRANCH  28  34
HETATM   34  N6  UNL     1      13.073  18.638  14.424  1.00  0.00    -0.111 N 
HETATM   35  O3  UNL     1      13.770  17.770  14.934  1.00  0.00    -0.532 OA
HETATM   36  O4  UNL     1      11.968  19.100  15.075  1.00  0.00    -0.532 OA
ENDBRANCH  28  34
ENDBRANCH   5  23
TORSDOF 10
ENDMDL
MODEL 2
REMARK VINA RESULT: -7.594257044      0.892      1.098
REMARK  10 active torsions:
REMARK  status: ('A' for Active; 'I' for Inactive)
REMARK    1  A    between atoms: C2_2  and  C3_4 
REMARK    2  A    between atoms: C3_4  and  N1_5 
REMARK    3  A    between atoms: C3_4  and  C4_9 
REMARK    4  A    between atoms: C4_9  and  N2_10 
REMARK    5  A    between atoms: C4_9  and  C12_30 
REMARK       I    between atoms: N2_10  and  C5_12 
REMARK       I    between atoms: C5_12  and  N3_14 
REMARK    6  A    between atoms: N3_14  and  C6_16 
REMARK    7  A    between atoms: C10_20  and  N4_21 
REMARK    8  A    between atoms: C11_26  and  N6_27 
REMARK    9  A    between atoms: C12_30  and  N7_31 
REMARK   10  A    between atoms: C12_30  and  O5_35 
ROOT
HETATM    1  N2  UNL     1      14.908  21.850  16.055  1.00  0.00    -0.332 N 
ATOM      2  H2  UNL     1      15.831  21.462  16.254  1.00  0.00     0.164 HD
HETATM    3  C5  UNL     1      14.207  21.414  14.871  1.00  0.00     0.321 C 
HETATM    4  O2  UNL     1      13.081  21.956  14.728  1.00  0.00    -0.247 OA
HETATM    5  N3  UNL     1      14.789  20.477  14.017  1.00  0.00    -0.306 N 
ATOM      6  H3  UNL     1      15.713  20.126  14.269  1.00  0.00     0.170 HD
ENDROOT
BRANCH   1   7
HETATM    7  C4  UNL     1      14.340  22.828  16.976  1.00  0.00     0.179 C 
BRANCH   7   8
HETATM    8  C3  UNL     1      14.789  22.587  18.376  1.00  0.00     0.278 C 
BRANCH   8   9
HETATM    9  C2  UNL     1      14.593  21.233  18.912  1.00  0.00     0.155 C 
HETATM   10  C1  UNL     1      15.278  20.781  20.138  1.00  0.00     0.093 C 
HETATM   11  O1  UNL     1      13.838  20.428  18.334  1.00  0.00    -0.296 OA
ENDBRANCH   8   9
BRANCH   8  12
HETATM   12  N1  UNL     1      16.261  22.821  18.454  1.00  0.00    -0.066 N 
ATOM     13  H13 UNL     1      16.623  22.862  19.407  1.00  0.00     0.275 HD
ATOM     14  H12 UNL     1      16.823  22.025  18.151  1.00  0.00     0.275 HD
ATOM     15  H11 UNL     1      16.420  23.671  17.914  1.00  0.00     0.275 HD
ENDBRANCH   8  12
ENDBRANCH   7   8
BRANCH   7  16
HETATM   16  C12 UNL     1      14.515  24.208  16.441  1.00  0.00     0.341 C 
BRANCH  16  17
HETATM   17  N7  UNL     1      14.523  25.185  17.558  1.00  0.00    -0.051 N 
ATOM     18  H73 UNL     1      13.588  25.535  17.766  1.00  0.00     0.277 HD
ATOM     19  H72 UNL     1      14.718  24.740  18.454  1.00  0.00     0.277 HD
ATOM     20  H71 UNL     1      15.178  25.940  17.354  1.00  0.00     0.277 HD
ENDBRANCH  16  17
BRANCH  16  21
HETATM   21  O5  UNL     1      13.478  24.636  15.618  1.00  0.00    -0.368 OA
ATOM     22  H5  UNL     1      13.579  25.524  15.295  1.00  0.00     0.212 HD
ENDBRANCH  16  21
ENDBRANCH   7  16
ENDBRANCH   1   7
BRANCH   5  23
HETATM   23  C6  UNL     1      14.208  19.974  12.834  1.00  0.00     0.071 A 
HETATM   24  C7  UNL     1      14.487  20.360  11.552  1.00  0.00     0.032 A 
HETATM   25  C8  UNL     1      13.859  19.802  10.428  1.00  0.00     0.005 A 
HETATM   26  C9  UNL     1      12.916  18.819  10.577  1.00  0.00     0.034 A 
HETATM   27  C10 UNL     1      12.626  18.421  11.865  1.00  0.00     0.082 A 
HETATM   28  C11 UNL     1      13.230  18.957  12.968  1.00  0.00     0.157 A 
BRANCH  27  29
HETATM   29  N4  UNL     1      11.635  17.390  12.016  1.00  0.00    -0.305 N 
HETATM   30  N5  UNL     1      10.553  17.496  11.373  1.00  0.00    -0.345 N 
ATOM     31  H52 UNL     1      10.401  18.301  10.765  1.00  0.00     0.176 HD
ATOM     32  H51 UNL     1       9.850  16.765  11.481  1.00  0.00     0.176 HD
ATOM     33  H4  UNL     1      11.803  16.592  12.627  1.00  0.00     0.186 HD
ENDBRANCH  27  29
BRANCH  28  34
HETATM   34  N6  UNL     1      12.888  18.501  14.267  1.00  0.00    -0.111 N 
HETATM   35  O3  UNL     1      11.804  18.784  14.764  1.00  0.00    -0.532 OA
HETATM   36  O4  UNL     1      13.781  17.738  14.959  1.00  0.00    -0.532 OA
ENDBRANCH  28  34
ENDBRANCH   5  23
TORSDOF 10
ENDMDL
MODEL 3
REMARK VINA RESULT: -7.080718503      1.968      7.033
REMARK  10 active torsions:
REMARK  status: ('A' for Active; 'I' for Inactive)
REMARK    1  A    between atoms: C2_2  and  C3_4 
REMARK    2  A    between atoms: C3_4  and  N1_5 
REMARK    3  A    between atoms: C3_4  and  C4_9 
REMARK    4  A    between atoms: C4_9  and  N2_10 
REMARK    5  A    between atoms: C4_9  and  C12_30 
REMARK       I    between atoms: N2_10  and  C5_12 
REMARK       I    between atoms: C5_12  and  N3_14 
REMARK    6  A    between atoms: N3_14  and  C6_16 
REMARK    7  A    between atoms: C10_20  and  N4_21 
REMARK    8  A    between atoms: C11_26  and  N6_27 
REMARK    9  A    between atoms: C12_30  and  N7_31 
REMARK   10  A    between atoms: C12_30  and  O5_35 
ROOT
HETATM    1  N2  UNL     1      12.614  19.673  13.969  1.00  0.00    -0.332 N 
ATOM      2  H2  UNL     1      11.687  20.087  13.872  1.00  0.00     0.164 HD
HETATM    3  C5  UNL     1      13.494  20.164  15.002  1.00  0.00     0.321 C 
HETATM    4  O2  UNL     1      14.608  19.582  15.030  1.00  0.00    -0.247 OA
HETATM    5  N3  UNL     1      13.075  21.190  15.851  1.00  0.00    -0.306 N 
ATOM      6  H3  UNL     1      12.137  21.564  15.704  1.00  0.00     0.170 HD
ENDROOT
BRANCH   1   7
HETATM    7  C4  UNL     1      13.009  18.605  13.059  1.00  0.00     0.179 C 
BRANCH   7   8
HETATM    8  C3  UNL     1      11.908  17.621  12.859  1.00  0.00     0.278 C 
BRANCH   8   9
HETATM    9  C2  UNL     1      10.802  17.658  13.826  1.00  0.00     0.155 C 
HETATM   10  C1  UNL     1       9.442  18.068  13.427  1.00  0.00     0.093 C 
HETATM   11  O1  UNL     1      10.992  17.344  15.016  1.00  0.00    -0.296 OA
ENDBRANCH   8   9
BRANCH   8  12
HETATM   12  N1  UNL     1      11.270  17.879  11.536  1.00  0.00    -0.066 N 
ATOM     13  H13 UNL     1      10.974  17.033  11.048  1.00  0.00     0.275 HD
ATOM     14  H12 UNL     1      10.345  18.306  11.598  1.00  0.00     0.275 HD
ATOM     15  H11 UNL     1      11.950  18.437  11.021  1.00  0.00     0.275 HD
ENDBRANCH   8  12
ENDBRANCH   7   8
BRANCH   7  16
HETATM   16  C12 UNL     1      13.635  19.172  11.832  1.00  0.00     0.341 C 
BRANCH  16  17
HETATM   17  N7  UNL     1      15.065  19.471  12.086  1.00  0.00    -0.051 N 
ATOM     18  H73 UNL     1      15.305  20.431  11.839  1.00  0.00     0.277 HD
ATOM     19  H72 UNL     1      15.275  19.517  13.083  1.00  0.00     0.277 HD
ATOM     20  H71 UNL     1      15.654  18.794  11.601  1.00  0.00     0.277 HD
ENDBRANCH  16  17
BRANCH  16  21
HETATM   21  O5  UNL     1      13.096  20.389  11.428  1.00  0.00    -0.368 OA
ATOM     22  H5  UNL     1      13.367  21.130  11.957  1.00  0.00     0.212 HD
ENDBRANCH  16  21
ENDBRANCH   7  16
ENDBRANCH   1   7
BRANCH   5  23
HETATM   23  C6  UNL     1      13.840  21.754  16.893  1.00  0.00     0.071 A 
HETATM   24  C7  UNL     1      14.090  21.204  18.120  1.00  0.00     0.032 A 
HETATM   25  C8  UNL     1      14.867  21.837  19.103  1.00  0.00     0.005 A 
HETATM   26  C9  UNL     1      15.422  23.066  18.862  1.00  0.00     0.034 A 
HETATM   27  C10 UNL     1      15.177  23.632  17.629  1.00  0.00     0.082 A 
HETATM   28  C11 UNL     1      14.422  23.026  16.663  1.00  0.00     0.157 A 
BRANCH  27  29
HETATM   29  N4  UNL     1      15.761  24.922  17.381  1.00  0.00    -0.305 N 
HETATM   30  N5  UNL     1      15.021  25.943  17.458  1.00  0.00    -0.345 N 
ATOM     31  H52 UNL     1      14.034  25.837  17.692  1.00  0.00     0.176 HD
ATOM     32  H51 UNL     1      15.436  26.858  17.282  1.00  0.00     0.176 HD
ATOM     33  H4  UNL     1      16.750  25.011  17.148  1.00  0.00     0.186 HD
ENDBRANCH  27  29
BRANCH  28  34
HETATM   34  N6  UNL     1      14.210  23.661  15.413  1.00  0.00    -0.111 N 
HETATM   35  O3  UNL     1      13.346  24.520  15.286  1.00  0.00    -0.532 OA
HETATM   36  O4  UNL     1      14.984  23.306  14.348  1.00  0.00    -0.532 OA
ENDBRANCH  28  34
ENDBRANCH   5  23
TORSDOF 10
ENDMDL
MODEL 4
REMARK VINA RESULT: -7.023786915      1.899      2.404
REMARK  10 active torsions:
REMARK  status: ('A' for Active; 'I' for Inactive)
REMARK    1  A    between atoms: C2_2  and  C3_4 
REMARK    2  A    between atoms: C3_4  and  N1_5 
REMARK    3  A    between atoms: C3_4  and  C4_9 
REMARK    4  A    between atoms: C4_9  and  N2_10 
REMARK    5  A    between atoms: C4_9  and  C12_30 
REMARK       I    between atoms: N2_10  and  C5_12 
REMARK       I    between atoms: C5_12  and  N3_14 
REMARK    6  A    between atoms: N3_14  and  C6_16 
REMARK    7  A    between atoms: C10_20  and  N4_21 
REMARK    8  A    between atoms: C11_26  and  N6_27 
REMARK    9  A    between atoms: C12_30  and  N7_31 
REMARK   10  A    between atoms: C12_30  and  O5_35 
ROOT
HETATM    1  N2  UNL     1      13.995  20.890  16.629  1.00  0.00    -0.332 N 
ATOM      2  H2  UNL     1      14.470  20.181  17.187  1.00  0.00     0.164 HD
HETATM    3  C5  UNL     1      13.305  20.487  15.427  1.00  0.00     0.321 C 
HETATM    4  O2  UNL     1      12.755  21.441  14.820  1.00  0.00    -0.247 OA
HETATM    5  N3  UNL     1      13.295  19.146  15.041  1.00  0.00    -0.306 N 
ATOM      6  H3  UNL     1      13.788  18.484  15.640  1.00  0.00     0.170 HD
ENDROOT
BRANCH   1   7
HETATM    7  C4  UNL     1      14.033  22.279  17.070  1.00  0.00     0.179 C 
BRANCH   7   8
HETATM    8  C3  UNL     1      14.073  22.381  18.556  1.00  0.00     0.278 C 
BRANCH   8   9
HETATM    9  C2  UNL     1      15.076  21.562  19.251  1.00  0.00     0.155 C 
HETATM   10  C1  UNL     1      16.146  22.175  20.060  1.00  0.00     0.093 C 
HETATM   11  O1  UNL     1      15.046  20.320  19.166  1.00  0.00    -0.296 OA
ENDBRANCH   8   9
BRANCH   8  12
HETATM   12  N1  UNL     1      14.399  23.788  18.931  1.00  0.00    -0.066 N 
ATOM     13  H13 UNL     1      13.677  24.461  18.678  1.00  0.00     0.275 HD
ATOM     14  H12 UNL     1      14.376  23.964  19.936  1.00  0.00     0.275 HD
ATOM     15  H11 UNL     1      15.306  23.971  18.500  1.00  0.00     0.275 HD
ENDBRANCH   8  12
ENDBRANCH   7   8
BRANCH   7  16
HETATM   16  C12 UNL     1      15.072  23.036  16.316  1.00  0.00     0.341 C 
BRANCH  16  17
HETATM   17  N7  UNL     1      14.426  24.019  15.413  1.00  0.00    -0.051 N 
ATOM     18  H73 UNL     1      13.453  23.781  15.222  1.00  0.00     0.277 HD
ATOM     19  H72 UNL     1      14.273  24.916  15.871  1.00  0.00     0.277 HD
ATOM     20  H71 UNL     1      14.971  24.113  14.556  1.00  0.00     0.277 HD
ENDBRANCH  16  17
BRANCH  16  21
HETATM   21  O5  UNL     1      15.847  22.249  15.470  1.00  0.00    -0.368 OA
ATOM     22  H5  UNL     1      15.643  22.352  14.548  1.00  0.00     0.212 HD
ENDBRANCH  16  21
ENDBRANCH   7  16
ENDBRANCH   1   7
BRANCH   5  23
HETATM   23  C6  UNL     1      12.660  18.628  13.893  1.00  0.00     0.071 A 
HETATM   24  C7  UNL     1      11.499  17.907  13.850  1.00  0.00     0.032 A 
HETATM   25  C8  UNL     1      10.933  17.431  12.657  1.00  0.00     0.005 A 
HETATM   26  C9  UNL     1      11.542  17.678  11.454  1.00  0.00     0.034 A 
HETATM   27  C10 UNL     1      12.714  18.404  11.484  1.00  0.00     0.082 A 
HETATM   28  C11 UNL     1      13.275  18.874  12.640  1.00  0.00     0.157 A 
BRANCH  27  29
HETATM   29  N4  UNL     1      13.349  18.661  10.220  1.00  0.00    -0.305 N 
HETATM   30  N5  UNL     1      12.919  19.616   9.514  1.00  0.00    -0.345 N 
ATOM     31  H52 UNL     1      12.139  20.183   9.847  1.00  0.00     0.176 HD
ATOM     32  H51 UNL     1      13.370  19.798   8.617  1.00  0.00     0.176 HD
ATOM     33  H4  UNL     1      14.128  18.085   9.901  1.00  0.00     0.186 HD
ENDBRANCH  27  29
BRANCH  28  34
HETATM   34  N6  UNL     1      14.482  19.617  12.602  1.00  0.00    -0.111 N 
HETATM   35  O3  UNL     1      15.495  19.193  13.143  1.00  0.00    -0.532 OA
HETATM   36  O4  UNL     1      14.504  20.814  11.949  1.00  0.00    -0.532 OA
ENDBRANCH  28  34
ENDBRANCH   5  23
TORSDOF 10
ENDMDL
MODEL 5
REMARK VINA RESULT: -6.975733747      2.151      3.286
REMARK  10 active torsions:
REMARK  status: ('A' for Active; 'I' for Inactive)
REMARK    1  A    between atoms: C2_2  and  C3_4 
REMARK    2  A    between atoms: C3_4  and  N1_5 
REMARK    3  A    between atoms: C3_4  and  C4_9 
REMARK    4  A    between atoms: C4_9  and  N2_10 
REMARK    5  A    between atoms: C4_9  and  C12_30 
REMARK       I    between atoms: N2_10  and  C5_12 
REMARK       I    between atoms: C5_12  and  N3_14 
REMARK    6  A    between atoms: N3_14  and  C6_16 
REMARK    7  A    between atoms: C10_20  and  N4_21 
REMARK    8  A    between atoms: C11_26  and  N6_27 
REMARK    9  A    between atoms: C12_30  and  N7_31 
REMARK   10  A    between atoms: C12_30  and  O5_35 
ROOT
HETATM    1  N2  UNL     1      14.591  25.310  15.237  1.00  0.00    -0.332 N 
ATOM      2  H2  UNL     1      15.510  25.662  14.968  1.00  0.00     0.164 HD
HETATM    3  C5  UNL     1      14.119  24.074  14.659  1.00  0.00     0.321 C 
HETATM    4  O2  UNL     1      12.978  23.736  15.064  1.00  0.00    -0.247 OA
HETATM    5  N3  UNL     1      14.913  23.380  13.745  1.00  0.00    -0.306 N 
ATOM      6  H3  UNL     1      15.821  23.783  13.514  1.00  0.00     0.170 HD
ENDROOT
BRANCH   1   7
HETATM    7  C4  UNL     1      13.797  26.069  16.195  1.00  0.00     0.179 C 
BRANCH   7   8
HETATM    8  C3  UNL     1      14.190  25.761  17.599  1.00  0.00     0.278 C 
BRANCH   8   9
HETATM    9  C2  UNL     1      15.066  24.599  17.803  1.00  0.00     0.155 C 
HETATM   10  C1  UNL     1      14.595  23.391  18.506  1.00  0.00     0.093 C 
HETATM   11  O1  UNL     1      16.239  24.612  17.386  1.00  0.00    -0.296 OA
ENDBRANCH   8   9
BRANCH   8  12
HETATM   12  N1  UNL     1      14.955  26.919  18.148  1.00  0.00    -0.066 N 
ATOM     13  H13 UNL     1      15.839  27.094  17.671  1.00  0.00     0.275 HD
ATOM     14  H12 UNL     1      14.533  27.826  17.946  1.00  0.00     0.275 HD
ATOM     15  H11 UNL     1      15.053  26.720  19.144  1.00  0.00     0.275 HD
ENDBRANCH   8  12
ENDBRANCH   7   8
BRANCH   7  16
HETATM   16  C12 UNL     1      13.754  27.508  15.810  1.00  0.00     0.341 C 
BRANCH  16  17
HETATM   17  N7  UNL     1      12.352  27.922  15.558  1.00  0.00    -0.051 N 
ATOM     18  H73 UNL     1      11.946  27.432  14.761  1.00  0.00     0.277 HD
ATOM     19  H72 UNL     1      11.718  27.584  16.280  1.00  0.00     0.277 HD
ATOM     20  H71 UNL     1      12.303  28.935  15.448  1.00  0.00     0.277 HD
ENDBRANCH  16  17
BRANCH  16  21
HETATM   21  O5  UNL     1      14.417  27.799  14.621  1.00  0.00    -0.368 OA
ATOM     22  H5  UNL     1      14.151  27.261  13.885  1.00  0.00     0.212 HD
ENDBRANCH  16  21
ENDBRANCH   7  16
ENDBRANCH   1   7
BRANCH   5  23
HETATM   23  C6  UNL     1      14.565  22.168  13.112  1.00  0.00     0.071 A 
HETATM   24  C7  UNL     1      14.135  22.007  11.824  1.00  0.00     0.032 A 
HETATM   25  C8  UNL     1      13.810  20.758  11.272  1.00  0.00     0.005 A 
HETATM   26  C9  UNL     1      13.917  19.619  12.026  1.00  0.00     0.034 A 
HETATM   27  C10 UNL     1      14.349  19.768  13.327  1.00  0.00     0.082 A 
HETATM   28  C11 UNL     1      14.668  20.980  13.876  1.00  0.00     0.157 A 
BRANCH  27  29
HETATM   29  N4  UNL     1      14.459  18.570  14.114  1.00  0.00    -0.305 N 
HETATM   30  N5  UNL     1      13.415  18.108  14.656  1.00  0.00    -0.345 N 
ATOM     31  H52 UNL     1      12.523  18.586  14.528  1.00  0.00     0.176 HD
ATOM     32  H51 UNL     1      13.493  17.259  15.215  1.00  0.00     0.176 HD
ATOM     33  H4  UNL     1      15.358  18.104  14.232  1.00  0.00     0.186 HD
ENDBRANCH  27  29
BRANCH  28  34
HETATM   34  N6  UNL     1      15.110  21.064  15.221  1.00  0.00    -0.111 N 
HETATM   35  O3  UNL     1      14.369  20.748  16.144  1.00  0.00    -0.532 OA
HETATM   36  O4  UNL     1      16.376  21.501  15.478  1.00  0.00    -0.532 OA
ENDBRANCH  28  34
ENDBRANCH   5  23
TORSDOF 10
ENDMDL
