MODEL 1
REMARK VINA RESULT: -10.444698224      0.000      0.000
REMARK  19 active torsions:
REMARK  status: ('A' for Active; 'I' for Inactive)
REMARK    1  A    between atoms: C2_2  and  C3_3 
REMARK    2  A    between atoms: C3_3  and  C4_4 
REMARK    3  A    between atoms: C4_4  and  C5_5 
REMARK    4  A    between atoms: C5_5  and  C6_6 
REMARK    5  A    between atoms: C6_6  and  C7_7 
REMARK    6  A    between atoms: C7_7  and  C8_8 
REMARK    7  A    between atoms: C9_9  and  C10_10 
REMARK    8  A    between atoms: C10_10  and  C11_11 
REMARK    9  A    between atoms: C12_12  and  C13_13 
REMARK   10  A    between atoms: C13_13  and  C14_14 
REMARK   11  A    between atoms: C15_15  and  C16_16 
REMARK   12  A    between atoms: C16_16  and  C17_17 
REMARK   13  A    between atoms: C17_17  and  C18_18 
REMARK   14  A    between atoms: C19_19  and  C20_20 
REMARK   15  A    between atoms: C20_20  and  C21_21 
REMARK   16  A    between atoms: C22_22  and  C23_23 
REMARK   17  A    between atoms: C23_23  and  C24_24 
REMARK   18  A    between atoms: C25_25  and  C26_26 
REMARK   19  A    between atoms: C29_29  and  O1_30 
ROOT
HETATM    1  C17 UNL     1      90.501   8.859   5.395  1.00  0.00     0.030 C 
ENDROOT
BRANCH   1   2
HETATM    2  C16 UNL     1      91.612   8.292   6.300  1.00  0.00     0.030 C 
BRANCH   2   3
HETATM    3  C15 UNL     1      91.299   8.774   7.659  1.00  0.00    -0.030 C 
HETATM    4  C14 UNL     1      92.155   8.829   8.640  1.00  0.00    -0.027 C 
BRANCH   4   5
HETATM    5  C13 UNL     1      93.552   8.421   8.530  1.00  0.00     0.053 C 
BRANCH   5   6
HETATM    6  C12 UNL     1      93.631   6.994   9.034  1.00  0.00    -0.027 C 
HETATM    7  C11 UNL     1      94.308   6.107   8.340  1.00  0.00    -0.027 C 
BRANCH   7   8
HETATM    8  C10 UNL     1      94.391   4.702   8.825  1.00  0.00     0.053 C 
BRANCH   8   9
HETATM    9  C9  UNL     1      93.598   4.557  10.057  1.00  0.00    -0.027 C 
HETATM   10  C8  UNL     1      92.912   3.492  10.356  1.00  0.00    -0.030 C 
BRANCH  10  11
HETATM   11  C7  UNL     1      92.827   2.294   9.525  1.00  0.00     0.027 C 
BRANCH  11  12
HETATM   12  C6  UNL     1      91.999   1.254  10.297  1.00  0.00     0.004 C 
BRANCH  12  13
HETATM   13  C5  UNL     1      91.394   0.251   9.298  1.00  0.00     0.001 C 
BRANCH  13  14
HETATM   14  C4  UNL     1      90.392   0.922   8.419  1.00  0.00     0.004 C 
BRANCH  14  15
HETATM   15  C3  UNL     1      89.383   1.770   9.101  1.00  0.00     0.026 C 
BRANCH  15  16
HETATM   16  C2  UNL     1      88.325   1.093   9.853  1.00  0.00    -0.037 C 
HETATM   17  C1  UNL     1      87.293   0.535   9.280  1.00  0.00     0.007 C 
ENDBRANCH  15  16
ENDBRANCH  14  15
ENDBRANCH  13  14
ENDBRANCH  12  13
ENDBRANCH  11  12
ENDBRANCH  10  11
ENDBRANCH   8   9
ENDBRANCH   7   8
ENDBRANCH   5   6
ENDBRANCH   4   5
ENDBRANCH   2   3
ENDBRANCH   1   2
BRANCH   1  18
HETATM   18  C18 UNL     1      90.308  10.293   5.806  1.00  0.00    -0.030 C 
HETATM   19  C19 UNL     1      89.288  10.996   5.386  1.00  0.00    -0.027 C 
BRANCH  19  20
HETATM   20  C20 UNL     1      89.138  12.422   5.825  1.00  0.00     0.053 C 
BRANCH  20  21
HETATM   21  C21 UNL     1      87.753  12.764   6.133  1.00  0.00    -0.027 C 
HETATM   22  C22 UNL     1      87.072  13.722   5.607  1.00  0.00    -0.027 C 
BRANCH  22  23
HETATM   23  C23 UNL     1      87.658  14.641   4.564  1.00  0.00     0.054 C 
BRANCH  23  24
HETATM   24  C24 UNL     1      86.782  14.729   3.406  1.00  0.00    -0.022 C 
HETATM   25  C25 UNL     1      86.163  13.875   2.704  1.00  0.00     0.007 C 
BRANCH  25  26
HETATM   26  C26 UNL     1      86.139  12.436   2.832  1.00  0.00    -0.036 A 
HETATM   27  C27 UNL     1      85.084  11.653   3.203  1.00  0.00     0.014 A 
HETATM   28  C28 UNL     1      85.127  10.252   3.226  1.00  0.00     0.037 A 
HETATM   29  C29 UNL     1      86.263   9.573   2.869  1.00  0.00     0.068 A 
HETATM   30  C31 UNL     1      87.339  10.339   2.494  1.00  0.00     0.037 A 
HETATM   31  C32 UNL     1      87.296  11.706   2.471  1.00  0.00     0.014 A 
BRANCH  29  32
HETATM   32  O1  UNL     1      86.337   8.187   2.882  1.00  0.00    -0.356 OA
HETATM   33  C30 UNL     1      87.540   7.569   2.515  1.00  0.00     0.210 C 
ENDBRANCH  29  32
ENDBRANCH  25  26
ENDBRANCH  23  24
ENDBRANCH  22  23
ENDBRANCH  20  21
ENDBRANCH  19  20
ENDBRANCH   1  18
TORSDOF 19
ENDMDL
MODEL 2
REMARK VINA RESULT: -10.334918505      3.396      8.851
REMARK  19 active torsions:
REMARK  status: ('A' for Active; 'I' for Inactive)
REMARK    1  A    between atoms: C2_2  and  C3_3 
REMARK    2  A    between atoms: C3_3  and  C4_4 
REMARK    3  A    between atoms: C4_4  and  C5_5 
REMARK    4  A    between atoms: C5_5  and  C6_6 
REMARK    5  A    between atoms: C6_6  and  C7_7 
REMARK    6  A    between atoms: C7_7  and  C8_8 
REMARK    7  A    between atoms: C9_9  and  C10_10 
REMARK    8  A    between atoms: C10_10  and  C11_11 
REMARK    9  A    between atoms: C12_12  and  C13_13 
REMARK   10  A    between atoms: C13_13  and  C14_14 
REMARK   11  A    between atoms: C15_15  and  C16_16 
REMARK   12  A    between atoms: C16_16  and  C17_17 
REMARK   13  A    between atoms: C17_17  and  C18_18 
REMARK   14  A    between atoms: C19_19  and  C20_20 
REMARK   15  A    between atoms: C20_20  and  C21_21 
REMARK   16  A    between atoms: C22_22  and  C23_23 
REMARK   17  A    between atoms: C23_23  and  C24_24 
REMARK   18  A    between atoms: C25_25  and  C26_26 
REMARK   19  A    between atoms: C29_29  and  O1_30 
ROOT
HETATM    1  C17 UNL     1      92.043   0.560  10.044  1.00  0.00     0.030 C 
ENDROOT
BRANCH   1   2
HETATM    2  C16 UNL     1      90.989   0.122   9.009  1.00  0.00     0.030 C 
BRANCH   2   3
HETATM    3  C15 UNL     1      90.302   1.360   8.596  1.00  0.00    -0.030 C 
HETATM    4  C14 UNL     1      89.118   1.720   9.001  1.00  0.00    -0.027 C 
BRANCH   4   5
HETATM    5  C13 UNL     1      88.301   0.944   9.929  1.00  0.00     0.053 C 
BRANCH   5   6
HETATM    6  C12 UNL     1      86.923   0.830   9.307  1.00  0.00    -0.027 C 
HETATM    7  C11 UNL     1      86.577  -0.294   8.720  1.00  0.00    -0.027 C 
BRANCH   7   8
HETATM    8  C10 UNL     1      85.226  -0.417   8.106  1.00  0.00     0.053 C 
BRANCH   8   9
HETATM    9  C9  UNL     1      84.548   0.890   8.138  1.00  0.00    -0.027 C 
HETATM   10  C8  UNL     1      84.166   1.535   7.075  1.00  0.00    -0.030 C 
BRANCH  10  11
HETATM   11  C7  UNL     1      84.350   1.065   5.704  1.00  0.00     0.027 C 
BRANCH  11  12
HETATM   12  C6  UNL     1      85.610   1.748   5.148  1.00  0.00     0.004 C 
BRANCH  12  13
HETATM   13  C5  UNL     1      85.254   2.463   3.831  1.00  0.00     0.001 C 
BRANCH  13  14
HETATM   14  C4  UNL     1      84.511   1.547   2.917  1.00  0.00     0.004 C 
BRANCH  14  15
HETATM   15  C3  UNL     1      83.364   2.138   2.184  1.00  0.00     0.026 C 
BRANCH  15  16
HETATM   16  C2  UNL     1      82.105   1.391   2.181  1.00  0.00    -0.037 C 
HETATM   17  C1  UNL     1      81.864   0.404   3.001  1.00  0.00     0.007 C 
ENDBRANCH  15  16
ENDBRANCH  14  15
ENDBRANCH  13  14
ENDBRANCH  12  13
ENDBRANCH  11  12
ENDBRANCH  10  11
ENDBRANCH   8   9
ENDBRANCH   7   8
ENDBRANCH   5   6
ENDBRANCH   4   5
ENDBRANCH   2   3
ENDBRANCH   1   2
BRANCH   1  18
HETATM   18  C18 UNL     1      92.397   1.984   9.714  1.00  0.00    -0.030 C 
HETATM   19  C19 UNL     1      92.801   2.821  10.634  1.00  0.00    -0.027 C 
BRANCH  19  20
HETATM   20  C20 UNL     1      93.143   4.232  10.257  1.00  0.00     0.053 C 
BRANCH  20  21
HETATM   21  C21 UNL     1      92.105   4.854   9.442  1.00  0.00    -0.027 C 
HETATM   22  C22 UNL     1      91.859   6.116   9.358  1.00  0.00    -0.027 C 
BRANCH  22  23
HETATM   23  C23 UNL     1      92.655   7.139  10.131  1.00  0.00     0.054 C 
BRANCH  23  24
HETATM   24  C24 UNL     1      93.634   7.785   9.271  1.00  0.00    -0.022 C 
HETATM   25  C25 UNL     1      93.556   8.608   8.312  1.00  0.00     0.007 C 
BRANCH  25  26
HETATM   26  C26 UNL     1      92.381   9.201   7.714  1.00  0.00    -0.036 A 
HETATM   27  C27 UNL     1      91.643  10.245   8.195  1.00  0.00     0.014 A 
HETATM   28  C28 UNL     1      90.558  10.809   7.508  1.00  0.00     0.037 A 
HETATM   29  C29 UNL     1      90.168  10.329   6.285  1.00  0.00     0.068 A 
HETATM   30  C31 UNL     1      90.894   9.277   5.782  1.00  0.00     0.037 A 
HETATM   31  C32 UNL     1      91.952   8.728   6.452  1.00  0.00     0.014 A 
BRANCH  29  32
HETATM   32  O1  UNL     1      89.099  10.866   5.580  1.00  0.00    -0.356 OA
HETATM   33  C30 UNL     1      88.709  12.186   5.841  1.00  0.00     0.210 C 
ENDBRANCH  29  32
ENDBRANCH  25  26
ENDBRANCH  23  24
ENDBRANCH  22  23
ENDBRANCH  20  21
ENDBRANCH  19  20
ENDBRANCH   1  18
TORSDOF 19
ENDMDL
MODEL 3
REMARK VINA RESULT: -10.146238943      2.366     10.599
REMARK  19 active torsions:
REMARK  status: ('A' for Active; 'I' for Inactive)
REMARK    1  A    between atoms: C2_2  and  C3_3 
REMARK    2  A    between atoms: C3_3  and  C4_4 
REMARK    3  A    between atoms: C4_4  and  C5_5 
REMARK    4  A    between atoms: C5_5  and  C6_6 
REMARK    5  A    between atoms: C6_6  and  C7_7 
REMARK    6  A    between atoms: C7_7  and  C8_8 
REMARK    7  A    between atoms: C9_9  and  C10_10 
REMARK    8  A    between atoms: C10_10  and  C11_11 
REMARK    9  A    between atoms: C12_12  and  C13_13 
REMARK   10  A    between atoms: C13_13  and  C14_14 
REMARK   11  A    between atoms: C15_15  and  C16_16 
REMARK   12  A    between atoms: C16_16  and  C17_17 
REMARK   13  A    between atoms: C17_17  and  C18_18 
REMARK   14  A    between atoms: C19_19  and  C20_20 
REMARK   15  A    between atoms: C20_20  and  C21_21 
REMARK   16  A    between atoms: C22_22  and  C23_23 
REMARK   17  A    between atoms: C23_23  and  C24_24 
REMARK   18  A    between atoms: C25_25  and  C26_26 
REMARK   19  A    between atoms: C29_29  and  O1_30 
ROOT
HETATM    1  C17 UNL     1      93.396   4.849  10.222  1.00  0.00     0.030 C 
ENDROOT
BRANCH   1   2
HETATM    2  C16 UNL     1      92.270   5.689   9.588  1.00  0.00     0.030 C 
BRANCH   2   3
HETATM    3  C15 UNL     1      92.673   7.096   9.773  1.00  0.00    -0.030 C 
HETATM    4  C14 UNL     1      92.901   7.934   8.803  1.00  0.00    -0.027 C 
BRANCH   4   5
HETATM    5  C13 UNL     1      92.785   7.598   7.387  1.00  0.00     0.053 C 
BRANCH   5   6
HETATM    6  C12 UNL     1      91.930   8.676   6.750  1.00  0.00    -0.027 C 
HETATM    7  C11 UNL     1      90.971   8.326   5.923  1.00  0.00    -0.027 C 
BRANCH   7   8
HETATM    8  C10 UNL     1      90.125   9.376   5.292  1.00  0.00     0.053 C 
BRANCH   8   9
HETATM    9  C9  UNL     1      90.185  10.608   6.096  1.00  0.00    -0.027 C 
HETATM   10  C8  UNL     1      89.338  11.589   5.983  1.00  0.00    -0.030 C 
BRANCH  10  11
HETATM   11  C7  UNL     1      88.213  11.616   5.052  1.00  0.00     0.027 C 
BRANCH  11  12
HETATM   12  C6  UNL     1      88.644  12.443   3.830  1.00  0.00     0.004 C 
BRANCH  12  13
HETATM   13  C5  UNL     1      87.586  12.293   2.723  1.00  0.00     0.001 C 
BRANCH  13  14
HETATM   14  C4  UNL     1      86.565  13.377   2.818  1.00  0.00     0.004 C 
BRANCH  14  15
HETATM   15  C3  UNL     1      85.192  12.956   3.196  1.00  0.00     0.026 C 
BRANCH  15  16
HETATM   16  C2  UNL     1      84.777  11.600   2.834  1.00  0.00    -0.037 C 
HETATM   17  C1  UNL     1      83.787  11.355   2.019  1.00  0.00     0.007 C 
ENDBRANCH  15  16
ENDBRANCH  14  15
ENDBRANCH  13  14
ENDBRANCH  12  13
ENDBRANCH  11  12
ENDBRANCH  10  11
ENDBRANCH   8   9
ENDBRANCH   7   8
ENDBRANCH   5   6
ENDBRANCH   4   5
ENDBRANCH   2   3
ENDBRANCH   1   2
BRANCH   1  18
HETATM   18  C18 UNL     1      92.795   3.511  10.553  1.00  0.00    -0.030 C 
HETATM   19  C19 UNL     1      92.666   2.574   9.650  1.00  0.00    -0.027 C 
BRANCH  19  20
HETATM   20  C20 UNL     1      92.061   1.255  10.028  1.00  0.00     0.053 C 
BRANCH  20  21
HETATM   21  C21 UNL     1      91.460   0.574   8.886  1.00  0.00    -0.027 C 
HETATM   22  C22 UNL     1      90.273   0.769   8.424  1.00  0.00    -0.027 C 
BRANCH  22  23
HETATM   23  C23 UNL     1      89.328   1.770   9.042  1.00  0.00     0.054 C 
BRANCH  23  24
HETATM   24  C24 UNL     1      88.209   1.094   9.680  1.00  0.00    -0.022 C 
HETATM   25  C25 UNL     1      87.035   0.794   9.310  1.00  0.00     0.007 C 
BRANCH  25  26
HETATM   26  C26 UNL     1      86.383   1.059   8.048  1.00  0.00    -0.036 A 
HETATM   27  C27 UNL     1      86.953   1.538   6.904  1.00  0.00     0.014 A 
HETATM   28  C28 UNL     1      86.257   1.692   5.696  1.00  0.00     0.037 A 
HETATM   29  C29 UNL     1      84.931   1.363   5.597  1.00  0.00     0.068 A 
HETATM   30  C31 UNL     1      84.334   0.881   6.736  1.00  0.00     0.037 A 
HETATM   31  C32 UNL     1      85.013   0.730   7.913  1.00  0.00     0.014 A 
BRANCH  29  32
HETATM   32  O1  UNL     1      84.214   1.505   4.416  1.00  0.00    -0.356 OA
HETATM   33  C30 UNL     1      83.022   0.787   4.256  1.00  0.00     0.210 C 
ENDBRANCH  29  32
ENDBRANCH  25  26
ENDBRANCH  23  24
ENDBRANCH  22  23
ENDBRANCH  20  21
ENDBRANCH  19  20
ENDBRANCH   1  18
TORSDOF 19
ENDMDL
MODEL 4
REMARK VINA RESULT: -10.140026039      1.986     10.881
REMARK  19 active torsions:
REMARK  status: ('A' for Active; 'I' for Inactive)
REMARK    1  A    between atoms: C2_2  and  C3_3 
REMARK    2  A    between atoms: C3_3  and  C4_4 
REMARK    3  A    between atoms: C4_4  and  C5_5 
REMARK    4  A    between atoms: C5_5  and  C6_6 
REMARK    5  A    between atoms: C6_6  and  C7_7 
REMARK    6  A    between atoms: C7_7  and  C8_8 
REMARK    7  A    between atoms: C9_9  and  C10_10 
REMARK    8  A    between atoms: C10_10  and  C11_11 
REMARK    9  A    between atoms: C12_12  and  C13_13 
REMARK   10  A    between atoms: C13_13  and  C14_14 
REMARK   11  A    between atoms: C15_15  and  C16_16 
REMARK   12  A    between atoms: C16_16  and  C17_17 
REMARK   13  A    between atoms: C17_17  and  C18_18 
REMARK   14  A    between atoms: C19_19  and  C20_20 
REMARK   15  A    between atoms: C20_20  and  C21_21 
REMARK   16  A    between atoms: C22_22  and  C23_23 
REMARK   17  A    between atoms: C23_23  and  C24_24 
REMARK   18  A    between atoms: C25_25  and  C26_26 
REMARK   19  A    between atoms: C29_29  and  O1_30 
ROOT
HETATM    1  C17 UNL     1      90.933   9.290   5.124  1.00  0.00     0.030 C 
ENDROOT
BRANCH   1   2
HETATM    2  C16 UNL     1      91.405  10.736   5.369  1.00  0.00     0.030 C 
BRANCH   2   3
HETATM    3  C15 UNL     1      90.772  11.150   6.636  1.00  0.00    -0.030 C 
HETATM    4  C14 UNL     1      89.690  11.869   6.722  1.00  0.00    -0.027 C 
BRANCH   4   5
HETATM    5  C13 UNL     1      88.945  12.367   5.571  1.00  0.00     0.053 C 
BRANCH   5   6
HETATM    6  C12 UNL     1      88.041  11.239   5.114  1.00  0.00    -0.027 C 
HETATM    7  C11 UNL     1      87.885  11.025   3.827  1.00  0.00    -0.027 C 
BRANCH   7   8
HETATM    8  C10 UNL     1      86.999   9.921   3.367  1.00  0.00     0.053 C 
BRANCH   8   9
HETATM    9  C9  UNL     1      85.772  10.484   2.779  1.00  0.00    -0.027 C 
HETATM   10  C8  UNL     1      84.631  10.545   3.402  1.00  0.00    -0.030 C 
BRANCH  10  11
HETATM   11  C7  UNL     1      84.398  10.071   4.763  1.00  0.00     0.027 C 
BRANCH  11  12
HETATM   12  C6  UNL     1      84.080  11.298   5.632  1.00  0.00     0.004 C 
BRANCH  12  13
HETATM   13  C5  UNL     1      83.427  12.381   4.752  1.00  0.00     0.001 C 
BRANCH  13  14
HETATM   14  C4  UNL     1      84.014  13.722   5.044  1.00  0.00     0.004 C 
BRANCH  14  15
HETATM   15  C3  UNL     1      85.488  13.835   4.917  1.00  0.00     0.026 C 
BRANCH  15  16
HETATM   16  C2  UNL     1      86.033  14.129   3.590  1.00  0.00    -0.037 C 
HETATM   17  C1  UNL     1      87.136  14.803   3.410  1.00  0.00     0.007 C 
ENDBRANCH  15  16
ENDBRANCH  14  15
ENDBRANCH  13  14
ENDBRANCH  12  13
ENDBRANCH  11  12
ENDBRANCH  10  11
ENDBRANCH   8   9
ENDBRANCH   7   8
ENDBRANCH   5   6
ENDBRANCH   4   5
ENDBRANCH   2   3
ENDBRANCH   1   2
BRANCH   1  18
HETATM   18  C18 UNL     1      91.296   8.509   6.358  1.00  0.00    -0.030 C 
HETATM   19  C19 UNL     1      92.540   8.247   6.662  1.00  0.00    -0.027 C 
BRANCH  19  20
HETATM   20  C20 UNL     1      92.853   7.466   7.904  1.00  0.00     0.053 C 
BRANCH  20  21
HETATM   21  C21 UNL     1      93.679   6.295   7.628  1.00  0.00    -0.027 C 
HETATM   22  C22 UNL     1      93.876   5.300   8.422  1.00  0.00    -0.027 C 
BRANCH  22  23
HETATM   23  C23 UNL     1      93.244   5.232   9.791  1.00  0.00     0.054 C 
BRANCH  23  24
HETATM   24  C24 UNL     1      93.484   3.934  10.403  1.00  0.00    -0.022 C 
HETATM   25  C25 UNL     1      92.856   2.833  10.406  1.00  0.00     0.007 C 
BRANCH  25  26
HETATM   26  C26 UNL     1      91.605   2.496   9.766  1.00  0.00    -0.036 A 
HETATM   27  C27 UNL     1      90.538   3.320   9.545  1.00  0.00     0.014 A 
HETATM   28  C28 UNL     1      89.388   2.929   8.844  1.00  0.00     0.037 A 
HETATM   29  C29 UNL     1      89.268   1.664   8.331  1.00  0.00     0.068 A 
HETATM   30  C31 UNL     1      90.328   0.816   8.542  1.00  0.00     0.037 A 
HETATM   31  C32 UNL     1      91.450   1.198   9.225  1.00  0.00     0.014 A 
BRANCH  29  32
HETATM   32  O1  UNL     1      88.143   1.247   7.632  1.00  0.00    -0.356 OA
HETATM   33  C30 UNL     1      86.904   1.238   8.286  1.00  0.00     0.210 C 
ENDBRANCH  29  32
ENDBRANCH  25  26
ENDBRANCH  23  24
ENDBRANCH  22  23
ENDBRANCH  20  21
ENDBRANCH  19  20
ENDBRANCH   1  18
TORSDOF 19
ENDMDL
MODEL 5
REMARK VINA RESULT: -10.122640016      1.977     10.943
REMARK  19 active torsions:
REMARK  status: ('A' for Active; 'I' for Inactive)
REMARK    1  A    between atoms: C2_2  and  C3_3 
REMARK    2  A    between atoms: C3_3  and  C4_4 
REMARK    3  A    between atoms: C4_4  and  C5_5 
REMARK    4  A    between atoms: C5_5  and  C6_6 
REMARK    5  A    between atoms: C6_6  and  C7_7 
REMARK    6  A    between atoms: C7_7  and  C8_8 
REMARK    7  A    between atoms: C9_9  and  C10_10 
REMARK    8  A    between atoms: C10_10  and  C11_11 
REMARK    9  A    between atoms: C12_12  and  C13_13 
REMARK   10  A    between atoms: C13_13  and  C14_14 
REMARK   11  A    between atoms: C15_15  and  C16_16 
REMARK   12  A    between atoms: C16_16  and  C17_17 
REMARK   13  A    between atoms: C17_17  and  C18_18 
REMARK   14  A    between atoms: C19_19  and  C20_20 
REMARK   15  A    between atoms: C20_20  and  C21_21 
REMARK   16  A    between atoms: C22_22  and  C23_23 
REMARK   17  A    between atoms: C23_23  and  C24_24 
REMARK   18  A    between atoms: C25_25  and  C26_26 
REMARK   19  A    between atoms: C29_29  and  O1_30 
ROOT
HETATM    1  C17 UNL     1      92.655   8.958   8.238  1.00  0.00     0.030 C 
ENDROOT
BRANCH   1   2
HETATM    2  C16 UNL     1      91.282   9.503   7.799  1.00  0.00     0.030 C 
BRANCH   2   3
HETATM    3  C15 UNL     1      90.895   8.700   6.623  1.00  0.00    -0.030 C 
HETATM    4  C14 UNL     1      90.575   9.194   5.462  1.00  0.00    -0.027 C 
BRANCH   4   5
HETATM    5  C13 UNL     1      90.557  10.622   5.158  1.00  0.00     0.053 C 
BRANCH   5   6
HETATM    6  C12 UNL     1      89.104  11.054   5.179  1.00  0.00    -0.027 C 
HETATM    7  C11 UNL     1      88.744  12.051   5.956  1.00  0.00    -0.027 C 
BRANCH   7   8
HETATM    8  C10 UNL     1      87.321  12.484   5.985  1.00  0.00     0.053 C 
BRANCH   8   9
HETATM    9  C9  UNL     1      87.240  13.933   5.737  1.00  0.00    -0.027 C 
HETATM   10  C8  UNL     1      86.458  14.474   4.849  1.00  0.00    -0.030 C 
BRANCH  10  11
HETATM   11  C7  UNL     1      85.552  13.734   3.974  1.00  0.00     0.027 C 
BRANCH  11  12
HETATM   12  C6  UNL     1      86.294  13.477   2.653  1.00  0.00     0.004 C 
BRANCH  12  13
HETATM   13  C5  UNL     1      86.562  11.967   2.513  1.00  0.00     0.001 C 
BRANCH  13  14
HETATM   14  C4  UNL     1      85.326  11.182   2.803  1.00  0.00     0.004 C 
BRANCH  14  15
HETATM   15  C3  UNL     1      85.483  10.023   3.716  1.00  0.00     0.026 C 
BRANCH  15  16
HETATM   16  C2  UNL     1      84.472   9.842   4.760  1.00  0.00    -0.037 C 
HETATM   17  C1  UNL     1      84.097  10.805   5.558  1.00  0.00     0.007 C 
ENDBRANCH  15  16
ENDBRANCH  14  15
ENDBRANCH  13  14
ENDBRANCH  12  13
ENDBRANCH  11  12
ENDBRANCH  10  11
ENDBRANCH   8   9
ENDBRANCH   7   8
ENDBRANCH   5   6
ENDBRANCH   4   5
ENDBRANCH   2   3
ENDBRANCH   1   2
BRANCH   1  18
HETATM   18  C18 UNL     1      92.492   7.471   8.393  1.00  0.00    -0.030 C 
HETATM   19  C19 UNL     1      92.093   6.938   9.519  1.00  0.00    -0.027 C 
BRANCH  19  20
HETATM   20  C20 UNL     1      91.944   5.449   9.626  1.00  0.00     0.053 C 
BRANCH  20  21
HETATM   21  C21 UNL     1      93.215   4.784   9.891  1.00  0.00    -0.027 C 
HETATM   22  C22 UNL     1      93.369   3.559  10.259  1.00  0.00    -0.027 C 
BRANCH  22  23
HETATM   23  C23 UNL     1      92.195   2.633  10.469  1.00  0.00     0.054 C 
BRANCH  23  24
HETATM   24  C24 UNL     1      92.254   1.512   9.543  1.00  0.00    -0.022 C 
HETATM   25  C25 UNL     1      91.383   0.864   8.890  1.00  0.00     0.007 C 
BRANCH  25  26
HETATM   26  C26 UNL     1      89.949   1.037   8.864  1.00  0.00    -0.036 A 
HETATM   27  C27 UNL     1      89.234   1.928   8.115  1.00  0.00     0.014 A 
HETATM   28  C28 UNL     1      87.832   1.975   8.094  1.00  0.00     0.037 A 
HETATM   29  C29 UNL     1      87.084   1.107   8.845  1.00  0.00     0.068 A 
HETATM   30  C31 UNL     1      87.781   0.203   9.609  1.00  0.00     0.037 A 
HETATM   31  C32 UNL     1      89.148   0.156   9.628  1.00  0.00     0.014 A 
BRANCH  29  32
HETATM   32  O1  UNL     1      85.696   1.128   8.846  1.00  0.00    -0.356 OA
HETATM   33  C30 UNL     1      85.001   0.000   8.390  1.00  0.00     0.210 C 
ENDBRANCH  29  32
ENDBRANCH  25  26
ENDBRANCH  23  24
ENDBRANCH  22  23
ENDBRANCH  20  21
ENDBRANCH  19  20
ENDBRANCH   1  18
TORSDOF 19
ENDMDL
