MODEL 1
REMARK VINA RESULT: -9.810174481      0.000      0.000
REMARK  20 active torsions:
REMARK  status: ('A' for Active; 'I' for Inactive)
REMARK    1  A    between atoms: C2_2  and  C3_3 
REMARK    2  A    between atoms: C3_3  and  C4_4 
REMARK    3  A    between atoms: C5_5  and  C6_6 
REMARK    4  A    between atoms: C6_6  and  C7_7 
REMARK    5  A    between atoms: C8_8  and  C9_9 
REMARK    6  A    between atoms: C9_9  and  C10_10 
REMARK    7  A    between atoms: C11_11  and  C12_12 
REMARK    8  A    between atoms: C12_12  and  C13_13 
REMARK    9  A    between atoms: C14_14  and  C15_15 
REMARK   10  A    between atoms: C15_15  and  C16_16 
REMARK   11  A    between atoms: C17_17  and  C18_18 
REMARK   12  A    between atoms: C18_18  and  C19_19 
REMARK   13  A    between atoms: C19_19  and  C20_20 
REMARK   14  A    between atoms: C20_20  and  C21_21 
REMARK   15  A    between atoms: C21_21  and  C22_22 
REMARK   16  A    between atoms: C22_22  and  C23_23 
REMARK   17  A    between atoms: C23_23  and  C24_24 
REMARK   18  A    between atoms: C24_24  and  C25_25 
REMARK   19  A    between atoms: C25_25  and  O1_26 
REMARK   20  A    between atoms: O1_26  and  C26_27 
ROOT
HETATM    1  C16 UNL     1      90.530   9.061   5.627  1.00  0.00    -0.027 C 
HETATM    2  C17 UNL     1      90.532  10.304   6.005  1.00  0.00    -0.027 C 
ENDROOT
BRANCH   1   3
HETATM    3  C15 UNL     1      91.288   7.996   6.402  1.00  0.00     0.053 C 
BRANCH   3   4
HETATM    4  C14 UNL     1      92.359   8.705   7.108  1.00  0.00    -0.027 C 
HETATM    5  C13 UNL     1      92.577   8.603   8.390  1.00  0.00    -0.027 C 
BRANCH   5   6
HETATM    6  C12 UNL     1      91.776   7.765   9.282  1.00  0.00     0.053 C 
BRANCH   6   7
HETATM    7  C11 UNL     1      92.588   6.674   9.901  1.00  0.00    -0.027 C 
HETATM    8  C10 UNL     1      92.370   5.397   9.661  1.00  0.00    -0.027 C 
BRANCH   8   9
HETATM    9  C9  UNL     1      93.194   4.337  10.290  1.00  0.00     0.053 C 
BRANCH   9  10
HETATM   10  C8  UNL     1      92.793   3.002   9.731  1.00  0.00    -0.027 C 
HETATM   11  C7  UNL     1      92.453   2.036  10.543  1.00  0.00    -0.027 C 
BRANCH  11  12
HETATM   12  C6  UNL     1      92.053   0.707  10.014  1.00  0.00     0.053 C 
BRANCH  12  13
HETATM   13  C5  UNL     1      91.383   0.902   8.708  1.00  0.00    -0.027 C 
HETATM   14  C4  UNL     1      90.095   0.963   8.566  1.00  0.00    -0.027 C 
BRANCH  14  15
HETATM   15  C3  UNL     1      89.107   0.853   9.629  1.00  0.00     0.053 C 
BRANCH  15  16
HETATM   16  C2  UNL     1      88.373   2.162   9.759  1.00  0.00    -0.033 C 
HETATM   17  C1  UNL     1      88.870   3.228   9.192  1.00  0.00     0.007 C 
ENDBRANCH  15  16
ENDBRANCH  14  15
ENDBRANCH  12  13
ENDBRANCH  11  12
ENDBRANCH   9  10
ENDBRANCH   8   9
ENDBRANCH   6   7
ENDBRANCH   5   6
ENDBRANCH   3   4
ENDBRANCH   1   3
BRANCH   2  18
HETATM   18  C18 UNL     1      89.779  11.370   5.233  1.00  0.00     0.053 C 
BRANCH  18  19
HETATM   19  C19 UNL     1      88.400  10.942   4.939  1.00  0.00    -0.027 C 
BRANCH  19  20
HETATM   20  C20 UNL     1      87.891  10.833   3.581  1.00  0.00    -0.030 C 
BRANCH  20  21
HETATM   21  C21 UNL     1      87.113   9.660   3.087  1.00  0.00     0.027 C 
BRANCH  21  22
HETATM   22  C22 UNL     1      85.662   9.797   3.064  1.00  0.00     0.004 C 
BRANCH  22  23
HETATM   23  C23 UNL     1      84.892   9.590   4.307  1.00  0.00     0.002 C 
BRANCH  23  24
HETATM   24  C24 UNL     1      83.816  10.501   4.671  1.00  0.00     0.027 C 
BRANCH  24  25
HETATM   25  C25 UNL     1      84.100  11.451   5.785  1.00  0.00     0.175 C 
BRANCH  25  26
HETATM   26  O1  UNL     1      84.336  12.740   5.360  1.00  0.00    -0.351 OA
BRANCH  26  27
HETATM   27  C26 UNL     1      85.374  13.347   4.737  1.00  0.00     0.068 A 
HETATM   28  C27 UNL     1      85.447  13.514   3.380  1.00  0.00     0.037 A 
HETATM   29  C28 UNL     1      86.518  14.147   2.744  1.00  0.00     0.003 A 
HETATM   30  C29 UNL     1      87.533  14.613   3.537  1.00  0.00     0.000 A 
HETATM   31  C30 UNL     1      87.490  14.459   4.915  1.00  0.00     0.003 A 
HETATM   32  C31 UNL     1      86.443  13.844   5.503  1.00  0.00     0.037 A 
ENDBRANCH  26  27
ENDBRANCH  25  26
ENDBRANCH  24  25
ENDBRANCH  23  24
ENDBRANCH  22  23
ENDBRANCH  21  22
ENDBRANCH  20  21
ENDBRANCH  19  20
ENDBRANCH  18  19
ENDBRANCH   2  18
TORSDOF 20
ENDMDL
MODEL 2
REMARK VINA RESULT: -9.724130535      4.172      8.592
REMARK  20 active torsions:
REMARK  status: ('A' for Active; 'I' for Inactive)
REMARK    1  A    between atoms: C2_2  and  C3_3 
REMARK    2  A    between atoms: C3_3  and  C4_4 
REMARK    3  A    between atoms: C5_5  and  C6_6 
REMARK    4  A    between atoms: C6_6  and  C7_7 
REMARK    5  A    between atoms: C8_8  and  C9_9 
REMARK    6  A    between atoms: C9_9  and  C10_10 
REMARK    7  A    between atoms: C11_11  and  C12_12 
REMARK    8  A    between atoms: C12_12  and  C13_13 
REMARK    9  A    between atoms: C14_14  and  C15_15 
REMARK   10  A    between atoms: C15_15  and  C16_16 
REMARK   11  A    between atoms: C17_17  and  C18_18 
REMARK   12  A    between atoms: C18_18  and  C19_19 
REMARK   13  A    between atoms: C19_19  and  C20_20 
REMARK   14  A    between atoms: C20_20  and  C21_21 
REMARK   15  A    between atoms: C21_21  and  C22_22 
REMARK   16  A    between atoms: C22_22  and  C23_23 
REMARK   17  A    between atoms: C23_23  and  C24_24 
REMARK   18  A    between atoms: C24_24  and  C25_25 
REMARK   19  A    between atoms: C25_25  and  O1_26 
REMARK   20  A    between atoms: O1_26  and  C26_27 
ROOT
HETATM    1  C16 UNL     1      92.165   1.099  10.126  1.00  0.00    -0.027 C 
HETATM    2  C17 UNL     1      92.391   2.320   9.743  1.00  0.00    -0.027 C 
ENDROOT
BRANCH   1   3
HETATM    3  C15 UNL     1      91.304   0.158   9.301  1.00  0.00     0.053 C 
BRANCH   3   4
HETATM    4  C14 UNL     1      90.491   1.017   8.436  1.00  0.00    -0.027 C 
HETATM    5  C13 UNL     1      89.265   1.370   8.706  1.00  0.00    -0.027 C 
BRANCH   5   6
HETATM    6  C12 UNL     1      88.549   0.950   9.911  1.00  0.00     0.053 C 
BRANCH   6   7
HETATM    7  C11 UNL     1      87.326   0.156   9.585  1.00  0.00    -0.027 C 
HETATM    8  C10 UNL     1      86.476   0.507   8.642  1.00  0.00    -0.027 C 
BRANCH   8   9
HETATM    9  C9  UNL     1      85.271  -0.303   8.342  1.00  0.00     0.053 C 
BRANCH   9  10
HETATM   10  C8  UNL     1      84.632   0.210   7.083  1.00  0.00    -0.027 C 
HETATM   11  C7  UNL     1      85.318   0.971   6.272  1.00  0.00    -0.027 C 
BRANCH  11  12
HETATM   12  C6  UNL     1      84.707   1.490   5.022  1.00  0.00     0.053 C 
BRANCH  12  13
HETATM   13  C5  UNL     1      83.353   0.909   4.883  1.00  0.00    -0.027 C 
HETATM   14  C4  UNL     1      82.863   0.494   3.756  1.00  0.00    -0.027 C 
BRANCH  14  15
HETATM   15  C3  UNL     1      83.534   0.525   2.465  1.00  0.00     0.053 C 
BRANCH  15  16
HETATM   16  C2  UNL     1      82.749   1.397   1.520  1.00  0.00    -0.033 C 
HETATM   17  C1  UNL     1      82.782   2.693   1.676  1.00  0.00     0.007 C 
ENDBRANCH  15  16
ENDBRANCH  14  15
ENDBRANCH  12  13
ENDBRANCH  11  12
ENDBRANCH   9  10
ENDBRANCH   8   9
ENDBRANCH   6   7
ENDBRANCH   5   6
ENDBRANCH   3   4
ENDBRANCH   1   3
BRANCH   2  18
HETATM   18  C18 UNL     1      93.248   3.264  10.564  1.00  0.00     0.053 C 
BRANCH  18  19
HETATM   19  C19 UNL     1      93.429   4.555   9.878  1.00  0.00    -0.027 C 
BRANCH  19  20
HETATM   20  C20 UNL     1      94.446   4.759   8.858  1.00  0.00    -0.030 C 
BRANCH  20  21
HETATM   21  C21 UNL     1      94.243   5.619   7.657  1.00  0.00     0.027 C 
BRANCH  21  22
HETATM   22  C22 UNL     1      93.319   6.738   7.799  1.00  0.00     0.004 C 
BRANCH  22  23
HETATM   23  C23 UNL     1      93.695   7.889   8.645  1.00  0.00     0.002 C 
BRANCH  23  24
HETATM   24  C24 UNL     1      92.921   8.219   9.833  1.00  0.00     0.027 C 
BRANCH  24  25
HETATM   25  C25 UNL     1      91.651   8.967   9.610  1.00  0.00     0.175 C 
BRANCH  25  26
HETATM   26  O1  UNL     1      91.726   9.883   8.584  1.00  0.00    -0.351 OA
BRANCH  26  27
HETATM   27  C26 UNL     1      91.005  10.092   7.457  1.00  0.00     0.068 A 
HETATM   28  C27 UNL     1      90.851   9.150   6.475  1.00  0.00     0.037 A 
HETATM   29  C28 UNL     1      90.101   9.370   5.316  1.00  0.00     0.003 A 
HETATM   30  C29 UNL     1      89.502  10.594   5.179  1.00  0.00     0.000 A 
HETATM   31  C30 UNL     1      89.640  11.569   6.155  1.00  0.00     0.003 A 
HETATM   32  C31 UNL     1      90.370  11.331   7.264  1.00  0.00     0.037 A 
ENDBRANCH  26  27
ENDBRANCH  25  26
ENDBRANCH  24  25
ENDBRANCH  23  24
ENDBRANCH  22  23
ENDBRANCH  21  22
ENDBRANCH  20  21
ENDBRANCH  19  20
ENDBRANCH  18  19
ENDBRANCH   2  18
TORSDOF 20
ENDMDL
MODEL 3
REMARK VINA RESULT: -9.641917112      1.137      1.754
REMARK  20 active torsions:
REMARK  status: ('A' for Active; 'I' for Inactive)
REMARK    1  A    between atoms: C2_2  and  C3_3 
REMARK    2  A    between atoms: C3_3  and  C4_4 
REMARK    3  A    between atoms: C5_5  and  C6_6 
REMARK    4  A    between atoms: C6_6  and  C7_7 
REMARK    5  A    between atoms: C8_8  and  C9_9 
REMARK    6  A    between atoms: C9_9  and  C10_10 
REMARK    7  A    between atoms: C11_11  and  C12_12 
REMARK    8  A    between atoms: C12_12  and  C13_13 
REMARK    9  A    between atoms: C14_14  and  C15_15 
REMARK   10  A    between atoms: C15_15  and  C16_16 
REMARK   11  A    between atoms: C17_17  and  C18_18 
REMARK   12  A    between atoms: C18_18  and  C19_19 
REMARK   13  A    between atoms: C19_19  and  C20_20 
REMARK   14  A    between atoms: C20_20  and  C21_21 
REMARK   15  A    between atoms: C21_21  and  C22_22 
REMARK   16  A    between atoms: C22_22  and  C23_23 
REMARK   17  A    between atoms: C23_23  and  C24_24 
REMARK   18  A    between atoms: C24_24  and  C25_25 
REMARK   19  A    between atoms: C25_25  and  O1_26 
REMARK   20  A    between atoms: O1_26  and  C26_27 
ROOT
HETATM    1  C16 UNL     1      90.977   9.307   7.059  1.00  0.00    -0.027 C 
HETATM    2  C17 UNL     1      91.194  10.331   6.291  1.00  0.00    -0.027 C 
ENDROOT
BRANCH   1   3
HETATM    3  C15 UNL     1      91.467   7.918   6.684  1.00  0.00     0.053 C 
BRANCH   3   4
HETATM    4  C14 UNL     1      92.736   7.739   7.397  1.00  0.00    -0.027 C 
HETATM    5  C13 UNL     1      92.848   7.111   8.535  1.00  0.00    -0.027 C 
BRANCH   5   6
HETATM    6  C12 UNL     1      91.718   6.507   9.240  1.00  0.00     0.053 C 
BRANCH   6   7
HETATM    7  C11 UNL     1      91.983   5.081   9.601  1.00  0.00    -0.027 C 
HETATM    8  C10 UNL     1      93.133   4.671  10.094  1.00  0.00    -0.027 C 
BRANCH   8   9
HETATM    9  C9  UNL     1      93.364   3.248  10.443  1.00  0.00     0.053 C 
BRANCH   9  10
HETATM   10  C8  UNL     1      92.298   2.403   9.805  1.00  0.00    -0.027 C 
HETATM   11  C7  UNL     1      92.266   1.117  10.037  1.00  0.00    -0.027 C 
BRANCH  11  12
HETATM   12  C6  UNL     1      91.223   0.261   9.417  1.00  0.00     0.053 C 
BRANCH  12  13
HETATM   13  C5  UNL     1      90.421   1.093   8.491  1.00  0.00    -0.027 C 
HETATM   14  C4  UNL     1      89.189   1.432   8.716  1.00  0.00    -0.027 C 
BRANCH  14  15
HETATM   15  C3  UNL     1      88.398   1.068   9.882  1.00  0.00     0.053 C 
BRANCH  15  16
HETATM   16  C2  UNL     1      87.357   0.057   9.477  1.00  0.00    -0.033 C 
HETATM   17  C1  UNL     1      86.183   0.475   9.087  1.00  0.00     0.007 C 
ENDBRANCH  15  16
ENDBRANCH  14  15
ENDBRANCH  12  13
ENDBRANCH  11  12
ENDBRANCH   9  10
ENDBRANCH   8   9
ENDBRANCH   6   7
ENDBRANCH   5   6
ENDBRANCH   3   4
ENDBRANCH   1   3
BRANCH   2  18
HETATM   18  C18 UNL     1      90.704  11.719   6.660  1.00  0.00     0.053 C 
BRANCH  18  19
HETATM   19  C19 UNL     1      89.387  11.996   6.063  1.00  0.00    -0.027 C 
BRANCH  19  20
HETATM   20  C20 UNL     1      88.964  11.408   4.801  1.00  0.00    -0.030 C 
BRANCH  20  21
HETATM   21  C21 UNL     1      87.652  10.724   4.613  1.00  0.00     0.027 C 
BRANCH  21  22
HETATM   22  C22 UNL     1      87.424  10.081   3.324  1.00  0.00     0.004 C 
BRANCH  22  23
HETATM   23  C23 UNL     1      86.063   9.636   2.965  1.00  0.00     0.002 C 
BRANCH  23  24
HETATM   24  C24 UNL     1      84.897  10.244   3.589  1.00  0.00     0.027 C 
BRANCH  24  25
HETATM   25  C25 UNL     1      84.124  11.208   2.753  1.00  0.00     0.175 C 
BRANCH  25  26
HETATM   26  O1  UNL     1      84.289  12.520   3.136  1.00  0.00    -0.351 OA
BRANCH  26  27
HETATM   27  C26 UNL     1      85.347  13.247   3.568  1.00  0.00     0.068 A 
HETATM   28  C27 UNL     1      85.515  13.632   4.872  1.00  0.00     0.037 A 
HETATM   29  C28 UNL     1      86.612  14.377   5.313  1.00  0.00     0.003 A 
HETATM   30  C29 UNL     1      87.550  14.728   4.378  1.00  0.00     0.000 A 
HETATM   31  C30 UNL     1      87.408  14.354   3.050  1.00  0.00     0.003 A 
HETATM   32  C31 UNL     1      86.339  13.634   2.651  1.00  0.00     0.037 A 
ENDBRANCH  26  27
ENDBRANCH  25  26
ENDBRANCH  24  25
ENDBRANCH  23  24
ENDBRANCH  22  23
ENDBRANCH  21  22
ENDBRANCH  20  21
ENDBRANCH  19  20
ENDBRANCH  18  19
ENDBRANCH   2  18
TORSDOF 20
ENDMDL
MODEL 4
REMARK VINA RESULT: -9.557368584      2.750     11.101
REMARK  20 active torsions:
REMARK  status: ('A' for Active; 'I' for Inactive)
REMARK    1  A    between atoms: C2_2  and  C3_3 
REMARK    2  A    between atoms: C3_3  and  C4_4 
REMARK    3  A    between atoms: C5_5  and  C6_6 
REMARK    4  A    between atoms: C6_6  and  C7_7 
REMARK    5  A    between atoms: C8_8  and  C9_9 
REMARK    6  A    between atoms: C9_9  and  C10_10 
REMARK    7  A    between atoms: C11_11  and  C12_12 
REMARK    8  A    between atoms: C12_12  and  C13_13 
REMARK    9  A    between atoms: C14_14  and  C15_15 
REMARK   10  A    between atoms: C15_15  and  C16_16 
REMARK   11  A    between atoms: C17_17  and  C18_18 
REMARK   12  A    between atoms: C18_18  and  C19_19 
REMARK   13  A    between atoms: C19_19  and  C20_20 
REMARK   14  A    between atoms: C20_20  and  C21_21 
REMARK   15  A    between atoms: C21_21  and  C22_22 
REMARK   16  A    between atoms: C22_22  and  C23_23 
REMARK   17  A    between atoms: C23_23  and  C24_24 
REMARK   18  A    between atoms: C24_24  and  C25_25 
REMARK   19  A    between atoms: C25_25  and  O1_26 
REMARK   20  A    between atoms: O1_26  and  C26_27 
ROOT
HETATM    1  C16 UNL     1      91.541  10.283   7.470  1.00  0.00    -0.027 C 
HETATM    2  C17 UNL     1      90.903  10.657   8.538  1.00  0.00    -0.027 C 
ENDROOT
BRANCH   1   3
HETATM    3  C15 UNL     1      91.465  11.085   6.182  1.00  0.00     0.053 C 
BRANCH   3   4
HETATM    4  C14 UNL     1      90.351  10.511   5.421  1.00  0.00    -0.027 C 
HETATM    5  C13 UNL     1      89.186  11.085   5.293  1.00  0.00    -0.027 C 
BRANCH   5   6
HETATM    6  C12 UNL     1      88.849  12.375   5.894  1.00  0.00     0.053 C 
BRANCH   6   7
HETATM    7  C11 UNL     1      87.480  12.830   5.508  1.00  0.00    -0.027 C 
HETATM    8  C10 UNL     1      87.203  14.080   5.198  1.00  0.00    -0.027 C 
BRANCH   8   9
HETATM    9  C9  UNL     1      85.833  14.500   4.817  1.00  0.00     0.053 C 
BRANCH   9  10
HETATM   10  C8  UNL     1      85.065  13.303   4.335  1.00  0.00    -0.027 C 
HETATM   11  C7  UNL     1      84.000  12.911   4.985  1.00  0.00    -0.027 C 
BRANCH  11  12
HETATM   12  C6  UNL     1      83.225  11.729   4.527  1.00  0.00     0.053 C 
BRANCH  12  13
HETATM   13  C5  UNL     1      83.890  10.506   5.030  1.00  0.00    -0.027 C 
HETATM   14  C4  UNL     1      84.727   9.806   4.329  1.00  0.00    -0.027 C 
BRANCH  14  15
HETATM   15  C3  UNL     1      85.149  10.086   2.964  1.00  0.00     0.053 C 
BRANCH  15  16
HETATM   16  C2  UNL     1      86.655  10.106   2.907  1.00  0.00    -0.033 C 
HETATM   17  C1  UNL     1      87.302   8.977   2.809  1.00  0.00     0.007 C 
ENDBRANCH  15  16
ENDBRANCH  14  15
ENDBRANCH  12  13
ENDBRANCH  11  12
ENDBRANCH   9  10
ENDBRANCH   8   9
ENDBRANCH   6   7
ENDBRANCH   5   6
ENDBRANCH   3   4
ENDBRANCH   1   3
BRANCH   2  18
HETATM   18  C18 UNL     1      90.974   9.858   9.826  1.00  0.00     0.053 C 
BRANCH  18  19
HETATM   19  C19 UNL     1      92.125   8.939   9.820  1.00  0.00    -0.027 C 
BRANCH  19  20
HETATM   20  C20 UNL     1      91.983   7.513   9.567  1.00  0.00    -0.030 C 
BRANCH  20  21
HETATM   21  C21 UNL     1      92.359   6.868   8.277  1.00  0.00     0.027 C 
BRANCH  21  22
HETATM   22  C22 UNL     1      93.779   6.843   7.944  1.00  0.00     0.004 C 
BRANCH  22  23
HETATM   23  C23 UNL     1      94.588   5.660   8.300  1.00  0.00     0.002 C 
BRANCH  23  24
HETATM   24  C24 UNL     1      93.949   4.445   8.785  1.00  0.00     0.027 C 
BRANCH  24  25
HETATM   25  C25 UNL     1      93.857   4.291  10.266  1.00  0.00     0.175 C 
BRANCH  25  26
HETATM   26  O1  UNL     1      92.836   3.458  10.667  1.00  0.00    -0.351 OA
BRANCH  26  27
HETATM   27  C26 UNL     1      92.082   2.526  10.038  1.00  0.00     0.068 A 
HETATM   28  C27 UNL     1      92.430   1.204   9.955  1.00  0.00     0.037 A 
HETATM   29  C28 UNL     1      91.644   0.246   9.309  1.00  0.00     0.003 A 
HETATM   30  C29 UNL     1      90.476   0.674   8.736  1.00  0.00     0.000 A 
HETATM   31  C30 UNL     1      90.096   2.006   8.802  1.00  0.00     0.003 A 
HETATM   32  C31 UNL     1      90.873   2.911   9.432  1.00  0.00     0.037 A 
ENDBRANCH  26  27
ENDBRANCH  25  26
ENDBRANCH  24  25
ENDBRANCH  23  24
ENDBRANCH  22  23
ENDBRANCH  21  22
ENDBRANCH  20  21
ENDBRANCH  19  20
ENDBRANCH  18  19
ENDBRANCH   2  18
TORSDOF 20
ENDMDL
MODEL 5
REMARK VINA RESULT: -9.545630880      1.895      3.901
REMARK  20 active torsions:
REMARK  status: ('A' for Active; 'I' for Inactive)
REMARK    1  A    between atoms: C2_2  and  C3_3 
REMARK    2  A    between atoms: C3_3  and  C4_4 
REMARK    3  A    between atoms: C5_5  and  C6_6 
REMARK    4  A    between atoms: C6_6  and  C7_7 
REMARK    5  A    between atoms: C8_8  and  C9_9 
REMARK    6  A    between atoms: C9_9  and  C10_10 
REMARK    7  A    between atoms: C11_11  and  C12_12 
REMARK    8  A    between atoms: C12_12  and  C13_13 
REMARK    9  A    between atoms: C14_14  and  C15_15 
REMARK   10  A    between atoms: C15_15  and  C16_16 
REMARK   11  A    between atoms: C17_17  and  C18_18 
REMARK   12  A    between atoms: C18_18  and  C19_19 
REMARK   13  A    between atoms: C19_19  and  C20_20 
REMARK   14  A    between atoms: C20_20  and  C21_21 
REMARK   15  A    between atoms: C21_21  and  C22_22 
REMARK   16  A    between atoms: C22_22  and  C23_23 
REMARK   17  A    between atoms: C23_23  and  C24_24 
REMARK   18  A    between atoms: C24_24  and  C25_25 
REMARK   19  A    between atoms: C25_25  and  O1_26 
REMARK   20  A    between atoms: O1_26  and  C26_27 
ROOT
HETATM    1  C16 UNL     1      92.744   7.232   7.192  1.00  0.00    -0.027 C 
HETATM    2  C17 UNL     1      91.731   8.045   7.238  1.00  0.00    -0.027 C 
ENDROOT
BRANCH   1   3
HETATM    3  C15 UNL     1      93.589   6.951   8.422  1.00  0.00     0.053 C 
BRANCH   3   4
HETATM    4  C14 UNL     1      94.277   5.685   8.151  1.00  0.00    -0.027 C 
HETATM    5  C13 UNL     1      94.217   4.643   8.934  1.00  0.00    -0.027 C 
BRANCH   5   6
HETATM    6  C12 UNL     1      93.453   4.610  10.181  1.00  0.00     0.053 C 
BRANCH   6   7
HETATM    7  C11 UNL     1      92.990   3.230  10.516  1.00  0.00    -0.027 C 
HETATM    8  C10 UNL     1      92.436   2.427   9.631  1.00  0.00    -0.027 C 
BRANCH   8   9
HETATM    9  C9  UNL     1      91.988   1.062   9.995  1.00  0.00     0.053 C 
BRANCH   9  10
HETATM   10  C8  UNL     1      90.578   0.861   9.517  1.00  0.00    -0.027 C 
HETATM   11  C7  UNL     1      89.987   1.801   8.828  1.00  0.00    -0.027 C 
BRANCH  11  12
HETATM   12  C6  UNL     1      88.593   1.625   8.346  1.00  0.00     0.053 C 
BRANCH  12  13
HETATM   13  C5  UNL     1      87.770   1.112   9.464  1.00  0.00    -0.027 C 
HETATM   14  C4  UNL     1      86.651   0.477   9.298  1.00  0.00    -0.027 C 
BRANCH  14  15
HETATM   15  C3  UNL     1      86.023   0.165   8.023  1.00  0.00     0.053 C 
BRANCH  15  16
HETATM   16  C2  UNL     1      84.701   0.882   7.935  1.00  0.00    -0.033 C 
HETATM   17  C1  UNL     1      84.251   1.245   6.764  1.00  0.00     0.007 C 
ENDBRANCH  15  16
ENDBRANCH  14  15
ENDBRANCH  12  13
ENDBRANCH  11  12
ENDBRANCH   9  10
ENDBRANCH   8   9
ENDBRANCH   6   7
ENDBRANCH   5   6
ENDBRANCH   3   4
ENDBRANCH   1   3
BRANCH   2  18
HETATM   18  C18 UNL     1      90.886   8.330   6.010  1.00  0.00     0.053 C 
BRANCH  18  19
HETATM   19  C19 UNL     1      91.426   9.466   5.243  1.00  0.00    -0.027 C 
BRANCH  19  20
HETATM   20  C20 UNL     1      91.195  10.849   5.633  1.00  0.00    -0.030 C 
BRANCH  20  21
HETATM   21  C21 UNL     1      89.931  11.323   6.266  1.00  0.00     0.027 C 
BRANCH  21  22
HETATM   22  C22 UNL     1      88.897  11.827   5.371  1.00  0.00     0.004 C 
BRANCH  22  23
HETATM   23  C23 UNL     1      87.996  12.901   5.834  1.00  0.00     0.002 C 
BRANCH  23  24
HETATM   24  C24 UNL     1      87.913  14.162   5.109  1.00  0.00     0.027 C 
BRANCH  24  25
HETATM   25  C25 UNL     1      87.550  14.075   3.666  1.00  0.00     0.175 C 
BRANCH  25  26
HETATM   26  O1  UNL     1      86.193  14.112   3.439  1.00  0.00    -0.351 OA
BRANCH  26  27
HETATM   27  C26 UNL     1      85.173  13.259   3.701  1.00  0.00     0.068 A 
HETATM   28  C27 UNL     1      84.401  13.330   4.829  1.00  0.00     0.037 A 
HETATM   29  C28 UNL     1      83.348  12.450   5.091  1.00  0.00     0.003 A 
HETATM   30  C29 UNL     1      83.095  11.478   4.160  1.00  0.00     0.000 A 
HETATM   31  C30 UNL     1      83.859  11.379   3.007  1.00  0.00     0.003 A 
HETATM   32  C31 UNL     1      84.871  12.241   2.779  1.00  0.00     0.037 A 
ENDBRANCH  26  27
ENDBRANCH  25  26
ENDBRANCH  24  25
ENDBRANCH  23  24
ENDBRANCH  22  23
ENDBRANCH  21  22
ENDBRANCH  20  21
ENDBRANCH  19  20
ENDBRANCH  18  19
ENDBRANCH   2  18
TORSDOF 20
ENDMDL
