MODEL 1
REMARK VINA RESULT: -7.066874270      0.000      0.000
REMARK  6 active torsions:
REMARK  status: ('A' for Active; 'I' for Inactive)
REMARK    1  A    between atoms: C6_10  and  N3_11 
REMARK    2  A    between atoms: C8_15  and  C9_16 
REMARK    3  A    between atoms: C10_17  and  C11_18 
REMARK    4  A    between atoms: C16_25  and  C17_26 
REMARK       I    between atoms: C17_26  and  N5_28 
REMARK    5  A    between atoms: N5_28  and  C18_30 
REMARK    6  A    between atoms: C18_30  and  C19_31 
ROOT
HETATM    1  C9  UNL     1      -1.172  34.721  -7.006  1.00  0.00     0.016 A 
HETATM    2  C10 UNL     1      -2.154  35.295  -7.794  1.00  0.00    -0.021 A 
HETATM    3  C15 UNL     1      -3.229  34.398  -7.838  1.00  0.00     0.097 A 
HETATM    4  N4  UNL     1      -2.878  33.342  -7.099  1.00  0.00    -0.360 N 
ATOM      5  H4  UNL     1      -3.469  32.524  -6.949  1.00  0.00     0.165 HD
HETATM    6  C16 UNL     1      -1.659  33.492  -6.584  1.00  0.00     0.112 A 
ENDROOT
BRANCH   1   7
HETATM    7  C8  UNL     1       0.140  35.302  -6.693  1.00  0.00    -0.001 A 
HETATM    8  C2  UNL     1       1.233  35.119  -7.505  1.00  0.00    -0.050 A 
HETATM    9  C1  UNL     1       1.104  34.312  -8.735  1.00  0.00     0.049 C 
HETATM   10  C3  UNL     1       2.437  35.695  -7.172  1.00  0.00     0.010 A 
HETATM   11  C4  UNL     1       2.612  36.463  -6.043  1.00  0.00     0.032 A 
HETATM   12  C5  UNL     1       1.524  36.654  -5.219  1.00  0.00     0.063 A 
HETATM   13  N1  UNL     1       1.378  37.350  -4.065  1.00  0.00    -0.298 N 
HETATM   14  C7  UNL     1       0.304  36.074  -5.551  1.00  0.00     0.049 A 
HETATM   15  N2  UNL     1       0.125  37.220  -3.679  1.00  0.00    -0.285 N 
ATOM     16  H1  UNL     1       2.106  37.878  -3.583  1.00  0.00     0.187 HD
HETATM   17  C6  UNL     1      -0.558  36.457  -4.549  1.00  0.00     0.127 A 
ATOM     18  H2  UNL     1      -0.271  37.639  -2.838  1.00  0.00     0.188 HD
BRANCH  17  19
HETATM   19  N3  UNL     1      -1.807  36.116  -4.502  1.00  0.00    -0.384 N 
ATOM     20  H32 UNL     1      -2.165  35.345  -3.938  1.00  0.00     0.157 HD
ATOM     21  H31 UNL     1      -2.592  36.538  -4.997  1.00  0.00     0.157 HD
ENDBRANCH  17  19
ENDBRANCH   1   7
BRANCH   2  22
HETATM   22  C11 UNL     1      -2.194  36.594  -8.491  1.00  0.00    -0.015 A 
HETATM   23  C12 UNL     1      -2.151  37.871  -7.663  1.00  0.00     0.020 C 
HETATM   24  C13 UNL     1      -1.347  36.679  -9.763  1.00  0.00     0.015 A 
HETATM   25  C14 UNL     1      -2.809  36.724  -9.833  1.00  0.00     0.015 A 
ENDBRANCH   2  22
BRANCH   6  26
HETATM   26  C17 UNL     1      -0.934  32.570  -5.727  1.00  0.00     0.269 C 
HETATM   27  O1  UNL     1      -1.153  32.562  -4.495  1.00  0.00    -0.266 OA
HETATM   28  N5  UNL     1       0.020  31.687  -6.301  1.00  0.00    -0.355 N 
ATOM     29  H5  UNL     1       0.198  31.696  -7.305  1.00  0.00     0.162 HD
BRANCH  28  30
HETATM   30  C18 UNL     1       0.743  30.764  -5.426  1.00  0.00     0.127 C 
BRANCH  30  31
HETATM   31  C19 UNL     1       1.623  29.854  -6.253  1.00  0.00     0.007 C 
HETATM   32  C20 UNL     1       1.182  28.412  -6.168  1.00  0.00     0.036 C 
HETATM   33  C21 UNL     1       1.686  27.676  -7.361  1.00  0.00     0.272 C 
HETATM   34  N6  UNL     1       2.885  28.231  -7.954  1.00  0.00     0.084 N 
HETATM   35  C22 UNL     1       3.506  27.351  -8.891  1.00  0.00     0.309 C 
HETATM   36  C23 UNL     1       2.661  29.567  -8.473  1.00  0.00     0.272 C 
HETATM   37  C24 UNL     1       1.554  30.268  -7.707  1.00  0.00     0.036 C 
ENDBRANCH  30  31
ENDBRANCH  28  30
ENDBRANCH   6  26
TORSDOF 6
ENDMDL
MODEL 2
REMARK VINA RESULT: -6.720239210      1.438      3.468
REMARK  6 active torsions:
REMARK  status: ('A' for Active; 'I' for Inactive)
REMARK    1  A    between atoms: C6_10  and  N3_11 
REMARK    2  A    between atoms: C8_15  and  C9_16 
REMARK    3  A    between atoms: C10_17  and  C11_18 
REMARK    4  A    between atoms: C16_25  and  C17_26 
REMARK       I    between atoms: C17_26  and  N5_28 
REMARK    5  A    between atoms: N5_28  and  C18_30 
REMARK    6  A    between atoms: C18_30  and  C19_31 
ROOT
HETATM    1  C9  UNL     1      -0.420  35.390  -6.362  1.00  0.00     0.016 A 
HETATM    2  C10 UNL     1       0.129  36.657  -6.258  1.00  0.00    -0.021 A 
HETATM    3  C15 UNL     1       1.066  36.620  -5.218  1.00  0.00     0.097 A 
HETATM    4  N4  UNL     1       1.059  35.374  -4.739  1.00  0.00    -0.360 N 
ATOM      5  H4  UNL     1       1.646  35.050  -3.970  1.00  0.00     0.165 HD
HETATM    6  C16 UNL     1       0.187  34.607  -5.391  1.00  0.00     0.112 A 
ENDROOT
BRANCH   1   7
HETATM    7  C8  UNL     1      -1.457  34.969  -7.311  1.00  0.00    -0.001 A 
HETATM    8  C2  UNL     1      -1.151  34.434  -8.539  1.00  0.00    -0.050 A 
HETATM    9  C1  UNL     1       0.262  34.274  -8.936  1.00  0.00     0.049 C 
HETATM   10  C3  UNL     1      -2.162  34.045  -9.387  1.00  0.00     0.010 A 
HETATM   11  C4  UNL     1      -3.495  34.163  -9.067  1.00  0.00     0.032 A 
HETATM   12  C5  UNL     1      -3.817  34.698  -7.837  1.00  0.00     0.063 A 
HETATM   13  N1  UNL     1      -5.012  34.932  -7.241  1.00  0.00    -0.298 N 
HETATM   14  C7  UNL     1      -2.799  35.094  -6.976  1.00  0.00     0.049 A 
HETATM   15  N2  UNL     1      -4.767  35.452  -6.056  1.00  0.00    -0.285 N 
ATOM     16  H1  UNL     1      -5.932  34.740  -7.638  1.00  0.00     0.187 HD
HETATM   17  C6  UNL     1      -3.443  35.566  -5.856  1.00  0.00     0.127 A 
ATOM     18  H2  UNL     1      -5.482  35.730  -5.384  1.00  0.00     0.188 HD
BRANCH  17  19
HETATM   19  N3  UNL     1      -2.830  36.028  -4.812  1.00  0.00    -0.384 N 
ATOM     20  H32 UNL     1      -2.400  35.439  -4.099  1.00  0.00     0.157 HD
ATOM     21  H31 UNL     1      -2.689  37.002  -4.546  1.00  0.00     0.157 HD
ENDBRANCH  17  19
ENDBRANCH   1   7
BRANCH   2  22
HETATM   22  C11 UNL     1      -0.123  37.883  -7.037  1.00  0.00    -0.015 A 
HETATM   23  C12 UNL     1       0.241  37.898  -8.516  1.00  0.00     0.020 C 
HETATM   24  C13 UNL     1      -1.451  38.584  -6.743  1.00  0.00     0.015 A 
HETATM   25  C14 UNL     1      -0.178  39.210  -6.380  1.00  0.00     0.015 A 
ENDBRANCH   2  22
BRANCH   6  26
HETATM   26  C17 UNL     1      -0.104  33.201  -5.169  1.00  0.00     0.269 C 
HETATM   27  O1  UNL     1      -1.193  32.866  -4.651  1.00  0.00    -0.266 OA
HETATM   28  N5  UNL     1       0.854  32.221  -5.544  1.00  0.00    -0.355 N 
ATOM     29  H5  UNL     1       1.741  32.496  -5.966  1.00  0.00     0.162 HD
BRANCH  28  30
HETATM   30  C18 UNL     1       0.546  30.809  -5.315  1.00  0.00     0.127 C 
BRANCH  30  31
HETATM   31  C19 UNL     1       1.468  29.941  -6.142  1.00  0.00     0.007 C 
HETATM   32  C20 UNL     1       1.122  28.476  -6.022  1.00  0.00     0.036 C 
HETATM   33  C21 UNL     1       1.650  27.750  -7.210  1.00  0.00     0.272 C 
HETATM   34  N6  UNL     1       2.798  28.368  -7.837  1.00  0.00     0.084 N 
HETATM   35  C22 UNL     1       3.457  27.511  -8.770  1.00  0.00     0.309 C 
HETATM   36  C23 UNL     1       2.479  29.676  -8.377  1.00  0.00     0.272 C 
HETATM   37  C24 UNL     1       1.344  30.321  -7.603  1.00  0.00     0.036 C 
ENDBRANCH  30  31
ENDBRANCH  28  30
ENDBRANCH   6  26
TORSDOF 6
ENDMDL
MODEL 3
REMARK VINA RESULT: -6.717141620      1.557      3.417
REMARK  6 active torsions:
REMARK  status: ('A' for Active; 'I' for Inactive)
REMARK    1  A    between atoms: C6_10  and  N3_11 
REMARK    2  A    between atoms: C8_15  and  C9_16 
REMARK    3  A    between atoms: C10_17  and  C11_18 
REMARK    4  A    between atoms: C16_25  and  C17_26 
REMARK       I    between atoms: C17_26  and  N5_28 
REMARK    5  A    between atoms: N5_28  and  C18_30 
REMARK    6  A    between atoms: C18_30  and  C19_31 
ROOT
HETATM    1  C9  UNL     1       0.422  35.232  -6.930  1.00  0.00     0.016 A 
HETATM    2  C10 UNL     1       1.154  36.365  -7.244  1.00  0.00    -0.021 A 
HETATM    3  C15 UNL     1       2.435  36.195  -6.704  1.00  0.00     0.097 A 
HETATM    4  N4  UNL     1       2.442  35.004  -6.100  1.00  0.00    -0.360 N 
ATOM      5  H4  UNL     1       3.248  34.610  -5.615  1.00  0.00     0.165 HD
HETATM    6  C16 UNL     1       1.262  34.396  -6.210  1.00  0.00     0.112 A 
ENDROOT
BRANCH   1   7
HETATM    7  C8  UNL     1      -0.980  34.979  -7.284  1.00  0.00    -0.001 A 
HETATM    8  C2  UNL     1      -1.338  34.377  -8.466  1.00  0.00    -0.050 A 
HETATM    9  C1  UNL     1      -0.294  33.968  -9.425  1.00  0.00     0.049 C 
HETATM   10  C3  UNL     1      -2.667  34.153  -8.744  1.00  0.00     0.010 A 
HETATM   11  C4  UNL     1      -3.682  34.506  -7.884  1.00  0.00     0.032 A 
HETATM   12  C5  UNL     1      -3.336  35.112  -6.694  1.00  0.00     0.063 A 
HETATM   13  N1  UNL     1      -4.088  35.560  -5.659  1.00  0.00    -0.298 N 
HETATM   14  C7  UNL     1      -1.995  35.341  -6.408  1.00  0.00     0.049 A 
HETATM   15  N2  UNL     1      -3.264  36.052  -4.756  1.00  0.00    -0.285 N 
ATOM     16  H1  UNL     1      -5.105  35.523  -5.592  1.00  0.00     0.187 HD
HETATM   17  C6  UNL     1      -1.991  35.939  -5.169  1.00  0.00     0.127 A 
ATOM     18  H2  UNL     1      -3.553  36.462  -3.868  1.00  0.00     0.188 HD
BRANCH  17  19
HETATM   19  N3  UNL     1      -0.915  36.307  -4.548  1.00  0.00    -0.384 N 
ATOM     20  H32 UNL     1      -0.915  36.807  -3.659  1.00  0.00     0.157 HD
ATOM     21  H31 UNL     1       0.054  36.166  -4.833  1.00  0.00     0.157 HD
ENDBRANCH  17  19
ENDBRANCH   1   7
BRANCH   2  22
HETATM   22  C11 UNL     1       0.783  37.572  -8.004  1.00  0.00    -0.015 A 
HETATM   23  C12 UNL     1       0.561  37.453  -9.506  1.00  0.00     0.020 C 
HETATM   24  C13 UNL     1      -0.237  38.487  -7.321  1.00  0.00     0.015 A 
HETATM   25  C14 UNL     1       1.147  38.925  -7.519  1.00  0.00     0.015 A 
ENDBRANCH   2  22
BRANCH   6  26
HETATM   26  C17 UNL     1       0.880  33.093  -5.695  1.00  0.00     0.269 C 
HETATM   27  O1  UNL     1       0.675  32.944  -4.469  1.00  0.00    -0.266 OA
HETATM   28  N5  UNL     1       0.742  31.999  -6.591  1.00  0.00    -0.355 N 
ATOM     29  H5  UNL     1       0.909  32.122  -7.590  1.00  0.00     0.162 HD
BRANCH  28  30
HETATM   30  C18 UNL     1       0.356  30.693  -6.058  1.00  0.00     0.127 C 
BRANCH  30  31
HETATM   31  C19 UNL     1       1.102  29.599  -6.787  1.00  0.00     0.007 C 
HETATM   32  C20 UNL     1       1.762  30.108  -8.047  1.00  0.00     0.036 C 
HETATM   33  C21 UNL     1       2.883  29.198  -8.414  1.00  0.00     0.272 C 
HETATM   34  N6  UNL     1       2.735  27.836  -7.947  1.00  0.00     0.084 N 
HETATM   35  C22 UNL     1       3.656  26.931  -8.558  1.00  0.00     0.309 C 
HETATM   36  C23 UNL     1       2.722  27.760  -6.499  1.00  0.00     0.272 C 
HETATM   37  C24 UNL     1       2.192  29.046  -5.892  1.00  0.00     0.036 C 
ENDBRANCH  30  31
ENDBRANCH  28  30
ENDBRANCH   6  26
TORSDOF 6
ENDMDL
MODEL 4
REMARK VINA RESULT: -6.662772802      1.487      1.960
REMARK  6 active torsions:
REMARK  status: ('A' for Active; 'I' for Inactive)
REMARK    1  A    between atoms: C6_10  and  N3_11 
REMARK    2  A    between atoms: C8_15  and  C9_16 
REMARK    3  A    between atoms: C10_17  and  C11_18 
REMARK    4  A    between atoms: C16_25  and  C17_26 
REMARK       I    between atoms: C17_26  and  N5_28 
REMARK    5  A    between atoms: N5_28  and  C18_30 
REMARK    6  A    between atoms: C18_30  and  C19_31 
ROOT
HETATM    1  C9  UNL     1      -0.592  34.463  -8.267  1.00  0.00     0.016 A 
HETATM    2  C10 UNL     1      -0.947  35.086  -9.452  1.00  0.00    -0.021 A 
HETATM    3  C15 UNL     1      -1.452  34.097 -10.306  1.00  0.00     0.097 A 
HETATM    4  N4  UNL     1      -1.391  32.944  -9.636  1.00  0.00    -0.360 N 
ATOM      5  H4  UNL     1      -1.694  32.045 -10.012  1.00  0.00     0.165 HD
HETATM    6  C16 UNL     1      -0.885  33.115  -8.416  1.00  0.00     0.112 A 
ENDROOT
BRANCH   1   7
HETATM    7  C8  UNL     1      -0.005  35.111  -7.088  1.00  0.00    -0.001 A 
HETATM    8  C2  UNL     1       1.345  35.342  -6.977  1.00  0.00    -0.050 A 
HETATM    9  C1  UNL     1       2.251  34.927  -8.067  1.00  0.00     0.049 C 
HETATM   10  C3  UNL     1       1.843  35.963  -5.855  1.00  0.00     0.010 A 
HETATM   11  C4  UNL     1       1.046  36.377  -4.813  1.00  0.00     0.032 A 
HETATM   12  C5  UNL     1      -0.311  36.152  -4.912  1.00  0.00     0.063 A 
HETATM   13  N1  UNL     1      -1.337  36.444  -4.073  1.00  0.00    -0.298 N 
HETATM   14  C7  UNL     1      -0.820  35.524  -6.043  1.00  0.00     0.049 A 
HETATM   15  N2  UNL     1      -2.446  36.021  -4.644  1.00  0.00    -0.285 N 
ATOM     16  H1  UNL     1      -1.262  36.906  -3.167  1.00  0.00     0.187 HD
HETATM   17  C6  UNL     1      -2.179  35.460  -5.835  1.00  0.00     0.127 A 
ATOM     18  H2  UNL     1      -3.378  36.108  -4.238  1.00  0.00     0.188 HD
BRANCH  17  19
HETATM   19  N3  UNL     1      -3.014  34.941  -6.679  1.00  0.00    -0.384 N 
ATOM     20  H32 UNL     1      -4.003  34.787  -6.477  1.00  0.00     0.157 HD
ATOM     21  H31 UNL     1      -2.829  34.616  -7.627  1.00  0.00     0.157 HD
ENDBRANCH  17  19
ENDBRANCH   1   7
BRANCH   2  22
HETATM   22  C11 UNL     1      -0.875  36.502  -9.855  1.00  0.00    -0.015 A 
HETATM   23  C12 UNL     1      -1.633  37.536  -9.033  1.00  0.00     0.020 C 
HETATM   24  C13 UNL     1       0.507  36.987 -10.296  1.00  0.00     0.015 A 
HETATM   25  C14 UNL     1      -0.592  36.886 -11.258  1.00  0.00     0.015 A 
ENDBRANCH   2  22
BRANCH   6  26
HETATM   26  C17 UNL     1      -0.667  32.109  -7.392  1.00  0.00     0.269 C 
HETATM   27  O1  UNL     1      -1.496  31.974  -6.465  1.00  0.00    -0.266 OA
HETATM   28  N5  UNL     1       0.491  31.287  -7.456  1.00  0.00    -0.355 N 
ATOM     29  H5  UNL     1       1.166  31.398  -8.212  1.00  0.00     0.162 HD
BRANCH  28  30
HETATM   30  C18 UNL     1       0.697  30.277  -6.417  1.00  0.00     0.127 C 
BRANCH  30  31
HETATM   31  C19 UNL     1       1.894  29.420  -6.765  1.00  0.00     0.007 C 
HETATM   32  C20 UNL     1       2.450  28.709  -5.553  1.00  0.00     0.036 C 
HETATM   33  C21 UNL     1       3.220  27.515  -5.999  1.00  0.00     0.272 C 
HETATM   34  N6  UNL     1       3.772  27.612  -7.333  1.00  0.00     0.084 N 
HETATM   35  C22 UNL     1       4.741  26.601  -7.614  1.00  0.00     0.309 C 
HETATM   36  C23 UNL     1       2.734  27.717  -8.340  1.00  0.00     0.272 C 
HETATM   37  C24 UNL     1       1.485  28.362  -7.768  1.00  0.00     0.036 C 
ENDBRANCH  30  31
ENDBRANCH  28  30
ENDBRANCH   6  26
TORSDOF 6
ENDMDL
MODEL 5
REMARK VINA RESULT: -6.657829188      1.965      4.215
REMARK  6 active torsions:
REMARK  status: ('A' for Active; 'I' for Inactive)
REMARK    1  A    between atoms: C6_10  and  N3_11 
REMARK    2  A    between atoms: C8_15  and  C9_16 
REMARK    3  A    between atoms: C10_17  and  C11_18 
REMARK    4  A    between atoms: C16_25  and  C17_26 
REMARK       I    between atoms: C17_26  and  N5_28 
REMARK    5  A    between atoms: N5_28  and  C18_30 
REMARK    6  A    between atoms: C18_30  and  C19_31 
ROOT
HETATM    1  C9  UNL     1      -0.807  35.417  -6.225  1.00  0.00     0.016 A 
HETATM    2  C10 UNL     1      -0.231  36.653  -5.983  1.00  0.00    -0.021 A 
HETATM    3  C15 UNL     1       0.817  36.452  -5.075  1.00  0.00     0.097 A 
HETATM    4  N4  UNL     1       0.845  35.145  -4.804  1.00  0.00    -0.360 N 
ATOM      5  H4  UNL     1       1.510  34.704  -4.169  1.00  0.00     0.165 HD
HETATM    6  C16 UNL     1      -0.106  34.490  -5.468  1.00  0.00     0.112 A 
ENDROOT
BRANCH   1   7
HETATM    7  C8  UNL     1      -1.951  35.150  -7.105  1.00  0.00    -0.001 A 
HETATM    8  C2  UNL     1      -3.250  35.247  -6.666  1.00  0.00    -0.050 A 
HETATM    9  C1  UNL     1      -3.522  35.625  -5.265  1.00  0.00     0.049 C 
HETATM   10  C3  UNL     1      -4.287  34.997  -7.535  1.00  0.00     0.010 A 
HETATM   11  C4  UNL     1      -4.091  34.649  -8.852  1.00  0.00     0.032 A 
HETATM   12  C5  UNL     1      -2.793  34.548  -9.306  1.00  0.00     0.063 A 
HETATM   13  N1  UNL     1      -2.286  34.239 -10.525  1.00  0.00    -0.298 N 
HETATM   14  C7  UNL     1      -1.742  34.799  -8.432  1.00  0.00     0.049 A 
HETATM   15  N2  UNL     1      -0.973  34.290 -10.431  1.00  0.00    -0.285 N 
ATOM     16  H1  UNL     1      -2.823  34.008 -11.361  1.00  0.00     0.187 HD
HETATM   17  C6  UNL     1      -0.603  34.626  -9.184  1.00  0.00     0.127 A 
ATOM     18  H2  UNL     1      -0.328  34.101 -11.198  1.00  0.00     0.188 HD
BRANCH  17  19
HETATM   19  N3  UNL     1       0.598  34.776  -8.721  1.00  0.00    -0.384 N 
ATOM     20  H32 UNL     1       1.415  34.289  -9.091  1.00  0.00     0.157 HD
ATOM     21  H31 UNL     1       0.905  35.371  -7.951  1.00  0.00     0.157 HD
ENDBRANCH  17  19
ENDBRANCH   1   7
BRANCH   2  22
HETATM   22  C11 UNL     1      -0.551  37.987  -6.522  1.00  0.00    -0.015 A 
HETATM   23  C12 UNL     1      -0.405  38.226  -8.019  1.00  0.00     0.020 C 
HETATM   24  C13 UNL     1      -1.797  38.650  -5.931  1.00  0.00     0.015 A 
HETATM   25  C14 UNL     1      -0.464  39.198  -5.672  1.00  0.00     0.015 A 
ENDBRANCH   2  22
BRANCH   6  26
HETATM   26  C17 UNL     1      -0.392  33.066  -5.442  1.00  0.00     0.269 C 
HETATM   27  O1  UNL     1      -1.055  32.581  -4.497  1.00  0.00    -0.266 OA
HETATM   28  N5  UNL     1       0.087  32.238  -6.493  1.00  0.00    -0.355 N 
ATOM     29  H5  UNL     1       0.627  32.634  -7.261  1.00  0.00     0.162 HD
BRANCH  28  30
HETATM   30  C18 UNL     1      -0.209  30.806  -6.453  1.00  0.00     0.127 C 
BRANCH  30  31
HETATM   31  C19 UNL     1       1.061  30.026  -6.196  1.00  0.00     0.007 C 
HETATM   32  C20 UNL     1       1.181  29.602  -4.751  1.00  0.00     0.036 C 
HETATM   33  C21 UNL     1       2.097  28.432  -4.659  1.00  0.00     0.272 C 
HETATM   34  N6  UNL     1       3.078  28.345  -5.721  1.00  0.00     0.084 N 
HETATM   35  C22 UNL     1       4.116  27.403  -5.448  1.00  0.00     0.309 C 
HETATM   36  C23 UNL     1       2.454  28.162  -7.017  1.00  0.00     0.272 C 
HETATM   37  C24 UNL     1       1.064  28.770  -7.041  1.00  0.00     0.036 C 
ENDBRANCH  30  31
ENDBRANCH  28  30
ENDBRANCH   6  26
TORSDOF 6
ENDMDL
