MODEL 1
REMARK VINA RESULT: -5.432784684      0.000      0.000
REMARK  6 active torsions:
REMARK  status: ('A' for Active; 'I' for Inactive)
REMARK    1  A    between atoms: N1_1  and  C1_5 
REMARK    2  A    between atoms: C1_5  and  C2_6 
REMARK    3  A    between atoms: C3_7  and  C4_8 
REMARK    4  A    between atoms: C4_8  and  O1_9 
REMARK    5  A    between atoms: C4_8  and  C5_11 
REMARK    6  A    between atoms: C5_11  and  O2_12 
ROOT
HETATM    1  C1  UNL     1      -3.910  18.539  -8.614  1.00  0.00     0.194 A 
HETATM    2  C6  UNL     1      -3.857  17.081  -8.405  1.00  0.00     0.042 A 
HETATM    3  C7  UNL     1      -4.895  16.294  -9.252  1.00  0.00     0.017 A 
HETATM    4  C8  UNL     1      -5.195  17.658  -8.702  1.00  0.00     0.042 A 
ENDROOT
BRANCH   1   5
HETATM    5  N1  UNL     1      -3.597  19.128  -9.906  1.00  0.00    -0.059 N 
ATOM      6  H13 UNL     1      -4.212  18.725 -10.614  1.00  0.00     0.276 HD
ATOM      7  H12 UNL     1      -3.903  20.101  -9.912  1.00  0.00     0.276 HD
ATOM      8  H11 UNL     1      -2.634  19.080 -10.238  1.00  0.00     0.276 HD
ENDBRANCH   1   5
BRANCH   1   9
HETATM    9  C2  UNL     1      -3.822  19.394  -7.419  1.00  0.00    -0.064 C 
HETATM   10  C3  UNL     1      -3.728  20.097  -6.441  1.00  0.00    -0.070 C 
BRANCH  10  11
HETATM   11  C4  UNL     1      -3.593  20.967  -5.255  1.00  0.00     0.220 C 
BRANCH  11  12
HETATM   12  O1  UNL     1      -2.868  22.131  -5.591  1.00  0.00    -0.381 OA
ATOM     13  H1  UNL     1      -3.430  22.894  -5.526  1.00  0.00     0.211 HD
ENDBRANCH  11  12
BRANCH  11  14
HETATM   14  C5  UNL     1      -2.710  20.206  -4.271  1.00  0.00     0.208 C 
BRANCH  14  15
HETATM   15  O2  UNL     1      -3.375  20.085  -3.035  1.00  0.00    -0.397 OA
ATOM     16  H2  UNL     1      -2.907  20.579  -2.372  1.00  0.00     0.209 HD
ENDBRANCH  14  15
ENDBRANCH  11  14
ENDBRANCH  10  11
ENDBRANCH   1   9
TORSDOF 6
ENDMDL
MODEL 2
REMARK VINA RESULT: -5.409902471      4.070      5.377
REMARK  6 active torsions:
REMARK  status: ('A' for Active; 'I' for Inactive)
REMARK    1  A    between atoms: N1_1  and  C1_5 
REMARK    2  A    between atoms: C1_5  and  C2_6 
REMARK    3  A    between atoms: C3_7  and  C4_8 
REMARK    4  A    between atoms: C4_8  and  O1_9 
REMARK    5  A    between atoms: C4_8  and  C5_11 
REMARK    6  A    between atoms: C5_11  and  O2_12 
ROOT
HETATM    1  C1  UNL     1      -3.382  22.120  -8.877  1.00  0.00     0.194 A 
HETATM    2  C6  UNL     1      -3.275  22.679 -10.236  1.00  0.00     0.042 A 
HETATM    3  C7  UNL     1      -3.640  24.187 -10.317  1.00  0.00     0.017 A 
HETATM    4  C8  UNL     1      -4.332  23.256  -9.366  1.00  0.00     0.042 A 
ENDROOT
BRANCH   1   5
HETATM    5  N1  UNL     1      -2.527  22.588  -7.798  1.00  0.00    -0.059 N 
ATOM      6  H13 UNL     1      -2.699  22.022  -6.967  1.00  0.00     0.276 HD
ATOM      7  H12 UNL     1      -1.560  22.338  -8.007  1.00  0.00     0.276 HD
ATOM      8  H11 UNL     1      -2.568  23.574  -7.543  1.00  0.00     0.276 HD
ENDBRANCH   1   5
BRANCH   1   9
HETATM    9  C2  UNL     1      -4.011  20.795  -8.743  1.00  0.00    -0.064 C 
HETATM   10  C3  UNL     1      -4.522  19.708  -8.612  1.00  0.00    -0.070 C 
BRANCH  10  11
HETATM   11  C4  UNL     1      -5.150  18.384  -8.427  1.00  0.00     0.220 C 
BRANCH  11  12
HETATM   12  O1  UNL     1      -4.969  17.946  -7.097  1.00  0.00    -0.381 OA
ATOM     13  H1  UNL     1      -5.141  18.659  -6.494  1.00  0.00     0.211 HD
ENDBRANCH  11  12
BRANCH  11  14
HETATM   14  C5  UNL     1      -4.348  17.413  -9.289  1.00  0.00     0.208 C 
BRANCH  14  15
HETATM   15  O2  UNL     1      -5.156  16.938 -10.342  1.00  0.00    -0.397 OA
ATOM     16  H2  UNL     1      -4.683  16.275 -10.832  1.00  0.00     0.209 HD
ENDBRANCH  14  15
ENDBRANCH  11  14
ENDBRANCH  10  11
ENDBRANCH   1   9
TORSDOF 6
ENDMDL
MODEL 3
REMARK VINA RESULT: -5.338304431      3.366      5.490
REMARK  6 active torsions:
REMARK  status: ('A' for Active; 'I' for Inactive)
REMARK    1  A    between atoms: N1_1  and  C1_5 
REMARK    2  A    between atoms: C1_5  and  C2_6 
REMARK    3  A    between atoms: C3_7  and  C4_8 
REMARK    4  A    between atoms: C4_8  and  O1_9 
REMARK    5  A    between atoms: C4_8  and  C5_11 
REMARK    6  A    between atoms: C5_11  and  O2_12 
ROOT
HETATM    1  C1  UNL     1      -4.178  24.038  -7.104  1.00  0.00     0.194 A 
HETATM    2  C6  UNL     1      -4.720  24.979  -6.108  1.00  0.00     0.042 A 
HETATM    3  C7  UNL     1      -4.027  26.369  -6.126  1.00  0.00     0.017 A 
HETATM    4  C8  UNL     1      -3.272  25.106  -6.417  1.00  0.00     0.042 A 
ENDROOT
BRANCH   1   5
HETATM    5  N1  UNL     1      -4.294  24.298  -8.530  1.00  0.00    -0.059 N 
ATOM      6  H13 UNL     1      -3.379  24.563  -8.896  1.00  0.00     0.276 HD
ATOM      7  H12 UNL     1      -4.452  23.416  -9.018  1.00  0.00     0.276 HD
ATOM      8  H11 UNL     1      -4.986  24.978  -8.842  1.00  0.00     0.276 HD
ENDBRANCH   1   5
BRANCH   1   9
HETATM    9  C2  UNL     1      -3.949  22.652  -6.665  1.00  0.00    -0.064 C 
HETATM   10  C3  UNL     1      -3.746  21.512  -6.319  1.00  0.00    -0.070 C 
BRANCH  10  11
HETATM   11  C4  UNL     1      -3.474  20.121  -5.903  1.00  0.00     0.220 C 
BRANCH  11  12
HETATM   12  O1  UNL     1      -4.680  19.480  -5.544  1.00  0.00    -0.381 OA
ATOM     13  H1  UNL     1      -5.227  19.364  -6.312  1.00  0.00     0.211 HD
ENDBRANCH  11  12
BRANCH  11  14
HETATM   14  C5  UNL     1      -2.664  20.218  -4.613  1.00  0.00     0.208 C 
BRANCH  14  15
HETATM   15  O2  UNL     1      -3.534  20.171  -3.505  1.00  0.00    -0.397 OA
ATOM     16  H2  UNL     1      -3.159  20.664  -2.784  1.00  0.00     0.209 HD
ENDBRANCH  14  15
ENDBRANCH  11  14
ENDBRANCH  10  11
ENDBRANCH   1   9
TORSDOF 6
ENDMDL
MODEL 4
REMARK VINA RESULT: -5.319918207      4.334      6.106
REMARK  6 active torsions:
REMARK  status: ('A' for Active; 'I' for Inactive)
REMARK    1  A    between atoms: N1_1  and  C1_5 
REMARK    2  A    between atoms: C1_5  and  C2_6 
REMARK    3  A    between atoms: C3_7  and  C4_8 
REMARK    4  A    between atoms: C4_8  and  O1_9 
REMARK    5  A    between atoms: C4_8  and  C5_11 
REMARK    6  A    between atoms: C5_11  and  O2_12 
ROOT
HETATM    1  C1  UNL     1      -3.812  24.338  -6.972  1.00  0.00     0.194 A 
HETATM    2  C6  UNL     1      -4.092  25.468  -7.875  1.00  0.00     0.042 A 
HETATM    3  C7  UNL     1      -4.573  26.748  -7.137  1.00  0.00     0.017 A 
HETATM    4  C8  UNL     1      -4.934  25.375  -6.653  1.00  0.00     0.042 A 
ENDROOT
BRANCH   1   5
HETATM    5  N1  UNL     1      -2.748  24.407  -5.983  1.00  0.00    -0.059 N 
ATOM      6  H13 UNL     1      -2.640  25.374  -5.678  1.00  0.00     0.276 HD
ATOM      7  H12 UNL     1      -3.064  23.963  -5.121  1.00  0.00     0.276 HD
ATOM      8  H11 UNL     1      -1.833  24.033  -6.233  1.00  0.00     0.276 HD
ENDBRANCH   1   5
BRANCH   1   9
HETATM    9  C2  UNL     1      -4.292  23.010  -7.388  1.00  0.00    -0.064 C 
HETATM   10  C3  UNL     1      -4.687  21.914  -7.709  1.00  0.00    -0.070 C 
BRANCH  10  11
HETATM   11  C4  UNL     1      -5.184  20.574  -8.080  1.00  0.00     0.220 C 
BRANCH  11  12
HETATM   12  O1  UNL     1      -6.595  20.554  -8.041  1.00  0.00    -0.381 OA
ATOM     13  H1  UNL     1      -6.899  19.723  -7.697  1.00  0.00     0.211 HD
ENDBRANCH  11  12
BRANCH  11  14
HETATM   14  C5  UNL     1      -4.732  19.633  -6.966  1.00  0.00     0.208 C 
BRANCH  14  15
HETATM   15  O2  UNL     1      -5.860  19.138  -6.280  1.00  0.00    -0.397 OA
ATOM     16  H2  UNL     1      -5.878  18.190  -6.342  1.00  0.00     0.209 HD
ENDBRANCH  14  15
ENDBRANCH  11  14
ENDBRANCH  10  11
ENDBRANCH   1   9
TORSDOF 6
ENDMDL
MODEL 5
REMARK VINA RESULT: -5.290704625      3.477      5.065
REMARK  6 active torsions:
REMARK  status: ('A' for Active; 'I' for Inactive)
REMARK    1  A    between atoms: N1_1  and  C1_5 
REMARK    2  A    between atoms: C1_5  and  C2_6 
REMARK    3  A    between atoms: C3_7  and  C4_8 
REMARK    4  A    between atoms: C4_8  and  O1_9 
REMARK    5  A    between atoms: C4_8  and  C5_11 
REMARK    6  A    between atoms: C5_11  and  O2_12 
ROOT
HETATM    1  C1  UNL     1      -4.284  23.336  -6.304  1.00  0.00     0.194 A 
HETATM    2  C6  UNL     1      -3.318  24.200  -7.004  1.00  0.00     0.042 A 
HETATM    3  C7  UNL     1      -3.937  24.991  -8.189  1.00  0.00     0.017 A 
HETATM    4  C8  UNL     1      -4.398  23.608  -7.836  1.00  0.00     0.042 A 
ENDROOT
BRANCH   1   5
HETATM    5  N1  UNL     1      -5.422  23.897  -5.593  1.00  0.00    -0.059 N 
ATOM      6  H13 UNL     1      -5.298  23.742  -4.592  1.00  0.00     0.276 HD
ATOM      7  H12 UNL     1      -5.376  24.915  -5.640  1.00  0.00     0.276 HD
ATOM      8  H11 UNL     1      -6.357  23.593  -5.863  1.00  0.00     0.276 HD
ENDBRANCH   1   5
BRANCH   1   9
HETATM    9  C2  UNL     1      -3.836  21.980  -5.943  1.00  0.00    -0.064 C 
HETATM   10  C3  UNL     1      -3.472  20.873  -5.627  1.00  0.00    -0.070 C 
BRANCH  10  11
HETATM   11  C4  UNL     1      -3.043  19.519  -5.220  1.00  0.00     0.220 C 
BRANCH  11  12
HETATM   12  O1  UNL     1      -2.448  19.566  -3.941  1.00  0.00    -0.381 OA
ATOM     13  H1  UNL     1      -2.909  18.986  -3.347  1.00  0.00     0.211 HD
ENDBRANCH  11  12
BRANCH  11  14
HETATM   14  C5  UNL     1      -1.921  19.127  -6.178  1.00  0.00     0.208 C 
BRANCH  14  15
HETATM   15  O2  UNL     1      -0.689  19.144  -5.494  1.00  0.00    -0.397 OA
ATOM     16  H2  UNL     1      -0.271  18.294  -5.570  1.00  0.00     0.209 HD
ENDBRANCH  14  15
ENDBRANCH  11  14
ENDBRANCH  10  11
ENDBRANCH   1   9
TORSDOF 6
ENDMDL
