MODEL 1
REMARK VINA RESULT: -4.904032606      0.000      0.000
REMARK  2 active torsions:
REMARK  status: ('A' for Active; 'I' for Inactive)
REMARK    1  A    between atoms: C1_2  and  N2_4 
REMARK    2  A    between atoms: N2_4  and  C2_6 
ROOT
HETATM    1  C2  UNL     1      11.088  -7.219  -9.996  1.00  0.00     0.063 C 
HETATM    2  C3  UNL     1      12.169  -6.567 -10.816  1.00  0.00     0.038 C 
HETATM    3  C4  UNL     1      13.117  -7.502 -11.485  1.00  0.00    -0.011 C 
HETATM    4  C5  UNL     1      14.142  -8.010 -10.496  1.00  0.00     0.009 C 
HETATM    5  C6  UNL     1      13.477  -8.868  -9.438  1.00  0.00    -0.011 C 
HETATM    6  C7  UNL     1      12.502  -9.850  -9.981  1.00  0.00     0.009 C 
HETATM    7  C8  UNL     1      11.670  -9.403 -11.120  1.00  0.00    -0.011 C 
HETATM    8  C9  UNL     1      12.510  -8.682 -12.157  1.00  0.00     0.009 C 
HETATM    9  C10 UNL     1      10.591  -8.482 -10.696  1.00  0.00     0.038 C 
HETATM   10  C11 UNL     1      12.899  -7.946  -8.406  1.00  0.00     0.044 C 
HETATM   11  C12 UNL     1      11.460  -7.597  -8.620  1.00  0.00     0.198 C 
HETATM   12  F1  UNL     1      11.118  -6.703  -7.628  1.00  0.00    -0.247 F 
ENDROOT
BRANCH   1  13
HETATM   13  N2  UNL     1       9.940  -6.312 -10.000  1.00  0.00    -0.357 N 
ATOM     14  H2  UNL     1       9.017  -6.736  -9.911  1.00  0.00     0.162 HD
BRANCH  13  15
HETATM   15  C1  UNL     1       9.989  -4.916 -10.114  1.00  0.00     0.181 C 
HETATM   16  N1  UNL     1      10.606  -3.997  -9.252  1.00  0.00    -0.070 NA
HETATM   17  S1  UNL     1       9.228  -4.238 -11.426  1.00  0.00    -0.044 SA
ENDBRANCH  13  15
ENDBRANCH   1  13
TORSDOF 2
ENDMDL
MODEL 2
REMARK VINA RESULT: -4.743038719      1.568      1.885
REMARK  2 active torsions:
REMARK  status: ('A' for Active; 'I' for Inactive)
REMARK    1  A    between atoms: C1_2  and  N2_4 
REMARK    2  A    between atoms: N2_4  and  C2_6 
ROOT
HETATM    1  C2  UNL     1      10.544  -5.799  -9.943  1.00  0.00     0.063 C 
HETATM    2  C3  UNL     1      11.628  -5.265 -10.840  1.00  0.00     0.038 C 
HETATM    3  C4  UNL     1      12.101  -6.202 -11.900  1.00  0.00    -0.011 C 
HETATM    4  C5  UNL     1      13.054  -7.220 -11.315  1.00  0.00     0.009 C 
HETATM    5  C6  UNL     1      12.330  -8.121 -10.335  1.00  0.00    -0.011 C 
HETATM    6  C7  UNL     1      11.015  -8.614 -10.823  1.00  0.00     0.009 C 
HETATM    7  C8  UNL     1      10.198  -7.663 -11.610  1.00  0.00    -0.011 C 
HETATM    8  C9  UNL     1      11.044  -6.942 -12.641  1.00  0.00     0.009 C 
HETATM    9  C10 UNL     1       9.559  -6.637 -10.754  1.00  0.00     0.038 C 
HETATM   10  C11 UNL     1      12.258  -7.397  -9.024  1.00  0.00     0.044 C 
HETATM   11  C12 UNL     1      10.994  -6.627  -8.808  1.00  0.00     0.198 C 
HETATM   12  F1  UNL     1      11.126  -5.981  -7.597  1.00  0.00    -0.247 F 
ENDROOT
BRANCH   1  13
HETATM   13  N2  UNL     1       9.767  -4.650  -9.480  1.00  0.00    -0.357 N 
ATOM     14  H2  UNL     1       9.878  -4.381  -8.502  1.00  0.00     0.162 HD
BRANCH  13  15
HETATM   15  C1  UNL     1       8.882  -3.884 -10.252  1.00  0.00     0.181 C 
HETATM   16  N1  UNL     1       8.855  -3.735 -11.647  1.00  0.00    -0.070 NA
HETATM   17  S1  UNL     1       7.709  -3.035  -9.438  1.00  0.00    -0.044 SA
ENDBRANCH  13  15
ENDBRANCH   1  13
TORSDOF 2
ENDMDL
MODEL 3
REMARK VINA RESULT: -4.724028993      3.296      4.563
REMARK  2 active torsions:
REMARK  status: ('A' for Active; 'I' for Inactive)
REMARK    1  A    between atoms: C1_2  and  N2_4 
REMARK    2  A    between atoms: N2_4  and  C2_6 
ROOT
HETATM    1  C2  UNL     1       8.769  -4.673 -11.418  1.00  0.00     0.063 C 
HETATM    2  C3  UNL     1       8.538  -6.112 -11.795  1.00  0.00     0.038 C 
HETATM    3  C4  UNL     1       9.726  -7.004 -11.672  1.00  0.00    -0.011 C 
HETATM    4  C5  UNL     1      10.649  -6.817 -12.856  1.00  0.00     0.009 C 
HETATM    5  C6  UNL     1      11.243  -5.423 -12.849  1.00  0.00    -0.011 C 
HETATM    6  C7  UNL     1      11.738  -4.982 -11.518  1.00  0.00     0.009 C 
HETATM    7  C8  UNL     1      10.937  -5.390 -10.342  1.00  0.00    -0.011 C 
HETATM    8  C9  UNL     1      10.538  -6.850 -10.435  1.00  0.00     0.009 C 
HETATM    9  C10 UNL     1       9.697  -4.592 -10.208  1.00  0.00     0.038 C 
HETATM   10  C11 UNL     1      10.233  -4.498 -13.458  1.00  0.00     0.044 C 
HETATM   11  C12 UNL     1       9.342  -3.813 -12.470  1.00  0.00     0.198 C 
HETATM   12  F1  UNL     1       8.445  -3.062 -13.199  1.00  0.00    -0.247 F 
ENDROOT
BRANCH   1  13
HETATM   13  N2  UNL     1       7.490  -4.144 -10.945  1.00  0.00    -0.357 N 
ATOM     14  H2  UNL     1       6.648  -4.499 -11.397  1.00  0.00     0.162 HD
BRANCH  13  15
HETATM   15  C1  UNL     1       7.312  -3.194  -9.929  1.00  0.00     0.181 C 
HETATM   16  N1  UNL     1       7.703  -3.280  -8.584  1.00  0.00    -0.070 NA
HETATM   17  S1  UNL     1       6.544  -1.780 -10.342  1.00  0.00    -0.044 SA
ENDBRANCH  13  15
ENDBRANCH   1  13
TORSDOF 2
ENDMDL
MODEL 4
REMARK VINA RESULT: -4.666613582      2.792      4.494
REMARK  2 active torsions:
REMARK  status: ('A' for Active; 'I' for Inactive)
REMARK    1  A    between atoms: C1_2  and  N2_4 
REMARK    2  A    between atoms: N2_4  and  C2_6 
ROOT
HETATM    1  C2  UNL     1      10.983  -7.469 -10.549  1.00  0.00     0.063 C 
HETATM    2  C3  UNL     1      11.658  -6.812 -11.723  1.00  0.00     0.038 C 
HETATM    3  C4  UNL     1      11.588  -5.323 -11.750  1.00  0.00    -0.011 C 
HETATM    4  C5  UNL     1      10.233  -4.869 -12.245  1.00  0.00     0.009 C 
HETATM    5  C6  UNL     1       9.150  -5.263 -11.260  1.00  0.00    -0.011 C 
HETATM    6  C7  UNL     1       9.491  -4.980  -9.841  1.00  0.00     0.009 C 
HETATM    7  C8  UNL     1      10.898  -5.205  -9.437  1.00  0.00    -0.011 C 
HETATM    8  C9  UNL     1      11.857  -4.629 -10.461  1.00  0.00     0.009 C 
HETATM    9  C10 UNL     1      11.211  -6.644  -9.285  1.00  0.00     0.038 C 
HETATM   10  C11 UNL     1       8.797  -6.695 -11.526  1.00  0.00     0.044 C 
HETATM   11  C12 UNL     1       9.530  -7.685 -10.676  1.00  0.00     0.198 C 
HETATM   12  F1  UNL     1       9.133  -8.937 -11.096  1.00  0.00    -0.247 F 
ENDROOT
BRANCH   1  13
HETATM   13  N2  UNL     1      11.682  -8.731 -10.304  1.00  0.00    -0.357 N 
ATOM     14  H2  UNL     1      11.437  -9.518 -10.905  1.00  0.00     0.162 HD
BRANCH  13  15
HETATM   15  C1  UNL     1      12.655  -8.961  -9.322  1.00  0.00     0.181 C 
HETATM   16  N1  UNL     1      12.492  -9.563  -8.065  1.00  0.00    -0.070 NA
HETATM   17  S1  UNL     1      14.205  -8.468  -9.662  1.00  0.00    -0.044 SA
ENDBRANCH  13  15
ENDBRANCH   1  13
TORSDOF 2
ENDMDL
MODEL 5
REMARK VINA RESULT: -4.644965092      3.741      4.939
REMARK  2 active torsions:
REMARK  status: ('A' for Active; 'I' for Inactive)
REMARK    1  A    between atoms: C1_2  and  N2_4 
REMARK    2  A    between atoms: N2_4  and  C2_6 
ROOT
HETATM    1  C2  UNL     1       8.169  -4.572 -11.704  1.00  0.00     0.063 C 
HETATM    2  C3  UNL     1       8.695  -3.361 -12.427  1.00  0.00     0.038 C 
HETATM    3  C4  UNL     1       9.099  -3.588 -13.844  1.00  0.00    -0.011 C 
HETATM    4  C5  UNL     1      10.460  -4.244 -13.905  1.00  0.00     0.009 C 
HETATM    5  C6  UNL     1      10.401  -5.641 -13.319  1.00  0.00    -0.011 C 
HETATM    6  C7  UNL     1       9.234  -6.440 -13.777  1.00  0.00     0.009 C 
HETATM    7  C8  UNL     1       7.955  -5.714 -13.945  1.00  0.00    -0.011 C 
HETATM    8  C9  UNL     1       8.166  -4.400 -14.671  1.00  0.00     0.009 C 
HETATM    9  C10 UNL     1       7.311  -5.413 -12.647  1.00  0.00     0.038 C 
HETATM   10  C11 UNL     1      10.501  -5.511 -11.829  1.00  0.00     0.044 C 
HETATM   11  C12 UNL     1       9.185  -5.468 -11.119  1.00  0.00     0.198 C 
HETATM   12  F1  UNL     1       9.463  -5.283  -9.782  1.00  0.00    -0.247 F 
ENDROOT
BRANCH   1  13
HETATM   13  N2  UNL     1       7.241  -4.091 -10.681  1.00  0.00    -0.357 N 
ATOM     14  H2  UNL     1       6.422  -4.669 -10.491  1.00  0.00     0.162 HD
BRANCH  13  15
HETATM   15  C1  UNL     1       7.370  -2.911  -9.936  1.00  0.00     0.181 C 
HETATM   16  N1  UNL     1       8.286  -2.628  -8.911  1.00  0.00    -0.070 NA
HETATM   17  S1  UNL     1       6.318  -1.675 -10.289  1.00  0.00    -0.044 SA
ENDBRANCH  13  15
ENDBRANCH   1  13
TORSDOF 2
ENDMDL
