MODEL 1
REMARK VINA RESULT: -5.027530720      0.000      0.000
REMARK  5 active torsions:
REMARK  status: ('A' for Active; 'I' for Inactive)
REMARK    1  A    between atoms: C6_6  and  O1_7 
REMARK    2  A    between atoms: C6_6  and  N1_9 
REMARK    3  A    between atoms: C13_16  and  C14_17 
REMARK    4  A    between atoms: C13_16  and  C15_20 
REMARK    5  A    between atoms: C14_17  and  O2_18 
ROOT
HETATM    1  C1  UNL     1      11.374  -3.091  -9.443  1.00  0.00     0.024 C 
HETATM    2  C2  UNL     1      10.522  -4.263  -9.959  1.00  0.00     0.027 C 
HETATM    3  C3  UNL     1      10.712  -5.440  -9.101  1.00  0.00     0.017 C 
HETATM    4  C4  UNL     1      11.855  -6.252  -9.669  1.00  0.00     0.006 C 
HETATM    5  C5  UNL     1      11.376  -6.754 -11.002  1.00  0.00     0.072 C 
HETATM    6  C6  UNL     1      11.185  -5.608 -12.002  1.00  0.00     0.264 C 
HETATM    7  C12 UNL     1      10.523  -4.453 -11.442  1.00  0.00     0.086 C 
HETATM    8  C13 UNL     1       9.032  -4.287 -11.380  1.00  0.00     0.064 C 
HETATM    9  C16 UNL     1       9.098  -3.774  -9.986  1.00  0.00     0.148 C 
HETATM   10  O3  UNL     1       8.367  -3.214  -9.197  1.00  0.00    -0.296 OA
ENDROOT
BRANCH   6  11
HETATM   11  O1  UNL     1      10.473  -6.152 -13.066  1.00  0.00    -0.362 OA
ATOM     12  H1  UNL     1      10.767  -5.682 -13.838  1.00  0.00     0.212 HD
ENDBRANCH   6  11
BRANCH   6  13
HETATM   13  N1  UNL     1      12.522  -5.392 -12.575  1.00  0.00     0.123 N 
HETATM   14  C7  UNL     1      12.749  -6.298 -13.676  1.00  0.00     0.276 C 
HETATM   15  C8  UNL     1      13.454  -5.682 -14.860  1.00  0.00     0.030 C 
HETATM   16  C9  UNL     1      12.613  -4.537 -15.331  1.00  0.00     0.003 C 
HETATM   17  C10 UNL     1      12.481  -3.556 -14.225  1.00  0.00     0.030 C 
HETATM   18  C11 UNL     1      12.924  -4.092 -12.877  1.00  0.00     0.276 C 
ENDBRANCH   6  13
BRANCH   8  19
HETATM   19  C14 UNL     1       8.568  -3.146 -12.300  1.00  0.00     0.183 C 
BRANCH  19  20
HETATM   20  O2  UNL     1       8.941  -3.267 -13.588  1.00  0.00    -0.400 OA
ATOM     21  H2  UNL     1       9.390  -2.511 -13.949  1.00  0.00     0.209 HD
ENDBRANCH  19  20
ENDBRANCH   8  19
BRANCH   8  22
HETATM   22  C15 UNL     1       8.159  -5.459 -11.486  1.00  0.00     0.134 C 
HETATM   23 CL1  UNL     1       6.519  -4.937 -11.986  1.00  0.00    -0.129 Cl
ENDBRANCH   8  22
TORSDOF 5
ENDMDL
MODEL 2
REMARK VINA RESULT: -4.479307978      2.355      4.543
REMARK  5 active torsions:
REMARK  status: ('A' for Active; 'I' for Inactive)
REMARK    1  A    between atoms: C6_6  and  O1_7 
REMARK    2  A    between atoms: C6_6  and  N1_9 
REMARK    3  A    between atoms: C13_16  and  C14_17 
REMARK    4  A    between atoms: C13_16  and  C15_20 
REMARK    5  A    between atoms: C14_17  and  O2_18 
ROOT
HETATM    1  C1  UNL     1      11.570  -5.888  -9.446  1.00  0.00     0.024 C 
HETATM    2  C2  UNL     1      11.283  -6.260 -10.911  1.00  0.00     0.027 C 
HETATM    3  C3  UNL     1      12.450  -5.951 -11.748  1.00  0.00     0.017 C 
HETATM    4  C4  UNL     1      12.295  -4.537 -12.262  1.00  0.00     0.006 C 
HETATM    5  C5  UNL     1      11.099  -4.562 -13.171  1.00  0.00     0.072 C 
HETATM    6  C6  UNL     1       9.805  -4.832 -12.394  1.00  0.00     0.264 C 
HETATM    7  C12 UNL     1       9.926  -5.886 -11.414  1.00  0.00     0.086 C 
HETATM    8  C13 UNL     1       9.729  -7.343 -11.718  1.00  0.00     0.064 C 
HETATM    9  C16 UNL     1      10.922  -7.722 -10.915  1.00  0.00     0.148 C 
HETATM   10  O3  UNL     1      11.414  -8.730 -10.456  1.00  0.00    -0.296 OA
ENDROOT
BRANCH   6  11
HETATM   11  O1  UNL     1       8.843  -5.123 -13.356  1.00  0.00    -0.362 OA
ATOM     12  H1  UNL     1       8.758  -4.334 -13.880  1.00  0.00     0.212 HD
ENDBRANCH   6  11
BRANCH   6  13
HETATM   13  N1  UNL     1       9.389  -3.511 -11.900  1.00  0.00     0.123 N 
HETATM   14  C7  UNL     1       8.232  -3.045 -12.626  1.00  0.00     0.276 C 
HETATM   15  C8  UNL     1       7.188  -2.365 -11.773  1.00  0.00     0.030 C 
HETATM   16  C9  UNL     1       6.752  -3.351 -10.734  1.00  0.00     0.003 C 
HETATM   17  C10 UNL     1       7.931  -3.738  -9.920  1.00  0.00     0.030 C 
HETATM   18  C11 UNL     1       9.257  -3.317 -10.526  1.00  0.00     0.276 C 
ENDBRANCH   6  13
BRANCH   8  19
HETATM   19  C14 UNL     1       8.473  -7.886 -11.015  1.00  0.00     0.183 C 
BRANCH  19  20
HETATM   20  O2  UNL     1       7.307  -7.396 -11.475  1.00  0.00    -0.400 OA
ATOM     21  H2  UNL     1       6.577  -7.461 -10.870  1.00  0.00     0.209 HD
ENDBRANCH  19  20
ENDBRANCH   8  19
BRANCH   8  22
HETATM   22  C15 UNL     1       9.828  -7.824 -13.098  1.00  0.00     0.134 C 
HETATM   23 CL1  UNL     1       9.236  -9.513 -13.185  1.00  0.00    -0.129 Cl
ENDBRANCH   8  22
TORSDOF 5
ENDMDL
MODEL 3
REMARK VINA RESULT: -4.416400616      2.376      4.873
REMARK  5 active torsions:
REMARK  status: ('A' for Active; 'I' for Inactive)
REMARK    1  A    between atoms: C6_6  and  O1_7 
REMARK    2  A    between atoms: C6_6  and  N1_9 
REMARK    3  A    between atoms: C13_16  and  C14_17 
REMARK    4  A    between atoms: C13_16  and  C15_20 
REMARK    5  A    between atoms: C14_17  and  O2_18 
ROOT
HETATM    1  C1  UNL     1      10.656  -8.218 -11.322  1.00  0.00     0.024 C 
HETATM    2  C2  UNL     1      11.422  -6.885 -11.273  1.00  0.00     0.027 C 
HETATM    3  C3  UNL     1      12.155  -6.772 -10.005  1.00  0.00     0.017 C 
HETATM    4  C4  UNL     1      11.253  -6.087  -9.003  1.00  0.00     0.006 C 
HETATM    5  C5  UNL     1      11.054  -4.690  -9.521  1.00  0.00     0.072 C 
HETATM    6  C6  UNL     1      10.253  -4.681 -10.828  1.00  0.00     0.264 C 
HETATM    7  C12 UNL     1      10.669  -5.693 -11.770  1.00  0.00     0.086 C 
HETATM    8  C13 UNL     1      11.779  -5.512 -12.765  1.00  0.00     0.064 C 
HETATM    9  C16 UNL     1      12.322  -6.867 -12.481  1.00  0.00     0.148 C 
HETATM   10  O3  UNL     1      13.120  -7.637 -12.969  1.00  0.00    -0.296 OA
ENDROOT
BRANCH   6  11
HETATM   11  O1  UNL     1      10.395  -3.398 -11.346  1.00  0.00    -0.362 OA
ATOM     12  H1  UNL     1      11.331  -3.253 -11.420  1.00  0.00     0.212 HD
ENDBRANCH   6  11
BRANCH   6  13
HETATM   13  N1  UNL     1       8.847  -4.711 -10.400  1.00  0.00     0.123 N 
HETATM   14  C7  UNL     1       8.500  -3.482  -9.726  1.00  0.00     0.276 C 
HETATM   15  C8  UNL     1       7.135  -2.939 -10.075  1.00  0.00     0.030 C 
HETATM   16  C9  UNL     1       7.112  -2.712 -11.554  1.00  0.00     0.003 C 
HETATM   17  C10 UNL     1       7.357  -4.006 -12.238  1.00  0.00     0.030 C 
HETATM   18  C11 UNL     1       7.871  -5.097 -11.318  1.00  0.00     0.276 C 
ENDBRANCH   6  13
BRANCH   8  19
HETATM   19  C14 UNL     1      11.232  -5.494 -14.202  1.00  0.00     0.183 C 
BRANCH  19  20
HETATM   20  O2  UNL     1      10.401  -4.473 -14.482  1.00  0.00    -0.400 OA
ATOM     21  H2  UNL     1       9.745  -4.659 -15.143  1.00  0.00     0.209 HD
ENDBRANCH  19  20
ENDBRANCH   8  19
BRANCH   8  22
HETATM   22  C15 UNL     1      12.787  -4.468 -12.555  1.00  0.00     0.134 C 
HETATM   23 CL1  UNL     1      13.664  -4.171 -14.089  1.00  0.00    -0.129 Cl
ENDBRANCH   8  22
TORSDOF 5
ENDMDL
MODEL 4
REMARK VINA RESULT: -4.363242868      2.350      4.914
REMARK  5 active torsions:
REMARK  status: ('A' for Active; 'I' for Inactive)
REMARK    1  A    between atoms: C6_6  and  O1_7 
REMARK    2  A    between atoms: C6_6  and  N1_9 
REMARK    3  A    between atoms: C13_16  and  C14_17 
REMARK    4  A    between atoms: C13_16  and  C15_20 
REMARK    5  A    between atoms: C14_17  and  O2_18 
ROOT
HETATM    1  C1  UNL     1       9.333  -5.237 -15.136  1.00  0.00     0.024 C 
HETATM    2  C2  UNL     1       8.145  -4.907 -14.217  1.00  0.00     0.027 C 
HETATM    3  C3  UNL     1       7.641  -3.558 -14.508  1.00  0.00     0.017 C 
HETATM    4  C4  UNL     1       8.375  -2.583 -13.615  1.00  0.00     0.006 C 
HETATM    5  C5  UNL     1       7.950  -2.915 -12.212  1.00  0.00     0.072 C 
HETATM    6  C6  UNL     1       8.463  -4.293 -11.779  1.00  0.00     0.264 C 
HETATM    7  C12 UNL     1       8.306  -5.315 -12.788  1.00  0.00     0.086 C 
HETATM    8  C13 UNL     1       7.061  -6.134 -12.968  1.00  0.00     0.064 C 
HETATM    9  C16 UNL     1       7.117  -5.984 -14.447  1.00  0.00     0.148 C 
HETATM   10  O3  UNL     1       6.595  -6.479 -15.422  1.00  0.00    -0.296 OA
ENDROOT
BRANCH   6  11
HETATM   11  O1  UNL     1       7.770  -4.602 -10.613  1.00  0.00    -0.362 OA
ATOM     12  H1  UNL     1       7.585  -5.533 -10.663  1.00  0.00     0.212 HD
ENDBRANCH   6  11
BRANCH   6  13
HETATM   13  N1  UNL     1       9.829  -4.044 -11.295  1.00  0.00     0.123 N 
HETATM   14  C7  UNL     1       9.838  -3.924  -9.856  1.00  0.00     0.276 C 
HETATM   15  C8  UNL     1      11.005  -4.600  -9.178  1.00  0.00     0.030 C 
HETATM   16  C9  UNL     1      10.957  -6.049  -9.550  1.00  0.00     0.003 C 
HETATM   17  C10 UNL     1      11.063  -6.165 -11.026  1.00  0.00     0.030 C 
HETATM   18  C11 UNL     1      10.866  -4.851 -11.759  1.00  0.00     0.276 C 
ENDBRANCH   6  13
BRANCH   8  19
HETATM   19  C14 UNL     1       7.317  -7.608 -12.615  1.00  0.00     0.183 C 
BRANCH  19  20
HETATM   20  O2  UNL     1       7.527  -7.852 -11.308  1.00  0.00    -0.400 OA
ATOM     21  H2  UNL     1       6.942  -8.492 -10.919  1.00  0.00     0.209 HD
ENDBRANCH  19  20
ENDBRANCH   8  19
BRANCH   8  22
HETATM   22  C15 UNL     1       5.785  -5.660 -12.423  1.00  0.00     0.134 C 
HETATM   23 CL1  UNL     1       4.563  -6.963 -12.545  1.00  0.00    -0.129 Cl
ENDBRANCH   8  22
TORSDOF 5
ENDMDL
MODEL 5
REMARK VINA RESULT: -4.335691834      2.548      4.030
REMARK  5 active torsions:
REMARK  status: ('A' for Active; 'I' for Inactive)
REMARK    1  A    between atoms: C6_6  and  O1_7 
REMARK    2  A    between atoms: C6_6  and  N1_9 
REMARK    3  A    between atoms: C13_16  and  C14_17 
REMARK    4  A    between atoms: C13_16  and  C15_20 
REMARK    5  A    between atoms: C14_17  and  O2_18 
ROOT
HETATM    1  C1  UNL     1      15.101  -7.671 -10.120  1.00  0.00     0.024 C 
HETATM    2  C2  UNL     1      13.706  -8.046 -10.650  1.00  0.00     0.027 C 
HETATM    3  C3  UNL     1      13.742  -9.381 -11.262  1.00  0.00     0.017 C 
HETATM    4  C4  UNL     1      14.060  -9.213 -12.730  1.00  0.00     0.006 C 
HETATM    5  C5  UNL     1      12.884  -8.491 -13.323  1.00  0.00     0.072 C 
HETATM    6  C6  UNL     1      12.773  -7.059 -12.788  1.00  0.00     0.264 C 
HETATM    7  C12 UNL     1      12.975  -6.954 -11.362  1.00  0.00     0.086 C 
HETATM    8  C13 UNL     1      11.887  -7.132 -10.343  1.00  0.00     0.064 C 
HETATM    9  C16 UNL     1      12.767  -7.958  -9.475  1.00  0.00     0.148 C 
HETATM   10  O3  UNL     1      12.767  -8.387  -8.341  1.00  0.00    -0.296 OA
ENDROOT
BRANCH   6  11
HETATM   11  O1  UNL     1      11.511  -6.613 -13.169  1.00  0.00    -0.362 OA
ATOM     12  H1  UNL     1      11.654  -5.777 -13.599  1.00  0.00     0.212 HD
ENDBRANCH   6  11
BRANCH   6  13
HETATM   13  N1  UNL     1      13.673  -6.274 -13.646  1.00  0.00     0.123 N 
HETATM   14  C7  UNL     1      13.008  -5.910 -14.874  1.00  0.00     0.276 C 
HETATM   15  C8  UNL     1      13.281  -4.502 -15.343  1.00  0.00     0.030 C 
HETATM   16  C9  UNL     1      12.838  -3.577 -14.253  1.00  0.00     0.003 C 
HETATM   17  C10 UNL     1      13.611  -3.885 -13.024  1.00  0.00     0.030 C 
HETATM   18  C11 UNL     1      14.366  -5.199 -13.090  1.00  0.00     0.276 C 
ENDBRANCH   6  13
BRANCH   8  19
HETATM   19  C14 UNL     1      11.591  -5.807  -9.620  1.00  0.00     0.183 C 
BRANCH  19  20
HETATM   20  O2  UNL     1      11.297  -5.926  -8.312  1.00  0.00    -0.400 OA
ATOM     21  H2  UNL     1      10.558  -5.407  -8.017  1.00  0.00     0.209 HD
ENDBRANCH  19  20
ENDBRANCH   8  19
BRANCH   8  22
HETATM   22  C15 UNL     1      10.656  -7.841 -10.701  1.00  0.00     0.134 C 
HETATM   23 CL1  UNL     1       9.290  -6.682 -10.744  1.00  0.00    -0.129 Cl
ENDBRANCH   8  22
TORSDOF 5
ENDMDL
