MODEL 1
REMARK VINA RESULT: -5.394411382      0.000      0.000
REMARK  5 active torsions:
REMARK  status: ('A' for Active; 'I' for Inactive)
REMARK    1  A    between atoms: C2_2  and  C3_3 
REMARK    2  A    between atoms: C8_8  and  C9_9 
REMARK    3  A    between atoms: C11_15  and  C12_16 
REMARK    4  A    between atoms: C12_16  and  C14_18 
REMARK    5  A    between atoms: C17_24  and  C18_25 
ROOT
HETATM    1  C3  UNL     1     -27.349  -8.013 -10.435  1.00  0.00     0.077 C 
HETATM    2  C4  UNL     1     -27.218  -7.098  -9.239  1.00  0.00     0.014 C 
HETATM    3  C5  UNL     1     -28.555  -6.949  -8.606  1.00  0.00     0.001 C 
HETATM    4  C6  UNL     1     -29.181  -5.612  -8.677  1.00  0.00     0.002 C 
HETATM    5  C7  UNL     1     -28.875  -4.764  -9.844  1.00  0.00     0.032 C 
HETATM    6  C8  UNL     1     -30.098  -4.487 -10.731  1.00  0.00     0.146 C 
HETATM    7  N1  UNL     1     -30.539  -5.745 -11.258  1.00  0.00    -0.348 N 
ATOM      8  H1  UNL     1     -30.656  -6.493 -10.575  1.00  0.00     0.163 HD
HETATM    9  C10 UNL     1     -30.828  -6.083 -12.578  1.00  0.00     0.241 C 
HETATM   10  O2  UNL     1     -31.859  -6.830 -12.751  1.00  0.00    -0.271 OA
HETATM   11  C11 UNL     1     -30.121  -5.706 -13.800  1.00  0.00     0.180 C 
HETATM   12  N2  UNL     1     -28.765  -5.273 -13.641  1.00  0.00    -0.346 N 
ATOM     13  H2  UNL     1     -28.606  -4.265 -13.650  1.00  0.00     0.163 HD
HETATM   14  C16 UNL     1     -27.637  -6.080 -13.473  1.00  0.00     0.241 C 
HETATM   15  O3  UNL     1     -26.521  -5.498 -13.233  1.00  0.00    -0.271 OA
HETATM   16  C17 UNL     1     -27.598  -7.562 -13.547  1.00  0.00     0.180 C 
HETATM   17  N3  UNL     1     -26.445  -8.065 -12.806  1.00  0.00    -0.347 N 
ATOM     18  H3  UNL     1     -25.732  -8.587 -13.315  1.00  0.00     0.163 HD
HETATM   19  C21 UNL     1     -26.266  -7.866 -11.410  1.00  0.00     0.222 C 
HETATM   20  O4  UNL     1     -25.101  -7.541 -10.990  1.00  0.00    -0.273 OA
ENDROOT
BRANCH  11  21
HETATM   21  C12 UNL     1     -30.941  -4.624 -14.487  1.00  0.00     0.013 C 
HETATM   22  C13 UNL     1     -30.763  -4.633 -15.971  1.00  0.00     0.012 C 
BRANCH  21  23
HETATM   23  C14 UNL     1     -30.504  -3.257 -13.966  1.00  0.00     0.002 C 
HETATM   24  C15 UNL     1     -31.716  -2.503 -13.486  1.00  0.00     0.005 C 
ENDBRANCH  21  23
ENDBRANCH  11  21
BRANCH   6  25
HETATM   25  C9  UNL     1     -31.149  -3.776  -9.971  1.00  0.00     0.256 C 
HETATM   26  O1  UNL     1     -30.938  -2.638  -9.595  1.00  0.00    -0.305 OA
ENDBRANCH   6  25
BRANCH  16  27
HETATM   27  C18 UNL     1     -27.411  -7.934 -15.002  1.00  0.00     0.009 C 
HETATM   28  C19 UNL     1     -28.605  -8.731 -15.442  1.00  0.00     0.012 C 
HETATM   29  C20 UNL     1     -26.114  -8.681 -15.216  1.00  0.00     0.012 C 
ENDBRANCH  16  27
BRANCH   1  30
HETATM   30  C2  UNL     1     -27.470  -9.425  -9.902  1.00  0.00     0.009 C 
HETATM   31  C1  UNL     1     -28.233 -10.340 -10.798  1.00  0.00     0.006 C 
ENDBRANCH   1  30
TORSDOF 5
ENDMDL
MODEL 2
REMARK VINA RESULT: -5.382378592      2.405      5.124
REMARK  5 active torsions:
REMARK  status: ('A' for Active; 'I' for Inactive)
REMARK    1  A    between atoms: C2_2  and  C3_3 
REMARK    2  A    between atoms: C8_8  and  C9_9 
REMARK    3  A    between atoms: C11_15  and  C12_16 
REMARK    4  A    between atoms: C12_16  and  C14_18 
REMARK    5  A    between atoms: C17_24  and  C18_25 
ROOT
HETATM    1  C3  UNL     1     -27.600  -7.579 -10.186  1.00  0.00     0.077 C 
HETATM    2  C4  UNL     1     -26.482  -8.597 -10.222  1.00  0.00     0.014 C 
HETATM    3  C5  UNL     1     -25.186  -7.885 -10.073  1.00  0.00     0.001 C 
HETATM    4  C6  UNL     1     -24.283  -7.890 -11.244  1.00  0.00     0.002 C 
HETATM    5  C7  UNL     1     -24.890  -7.940 -12.587  1.00  0.00     0.032 C 
HETATM    6  C8  UNL     1     -24.630  -6.673 -13.417  1.00  0.00     0.146 C 
HETATM    7  N1  UNL     1     -25.258  -5.579 -12.737  1.00  0.00    -0.348 N 
ATOM      8  H1  UNL     1     -25.048  -5.499 -11.742  1.00  0.00     0.163 HD
HETATM    9  C10 UNL     1     -26.116  -4.610 -13.252  1.00  0.00     0.241 C 
HETATM   10  O2  UNL     1     -25.930  -3.413 -12.823  1.00  0.00    -0.271 OA
HETATM   11  C11 UNL     1     -27.203  -4.763 -14.216  1.00  0.00     0.180 C 
HETATM   12  N2  UNL     1     -27.728  -6.087 -14.375  1.00  0.00    -0.346 N 
ATOM     13  H2  UNL     1     -27.399  -6.612 -15.185  1.00  0.00     0.163 HD
HETATM   14  C16 UNL     1     -28.642  -6.737 -13.541  1.00  0.00     0.241 C 
HETATM   15  O3  UNL     1     -28.904  -7.965 -13.790  1.00  0.00    -0.271 OA
HETATM   16  C17 UNL     1     -29.350  -6.140 -12.380  1.00  0.00     0.180 C 
HETATM   17  N3  UNL     1     -29.763  -7.193 -11.456  1.00  0.00    -0.347 N 
ATOM     18  H3  UNL     1     -30.759  -7.317 -11.278  1.00  0.00     0.163 HD
HETATM   19  C21 UNL     1     -28.846  -8.053 -10.793  1.00  0.00     0.222 C 
HETATM   20  O4  UNL     1     -29.127  -9.300 -10.726  1.00  0.00    -0.273 OA
ENDROOT
BRANCH  11  21
HETATM   21  C12 UNL     1     -26.708  -4.232 -15.553  1.00  0.00     0.013 C 
HETATM   22  C13 UNL     1     -27.816  -3.683 -16.392  1.00  0.00     0.012 C 
BRANCH  21  23
HETATM   23  C14 UNL     1     -26.043  -5.366 -16.329  1.00  0.00     0.002 C 
HETATM   24  C15 UNL     1     -24.662  -4.934 -16.748  1.00  0.00     0.005 C 
ENDBRANCH  21  23
ENDBRANCH  11  21
BRANCH   6  25
HETATM   25  C9  UNL     1     -23.180  -6.471 -13.628  1.00  0.00     0.256 C 
HETATM   26  O1  UNL     1     -22.674  -5.421 -13.278  1.00  0.00    -0.305 OA
ENDBRANCH   6  25
BRANCH  16  27
HETATM   27  C18 UNL     1     -30.601  -5.474 -12.911  1.00  0.00     0.009 C 
HETATM   28  C19 UNL     1     -30.505  -4.001 -12.634  1.00  0.00     0.012 C 
HETATM   29  C20 UNL     1     -31.847  -6.090 -12.314  1.00  0.00     0.012 C 
ENDBRANCH  16  27
BRANCH   1  30
HETATM   30  C2  UNL     1     -27.773  -7.163  -8.741  1.00  0.00     0.009 C 
HETATM   31  C1  UNL     1     -28.703  -6.012  -8.558  1.00  0.00     0.006 C 
ENDBRANCH   1  30
TORSDOF 5
ENDMDL
MODEL 3
REMARK VINA RESULT: -5.314049497      1.278      1.381
REMARK  5 active torsions:
REMARK  status: ('A' for Active; 'I' for Inactive)
REMARK    1  A    between atoms: C2_2  and  C3_3 
REMARK    2  A    between atoms: C8_8  and  C9_9 
REMARK    3  A    between atoms: C11_15  and  C12_16 
REMARK    4  A    between atoms: C12_16  and  C14_18 
REMARK    5  A    between atoms: C17_24  and  C18_25 
ROOT
HETATM    1  C3  UNL     1     -28.007  -7.529 -11.246  1.00  0.00     0.077 C 
HETATM    2  C4  UNL     1     -27.642  -6.714 -10.026  1.00  0.00     0.014 C 
HETATM    3  C5  UNL     1     -28.829  -6.638  -9.134  1.00  0.00     0.001 C 
HETATM    4  C6  UNL     1     -29.455  -5.309  -8.968  1.00  0.00     0.002 C 
HETATM    5  C7  UNL     1     -29.382  -4.363 -10.097  1.00  0.00     0.032 C 
HETATM    6  C8  UNL     1     -30.756  -4.033 -10.701  1.00  0.00     0.146 C 
HETATM    7  N1  UNL     1     -31.293  -5.250 -11.236  1.00  0.00    -0.348 N 
ATOM      8  H1  UNL     1     -31.274  -6.054 -10.609  1.00  0.00     0.163 HD
HETATM    9  C10 UNL     1     -31.836  -5.482 -12.498  1.00  0.00     0.241 C 
HETATM   10  O2  UNL     1     -32.881  -6.227 -12.528  1.00  0.00    -0.271 OA
HETATM   11  C11 UNL     1     -31.381  -4.994 -13.798  1.00  0.00     0.180 C 
HETATM   12  N2  UNL     1     -30.020  -4.555 -13.871  1.00  0.00    -0.346 N 
ATOM     13  H2  UNL     1     -29.865  -3.547 -13.826  1.00  0.00     0.163 HD
HETATM   14  C16 UNL     1     -28.881  -5.355 -13.995  1.00  0.00     0.241 C 
HETATM   15  O3  UNL     1     -27.740  -4.779 -13.930  1.00  0.00    -0.271 OA
HETATM   16  C17 UNL     1     -28.860  -6.826 -14.200  1.00  0.00     0.180 C 
HETATM   17  N3  UNL     1     -27.584  -7.371 -13.743  1.00  0.00    -0.347 N 
ATOM     18  H3  UNL     1     -26.986  -7.838 -14.424  1.00  0.00     0.163 HD
HETATM   19  C21 UNL     1     -27.135  -7.285 -12.397  1.00  0.00     0.222 C 
HETATM   20  O4  UNL     1     -25.910  -6.978 -12.188  1.00  0.00    -0.273 OA
ENDROOT
BRANCH  11  21
HETATM   21  C12 UNL     1     -32.318  -3.871 -14.219  1.00  0.00     0.013 C 
HETATM   22  C13 UNL     1     -32.597  -3.884 -15.687  1.00  0.00     0.012 C 
BRANCH  21  23
HETATM   23  C14 UNL     1     -31.682  -2.529 -13.868  1.00  0.00     0.002 C 
HETATM   24  C15 UNL     1     -32.078  -1.510 -14.904  1.00  0.00     0.005 C 
ENDBRANCH  21  23
ENDBRANCH  11  21
BRANCH   6  25
HETATM   25  C9  UNL     1     -31.636  -3.403  -9.694  1.00  0.00     0.256 C 
HETATM   26  O1  UNL     1     -31.398  -2.266  -9.330  1.00  0.00    -0.305 OA
ENDBRANCH   6  25
BRANCH  16  27
HETATM   27  C18 UNL     1     -28.962  -7.073 -15.690  1.00  0.00     0.009 C 
HETATM   28  C19 UNL     1     -30.198  -7.886 -15.948  1.00  0.00     0.012 C 
HETATM   29  C20 UNL     1     -27.715  -7.743 -16.222  1.00  0.00     0.012 C 
ENDBRANCH  16  27
BRANCH   1  30
HETATM   30  C2  UNL     1     -28.021  -8.982 -10.820  1.00  0.00     0.009 C 
HETATM   31  C1  UNL     1     -29.106  -9.781 -11.458  1.00  0.00     0.006 C 
ENDBRANCH   1  30
TORSDOF 5
ENDMDL
MODEL 4
REMARK VINA RESULT: -5.149131095      2.230      5.435
REMARK  5 active torsions:
REMARK  status: ('A' for Active; 'I' for Inactive)
REMARK    1  A    between atoms: C2_2  and  C3_3 
REMARK    2  A    between atoms: C8_8  and  C9_9 
REMARK    3  A    between atoms: C11_15  and  C12_16 
REMARK    4  A    between atoms: C12_16  and  C14_18 
REMARK    5  A    between atoms: C17_24  and  C18_25 
ROOT
HETATM    1  C3  UNL     1     -28.254  -7.002 -10.315  1.00  0.00     0.077 C 
HETATM    2  C4  UNL     1     -27.440  -8.206  -9.896  1.00  0.00     0.014 C 
HETATM    3  C5  UNL     1     -26.067  -7.754  -9.548  1.00  0.00     0.001 C 
HETATM    4  C6  UNL     1     -24.973  -8.200 -10.435  1.00  0.00     0.002 C 
HETATM    5  C7  UNL     1     -25.282  -8.423 -11.859  1.00  0.00     0.032 C 
HETATM    6  C8  UNL     1     -24.550  -7.451 -12.798  1.00  0.00     0.146 C 
HETATM    7  N1  UNL     1     -25.014  -6.130 -12.492  1.00  0.00    -0.348 N 
ATOM      8  H1  UNL     1     -25.002  -5.875 -11.505  1.00  0.00     0.163 HD
HETATM    9  C10 UNL     1     -25.481  -5.147 -13.363  1.00  0.00     0.241 C 
HETATM   10  O2  UNL     1     -25.097  -3.947 -13.109  1.00  0.00    -0.271 OA
HETATM   11  C11 UNL     1     -26.349  -5.289 -14.529  1.00  0.00     0.180 C 
HETATM   12  N2  UNL     1     -27.140  -6.481 -14.590  1.00  0.00    -0.346 N 
ATOM     13  H2  UNL     1     -26.791  -7.228 -15.191  1.00  0.00     0.163 HD
HETATM   14  C16 UNL     1     -28.339  -6.732 -13.916  1.00  0.00     0.241 C 
HETATM   15  O3  UNL     1     -28.839  -7.906 -14.013  1.00  0.00    -0.271 OA
HETATM   16  C17 UNL     1     -29.100  -5.763 -13.089  1.00  0.00     0.180 C 
HETATM   17  N3  UNL     1     -29.943  -6.480 -12.135  1.00  0.00    -0.347 N 
ATOM     18  H3  UNL     1     -30.953  -6.358 -12.195  1.00  0.00     0.163 HD
HETATM   19  C21 UNL     1     -29.425  -7.338 -11.127  1.00  0.00     0.222 C 
HETATM   20  O4  UNL     1     -30.014  -8.456 -10.925  1.00  0.00    -0.273 OA
ENDROOT
BRANCH  11  21
HETATM   21  C12 UNL     1     -25.472  -5.177 -15.768  1.00  0.00     0.013 C 
HETATM   22  C13 UNL     1     -26.146  -4.435 -16.877  1.00  0.00     0.012 C 
BRANCH  21  23
HETATM   23  C14 UNL     1     -25.135  -6.579 -16.272  1.00  0.00     0.002 C 
HETATM   24  C15 UNL     1     -23.639  -6.731 -16.341  1.00  0.00     0.005 C 
ENDBRANCH  21  23
ENDBRANCH  11  21
BRANCH   6  25
HETATM   25  C9  UNL     1     -23.085  -7.596 -12.668  1.00  0.00     0.256 C 
HETATM   26  O1  UNL     1     -22.417  -6.617 -12.390  1.00  0.00    -0.305 OA
ENDBRANCH   6  25
BRANCH  16  27
HETATM   27  C18 UNL     1     -30.010  -4.994 -14.023  1.00  0.00     0.009 C 
HETATM   28  C19 UNL     1     -29.472  -3.599 -14.161  1.00  0.00     0.012 C 
HETATM   29  C20 UNL     1     -31.441  -5.010 -13.532  1.00  0.00     0.012 C 
ENDBRANCH  16  27
BRANCH   1  30
HETATM   30  C2  UNL     1     -28.613  -6.249  -9.051  1.00  0.00     0.009 C 
HETATM   31  C1  UNL     1     -29.010  -4.833  -9.292  1.00  0.00     0.006 C 
ENDBRANCH   1  30
TORSDOF 5
ENDMDL
MODEL 5
REMARK VINA RESULT: -5.139847047      0.864      1.112
REMARK  5 active torsions:
REMARK  status: ('A' for Active; 'I' for Inactive)
REMARK    1  A    between atoms: C2_2  and  C3_3 
REMARK    2  A    between atoms: C8_8  and  C9_9 
REMARK    3  A    between atoms: C11_15  and  C12_16 
REMARK    4  A    between atoms: C12_16  and  C14_18 
REMARK    5  A    between atoms: C17_24  and  C18_25 
ROOT
HETATM    1  C3  UNL     1     -27.226  -8.134 -10.233  1.00  0.00     0.077 C 
HETATM    2  C4  UNL     1     -27.240  -7.289  -8.979  1.00  0.00     0.014 C 
HETATM    3  C5  UNL     1     -28.652  -7.085  -8.560  1.00  0.00     0.001 C 
HETATM    4  C6  UNL     1     -29.183  -5.709  -8.651  1.00  0.00     0.002 C 
HETATM    5  C7  UNL     1     -28.644  -4.826  -9.702  1.00  0.00     0.032 C 
HETATM    6  C8  UNL     1     -29.690  -4.428 -10.755  1.00  0.00     0.146 C 
HETATM    7  N1  UNL     1     -30.108  -5.627 -11.419  1.00  0.00    -0.348 N 
ATOM      8  H1  UNL     1     -30.376  -6.399 -10.809  1.00  0.00     0.163 HD
HETATM    9  C10 UNL     1     -30.197  -5.880 -12.786  1.00  0.00     0.241 C 
HETATM   10  O2  UNL     1     -31.226  -6.550 -13.165  1.00  0.00    -0.271 OA
HETATM   11  C11 UNL     1     -29.281  -5.490 -13.855  1.00  0.00     0.180 C 
HETATM   12  N2  UNL     1     -27.947  -5.153 -13.456  1.00  0.00    -0.346 N 
ATOM     13  H2  UNL     1     -27.733  -4.158 -13.381  1.00  0.00     0.163 HD
HETATM   14  C16 UNL     1     -26.907  -6.038 -13.158  1.00  0.00     0.241 C 
HETATM   15  O3  UNL     1     -25.815  -5.543 -12.709  1.00  0.00    -0.271 OA
HETATM   16  C17 UNL     1     -26.940  -7.514 -13.313  1.00  0.00     0.180 C 
HETATM   17  N3  UNL     1     -25.952  -8.127 -12.428  1.00  0.00    -0.347 N 
ATOM     18  H3  UNL     1     -25.196  -8.667 -12.847  1.00  0.00     0.163 HD
HETATM   19  C21 UNL     1     -25.992  -8.008 -11.012  1.00  0.00     0.222 C 
HETATM   20  O4  UNL     1     -24.894  -7.780 -10.394  1.00  0.00    -0.273 OA
ENDROOT
BRANCH  11  21
HETATM   21  C12 UNL     1     -29.916  -4.325 -14.599  1.00  0.00     0.013 C 
HETATM   22  C13 UNL     1     -30.582  -4.755 -15.866  1.00  0.00     0.012 C 
BRANCH  21  23
HETATM   23  C14 UNL     1     -28.835  -3.307 -14.954  1.00  0.00     0.002 C 
HETATM   24  C15 UNL     1     -28.403  -3.524 -16.380  1.00  0.00     0.005 C 
ENDBRANCH  21  23
ENDBRANCH  11  21
BRANCH   6  25
HETATM   25  C9  UNL     1     -30.809  -3.689 -10.132  1.00  0.00     0.256 C 
HETATM   26  O1  UNL     1     -30.578  -2.638  -9.562  1.00  0.00    -0.305 OA
ENDBRANCH   6  25
BRANCH  16  27
HETATM   27  C18 UNL     1     -26.539  -7.826 -14.739  1.00  0.00     0.009 C 
HETATM   28  C19 UNL     1     -27.683  -8.532 -15.406  1.00  0.00     0.012 C 
HETATM   29  C20 UNL     1     -25.261  -8.634 -14.786  1.00  0.00     0.012 C 
ENDBRANCH  16  27
BRANCH   1  30
HETATM   30  C2  UNL     1     -27.509  -9.559  -9.810  1.00  0.00     0.009 C 
HETATM   31  C1  UNL     1     -28.253 -10.350 -10.832  1.00  0.00     0.006 C 
ENDBRANCH   1  30
TORSDOF 5
ENDMDL
