MODEL 1
REMARK VINA RESULT: -4.294523598      0.000      0.000
REMARK  1 active torsions:
REMARK  status: ('A' for Active; 'I' for Inactive)
REMARK    1  A    between atoms: C2_2  and  C4_5 
ROOT
HETATM    1  C4  UNL     1     -18.156 -28.398  14.864  1.00  0.00     0.040 C 
HETATM    2  C5  UNL     1     -18.884 -27.129  14.592  1.00  0.00     0.138 C 
HETATM    3  N1  UNL     1     -19.201 -26.603  15.931  1.00  0.00    -0.148 NA
HETATM    4  N2  UNL     1     -19.183 -27.722  16.782  1.00  0.00    -0.148 NA
HETATM    5  C6  UNL     1     -17.914 -28.333  16.343  1.00  0.00     0.138 C 
ENDROOT
BRANCH   1   6
HETATM    6  C2  UNL     1     -16.925 -28.614  14.053  1.00  0.00     0.036 C 
HETATM    7  C1  UNL     1     -15.725 -27.860  14.579  1.00  0.00     0.033 C 
HETATM    8  C3  UNL     1     -17.091 -28.220  12.604  1.00  0.00     0.033 C 
HETATM    9 CL1  UNL     1     -16.507 -30.344  14.080  1.00  0.00    -0.119 Cl
ENDBRANCH   1   6
TORSDOF 1
ENDMDL
MODEL 2
REMARK VINA RESULT: -4.283823619      1.083      1.497
REMARK  1 active torsions:
REMARK  status: ('A' for Active; 'I' for Inactive)
REMARK    1  A    between atoms: C2_2  and  C4_5 
ROOT
HETATM    1  C4  UNL     1     -18.159 -28.412  14.835  1.00  0.00     0.040 C 
HETATM    2  C5  UNL     1     -18.851 -27.127  14.544  1.00  0.00     0.138 C 
HETATM    3  N1  UNL     1     -19.152 -26.572  15.875  1.00  0.00    -0.148 NA
HETATM    4  N2  UNL     1     -19.165 -27.678  16.742  1.00  0.00    -0.148 NA
HETATM    5  C6  UNL     1     -17.915 -28.332  16.313  1.00  0.00     0.138 C 
ENDROOT
BRANCH   1   6
HETATM    6  C2  UNL     1     -16.935 -28.674  14.027  1.00  0.00     0.036 C 
HETATM    7  C1  UNL     1     -17.081 -28.276  12.576  1.00  0.00     0.033 C 
HETATM    8  C3  UNL     1     -16.511 -30.124  14.044  1.00  0.00     0.033 C 
HETATM    9 CL1  UNL     1     -15.583 -27.726  14.694  1.00  0.00    -0.119 Cl
ENDBRANCH   1   6
TORSDOF 1
ENDMDL
MODEL 3
REMARK VINA RESULT: -4.099327636      1.101      1.495
REMARK  1 active torsions:
REMARK  status: ('A' for Active; 'I' for Inactive)
REMARK    1  A    between atoms: C2_2  and  C4_5 
ROOT
HETATM    1  C4  UNL     1     -18.203 -28.399  14.965  1.00  0.00     0.040 C 
HETATM    2  C5  UNL     1     -18.923 -27.122  14.712  1.00  0.00     0.138 C 
HETATM    3  N1  UNL     1     -19.224 -26.608  16.060  1.00  0.00    -0.148 NA
HETATM    4  N2  UNL     1     -19.207 -27.736  16.898  1.00  0.00    -0.148 NA
HETATM    5  C6  UNL     1     -17.947 -28.352  16.442  1.00  0.00     0.138 C 
ENDROOT
BRANCH   1   6
HETATM    6  C2  UNL     1     -16.980 -28.616  14.141  1.00  0.00     0.036 C 
HETATM    7  C1  UNL     1     -16.552 -30.065  14.079  1.00  0.00     0.033 C 
HETATM    8  C3  UNL     1     -15.788 -27.826  14.626  1.00  0.00     0.033 C 
HETATM    9 CL1  UNL     1     -17.307 -28.098  12.469  1.00  0.00    -0.119 Cl
ENDBRANCH   1   6
TORSDOF 1
ENDMDL
MODEL 4
REMARK VINA RESULT: -4.090570548      1.665      2.039
REMARK  1 active torsions:
REMARK  status: ('A' for Active; 'I' for Inactive)
REMARK    1  A    between atoms: C2_2  and  C4_5 
ROOT
HETATM    1  C4  UNL     1     -18.937 -27.530  14.458  1.00  0.00     0.040 C 
HETATM    2  C5  UNL     1     -19.476 -27.313  13.089  1.00  0.00     0.138 C 
HETATM    3  N1  UNL     1     -20.002 -25.937  13.125  1.00  0.00    -0.148 NA
HETATM    4  N2  UNL     1     -20.256 -25.674  14.482  1.00  0.00    -0.148 NA
HETATM    5  C6  UNL     1     -18.988 -26.157  15.060  1.00  0.00     0.138 C 
ENDROOT
BRANCH   1   6
HETATM    6  C2  UNL     1     -17.594 -28.174  14.521  1.00  0.00     0.036 C 
HETATM    7  C1  UNL     1     -16.588 -27.378  15.320  1.00  0.00     0.033 C 
HETATM    8  C3  UNL     1     -16.985 -28.412  13.159  1.00  0.00     0.033 C 
HETATM    9 CL1  UNL     1     -17.748 -29.762  15.311  1.00  0.00    -0.119 Cl
ENDBRANCH   1   6
TORSDOF 1
ENDMDL
MODEL 5
REMARK VINA RESULT: -4.054604826      1.956      2.495
REMARK  1 active torsions:
REMARK  status: ('A' for Active; 'I' for Inactive)
REMARK    1  A    between atoms: C2_2  and  C4_5 
ROOT
HETATM    1  C4  UNL     1     -18.918 -27.493  14.524  1.00  0.00     0.040 C 
HETATM    2  C5  UNL     1     -19.502 -27.292  13.170  1.00  0.00     0.138 C 
HETATM    3  N1  UNL     1     -19.961 -25.892  13.182  1.00  0.00    -0.148 NA
HETATM    4  N2  UNL     1     -20.148 -25.575  14.539  1.00  0.00    -0.148 NA
HETATM    5  C6  UNL     1     -18.881 -26.101  15.082  1.00  0.00     0.138 C 
ENDROOT
BRANCH   1   6
HETATM    6  C2  UNL     1     -17.606 -28.199  14.555  1.00  0.00     0.036 C 
HETATM    7  C1  UNL     1     -17.002 -28.395  13.183  1.00  0.00     0.033 C 
HETATM    8  C3  UNL     1     -17.680 -29.562  15.202  1.00  0.00     0.033 C 
HETATM    9 CL1  UNL     1     -16.449 -27.232  15.501  1.00  0.00    -0.119 Cl
ENDBRANCH   1   6
TORSDOF 1
ENDMDL
