MODEL 1
REMARK VINA RESULT: -4.913941577      0.000      0.000
REMARK  1 active torsions:
REMARK  status: ('A' for Active; 'I' for Inactive)
REMARK    1  A    between atoms: C2_2  and  C4_4 
ROOT
HETATM    1  C4  UNL     1     -19.211 -27.313  14.302  1.00  0.00     0.220 C 
HETATM    2  C5  UNL     1     -18.645 -26.285  15.237  1.00  0.00     0.201 C 
HETATM    3  O1  UNL     1     -17.643 -26.818  16.004  1.00  0.00    -0.381 OA
HETATM    4  C6  UNL     1     -16.666 -27.486  15.323  1.00  0.00     0.278 C 
HETATM    5  C7  UNL     1     -17.244 -28.559  14.398  1.00  0.00     0.425 C 
HETATM    6  F1  UNL     1     -16.243 -29.110  13.662  1.00  0.00    -0.172 F 
HETATM    7  F2  UNL     1     -17.896 -29.467  15.212  1.00  0.00    -0.172 F 
HETATM    8  N1  UNL     1     -18.210 -27.946  13.474  1.00  0.00    -0.001 N 
ATOM      9  H11 UNL     1     -17.781 -27.313  12.799  1.00  0.00     0.285 HD
ATOM     10  H12 UNL     1     -18.598 -28.603  12.798  1.00  0.00     0.285 HD
ENDROOT
BRANCH   1  11
HETATM   11  C2  UNL     1     -20.327 -26.746  13.458  1.00  0.00     0.010 C 
HETATM   12  C1  UNL     1     -20.629 -25.320  13.825  1.00  0.00     0.011 C 
HETATM   13  C3  UNL     1     -20.032 -26.822  11.992  1.00  0.00     0.011 C 
ENDBRANCH   1  11
TORSDOF 1
ENDMDL
MODEL 2
REMARK VINA RESULT: -4.796204917      3.060      4.775
REMARK  1 active torsions:
REMARK  status: ('A' for Active; 'I' for Inactive)
REMARK    1  A    between atoms: C2_2  and  C4_4 
ROOT
HETATM    1  C4  UNL     1     -17.930 -30.838  14.801  1.00  0.00     0.220 C 
HETATM    2  C5  UNL     1     -16.718 -30.833  13.917  1.00  0.00     0.201 C 
HETATM    3  O1  UNL     1     -16.487 -29.582  13.407  1.00  0.00    -0.381 OA
HETATM    4  C6  UNL     1     -16.463 -28.565  14.319  1.00  0.00     0.278 C 
HETATM    5  C7  UNL     1     -17.718 -28.552  15.195  1.00  0.00     0.425 C 
HETATM    6  F1  UNL     1     -17.589 -27.598  16.155  1.00  0.00    -0.172 F 
HETATM    7  F2  UNL     1     -18.786 -28.337  14.344  1.00  0.00    -0.172 F 
HETATM    8  N1  UNL     1     -17.872 -29.854  15.858  1.00  0.00    -0.001 N 
ATOM      9  H11 UNL     1     -17.148 -30.045  16.551  1.00  0.00     0.285 HD
ATOM     10  H12 UNL     1     -18.667 -29.894  16.495  1.00  0.00     0.285 HD
ENDROOT
BRANCH   1  11
HETATM   11  C2  UNL     1     -18.206 -32.213  15.361  1.00  0.00     0.010 C 
HETATM   12  C1  UNL     1     -17.128 -33.191  14.986  1.00  0.00     0.011 C 
HETATM   13  C3  UNL     1     -18.363 -32.205  16.850  1.00  0.00     0.011 C 
ENDBRANCH   1  11
TORSDOF 1
ENDMDL
MODEL 3
REMARK VINA RESULT: -4.689930432      5.799      6.795
REMARK  1 active torsions:
REMARK  status: ('A' for Active; 'I' for Inactive)
REMARK    1  A    between atoms: C2_2  and  C4_4 
ROOT
HETATM    1  C4  UNL     1     -18.671 -32.840  16.891  1.00  0.00     0.220 C 
HETATM    2  C5  UNL     1     -18.555 -32.003  15.651  1.00  0.00     0.201 C 
HETATM    3  O1  UNL     1     -17.364 -32.231  15.014  1.00  0.00    -0.381 OA
HETATM    4  C6  UNL     1     -17.058 -33.542  14.781  1.00  0.00     0.278 C 
HETATM    5  C7  UNL     1     -17.142 -34.385  16.055  1.00  0.00     0.425 C 
HETATM    6  F1  UNL     1     -16.942 -35.694  15.746  1.00  0.00    -0.172 F 
HETATM    7  F2  UNL     1     -16.196 -33.874  16.925  1.00  0.00    -0.172 F 
HETATM    8  N1  UNL     1     -18.480 -34.252  16.649  1.00  0.00    -0.001 N 
ATOM      9  H11 UNL     1     -19.219 -34.671  16.085  1.00  0.00     0.285 HD
ATOM     10  H12 UNL     1     -18.615 -34.828  17.479  1.00  0.00     0.285 HD
ENDROOT
BRANCH   1  11
HETATM   11  C2  UNL     1     -19.974 -32.590  17.613  1.00  0.00     0.010 C 
HETATM   12  C1  UNL     1     -20.489 -33.838  18.274  1.00  0.00     0.011 C 
HETATM   13  C3  UNL     1     -19.864 -31.504  18.636  1.00  0.00     0.011 C 
ENDBRANCH   1  11
TORSDOF 1
ENDMDL
MODEL 4
REMARK VINA RESULT: -4.686394143      7.058      8.188
REMARK  1 active torsions:
REMARK  status: ('A' for Active; 'I' for Inactive)
REMARK    1  A    between atoms: C2_2  and  C4_4 
ROOT
HETATM    1  C4  UNL     1     -17.763 -34.076  16.936  1.00  0.00     0.220 C 
HETATM    2  C5  UNL     1     -16.796 -34.502  15.870  1.00  0.00     0.201 C 
HETATM    3  O1  UNL     1     -16.414 -35.805  16.046  1.00  0.00    -0.381 OA
HETATM    4  C6  UNL     1     -17.430 -36.704  16.207  1.00  0.00     0.278 C 
HETATM    5  C7  UNL     1     -18.394 -36.286  17.319  1.00  0.00     0.425 C 
HETATM    6  F1  UNL     1     -19.443 -37.150  17.358  1.00  0.00    -0.172 F 
HETATM    7  F2  UNL     1     -17.655 -36.262  18.488  1.00  0.00    -0.172 F 
HETATM    8  N1  UNL     1     -18.916 -34.941  17.040  1.00  0.00    -0.001 N 
ATOM      9  H11 UNL     1     -19.527 -34.903  16.224  1.00  0.00     0.285 HD
ATOM     10  H12 UNL     1     -19.603 -34.622  17.723  1.00  0.00     0.285 HD
ENDROOT
BRANCH   1  11
HETATM   11  C2  UNL     1     -18.184 -32.636  16.765  1.00  0.00     0.010 C 
HETATM   12  C1  UNL     1     -18.150 -32.217  15.322  1.00  0.00     0.011 C 
HETATM   13  C3  UNL     1     -19.548 -32.367  17.320  1.00  0.00     0.011 C 
ENDBRANCH   1  11
TORSDOF 1
ENDMDL
MODEL 5
REMARK VINA RESULT: -4.684643209      5.805      6.805
REMARK  1 active torsions:
REMARK  status: ('A' for Active; 'I' for Inactive)
REMARK    1  A    between atoms: C2_2  and  C4_4 
ROOT
HETATM    1  C4  UNL     1     -18.796 -32.694  16.401  1.00  0.00     0.220 C 
HETATM    2  C5  UNL     1     -18.265 -31.395  16.934  1.00  0.00     0.201 C 
HETATM    3  O1  UNL     1     -19.209 -30.752  17.691  1.00  0.00    -0.381 OA
HETATM    4  C6  UNL     1     -19.800 -31.505  18.666  1.00  0.00     0.278 C 
HETATM    5  C7  UNL     1     -20.372 -32.812  18.113  1.00  0.00     0.425 C 
HETATM    6  F1  UNL     1     -20.842 -33.570  19.139  1.00  0.00    -0.172 F 
HETATM    7  F2  UNL     1     -21.346 -32.456  17.199  1.00  0.00    -0.172 F 
HETATM    8  N1  UNL     1     -19.311 -33.567  17.431  1.00  0.00    -0.001 N 
ATOM      9  H11 UNL     1     -18.591 -33.917  18.064  1.00  0.00     0.285 HD
ATOM     10  H12 UNL     1     -19.619 -34.473  17.080  1.00  0.00     0.285 HD
ENDROOT
BRANCH   1  11
HETATM   11  C2  UNL     1     -17.772 -33.409  15.553  1.00  0.00     0.010 C 
HETATM   12  C1  UNL     1     -17.089 -32.470  14.599  1.00  0.00     0.011 C 
HETATM   13  C3  UNL     1     -16.737 -34.112  16.373  1.00  0.00     0.011 C 
ENDBRANCH   1  11
TORSDOF 1
ENDMDL
