MODEL 1
REMARK VINA RESULT: -4.497009990      0.000      0.000
REMARK  2 active torsions:
REMARK  status: ('A' for Active; 'I' for Inactive)
REMARK    1  A    between atoms: C2_2  and  N1_3 
REMARK    2  A    between atoms: N2_5  and  N3_7 
ROOT
HETATM    1  N3  UNL     1      -0.155  33.159 -13.411  1.00  0.00    -0.224 N 
HETATM    2  C3  UNL     1      -0.958  34.094 -14.160  1.00  0.00     0.172 C 
HETATM    3  C4  UNL     1      -0.222  35.408 -14.015  1.00  0.00     0.019 C 
HETATM    4  C5  UNL     1      -0.116  36.161 -15.315  1.00  0.00     0.013 C 
HETATM    5  C6  UNL     1       1.134  34.943 -13.518  1.00  0.00     0.142 C 
HETATM    6  N4  UNL     1       0.723  33.882 -12.605  1.00  0.00    -0.122 NA
ENDROOT
BRANCH   1   7
HETATM    7  N2  UNL     1      -0.215  31.773 -13.457  1.00  0.00    -0.233 N 
HETATM    8  N1  UNL     1      -0.254  31.093 -12.386  1.00  0.00    -0.321 N 
ATOM      9  H1  UNL     1      -0.242  31.538 -11.468  1.00  0.00     0.181 HD
ATOM     10  H2  UNL     1      -0.228  31.297 -14.358  1.00  0.00     0.209 HD
BRANCH   8  11
HETATM   11  C2  UNL     1      -0.316  29.650 -12.536  1.00  0.00     0.136 C 
HETATM   12  C1  UNL     1       0.161  29.284 -13.922  1.00  0.00     0.028 C 
ENDBRANCH   8  11
ENDBRANCH   1   7
TORSDOF 2
ENDMDL
MODEL 2
REMARK VINA RESULT: -4.402363461      2.965      5.453
REMARK  2 active torsions:
REMARK  status: ('A' for Active; 'I' for Inactive)
REMARK    1  A    between atoms: C2_2  and  N1_3 
REMARK    2  A    between atoms: N2_5  and  N3_7 
ROOT
HETATM    1  N3  UNL     1      -0.230  35.721 -14.660  1.00  0.00    -0.224 N 
HETATM    2  C3  UNL     1      -0.504  34.742 -13.638  1.00  0.00     0.172 C 
HETATM    3  C4  UNL     1      -1.239  33.641 -14.371  1.00  0.00     0.019 C 
HETATM    4  C5  UNL     1      -0.748  32.267 -13.998  1.00  0.00     0.013 C 
HETATM    5  C6  UNL     1      -0.927  33.979 -15.817  1.00  0.00     0.142 C 
HETATM    6  N4  UNL     1      -1.027  35.435 -15.768  1.00  0.00    -0.122 NA
ENDROOT
BRANCH   1   7
HETATM    7  N2  UNL     1       0.666  36.780 -14.594  1.00  0.00    -0.233 N 
HETATM    8  N1  UNL     1       1.683  36.718 -13.838  1.00  0.00    -0.321 N 
ATOM      9  H1  UNL     1       1.873  35.899 -13.261  1.00  0.00     0.181 HD
ATOM     10  H2  UNL     1       0.504  37.614 -15.157  1.00  0.00     0.209 HD
BRANCH   8  11
HETATM   11  C2  UNL     1       2.561  37.874 -13.837  1.00  0.00     0.136 C 
HETATM   12  C1  UNL     1       1.797  39.066 -14.366  1.00  0.00     0.028 C 
ENDBRANCH   8  11
ENDBRANCH   1   7
TORSDOF 2
ENDMDL
MODEL 3
REMARK VINA RESULT: -4.386014422      2.205      5.203
REMARK  2 active torsions:
REMARK  status: ('A' for Active; 'I' for Inactive)
REMARK    1  A    between atoms: C2_2  and  N1_3 
REMARK    2  A    between atoms: N2_5  and  N3_7 
ROOT
HETATM    1  N3  UNL     1       0.424  34.398 -13.312  1.00  0.00    -0.224 N 
HETATM    2  C3  UNL     1       0.520  33.091 -12.709  1.00  0.00     0.172 C 
HETATM    3  C4  UNL     1      -0.626  32.318 -13.325  1.00  0.00     0.019 C 
HETATM    4  C5  UNL     1      -0.225  30.930 -13.754  1.00  0.00     0.013 C 
HETATM    5  C6  UNL     1      -0.982  33.195 -14.511  1.00  0.00     0.142 C 
HETATM    6  N4  UNL     1      -0.832  34.516 -13.907  1.00  0.00    -0.122 NA
ENDROOT
BRANCH   1   7
HETATM    7  N2  UNL     1       1.391  35.394 -13.321  1.00  0.00    -0.233 N 
HETATM    8  N1  UNL     1       1.261  36.412 -14.067  1.00  0.00    -0.321 N 
ATOM      9  H1  UNL     1       0.452  36.530 -14.677  1.00  0.00     0.181 HD
ATOM     10  H2  UNL     1       2.212  35.306 -12.724  1.00  0.00     0.209 HD
BRANCH   8  11
HETATM   11  C2  UNL     1       2.323  37.400 -14.007  1.00  0.00     0.136 C 
HETATM   12  C1  UNL     1       1.768  38.738 -14.436  1.00  0.00     0.028 C 
ENDBRANCH   8  11
ENDBRANCH   1   7
TORSDOF 2
ENDMDL
MODEL 4
REMARK VINA RESULT: -4.333614355      4.188      6.858
REMARK  2 active torsions:
REMARK  status: ('A' for Active; 'I' for Inactive)
REMARK    1  A    between atoms: C2_2  and  N1_3 
REMARK    2  A    between atoms: N2_5  and  N3_7 
ROOT
HETATM    1  N3  UNL     1       1.436  37.621 -14.529  1.00  0.00    -0.224 N 
HETATM    2  C3  UNL     1       0.217  37.015 -15.005  1.00  0.00     0.172 C 
HETATM    3  C4  UNL     1       0.405  35.541 -14.723  1.00  0.00     0.019 C 
HETATM    4  C5  UNL     1      -0.820  34.904 -14.120  1.00  0.00     0.013 C 
HETATM    5  C6  UNL     1       1.567  35.564 -13.747  1.00  0.00     0.142 C 
HETATM    6  N4  UNL     1       2.384  36.615 -14.346  1.00  0.00    -0.122 NA
ENDROOT
BRANCH   1   7
HETATM    7  N2  UNL     1       1.667  38.967 -14.282  1.00  0.00    -0.233 N 
HETATM    8  N1  UNL     1       2.346  39.331 -13.274  1.00  0.00    -0.321 N 
ATOM      9  H1  UNL     1       2.740  38.654 -12.620  1.00  0.00     0.181 HD
ATOM     10  H2  UNL     1       1.287  39.670 -14.915  1.00  0.00     0.209 HD
BRANCH   8  11
HETATM   11  C2  UNL     1       2.534  40.761 -13.100  1.00  0.00     0.136 C 
HETATM   12  C1  UNL     1       4.002  41.081 -13.263  1.00  0.00     0.028 C 
ENDBRANCH   8  11
ENDBRANCH   1   7
TORSDOF 2
ENDMDL
MODEL 5
REMARK VINA RESULT: -4.329406860      1.276      4.978
REMARK  2 active torsions:
REMARK  status: ('A' for Active; 'I' for Inactive)
REMARK    1  A    between atoms: C2_2  and  N1_3 
REMARK    2  A    between atoms: N2_5  and  N3_7 
ROOT
HETATM    1  N3  UNL     1      -0.996  31.979 -13.612  1.00  0.00    -0.224 N 
HETATM    2  C3  UNL     1       0.093  31.107 -13.246  1.00  0.00     0.172 C 
HETATM    3  C4  UNL     1      -0.522  29.725 -13.264  1.00  0.00     0.019 C 
HETATM    4  C5  UNL     1       0.355  28.708 -13.946  1.00  0.00     0.013 C 
HETATM    5  C6  UNL     1      -1.805  29.973 -14.036  1.00  0.00     0.142 C 
HETATM    6  N4  UNL     1      -2.189  31.269 -13.485  1.00  0.00    -0.122 NA
ENDROOT
BRANCH   1   7
HETATM    7  N2  UNL     1      -0.913  33.302 -14.025  1.00  0.00    -0.233 N 
HETATM    8  N1  UNL     1      -0.010  34.066 -13.565  1.00  0.00    -0.321 N 
ATOM      9  H1  UNL     1       0.675  33.738 -12.884  1.00  0.00     0.181 HD
ATOM     10  H2  UNL     1      -1.583  33.663 -14.704  1.00  0.00     0.209 HD
BRANCH   8  11
HETATM   11  C2  UNL     1      -0.004  35.432 -14.058  1.00  0.00     0.136 C 
HETATM   12  C1  UNL     1       1.429  35.883 -14.223  1.00  0.00     0.028 C 
ENDBRANCH   8  11
ENDBRANCH   1   7
TORSDOF 2
ENDMDL
