MODEL 1
REMARK VINA RESULT: -8.937184048      0.000      0.000
REMARK  13 active torsions:
REMARK  status: ('A' for Active; 'I' for Inactive)
REMARK    1  A    between atoms: C3_3  and  C4_4 
REMARK    2  A    between atoms: C5_15  and  S1_16 
REMARK    3  A    between atoms: S1_16  and  C6_17 
REMARK    4  A    between atoms: C6_17  and  C7_18 
REMARK    5  A    between atoms: C7_18  and  O1_19 
REMARK    6  A    between atoms: C7_18  and  N7_21 
REMARK    7  A    between atoms: C7_18  and  O3_24 
REMARK    8  A    between atoms: N7_21  and  O2_22 
REMARK    9  A    between atoms: O3_24  and  C8_25 
REMARK   10  A    between atoms: C8_25  and  C9_27 
REMARK   11  A    between atoms: C9_27  and  O5_28 
REMARK   12  A    between atoms: C9_27  and  N8_30 
REMARK   13  A    between atoms: C10_33  and  O6_34 
ROOT
HETATM    1  C7  UNL     1     -17.934   3.246  10.989  1.00  0.00     0.282 C 
ENDROOT
BRANCH   1   2
HETATM    2  C6  UNL     1     -17.147   2.638   9.859  1.00  0.00     0.172 C 
BRANCH   2   3
HETATM    3  S1  UNL     1     -15.450   3.260   9.779  1.00  0.00    -0.103 SA
BRANCH   3   4
HETATM    4  C5  UNL     1     -14.552   2.662  11.179  1.00  0.00     0.093 A 
HETATM    5  C2  UNL     1     -13.537   1.728  11.167  1.00  0.00     0.005 A 
HETATM    6  C1  UNL     1     -12.967   1.017   9.995  1.00  0.00     0.054 C 
HETATM    7  C3  UNL     1     -13.113   1.550  12.461  1.00  0.00     0.102 A 
HETATM    8  N5  UNL     1     -13.870   2.366  13.214  1.00  0.00    -0.296 N 
HETATM    9  N6  UNL     1     -14.726   3.029  12.456  1.00  0.00    -0.293 N 
ATOM     10  H5  UNL     1     -13.795   2.460  14.227  1.00  0.00     0.187 HD
ATOM     11  H6  UNL     1     -15.409   3.709  12.789  1.00  0.00     0.187 HD
BRANCH   7  12
HETATM   12  C4  UNL     1     -12.061   0.661  12.943  1.00  0.00     0.160 A 
HETATM   13  N1  UNL     1     -10.868   0.972  13.469  1.00  0.00    -0.268 N 
HETATM   14  N2  UNL     1     -10.217  -0.155  13.779  1.00  0.00    -0.007 NA
ATOM     15  H1  UNL     1     -10.513   1.918  13.610  1.00  0.00     0.185 HD
HETATM   16  N3  UNL     1     -10.989  -1.182  13.452  1.00  0.00    -0.007 NA
HETATM   17  N4  UNL     1     -12.111  -0.683  12.944  1.00  0.00    -0.268 N 
ATOM     18  H4  UNL     1     -12.896  -1.239  12.604  1.00  0.00     0.185 HD
ENDBRANCH   7  12
ENDBRANCH   3   4
ENDBRANCH   2   3
ENDBRANCH   1   2
BRANCH   1  19
HETATM   19  O1  UNL     1     -19.257   3.487  10.637  1.00  0.00    -0.350 OA
ATOM     20  H1  UNL     1     -19.816   3.595  11.397  1.00  0.00     0.214 HD
ENDBRANCH   1  19
BRANCH   1  21
HETATM   21  N7  UNL     1     -17.835   2.389  12.150  1.00  0.00    -0.033 NA
BRANCH  21  22
HETATM   22  O2  UNL     1     -19.063   1.887  12.405  1.00  0.00    -0.291 OA
ATOM     23  H2  UNL     1     -19.137   1.051  11.961  1.00  0.00     0.239 HD
ENDBRANCH  21  22
ENDBRANCH   1  21
BRANCH   1  24
HETATM   24  O3  UNL     1     -17.337   4.515  11.296  1.00  0.00    -0.258 OA
BRANCH  24  25
HETATM   25  C8  UNL     1     -18.063   5.389  12.145  1.00  0.00     0.340 C 
HETATM   26  O4  UNL     1     -18.587   6.387  11.627  1.00  0.00    -0.255 OA
BRANCH  25  27
HETATM   27  C9  UNL     1     -18.145   5.067  13.537  1.00  0.00     0.243 C 
BRANCH  27  28
HETATM   28  O5  UNL     1     -16.997   4.826  14.100  1.00  0.00    -0.340 OA
ATOM     29  H5  UNL     1     -17.059   4.503  14.991  1.00  0.00     0.219 HD
ENDBRANCH  27  28
BRANCH  27  30
HETATM   30  N8  UNL     1     -19.293   4.983  14.349  1.00  0.00    -0.174 N 
HETATM   31  N9  UNL     1     -20.131   6.041  14.479  1.00  0.00    -0.252 N 
HETATM   32  C10 UNL     1     -21.140   5.721  15.295  1.00  0.00     0.240 A 
ATOM     33  H9  UNL     1     -20.010   6.945  14.023  1.00  0.00     0.191 HD
HETATM   34  N10 UNL     1     -20.968   4.458  15.703  1.00  0.00    -0.271 N 
HETATM   35  C11 UNL     1     -19.806   4.025  15.095  1.00  0.00     0.351 A 
ATOM     36  H10 UNL     1     -21.570   3.925  16.331  1.00  0.00     0.174 HD
HETATM   37  O7  UNL     1     -19.355   2.860  15.273  1.00  0.00    -0.244 OA
BRANCH  32  38
HETATM   38  O6  UNL     1     -22.202   6.525  15.682  1.00  0.00    -0.331 OA
ATOM     39  H6  UNL     1     -22.424   6.809  16.561  1.00  0.00     0.221 HD
ENDBRANCH  32  38
ENDBRANCH  27  30
ENDBRANCH  25  27
ENDBRANCH  24  25
ENDBRANCH   1  24
TORSDOF 13
ENDMDL
MODEL 2
REMARK VINA RESULT: -8.844039887      1.541      2.642
REMARK  13 active torsions:
REMARK  status: ('A' for Active; 'I' for Inactive)
REMARK    1  A    between atoms: C3_3  and  C4_4 
REMARK    2  A    between atoms: C5_15  and  S1_16 
REMARK    3  A    between atoms: S1_16  and  C6_17 
REMARK    4  A    between atoms: C6_17  and  C7_18 
REMARK    5  A    between atoms: C7_18  and  O1_19 
REMARK    6  A    between atoms: C7_18  and  N7_21 
REMARK    7  A    between atoms: C7_18  and  O3_24 
REMARK    8  A    between atoms: N7_21  and  O2_22 
REMARK    9  A    between atoms: O3_24  and  C8_25 
REMARK   10  A    between atoms: C8_25  and  C9_27 
REMARK   11  A    between atoms: C9_27  and  O5_28 
REMARK   12  A    between atoms: C9_27  and  N8_30 
REMARK   13  A    between atoms: C10_33  and  O6_34 
ROOT
HETATM    1  C7  UNL     1     -17.492   3.202  11.765  1.00  0.00     0.282 C 
ENDROOT
BRANCH   1   2
HETATM    2  C6  UNL     1     -17.193   2.764  10.356  1.00  0.00     0.172 C 
BRANCH   2   3
HETATM    3  S1  UNL     1     -15.551   3.284   9.800  1.00  0.00    -0.103 SA
BRANCH   3   4
HETATM    4  C5  UNL     1     -14.371   2.051  10.258  1.00  0.00     0.093 A 
HETATM    5  C2  UNL     1     -13.685   1.973  11.453  1.00  0.00     0.005 A 
HETATM    6  C1  UNL     1     -13.776   2.889  12.617  1.00  0.00     0.054 C 
HETATM    7  C3  UNL     1     -12.872   0.868  11.399  1.00  0.00     0.102 A 
HETATM    8  N5  UNL     1     -13.079   0.314  10.193  1.00  0.00    -0.296 N 
HETATM    9  N6  UNL     1     -13.969   1.013   9.512  1.00  0.00    -0.293 N 
ATOM     10  H5  UNL     1     -12.614  -0.528   9.851  1.00  0.00     0.187 HD
ATOM     11  H6  UNL     1     -14.298   0.798   8.570  1.00  0.00     0.187 HD
BRANCH   7  12
HETATM   12  C4  UNL     1     -11.959   0.379  12.428  1.00  0.00     0.160 A 
HETATM   13  N1  UNL     1     -10.956   1.022  13.042  1.00  0.00    -0.268 N 
HETATM   14  N2  UNL     1     -10.378   0.197  13.921  1.00  0.00    -0.007 NA
ATOM     15  H1  UNL     1     -10.678   1.988  12.866  1.00  0.00     0.185 HD
HETATM   16  N3  UNL     1     -11.006  -0.969  13.870  1.00  0.00    -0.007 NA
HETATM   17  N4  UNL     1     -11.968  -0.856  12.960  1.00  0.00    -0.268 N 
ATOM     18  H4  UNL     1     -12.619  -1.599  12.703  1.00  0.00     0.185 HD
ENDBRANCH   7  12
ENDBRANCH   3   4
ENDBRANCH   2   3
ENDBRANCH   1   2
BRANCH   1  19
HETATM   19  O1  UNL     1     -17.047   2.281  12.706  1.00  0.00    -0.350 OA
ATOM     20  H1  UNL     1     -17.563   2.305  13.503  1.00  0.00     0.214 HD
ENDBRANCH   1  19
BRANCH   1  21
HETATM   21  N7  UNL     1     -16.922   4.513  11.985  1.00  0.00    -0.033 NA
BRANCH  21  22
HETATM   22  O2  UNL     1     -17.802   5.433  11.536  1.00  0.00    -0.291 OA
ATOM     23  H2  UNL     1     -17.441   6.294  11.708  1.00  0.00     0.239 HD
ENDBRANCH  21  22
ENDBRANCH   1  21
BRANCH   1  24
HETATM   24  O3  UNL     1     -18.919   3.287  11.896  1.00  0.00    -0.258 OA
BRANCH  24  25
HETATM   25  C8  UNL     1     -19.516   2.602  12.984  1.00  0.00     0.340 C 
HETATM   26  O4  UNL     1     -19.586   1.364  12.912  1.00  0.00    -0.255 OA
BRANCH  25  27
HETATM   27  C9  UNL     1     -19.996   3.373  14.090  1.00  0.00     0.243 C 
BRANCH  27  28
HETATM   28  O5  UNL     1     -20.679   2.690  14.962  1.00  0.00    -0.340 OA
ATOM     29  H5  UNL     1     -21.604   2.615  14.762  1.00  0.00     0.219 HD
ENDBRANCH  27  28
BRANCH  27  30
HETATM   30  N8  UNL     1     -19.821   4.747  14.340  1.00  0.00    -0.174 N 
HETATM   31  N9  UNL     1     -18.592   5.316  14.268  1.00  0.00    -0.252 N 
HETATM   32  C10 UNL     1     -18.680   6.620  14.544  1.00  0.00     0.240 A 
ATOM     33  H9  UNL     1     -17.730   4.822  14.038  1.00  0.00     0.191 HD
HETATM   34  N10 UNL     1     -19.962   6.912  14.797  1.00  0.00    -0.271 N 
HETATM   35  C11 UNL     1     -20.648   5.721  14.662  1.00  0.00     0.351 A 
ATOM     36  H10 UNL     1     -20.350   7.823  15.039  1.00  0.00     0.174 HD
HETATM   37  O7  UNL     1     -21.896   5.648  14.837  1.00  0.00    -0.244 OA
BRANCH  32  38
HETATM   38  O6  UNL     1     -17.650   7.549  14.575  1.00  0.00    -0.331 OA
ATOM     39  H6  UNL     1     -17.150   7.885  13.840  1.00  0.00     0.221 HD
ENDBRANCH  32  38
ENDBRANCH  27  30
ENDBRANCH  25  27
ENDBRANCH  24  25
ENDBRANCH   1  24
TORSDOF 13
ENDMDL
MODEL 3
REMARK VINA RESULT: -8.843916807      1.070      1.556
REMARK  13 active torsions:
REMARK  status: ('A' for Active; 'I' for Inactive)
REMARK    1  A    between atoms: C3_3  and  C4_4 
REMARK    2  A    between atoms: C5_15  and  S1_16 
REMARK    3  A    between atoms: S1_16  and  C6_17 
REMARK    4  A    between atoms: C6_17  and  C7_18 
REMARK    5  A    between atoms: C7_18  and  O1_19 
REMARK    6  A    between atoms: C7_18  and  N7_21 
REMARK    7  A    between atoms: C7_18  and  O3_24 
REMARK    8  A    between atoms: N7_21  and  O2_22 
REMARK    9  A    between atoms: O3_24  and  C8_25 
REMARK   10  A    between atoms: C8_25  and  C9_27 
REMARK   11  A    between atoms: C9_27  and  O5_28 
REMARK   12  A    between atoms: C9_27  and  N8_30 
REMARK   13  A    between atoms: C10_33  and  O6_34 
ROOT
HETATM    1  C7  UNL     1     -17.301   3.230  11.318  1.00  0.00     0.282 C 
ENDROOT
BRANCH   1   2
HETATM    2  C6  UNL     1     -16.377   2.736  10.237  1.00  0.00     0.172 C 
BRANCH   2   3
HETATM    3  S1  UNL     1     -14.646   3.160  10.555  1.00  0.00    -0.103 SA
BRANCH   3   4
HETATM    4  C5  UNL     1     -13.776   1.700  11.041  1.00  0.00     0.093 A 
HETATM    5  C2  UNL     1     -13.308   1.405  12.305  1.00  0.00     0.005 A 
HETATM    6  C1  UNL     1     -13.422   2.228  13.535  1.00  0.00     0.054 C 
HETATM    7  C3  UNL     1     -12.694   0.178  12.250  1.00  0.00     0.102 A 
HETATM    8  N5  UNL     1     -12.801  -0.234  10.976  1.00  0.00    -0.296 N 
HETATM    9  N6  UNL     1     -13.445   0.668  10.254  1.00  0.00    -0.293 N 
ATOM     10  H5  UNL     1     -12.438  -1.116  10.616  1.00  0.00     0.187 HD
ATOM     11  H6  UNL     1     -13.654   0.590   9.258  1.00  0.00     0.187 HD
BRANCH   7  12
HETATM   12  C4  UNL     1     -12.048  -0.549  13.339  1.00  0.00     0.160 A 
HETATM   13  N1  UNL     1     -12.606  -1.268  14.322  1.00  0.00    -0.268 N 
HETATM   14  N2  UNL     1     -11.642  -1.764  15.105  1.00  0.00    -0.007 NA
ATOM     15  H1  UNL     1     -13.607  -1.413  14.453  1.00  0.00     0.185 HD
HETATM   16  N3  UNL     1     -10.472  -1.365  14.626  1.00  0.00    -0.007 NA
HETATM   17  N4  UNL     1     -10.721  -0.625  13.551  1.00  0.00    -0.268 N 
ATOM     18  H4  UNL     1     -10.010  -0.179  12.971  1.00  0.00     0.185 HD
ENDBRANCH   7  12
ENDBRANCH   3   4
ENDBRANCH   2   3
ENDBRANCH   1   2
BRANCH   1  19
HETATM   19  O1  UNL     1     -18.633   3.203  10.921  1.00  0.00    -0.350 OA
ATOM     20  H1  UNL     1     -19.022   2.343  11.030  1.00  0.00     0.214 HD
ENDBRANCH   1  19
BRANCH   1  21
HETATM   21  N7  UNL     1     -17.083   2.454  12.520  1.00  0.00    -0.033 NA
BRANCH  21  22
HETATM   22  O2  UNL     1     -18.258   1.889  12.871  1.00  0.00    -0.291 OA
ATOM     23  H2  UNL     1     -18.171   1.556  13.756  1.00  0.00     0.239 HD
ENDBRANCH  21  22
ENDBRANCH   1  21
BRANCH   1  24
HETATM   24  O3  UNL     1     -16.963   4.600  11.581  1.00  0.00    -0.258 OA
BRANCH  24  25
HETATM   25  C8  UNL     1     -17.919   5.386  12.273  1.00  0.00     0.340 C 
HETATM   26  O4  UNL     1     -18.574   6.207  11.609  1.00  0.00    -0.255 OA
BRANCH  25  27
HETATM   27  C9  UNL     1     -18.070   5.186  13.682  1.00  0.00     0.243 C 
BRANCH  27  28
HETATM   28  O5  UNL     1     -16.947   5.103  14.333  1.00  0.00    -0.340 OA
ATOM     29  H5  UNL     1     -16.299   4.541  13.925  1.00  0.00     0.219 HD
ENDBRANCH  27  28
BRANCH  27  30
HETATM   30  N8  UNL     1     -19.259   5.072  14.427  1.00  0.00    -0.174 N 
HETATM   31  N9  UNL     1     -20.117   6.117  14.530  1.00  0.00    -0.252 N 
HETATM   32  C10 UNL     1     -21.166   5.769  15.282  1.00  0.00     0.240 A 
ATOM     33  H9  UNL     1     -19.984   7.031  14.098  1.00  0.00     0.191 HD
HETATM   34  N10 UNL     1     -21.000   4.500  15.675  1.00  0.00    -0.271 N 
HETATM   35  C11 UNL     1     -19.800   4.094  15.125  1.00  0.00     0.351 A 
ATOM     36  H10 UNL     1     -21.628   3.948  16.259  1.00  0.00     0.174 HD
HETATM   37  O7  UNL     1     -19.344   2.931  15.306  1.00  0.00    -0.244 OA
BRANCH  32  38
HETATM   38  O6  UNL     1     -22.258   6.552  15.625  1.00  0.00    -0.331 OA
ATOM     39  H6  UNL     1     -22.799   6.484  16.403  1.00  0.00     0.221 HD
ENDBRANCH  32  38
ENDBRANCH  27  30
ENDBRANCH  25  27
ENDBRANCH  24  25
ENDBRANCH   1  24
TORSDOF 13
ENDMDL
MODEL 4
REMARK VINA RESULT: -8.799358389      3.409      7.946
REMARK  13 active torsions:
REMARK  status: ('A' for Active; 'I' for Inactive)
REMARK    1  A    between atoms: C3_3  and  C4_4 
REMARK    2  A    between atoms: C5_15  and  S1_16 
REMARK    3  A    between atoms: S1_16  and  C6_17 
REMARK    4  A    between atoms: C6_17  and  C7_18 
REMARK    5  A    between atoms: C7_18  and  O1_19 
REMARK    6  A    between atoms: C7_18  and  N7_21 
REMARK    7  A    between atoms: C7_18  and  O3_24 
REMARK    8  A    between atoms: N7_21  and  O2_22 
REMARK    9  A    between atoms: O3_24  and  C8_25 
REMARK   10  A    between atoms: C8_25  and  C9_27 
REMARK   11  A    between atoms: C9_27  and  O5_28 
REMARK   12  A    between atoms: C9_27  and  N8_30 
REMARK   13  A    between atoms: C10_33  and  O6_34 
ROOT
HETATM    1  C7  UNL     1     -14.306   2.048  10.366  1.00  0.00     0.282 C 
ENDROOT
BRANCH   1   2
HETATM    2  C6  UNL     1     -15.248   2.986   9.660  1.00  0.00     0.172 C 
BRANCH   2   3
HETATM    3  S1  UNL     1     -16.979   2.694  10.099  1.00  0.00    -0.103 SA
BRANCH   3   4
HETATM    4  C5  UNL     1     -17.359   3.593  11.572  1.00  0.00     0.093 A 
HETATM    5  C2  UNL     1     -18.617   3.889  12.054  1.00  0.00     0.005 A 
HETATM    6  C1  UNL     1     -19.928   3.526  11.461  1.00  0.00     0.054 C 
HETATM    7  C3  UNL     1     -18.465   4.599  13.219  1.00  0.00     0.102 A 
HETATM    8  N5  UNL     1     -17.141   4.717  13.412  1.00  0.00    -0.296 N 
HETATM    9  N6  UNL     1     -16.479   4.120  12.435  1.00  0.00    -0.293 N 
ATOM     10  H5  UNL     1     -16.707   5.198  14.199  1.00  0.00     0.187 HD
ATOM     11  H6  UNL     1     -15.464   4.069  12.352  1.00  0.00     0.187 HD
BRANCH   7  12
HETATM   12  C4  UNL     1     -19.513   5.130  14.086  1.00  0.00     0.160 A 
HETATM   13  N1  UNL     1     -20.319   4.476  14.934  1.00  0.00    -0.268 N 
HETATM   14  N2  UNL     1     -21.133   5.354  15.531  1.00  0.00    -0.007 NA
ATOM     15  H1  UNL     1     -20.312   3.469  15.099  1.00  0.00     0.185 HD
HETATM   16  N3  UNL     1     -20.851   6.563  15.067  1.00  0.00    -0.007 NA
HETATM   17  N4  UNL     1     -19.865   6.425  14.188  1.00  0.00    -0.268 N 
ATOM     18  H4  UNL     1     -19.436   7.189  13.665  1.00  0.00     0.185 HD
ENDBRANCH   7  12
ENDBRANCH   3   4
ENDBRANCH   2   3
ENDBRANCH   1   2
BRANCH   1  19
HETATM   19  O1  UNL     1     -14.977   0.994  10.977  1.00  0.00    -0.350 OA
ATOM     20  H1  UNL     1     -15.059   1.118  11.916  1.00  0.00     0.214 HD
ENDBRANCH   1  19
BRANCH   1  21
HETATM   21  N7  UNL     1     -13.311   1.578   9.427  1.00  0.00    -0.033 NA
BRANCH  21  22
HETATM   22  O2  UNL     1     -13.043   0.286   9.712  1.00  0.00    -0.291 OA
ATOM     23  H2  UNL     1     -12.312   0.011   9.172  1.00  0.00     0.239 HD
ENDBRANCH  21  22
ENDBRANCH   1  21
BRANCH   1  24
HETATM   24  O3  UNL     1     -13.652   2.793  11.404  1.00  0.00    -0.258 OA
BRANCH  24  25
HETATM   25  C8  UNL     1     -13.448   2.141  12.646  1.00  0.00     0.340 C 
HETATM   26  O4  UNL     1     -14.338   2.252  13.504  1.00  0.00    -0.255 OA
BRANCH  25  27
HETATM   27  C9  UNL     1     -12.238   1.400  12.832  1.00  0.00     0.243 C 
BRANCH  27  28
HETATM   28  O5  UNL     1     -11.342   1.599  11.910  1.00  0.00    -0.340 OA
ATOM     29  H5  UNL     1     -10.518   1.153  12.063  1.00  0.00     0.219 HD
ENDBRANCH  27  28
BRANCH  27  30
HETATM   30  N8  UNL     1     -11.910   0.505  13.869  1.00  0.00    -0.174 N 
HETATM   31  N9  UNL     1     -12.863   0.043  14.715  1.00  0.00    -0.252 N 
HETATM   32  C10 UNL     1     -12.313  -0.786  15.607  1.00  0.00     0.240 A 
ATOM     33  H9  UNL     1     -13.851   0.292  14.677  1.00  0.00     0.191 HD
HETATM   34  N10 UNL     1     -11.002  -0.871  15.351  1.00  0.00    -0.271 N 
HETATM   35  C11 UNL     1     -10.782  -0.054  14.259  1.00  0.00     0.351 A 
ATOM     36  H10 UNL     1     -10.310  -1.425  15.855  1.00  0.00     0.174 HD
HETATM   37  O7  UNL     1      -9.633   0.093  13.757  1.00  0.00    -0.244 OA
BRANCH  32  38
HETATM   38  O6  UNL     1     -12.949  -1.463  16.637  1.00  0.00    -0.331 OA
ATOM     39  H6  UNL     1     -12.679  -2.274  17.052  1.00  0.00     0.221 HD
ENDBRANCH  32  38
ENDBRANCH  27  30
ENDBRANCH  25  27
ENDBRANCH  24  25
ENDBRANCH   1  24
TORSDOF 13
ENDMDL
MODEL 5
REMARK VINA RESULT: -8.764953461      1.811      2.884
REMARK  13 active torsions:
REMARK  status: ('A' for Active; 'I' for Inactive)
REMARK    1  A    between atoms: C3_3  and  C4_4 
REMARK    2  A    between atoms: C5_15  and  S1_16 
REMARK    3  A    between atoms: S1_16  and  C6_17 
REMARK    4  A    between atoms: C6_17  and  C7_18 
REMARK    5  A    between atoms: C7_18  and  O1_19 
REMARK    6  A    between atoms: C7_18  and  N7_21 
REMARK    7  A    between atoms: C7_18  and  O3_24 
REMARK    8  A    between atoms: N7_21  and  O2_22 
REMARK    9  A    between atoms: O3_24  and  C8_25 
REMARK   10  A    between atoms: C8_25  and  C9_27 
REMARK   11  A    between atoms: C9_27  and  O5_28 
REMARK   12  A    between atoms: C9_27  and  N8_30 
REMARK   13  A    between atoms: C10_33  and  O6_34 
ROOT
HETATM    1  C7  UNL     1     -16.022   3.034  10.588  1.00  0.00     0.282 C 
ENDROOT
BRANCH   1   2
HETATM    2  C6  UNL     1     -15.096   3.225   9.417  1.00  0.00     0.172 C 
BRANCH   2   3
HETATM    3  S1  UNL     1     -13.353   3.225   9.902  1.00  0.00    -0.103 SA
BRANCH   3   4
HETATM    4  C5  UNL     1     -12.993   1.721  10.757  1.00  0.00     0.093 A 
HETATM    5  C2  UNL     1     -12.518   1.601  12.047  1.00  0.00     0.005 A 
HETATM    6  C1  UNL     1     -12.205   2.688  13.007  1.00  0.00     0.054 C 
HETATM    7  C3  UNL     1     -12.377   0.263  12.320  1.00  0.00     0.102 A 
HETATM    8  N5  UNL     1     -12.760  -0.385  11.207  1.00  0.00    -0.296 N 
HETATM    9  N6  UNL     1     -13.127   0.477  10.276  1.00  0.00    -0.293 N 
ATOM     10  H5  UNL     1     -12.766  -1.399  11.097  1.00  0.00     0.187 HD
ATOM     11  H6  UNL     1     -13.459   0.235   9.342  1.00  0.00     0.187 HD
BRANCH   7  12
HETATM   12  C4  UNL     1     -11.905  -0.352  13.557  1.00  0.00     0.160 A 
HETATM   13  N1  UNL     1     -12.496  -0.391  14.759  1.00  0.00    -0.268 N 
HETATM   14  N2  UNL     1     -11.713  -1.061  15.612  1.00  0.00    -0.007 NA
ATOM     15  H1  UNL     1     -13.400   0.024  14.987  1.00  0.00     0.185 HD
HETATM   16  N3  UNL     1     -10.626  -1.448  14.960  1.00  0.00    -0.007 NA
HETATM   17  N4  UNL     1     -10.744  -1.015  13.709  1.00  0.00    -0.268 N 
ATOM     18  H4  UNL     1     -10.055  -1.164  12.972  1.00  0.00     0.185 HD
ENDBRANCH   7  12
ENDBRANCH   3   4
ENDBRANCH   2   3
ENDBRANCH   1   2
BRANCH   1  19
HETATM   19  O1  UNL     1     -16.110   1.701  10.974  1.00  0.00    -0.350 OA
ATOM     20  H1  UNL     1     -15.477   1.155  10.522  1.00  0.00     0.214 HD
ENDBRANCH   1  19
BRANCH   1  21
HETATM   21  N7  UNL     1     -15.590   3.882  11.677  1.00  0.00    -0.033 NA
BRANCH  21  22
HETATM   22  O2  UNL     1     -15.650   3.160  12.817  1.00  0.00    -0.291 OA
ATOM     23  H2  UNL     1     -16.496   3.317  13.220  1.00  0.00     0.239 HD
ENDBRANCH  21  22
ENDBRANCH   1  21
BRANCH   1  24
HETATM   24  O3  UNL     1     -17.334   3.442  10.171  1.00  0.00    -0.258 OA
BRANCH  24  25
HETATM   25  C8  UNL     1     -18.427   2.633  10.572  1.00  0.00     0.340 C 
HETATM   26  O4  UNL     1     -18.821   1.767   9.775  1.00  0.00    -0.255 OA
BRANCH  25  27
HETATM   27  C9  UNL     1     -19.004   2.864  11.861  1.00  0.00     0.243 C 
BRANCH  27  28
HETATM   28  O5  UNL     1     -19.824   1.933  12.254  1.00  0.00    -0.340 OA
ATOM     29  H5  UNL     1     -19.531   1.450  13.017  1.00  0.00     0.219 HD
ENDBRANCH  27  28
BRANCH  27  30
HETATM   30  N8  UNL     1     -18.795   3.950  12.732  1.00  0.00    -0.174 N 
HETATM   31  N9  UNL     1     -18.307   5.127  12.270  1.00  0.00    -0.252 N 
HETATM   32  C10 UNL     1     -18.196   5.998  13.277  1.00  0.00     0.240 A 
ATOM     33  H9  UNL     1     -18.061   5.320  11.299  1.00  0.00     0.191 HD
HETATM   34  N10 UNL     1     -18.608   5.398  14.401  1.00  0.00    -0.271 N 
HETATM   35  C11 UNL     1     -18.975   4.120  14.027  1.00  0.00     0.351 A 
ATOM     36  H10 UNL     1     -18.645   5.800  15.337  1.00  0.00     0.174 HD
HETATM   37  O7  UNL     1     -19.416   3.282  14.862  1.00  0.00    -0.244 OA
BRANCH  32  38
HETATM   38  O6  UNL     1     -17.737   7.306  13.218  1.00  0.00    -0.331 OA
ATOM     39  H6  UNL     1     -17.922   7.955  12.550  1.00  0.00     0.221 HD
ENDBRANCH  32  38
ENDBRANCH  27  30
ENDBRANCH  25  27
ENDBRANCH  24  25
ENDBRANCH   1  24
TORSDOF 13
ENDMDL
