MODEL 1
REMARK VINA RESULT: -4.773012711      0.000      0.000
REMARK  2 active torsions:
REMARK  status: ('A' for Active; 'I' for Inactive)
REMARK    1  A    between atoms: O1_1  and  C1_3 
REMARK    2  A    between atoms: C1_3  and  C2_4 
ROOT
HETATM    1  C2  UNL     1      15.011  19.499  16.575  1.00  0.00     0.146 C 
HETATM    2  C3  UNL     1      15.764  18.891  17.726  1.00  0.00     0.037 C 
HETATM    3  C4  UNL     1      17.203  19.059  17.295  1.00  0.00     0.043 C 
HETATM    4  C5  UNL     1      17.032  19.391  15.831  1.00  0.00     0.085 C 
HETATM    5  C6  UNL     1      16.816  18.153  14.997  1.00  0.00     0.066 C 
HETATM    6  C7  UNL     1      18.180  17.978  14.350  1.00  0.00     0.170 C 
HETATM    7  O2  UNL     1      19.056  18.808  15.050  1.00  0.00    -0.388 OA
HETATM    8  C8  UNL     1      18.277  19.976  15.219  1.00  0.00     0.205 C 
HETATM    9  O3  UNL     1      15.960  20.248  15.841  1.00  0.00    -0.370 OA
ENDROOT
BRANCH   1  10
HETATM   10  C1  UNL     1      13.928  20.419  17.102  1.00  0.00     0.196 C 
BRANCH  10  11
HETATM   11  O1  UNL     1      14.120  20.557  18.459  1.00  0.00    -0.398 OA
ATOM     12  H1  UNL     1      14.185  21.486  18.650  1.00  0.00     0.209 HD
ENDBRANCH  10  11
ENDBRANCH   1  10
TORSDOF 2
ENDMDL
MODEL 2
REMARK VINA RESULT: -4.683273127      1.677      4.208
REMARK  2 active torsions:
REMARK  status: ('A' for Active; 'I' for Inactive)
REMARK    1  A    between atoms: O1_1  and  C1_3 
REMARK    2  A    between atoms: C1_3  and  C2_4 
ROOT
HETATM    1  C2  UNL     1      18.116  18.753  15.461  1.00  0.00     0.146 C 
HETATM    2  C3  UNL     1      16.675  18.827  15.036  1.00  0.00     0.037 C 
HETATM    3  C4  UNL     1      15.970  19.133  16.337  1.00  0.00     0.043 C 
HETATM    4  C5  UNL     1      17.057  18.822  17.339  1.00  0.00     0.085 C 
HETATM    5  C6  UNL     1      17.156  17.344  17.619  1.00  0.00     0.066 C 
HETATM    6  C7  UNL     1      16.480  17.244  18.976  1.00  0.00     0.170 C 
HETATM    7  O2  UNL     1      15.817  18.455  19.174  1.00  0.00    -0.388 OA
HETATM    8  C8  UNL     1      16.769  19.388  18.704  1.00  0.00     0.205 C 
HETATM    9  O3  UNL     1      18.175  19.350  16.741  1.00  0.00    -0.370 OA
ENDROOT
BRANCH   1  10
HETATM   10  C1  UNL     1      18.975  19.536  14.489  1.00  0.00     0.196 C 
BRANCH  10  11
HETATM   11  O1  UNL     1      19.362  18.675  13.485  1.00  0.00    -0.398 OA
ATOM     12  H1  UNL     1      19.677  17.877  13.893  1.00  0.00     0.209 HD
ENDBRANCH  10  11
ENDBRANCH   1  10
TORSDOF 2
ENDMDL
MODEL 3
REMARK VINA RESULT: -4.590523036      1.134      4.199
REMARK  2 active torsions:
REMARK  status: ('A' for Active; 'I' for Inactive)
REMARK    1  A    between atoms: O1_1  and  C1_3 
REMARK    2  A    between atoms: C1_3  and  C2_4 
ROOT
HETATM    1  C2  UNL     1      17.229  18.808  15.112  1.00  0.00     0.146 C 
HETATM    2  C3  UNL     1      18.044  19.880  15.784  1.00  0.00     0.037 C 
HETATM    3  C4  UNL     1      17.596  19.770  17.223  1.00  0.00     0.043 C 
HETATM    4  C5  UNL     1      16.352  18.925  17.078  1.00  0.00     0.085 C 
HETATM    5  C6  UNL     1      15.160  19.749  16.660  1.00  0.00     0.066 C 
HETATM    6  C7  UNL     1      14.397  19.871  17.968  1.00  0.00     0.170 C 
HETATM    7  O2  UNL     1      15.277  19.468  18.974  1.00  0.00    -0.388 OA
HETATM    8  C8  UNL     1      15.892  18.339  18.386  1.00  0.00     0.205 C 
HETATM    9  O3  UNL     1      16.732  17.988  16.150  1.00  0.00    -0.370 OA
ENDROOT
BRANCH   1  10
HETATM   10  C1  UNL     1      18.117  17.993  14.193  1.00  0.00     0.196 C 
BRANCH  10  11
HETATM   11  O1  UNL     1      19.395  18.029  14.705  1.00  0.00    -0.398 OA
ATOM     12  H1  UNL     1      19.985  18.257  13.996  1.00  0.00     0.209 HD
ENDBRANCH  10  11
ENDBRANCH   1  10
TORSDOF 2
ENDMDL
MODEL 4
REMARK VINA RESULT: -4.373242714      1.367      4.532
REMARK  2 active torsions:
REMARK  status: ('A' for Active; 'I' for Inactive)
REMARK    1  A    between atoms: O1_1  and  C1_3 
REMARK    2  A    between atoms: C1_3  and  C2_4 
ROOT
HETATM    1  C2  UNL     1      16.066  19.581  15.818  1.00  0.00     0.146 C 
HETATM    2  C3  UNL     1      16.281  19.552  17.307  1.00  0.00     0.037 C 
HETATM    3  C4  UNL     1      14.865  19.508  17.836  1.00  0.00     0.043 C 
HETATM    4  C5  UNL     1      14.080  19.888  16.602  1.00  0.00     0.085 C 
HETATM    5  C6  UNL     1      14.065  21.380  16.385  1.00  0.00     0.066 C 
HETATM    6  C7  UNL     1      12.667  21.744  16.855  1.00  0.00     0.170 C 
HETATM    7  O2  UNL     1      12.185  20.634  17.548  1.00  0.00    -0.388 OA
HETATM    8  C8  UNL     1      12.615  19.568  16.725  1.00  0.00     0.205 C 
HETATM    9  O3  UNL     1      14.723  19.189  15.610  1.00  0.00    -0.370 OA
ENDROOT
BRANCH   1  10
HETATM   10  C1  UNL     1      16.998  18.592  15.149  1.00  0.00     0.196 C 
BRANCH  10  11
HETATM   11  O1  UNL     1      18.086  18.415  15.977  1.00  0.00    -0.398 OA
ATOM     12  H1  UNL     1      17.973  18.985  16.729  1.00  0.00     0.209 HD
ENDBRANCH  10  11
ENDBRANCH   1  10
TORSDOF 2
ENDMDL
MODEL 5
REMARK VINA RESULT: -4.301197313      1.713      2.341
REMARK  2 active torsions:
REMARK  status: ('A' for Active; 'I' for Inactive)
REMARK    1  A    between atoms: O1_1  and  C1_3 
REMARK    2  A    between atoms: C1_3  and  C2_4 
ROOT
HETATM    1  C2  UNL     1      16.549  19.210  17.585  1.00  0.00     0.146 C 
HETATM    2  C3  UNL     1      15.537  19.572  16.532  1.00  0.00     0.037 C 
HETATM    3  C4  UNL     1      16.112  18.920  15.295  1.00  0.00     0.043 C 
HETATM    4  C5  UNL     1      17.519  18.614  15.753  1.00  0.00     0.085 C 
HETATM    5  C6  UNL     1      18.415  19.823  15.660  1.00  0.00     0.066 C 
HETATM    6  C7  UNL     1      19.221  19.512  14.410  1.00  0.00     0.170 C 
HETATM    7  O2  UNL     1      18.561  18.463  13.770  1.00  0.00    -0.388 OA
HETATM    8  C8  UNL     1      18.220  17.627  14.858  1.00  0.00     0.205 C 
HETATM    9  O3  UNL     1      17.326  18.164  17.036  1.00  0.00    -0.370 OA
ENDROOT
BRANCH   1  10
HETATM   10  C1  UNL     1      15.837  18.722  18.830  1.00  0.00     0.196 C 
BRANCH  10  11
HETATM   11  O1  UNL     1      16.298  17.453  19.106  1.00  0.00    -0.398 OA
ATOM     12  H1  UNL     1      16.822  17.501  19.897  1.00  0.00     0.209 HD
ENDBRANCH  10  11
ENDBRANCH   1  10
TORSDOF 2
ENDMDL
