MODEL 1
REMARK VINA RESULT: -5.320498250      0.000      0.000
REMARK  4 active torsions:
REMARK  status: ('A' for Active; 'I' for Inactive)
REMARK    1  A    between atoms: N1_1  and  C1_4 
REMARK    2  A    between atoms: C2_10  and  C3_11 
REMARK    3  A    between atoms: C3_11  and  N4_12 
REMARK    4  A    between atoms: N4_12  and  C4_14 
ROOT
HETATM    1  N4  UNL     1      -4.758  11.845  13.319  1.00  0.00    -0.365 N 
ATOM      2  H4  UNL     1      -3.894  12.068  13.814  1.00  0.00     0.161 HD
ENDROOT
BRANCH   1   3
HETATM    3  C3  UNL     1      -5.092  10.450  13.185  1.00  0.00     0.184 C 
BRANCH   3   4
HETATM    4  C2  UNL     1      -4.146   9.744  12.279  1.00  0.00     0.097 A 
HETATM    5  C1  UNL     1      -4.342   8.489  11.752  1.00  0.00     0.147 A 
HETATM    6  N2  UNL     1      -3.274   8.213  10.994  1.00  0.00    -0.224 N 
HETATM    7  O1  UNL     1      -2.470   9.238  11.051  1.00  0.00    -0.155 OA
ATOM      8  H2  UNL     1      -3.117   7.354  10.466  1.00  0.00     0.198 HD
HETATM    9  N3  UNL     1      -2.972  10.173  11.818  1.00  0.00    -0.240 N 
ATOM     10  H3  UNL     1      -2.540  11.073  12.027  1.00  0.00     0.196 HD
BRANCH   5  11
HETATM   11  N1  UNL     1      -5.334   7.691  11.919  1.00  0.00    -0.382 N 
ATOM     12  H12 UNL     1      -5.606   7.173  12.755  1.00  0.00     0.157 HD
ATOM     13  H11 UNL     1      -6.016   7.463  11.194  1.00  0.00     0.157 HD
ENDBRANCH   5  11
ENDBRANCH   3   4
ENDBRANCH   1   3
BRANCH   1  14
HETATM   14  C4  UNL     1      -5.444  12.834  12.874  1.00  0.00     0.186 A 
HETATM   15  N5  UNL     1      -6.204  13.520  13.760  1.00  0.00    -0.277 N 
HETATM   16  N6  UNL     1      -6.937  14.548  13.387  1.00  0.00    -0.250 N 
ATOM     17  H5  UNL     1      -6.209  13.233  14.738  1.00  0.00     0.189 HD
HETATM   18  C5  UNL     1      -6.972  14.974  12.110  1.00  0.00     0.341 A 
ATOM     19  H6  UNL     1      -7.494  15.038  14.087  1.00  0.00     0.192 HD
HETATM   20  O2  UNL     1      -7.691  15.970  11.788  1.00  0.00    -0.245 OA
HETATM   21  N7  UNL     1      -6.232  14.316  11.214  1.00  0.00    -0.271 N 
HETATM   22  C6  UNL     1      -5.466  13.254  11.563  1.00  0.00     0.294 A 
ATOM     23  H7  UNL     1      -6.243  14.621  10.241  1.00  0.00     0.174 HD
HETATM   24  O3  UNL     1      -4.794  12.676  10.691  1.00  0.00    -0.264 OA
ENDBRANCH   1  14
TORSDOF 4
ENDMDL
MODEL 2
REMARK VINA RESULT: -5.286043859      4.601      6.323
REMARK  4 active torsions:
REMARK  status: ('A' for Active; 'I' for Inactive)
REMARK    1  A    between atoms: N1_1  and  C1_4 
REMARK    2  A    between atoms: C2_10  and  C3_11 
REMARK    3  A    between atoms: C3_11  and  N4_12 
REMARK    4  A    between atoms: N4_12  and  C4_14 
ROOT
HETATM    1  N4  UNL     1      -3.889  15.521  14.111  1.00  0.00    -0.365 N 
ATOM      2  H4  UNL     1      -4.140  16.041  14.951  1.00  0.00     0.161 HD
ENDROOT
BRANCH   1   3
HETATM    3  C3  UNL     1      -4.797  14.485  13.689  1.00  0.00     0.184 C 
BRANCH   3   4
HETATM    4  C2  UNL     1      -5.851  15.016  12.782  1.00  0.00     0.097 A 
HETATM    5  C1  UNL     1      -7.162  15.234  13.134  1.00  0.00     0.147 A 
HETATM    6  N2  UNL     1      -7.783  15.711  12.049  1.00  0.00    -0.224 N 
HETATM    7  O1  UNL     1      -6.906  15.783  11.087  1.00  0.00    -0.155 OA
ATOM      8  H2  UNL     1      -8.767  15.973  11.986  1.00  0.00     0.198 HD
HETATM    9  N3  UNL     1      -5.734  15.369  11.503  1.00  0.00    -0.240 N 
ATOM     10  H3  UNL     1      -4.882  15.325  10.945  1.00  0.00     0.196 HD
BRANCH   5  11
HETATM   11  N1  UNL     1      -7.735  15.037  14.267  1.00  0.00    -0.382 N 
ATOM     12  H12 UNL     1      -8.652  14.634  14.458  1.00  0.00     0.157 HD
ATOM     13  H11 UNL     1      -7.321  15.274  15.169  1.00  0.00     0.157 HD
ENDBRANCH   5  11
ENDBRANCH   3   4
ENDBRANCH   1   3
BRANCH   1  14
HETATM   14  C4  UNL     1      -2.792  15.850  13.530  1.00  0.00     0.186 A 
HETATM   15  N5  UNL     1      -1.692  15.110  13.802  1.00  0.00    -0.277 N 
HETATM   16  N6  UNL     1      -0.528  15.379  13.247  1.00  0.00    -0.250 N 
ATOM     17  H5  UNL     1      -1.766  14.327  14.451  1.00  0.00     0.189 HD
HETATM   18  C5  UNL     1      -0.367  16.400  12.384  1.00  0.00     0.341 A 
ATOM     19  H6  UNL     1       0.276  14.796  13.479  1.00  0.00     0.192 HD
HETATM   20  O2  UNL     1       0.771  16.627  11.870  1.00  0.00    -0.245 OA
HETATM   21  N7  UNL     1      -1.437  17.146  12.098  1.00  0.00    -0.271 N 
HETATM   22  C6  UNL     1      -2.649  16.898  12.650  1.00  0.00     0.294 A 
ATOM     23  H7  UNL     1      -1.338  17.925  11.446  1.00  0.00     0.174 HD
HETATM   24  O3  UNL     1      -3.614  17.623  12.349  1.00  0.00    -0.264 OA
ENDBRANCH   1  14
TORSDOF 4
ENDMDL
MODEL 3
REMARK VINA RESULT: -5.240144631      1.318      1.799
REMARK  4 active torsions:
REMARK  status: ('A' for Active; 'I' for Inactive)
REMARK    1  A    between atoms: N1_1  and  C1_4 
REMARK    2  A    between atoms: C2_10  and  C3_11 
REMARK    3  A    between atoms: C3_11  and  N4_12 
REMARK    4  A    between atoms: N4_12  and  C4_14 
ROOT
HETATM    1  N4  UNL     1      -4.702  11.304  11.871  1.00  0.00    -0.365 N 
ATOM      2  H4  UNL     1      -4.402  11.261  10.897  1.00  0.00     0.161 HD
ENDROOT
BRANCH   1   3
HETATM    3  C3  UNL     1      -4.380  10.172  12.702  1.00  0.00     0.184 C 
BRANCH   3   4
HETATM    4  C2  UNL     1      -4.389   8.902  11.927  1.00  0.00     0.097 A 
HETATM    5  C1  UNL     1      -3.333   8.415  11.194  1.00  0.00     0.147 A 
HETATM    6  N2  UNL     1      -3.735   7.259  10.651  1.00  0.00    -0.224 N 
HETATM    7  O1  UNL     1      -4.964   7.048  11.028  1.00  0.00    -0.155 OA
ATOM      8  H2  UNL     1      -3.177   6.651  10.050  1.00  0.00     0.198 HD
HETATM    9  N3  UNL     1      -5.382   8.023  11.797  1.00  0.00    -0.240 N 
ATOM     10  H3  UNL     1      -6.306   8.097  12.222  1.00  0.00     0.196 HD
BRANCH   5  11
HETATM   11  N1  UNL     1      -2.165   8.924  11.026  1.00  0.00    -0.382 N 
ATOM     12  H12 UNL     1      -1.905   9.783  10.544  1.00  0.00     0.157 HD
ATOM     13  H11 UNL     1      -1.302   8.507  11.377  1.00  0.00     0.157 HD
ENDBRANCH   5  11
ENDBRANCH   3   4
ENDBRANCH   1   3
BRANCH   1  14
HETATM   14  C4  UNL     1      -5.330  12.360  12.239  1.00  0.00     0.186 A 
HETATM   15  N5  UNL     1      -5.605  12.499  13.557  1.00  0.00    -0.277 N 
HETATM   16  N6  UNL     1      -6.245  13.553  14.020  1.00  0.00    -0.250 N 
ATOM     17  H5  UNL     1      -5.310  11.770  14.207  1.00  0.00     0.189 HD
HETATM   18  C5  UNL     1      -6.661  14.547  13.213  1.00  0.00     0.341 A 
ATOM     19  H6  UNL     1      -6.431  13.618  15.021  1.00  0.00     0.192 HD
HETATM   20  O2  UNL     1      -7.275  15.547  13.696  1.00  0.00    -0.245 OA
HETATM   21  N7  UNL     1      -6.404  14.436  11.907  1.00  0.00    -0.271 N 
HETATM   22  C6  UNL     1      -5.747  13.366  11.397  1.00  0.00     0.294 A 
ATOM     23  H7  UNL     1      -6.709  15.178  11.277  1.00  0.00     0.174 HD
HETATM   24  O3  UNL     1      -5.531  13.311  10.173  1.00  0.00    -0.264 OA
ENDBRANCH   1  14
TORSDOF 4
ENDMDL
MODEL 4
REMARK VINA RESULT: -5.229406768      1.460      1.873
REMARK  4 active torsions:
REMARK  status: ('A' for Active; 'I' for Inactive)
REMARK    1  A    between atoms: N1_1  and  C1_4 
REMARK    2  A    between atoms: C2_10  and  C3_11 
REMARK    3  A    between atoms: C3_11  and  N4_12 
REMARK    4  A    between atoms: N4_12  and  C4_14 
ROOT
HETATM    1  N4  UNL     1      -5.277  12.364  13.394  1.00  0.00    -0.365 N 
ATOM      2  H4  UNL     1      -5.823  11.580  13.748  1.00  0.00     0.161 HD
ENDROOT
BRANCH   1   3
HETATM    3  C3  UNL     1      -3.843  12.248  13.471  1.00  0.00     0.184 C 
BRANCH   3   4
HETATM    4  C2  UNL     1      -3.350  11.048  12.741  1.00  0.00     0.097 A 
HETATM    5  C1  UNL     1      -2.185  10.374  13.022  1.00  0.00     0.147 A 
HETATM    6  N2  UNL     1      -2.100   9.362  12.150  1.00  0.00    -0.224 N 
HETATM    7  O1  UNL     1      -3.150   9.411  11.379  1.00  0.00    -0.155 OA
ATOM      8  H2  UNL     1      -1.347   8.675  12.098  1.00  0.00     0.198 HD
HETATM    9  N3  UNL     1      -3.919  10.418  11.715  1.00  0.00    -0.240 N 
ATOM     10  H3  UNL     1      -4.799  10.674  11.268  1.00  0.00     0.196 HD
BRANCH   5  11
HETATM   11  N1  UNL     1      -1.310  10.620  13.930  1.00  0.00    -0.382 N 
ATOM     12  H12 UNL     1      -0.764  11.468  14.079  1.00  0.00     0.157 HD
ATOM     13  H11 UNL     1      -1.038   9.959  14.658  1.00  0.00     0.157 HD
ENDBRANCH   5  11
ENDBRANCH   3   4
ENDBRANCH   1   3
BRANCH   1  14
HETATM   14  C4  UNL     1      -5.932  13.362  12.922  1.00  0.00     0.186 A 
HETATM   15  N5  UNL     1      -6.691  14.077  13.784  1.00  0.00    -0.277 N 
HETATM   16  N6  UNL     1      -7.393  15.117  13.383  1.00  0.00    -0.250 N 
ATOM     17  H5  UNL     1      -6.721  13.805  14.766  1.00  0.00     0.189 HD
HETATM   18  C5  UNL     1      -7.396  15.525  12.100  1.00  0.00     0.341 A 
ATOM     19  H6  UNL     1      -7.952  15.630  14.066  1.00  0.00     0.192 HD
HETATM   20  O2  UNL     1      -8.086  16.532  11.752  1.00  0.00    -0.245 OA
HETATM   21  N7  UNL     1      -6.655  14.837  11.228  1.00  0.00    -0.271 N 
HETATM   22  C6  UNL     1      -5.920  13.763  11.606  1.00  0.00     0.294 A 
ATOM     23  H7  UNL     1      -6.641  15.129  10.250  1.00  0.00     0.174 HD
HETATM   24  O3  UNL     1      -5.246  13.157  10.754  1.00  0.00    -0.264 OA
ENDBRANCH   1  14
TORSDOF 4
ENDMDL
MODEL 5
REMARK VINA RESULT: -5.192510587      1.420      1.639
REMARK  4 active torsions:
REMARK  status: ('A' for Active; 'I' for Inactive)
REMARK    1  A    between atoms: N1_1  and  C1_4 
REMARK    2  A    between atoms: C2_10  and  C3_11 
REMARK    3  A    between atoms: C3_11  and  N4_12 
REMARK    4  A    between atoms: N4_12  and  C4_14 
ROOT
HETATM    1  N4  UNL     1      -4.310  11.455  13.366  1.00  0.00    -0.365 N 
ATOM      2  H4  UNL     1      -3.504  11.545  13.985  1.00  0.00     0.161 HD
ENDROOT
BRANCH   1   3
HETATM    3  C3  UNL     1      -4.825  10.127  13.155  1.00  0.00     0.184 C 
BRANCH   3   4
HETATM    4  C2  UNL     1      -4.008   9.373  12.165  1.00  0.00     0.097 A 
HETATM    5  C1  UNL     1      -4.369   8.178  11.587  1.00  0.00     0.147 A 
HETATM    6  N2  UNL     1      -3.375   7.829  10.761  1.00  0.00    -0.224 N 
HETATM    7  O1  UNL     1      -2.459   8.754  10.827  1.00  0.00    -0.155 OA
ATOM      8  H2  UNL     1      -3.341   6.989  10.182  1.00  0.00     0.198 HD
HETATM    9  N3  UNL     1      -2.816   9.695  11.666  1.00  0.00    -0.240 N 
ATOM     10  H3  UNL     1      -2.275  10.528  11.897  1.00  0.00     0.196 HD
BRANCH   5  11
HETATM   11  N1  UNL     1      -5.436   7.486  11.765  1.00  0.00    -0.382 N 
ATOM     12  H12 UNL     1      -5.577   6.667  12.356  1.00  0.00     0.157 HD
ATOM     13  H11 UNL     1      -6.329   7.683  11.313  1.00  0.00     0.157 HD
ENDBRANCH   5  11
ENDBRANCH   3   4
ENDBRANCH   1   3
BRANCH   1  14
HETATM   14  C4  UNL     1      -4.768  12.537  12.849  1.00  0.00     0.186 A 
HETATM   15  N5  UNL     1      -5.544  12.424  11.745  1.00  0.00    -0.277 N 
HETATM   16  N6  UNL     1      -6.056  13.483  11.153  1.00  0.00    -0.250 N 
ATOM     17  H5  UNL     1      -5.735  11.498  11.364  1.00  0.00     0.189 HD
HETATM   18  C5  UNL     1      -5.837  14.731  11.609  1.00  0.00     0.341 A 
ATOM     19  H6  UNL     1      -6.636  13.354  10.324  1.00  0.00     0.192 HD
HETATM   20  O2  UNL     1      -6.348  15.728  11.011  1.00  0.00    -0.245 OA
HETATM   21  N7  UNL     1      -5.076  14.872  12.697  1.00  0.00    -0.271 N 
HETATM   22  C6  UNL     1      -4.533  13.804  13.331  1.00  0.00     0.294 A 
ATOM     23  H7  UNL     1      -4.897  15.808  13.060  1.00  0.00     0.174 HD
HETATM   24  O3  UNL     1      -3.832  13.989  14.341  1.00  0.00    -0.264 OA
ENDBRANCH   1  14
TORSDOF 4
ENDMDL
