MODEL 1
REMARK VINA RESULT: -5.959149692      0.000      0.000
REMARK  9 active torsions:
REMARK  status: ('A' for Active; 'I' for Inactive)
REMARK    1  A    between atoms: N1_1  and  C1_5 
REMARK    2  A    between atoms: C1_5  and  C2_6 
REMARK    3  A    between atoms: C2_6  and  S1_7 
REMARK    4  A    between atoms: S1_7  and  C3_8 
REMARK    5  A    between atoms: C3_8  and  C4_9 
REMARK    6  A    between atoms: C4_9  and  O1_10 
REMARK    7  A    between atoms: C5_15  and  C6_16 
REMARK    8  A    between atoms: C6_16  and  O2_17 
REMARK    9  A    between atoms: C7_21  and  N5_22 
ROOT
HETATM    1  C4  UNL     1     -11.072   4.517 -31.346  1.00  0.00     0.278 C 
HETATM    2  N2  UNL     1     -10.537   3.485 -32.263  1.00  0.00    -0.018 N 
ATOM      3  H21 UNL     1     -11.109   3.344 -33.096  1.00  0.00     0.283 HD
ATOM      4  H22 UNL     1     -10.614   2.535 -31.899  1.00  0.00     0.283 HD
HETATM    5  C5  UNL     1      -9.175   3.886 -32.556  1.00  0.00     0.320 C 
HETATM    6  N3  UNL     1      -8.391   3.756 -31.350  1.00  0.00    -0.110 NA
HETATM    7  N4  UNL     1      -8.830   4.711 -30.449  1.00  0.00    -0.108 NA
HETATM    8  C7  UNL     1     -10.204   4.458 -30.118  1.00  0.00     0.354 C 
ENDROOT
BRANCH   1   9
HETATM    9  C3  UNL     1     -12.521   4.285 -31.079  1.00  0.00     0.146 C 
BRANCH   9  10
HETATM   10  S1  UNL     1     -12.992   2.630 -31.563  1.00  0.00    -0.163 SA
BRANCH  10  11
HETATM   11  C2  UNL     1     -14.529   2.563 -32.477  1.00  0.00     0.101 C 
BRANCH  11  12
HETATM   12  C1  UNL     1     -15.090   1.133 -32.515  1.00  0.00     0.239 C 
BRANCH  12  13
HETATM   13  N1  UNL     1     -16.437   1.109 -31.978  1.00  0.00    -0.079 N 
ATOM     14  H13 UNL     1     -16.483   0.613 -31.088  1.00  0.00     0.274 HD
ATOM     15  H12 UNL     1     -16.735   2.029 -31.654  1.00  0.00     0.274 HD
ATOM     16  H11 UNL     1     -17.083   0.720 -32.666  1.00  0.00     0.274 HD
ENDBRANCH  12  13
ENDBRANCH  11  12
ENDBRANCH  10  11
ENDBRANCH   9  10
ENDBRANCH   1   9
BRANCH   1  17
HETATM   17  O1  UNL     1     -10.857   5.727 -31.996  1.00  0.00    -0.362 OA
ATOM     18  H1  UNL     1     -10.137   5.671 -32.613  1.00  0.00     0.212 HD
ENDBRANCH   1  17
BRANCH   8  19
HETATM   19  N5  UNL     1     -10.701   5.419 -29.155  1.00  0.00    -0.055 N 
ATOM     20  H53 UNL     1     -11.359   6.080 -29.567  1.00  0.00     0.276 HD
ATOM     21  H52 UNL     1     -11.332   4.999 -28.474  1.00  0.00     0.276 HD
ATOM     22  H51 UNL     1      -9.905   5.882 -28.717  1.00  0.00     0.276 HD
ENDBRANCH   8  19
BRANCH   5  23
HETATM   23  C6  UNL     1      -8.590   3.078 -33.697  1.00  0.00     0.215 C 
BRANCH  23  24
HETATM   24  O2  UNL     1      -8.515   3.859 -34.846  1.00  0.00    -0.397 OA
ATOM     25  H2  UNL     1      -7.697   3.694 -35.300  1.00  0.00     0.209 HD
ENDBRANCH  23  24
ENDBRANCH   5  23
TORSDOF 9
ENDMDL
MODEL 2
REMARK VINA RESULT: -5.187809524      1.737      1.918
REMARK  9 active torsions:
REMARK  status: ('A' for Active; 'I' for Inactive)
REMARK    1  A    between atoms: N1_1  and  C1_5 
REMARK    2  A    between atoms: C1_5  and  C2_6 
REMARK    3  A    between atoms: C2_6  and  S1_7 
REMARK    4  A    between atoms: S1_7  and  C3_8 
REMARK    5  A    between atoms: C3_8  and  C4_9 
REMARK    6  A    between atoms: C4_9  and  O1_10 
REMARK    7  A    between atoms: C5_15  and  C6_16 
REMARK    8  A    between atoms: C6_16  and  O2_17 
REMARK    9  A    between atoms: C7_21  and  N5_22 
ROOT
HETATM    1  C4  UNL     1     -10.889   4.169 -31.148  1.00  0.00     0.278 C 
HETATM    2  N2  UNL     1     -10.270   3.200 -32.080  1.00  0.00    -0.018 N 
ATOM      3  H21 UNL     1     -10.910   2.853 -32.794  1.00  0.00     0.283 HD
ATOM      4  H22 UNL     1     -10.063   2.297 -31.652  1.00  0.00     0.283 HD
HETATM    5  C5  UNL     1      -9.101   3.866 -32.622  1.00  0.00     0.320 C 
HETATM    6  N3  UNL     1      -8.137   4.033 -31.560  1.00  0.00    -0.110 NA
HETATM    7  N4  UNL     1      -8.649   4.948 -30.657  1.00  0.00    -0.108 NA
HETATM    8  C7  UNL     1      -9.858   4.426 -30.083  1.00  0.00     0.354 C 
ENDROOT
BRANCH   1   9
HETATM    9  C3  UNL     1     -12.184   3.645 -30.626  1.00  0.00     0.146 C 
BRANCH   9  10
HETATM   10  S1  UNL     1     -13.157   2.940 -31.951  1.00  0.00    -0.163 SA
BRANCH  10  11
HETATM   11  C2  UNL     1     -14.598   3.912 -32.376  1.00  0.00     0.101 C 
BRANCH  11  12
HETATM   12  C1  UNL     1     -14.622   5.237 -31.599  1.00  0.00     0.239 C 
BRANCH  12  13
HETATM   13  N1  UNL     1     -13.712   6.190 -32.205  1.00  0.00    -0.079 N 
ATOM     14  H13 UNL     1     -14.202   7.006 -32.569  1.00  0.00     0.274 HD
ATOM     15  H12 UNL     1     -13.133   6.660 -31.509  1.00  0.00     0.274 HD
ATOM     16  H11 UNL     1     -13.149   5.732 -32.922  1.00  0.00     0.274 HD
ENDBRANCH  12  13
ENDBRANCH  11  12
ENDBRANCH  10  11
ENDBRANCH   9  10
ENDBRANCH   1   9
BRANCH   1  17
HETATM   17  O1  UNL     1     -11.068   5.328 -31.896  1.00  0.00    -0.362 OA
ATOM     18  H1  UNL     1     -10.239   5.693 -32.181  1.00  0.00     0.212 HD
ENDBRANCH   1  17
BRANCH   8  19
HETATM   19  N5  UNL     1     -10.417   5.340 -29.109  1.00  0.00    -0.055 N 
ATOM     20  H53 UNL     1      -9.702   5.779 -28.530  1.00  0.00     0.276 HD
ATOM     21  H52 UNL     1     -10.791   6.187 -29.537  1.00  0.00     0.276 HD
ATOM     22  H51 UNL     1     -11.115   4.840 -28.558  1.00  0.00     0.276 HD
ENDBRANCH   8  19
BRANCH   5  23
HETATM   23  C6  UNL     1      -8.521   3.103 -33.795  1.00  0.00     0.215 C 
BRANCH  23  24
HETATM   24  O2  UNL     1      -8.444   3.930 -34.912  1.00  0.00    -0.397 OA
ATOM     25  H2  UNL     1      -8.555   3.419 -35.705  1.00  0.00     0.209 HD
ENDBRANCH  23  24
ENDBRANCH   5  23
TORSDOF 9
ENDMDL
MODEL 3
REMARK VINA RESULT: -5.152188294      1.247      1.322
REMARK  9 active torsions:
REMARK  status: ('A' for Active; 'I' for Inactive)
REMARK    1  A    between atoms: N1_1  and  C1_5 
REMARK    2  A    between atoms: C1_5  and  C2_6 
REMARK    3  A    between atoms: C2_6  and  S1_7 
REMARK    4  A    between atoms: S1_7  and  C3_8 
REMARK    5  A    between atoms: C3_8  and  C4_9 
REMARK    6  A    between atoms: C4_9  and  O1_10 
REMARK    7  A    between atoms: C5_15  and  C6_16 
REMARK    8  A    between atoms: C6_16  and  O2_17 
REMARK    9  A    between atoms: C7_21  and  N5_22 
ROOT
HETATM    1  C4  UNL     1     -10.386   5.266 -31.504  1.00  0.00     0.278 C 
HETATM    2  N2  UNL     1     -10.035   4.264 -32.535  1.00  0.00    -0.018 N 
ATOM      3  H21 UNL     1     -10.333   4.524 -33.475  1.00  0.00     0.283 HD
ATOM      4  H22 UNL     1     -10.578   3.403 -32.469  1.00  0.00     0.283 HD
HETATM    5  C5  UNL     1      -8.605   4.059 -32.416  1.00  0.00     0.320 C 
HETATM    6  N3  UNL     1      -8.341   3.406 -31.155  1.00  0.00    -0.110 NA
HETATM    7  N4  UNL     1      -8.632   4.301 -30.140  1.00  0.00    -0.108 NA
HETATM    8  C7  UNL     1     -10.028   4.636 -30.185  1.00  0.00     0.354 C 
ENDROOT
BRANCH   1   9
HETATM    9  C3  UNL     1     -11.819   5.663 -31.619  1.00  0.00     0.146 C 
BRANCH   9  10
HETATM   10  S1  UNL     1     -12.886   4.273 -31.263  1.00  0.00    -0.163 SA
BRANCH  10  11
HETATM   11  C2  UNL     1     -14.434   4.312 -32.158  1.00  0.00     0.101 C 
BRANCH  11  12
HETATM   12  C1  UNL     1     -14.750   2.943 -32.781  1.00  0.00     0.239 C 
BRANCH  12  13
HETATM   13  N1  UNL     1     -13.694   1.997 -32.473  1.00  0.00    -0.079 N 
ATOM     14  H13 UNL     1     -12.986   2.402 -31.861  1.00  0.00     0.274 HD
ATOM     15  H12 UNL     1     -14.018   1.252 -31.856  1.00  0.00     0.274 HD
ATOM     16  H11 UNL     1     -13.289   1.630 -33.334  1.00  0.00     0.274 HD
ENDBRANCH  12  13
ENDBRANCH  11  12
ENDBRANCH  10  11
ENDBRANCH   9  10
ENDBRANCH   1   9
BRANCH   1  17
HETATM   17  O1  UNL     1      -9.535   6.341 -31.739  1.00  0.00    -0.362 OA
ATOM     18  H1  UNL     1      -9.006   6.207 -32.516  1.00  0.00     0.212 HD
ENDBRANCH   1  17
BRANCH   8  19
HETATM   19  N5  UNL     1     -10.386   5.552 -29.123  1.00  0.00    -0.055 N 
ATOM     20  H53 UNL     1      -9.815   6.397 -29.127  1.00  0.00     0.276 HD
ATOM     21  H52 UNL     1     -11.291   5.995 -29.277  1.00  0.00     0.276 HD
ATOM     22  H51 UNL     1     -10.341   5.053 -28.234  1.00  0.00     0.276 HD
ENDBRANCH   8  19
BRANCH   5  23
HETATM   23  C6  UNL     1      -8.057   3.267 -33.585  1.00  0.00     0.215 C 
BRANCH  23  24
HETATM   24  O2  UNL     1      -8.492   3.822 -34.785  1.00  0.00    -0.397 OA
ATOM     25  H2  UNL     1      -8.052   4.649 -34.941  1.00  0.00     0.209 HD
ENDBRANCH  23  24
ENDBRANCH   5  23
TORSDOF 9
ENDMDL
MODEL 4
REMARK VINA RESULT: -4.836306559      2.208      2.844
REMARK  9 active torsions:
REMARK  status: ('A' for Active; 'I' for Inactive)
REMARK    1  A    between atoms: N1_1  and  C1_5 
REMARK    2  A    between atoms: C1_5  and  C2_6 
REMARK    3  A    between atoms: C2_6  and  S1_7 
REMARK    4  A    between atoms: S1_7  and  C3_8 
REMARK    5  A    between atoms: C3_8  and  C4_9 
REMARK    6  A    between atoms: C4_9  and  O1_10 
REMARK    7  A    between atoms: C5_15  and  C6_16 
REMARK    8  A    between atoms: C6_16  and  O2_17 
REMARK    9  A    between atoms: C7_21  and  N5_22 
ROOT
HETATM    1  C4  UNL     1      -9.775   4.226 -31.910  1.00  0.00     0.278 C 
HETATM    2  N2  UNL     1     -10.642   3.109 -32.349  1.00  0.00    -0.018 N 
ATOM      3  H21 UNL     1     -11.604   3.390 -32.538  1.00  0.00     0.283 HD
ATOM      4  H22 UNL     1     -10.853   2.441 -31.608  1.00  0.00     0.283 HD
HETATM    5  C5  UNL     1      -9.974   2.517 -33.492  1.00  0.00     0.320 C 
HETATM    6  N3  UNL     1      -8.757   1.889 -33.035  1.00  0.00    -0.110 NA
HETATM    7  N4  UNL     1      -7.889   2.884 -32.624  1.00  0.00    -0.108 NA
HETATM    8  C7  UNL     1      -8.466   3.595 -31.518  1.00  0.00     0.354 C 
ENDROOT
BRANCH   1   9
HETATM    9  C3  UNL     1     -10.427   5.002 -30.817  1.00  0.00     0.146 C 
BRANCH   9  10
HETATM   10  S1  UNL     1     -12.166   4.599 -30.711  1.00  0.00    -0.163 SA
BRANCH  10  11
HETATM   11  C2  UNL     1     -13.219   5.729 -31.614  1.00  0.00     0.101 C 
BRANCH  11  12
HETATM   12  C1  UNL     1     -14.568   5.078 -31.954  1.00  0.00     0.239 C 
BRANCH  12  13
HETATM   13  N1  UNL     1     -14.384   3.672 -32.259  1.00  0.00    -0.079 N 
ATOM     14  H13 UNL     1     -15.247   3.141 -32.143  1.00  0.00     0.274 HD
ATOM     15  H12 UNL     1     -14.241   3.514 -33.256  1.00  0.00     0.274 HD
ATOM     16  H11 UNL     1     -13.622   3.288 -31.699  1.00  0.00     0.274 HD
ENDBRANCH  12  13
ENDBRANCH  11  12
ENDBRANCH  10  11
ENDBRANCH   9  10
ENDBRANCH   1   9
BRANCH   1  17
HETATM   17  O1  UNL     1      -9.581   5.004 -33.047  1.00  0.00    -0.362 OA
ATOM     18  H1  UNL     1      -8.730   5.426 -33.042  1.00  0.00     0.212 HD
ENDBRANCH   1  17
BRANCH   8  19
HETATM   19  N5  UNL     1      -7.579   4.633 -31.036  1.00  0.00    -0.055 N 
ATOM     20  H53 UNL     1      -7.246   5.241 -31.784  1.00  0.00     0.276 HD
ATOM     21  H52 UNL     1      -8.067   5.341 -30.488  1.00  0.00     0.276 HD
ATOM     22  H51 UNL     1      -6.817   4.195 -30.518  1.00  0.00     0.276 HD
ENDBRANCH   8  19
BRANCH   5  23
HETATM   23  C6  UNL     1     -10.875   1.539 -34.217  1.00  0.00     0.215 C 
BRANCH  23  24
HETATM   24  O2  UNL     1     -12.164   1.600 -33.698  1.00  0.00    -0.397 OA
ATOM     25  H2  UNL     1     -12.713   0.942 -34.107  1.00  0.00     0.209 HD
ENDBRANCH  23  24
ENDBRANCH   5  23
TORSDOF 9
ENDMDL
MODEL 5
REMARK VINA RESULT: -4.637112635      2.777      4.130
REMARK  9 active torsions:
REMARK  status: ('A' for Active; 'I' for Inactive)
REMARK    1  A    between atoms: N1_1  and  C1_5 
REMARK    2  A    between atoms: C1_5  and  C2_6 
REMARK    3  A    between atoms: C2_6  and  S1_7 
REMARK    4  A    between atoms: S1_7  and  C3_8 
REMARK    5  A    between atoms: C3_8  and  C4_9 
REMARK    6  A    between atoms: C4_9  and  O1_10 
REMARK    7  A    between atoms: C5_15  and  C6_16 
REMARK    8  A    between atoms: C6_16  and  O2_17 
REMARK    9  A    between atoms: C7_21  and  N5_22 
ROOT
HETATM    1  C4  UNL     1      -9.685   4.274 -32.180  1.00  0.00     0.278 C 
HETATM    2  N2  UNL     1     -10.673   3.225 -32.516  1.00  0.00    -0.018 N 
ATOM      3  H21 UNL     1     -11.553   3.593 -32.877  1.00  0.00     0.283 HD
ATOM      4  H22 UNL     1     -11.064   2.756 -31.698  1.00  0.00     0.283 HD
HETATM    5  C5  UNL     1      -9.999   2.326 -33.433  1.00  0.00     0.320 C 
HETATM    6  N3  UNL     1      -8.953   1.639 -32.712  1.00  0.00    -0.110 NA
HETATM    7  N4  UNL     1      -7.980   2.565 -32.383  1.00  0.00    -0.108 NA
HETATM    8  C7  UNL     1      -8.542   3.559 -31.511  1.00  0.00     0.354 C 
ENDROOT
BRANCH   1   9
HETATM    9  C3  UNL     1     -10.309   5.339 -31.343  1.00  0.00     0.146 C 
BRANCH   9  10
HETATM   10  S1  UNL     1     -11.324   4.616 -30.061  1.00  0.00    -0.163 SA
BRANCH  10  11
HETATM   11  C2  UNL     1     -10.675   4.863 -28.412  1.00  0.00     0.101 C 
BRANCH  11  12
HETATM   12  C1  UNL     1     -11.809   5.044 -27.391  1.00  0.00     0.239 C 
BRANCH  12  13
HETATM   13  N1  UNL     1     -11.869   6.424 -26.949  1.00  0.00    -0.079 N 
ATOM     14  H13 UNL     1     -11.258   7.028 -27.499  1.00  0.00     0.274 HD
ATOM     15  H12 UNL     1     -12.761   6.861 -27.182  1.00  0.00     0.274 HD
ATOM     16  H11 UNL     1     -11.665   6.484 -25.951  1.00  0.00     0.274 HD
ENDBRANCH  12  13
ENDBRANCH  11  12
ENDBRANCH  10  11
ENDBRANCH   9  10
ENDBRANCH   1   9
BRANCH   1  17
HETATM   17  O1  UNL     1      -9.254   4.771 -33.405  1.00  0.00    -0.362 OA
ATOM     18  H1  UNL     1      -9.980   4.919 -33.999  1.00  0.00     0.212 HD
ENDBRANCH   1  17
BRANCH   8  19
HETATM   19  N5  UNL     1      -7.552   4.538 -31.117  1.00  0.00    -0.055 N 
ATOM     20  H53 UNL     1      -6.990   4.228 -30.324  1.00  0.00     0.276 HD
ATOM     21  H52 UNL     1      -6.797   4.626 -31.797  1.00  0.00     0.276 HD
ATOM     22  H51 UNL     1      -8.023   5.425 -30.939  1.00  0.00     0.276 HD
ENDBRANCH   8  19
BRANCH   5  23
HETATM   23  C6  UNL     1     -10.970   1.358 -34.077  1.00  0.00     0.215 C 
BRANCH  23  24
HETATM   24  O2  UNL     1     -12.260   1.596 -33.616  1.00  0.00    -0.397 OA
ATOM     25  H2  UNL     1     -12.844   1.758 -34.348  1.00  0.00     0.209 HD
ENDBRANCH  23  24
ENDBRANCH   5  23
TORSDOF 9
ENDMDL
