MODEL 1
REMARK VINA RESULT: -6.324591410      0.000      0.000
REMARK  7 active torsions:
REMARK  status: ('A' for Active; 'I' for Inactive)
REMARK    1  A    between atoms: C2_2  and  C3_3 
REMARK    2  A    between atoms: C11_12  and  O1_13 
REMARK    3  A    between atoms: C13_16  and  O2_17 
REMARK    4  A    between atoms: O2_17  and  C14_18 
REMARK    5  A    between atoms: C18_23  and  O4_24 
REMARK    6  A    between atoms: C19_26  and  C20_27 
REMARK    7  A    between atoms: C20_27  and  O5_28 
ROOT
HETATM    1  C3  UNL     1      20.985 -22.306 126.883  1.00  0.00    -0.001 C 
HETATM    2  C4  UNL     1      21.228 -21.882 125.469  1.00  0.00     0.007 C 
HETATM    3  C5  UNL     1      22.653 -21.798 125.085  1.00  0.00     0.021 C 
HETATM    4  C6  UNL     1      23.376 -20.956 126.106  1.00  0.00     0.087 C 
HETATM    5 CL1  UNL     1      25.108 -21.068 125.566  1.00  0.00    -0.125 Cl
HETATM    6  C7  UNL     1      23.235 -21.585 127.476  1.00  0.00     0.018 C 
HETATM    7  C8  UNL     1      24.243 -20.885 128.304  1.00  0.00     0.019 C 
HETATM    8  C9  UNL     1      24.587 -21.305 129.647  1.00  0.00    -0.011 C 
HETATM    9  C10 UNL     1      24.476 -20.203 130.648  1.00  0.00     0.018 C 
HETATM   10  C11 UNL     1      26.013 -21.870 129.824  1.00  0.00     0.129 C 
HETATM   11  C12 UNL     1      25.855 -22.410 131.237  1.00  0.00     0.065 C 
HETATM   12  C13 UNL     1      24.617 -23.213 131.115  1.00  0.00     0.139 C 
HETATM   13  C16 UNL     1      23.842 -22.559 130.023  1.00  0.00     0.028 C 
HETATM   14  C17 UNL     1      22.459 -22.157 130.314  1.00  0.00     0.040 C 
HETATM   15  C18 UNL     1      21.552 -22.407 129.153  1.00  0.00     0.130 C 
HETATM   16  C19 UNL     1      21.838 -21.583 127.912  1.00  0.00     0.016 C 
ENDROOT
BRANCH  12  17
HETATM   17  O2  UNL     1      23.916 -23.513 132.258  1.00  0.00    -0.316 OA
BRANCH  17  18
HETATM   18  C14 UNL     1      24.091 -24.523 133.141  1.00  0.00     0.255 C 
HETATM   19  C15 UNL     1      22.928 -25.362 133.519  1.00  0.00     0.126 C 
HETATM   20  O3  UNL     1      25.222 -24.698 133.596  1.00  0.00    -0.266 OA
ENDBRANCH  17  18
ENDBRANCH  12  17
BRANCH  10  21
HETATM   21  O1  UNL     1      26.954 -20.871 129.819  1.00  0.00    -0.395 OA
ATOM     22  H1  UNL     1      26.901 -20.340 130.605  1.00  0.00     0.210 HD
ENDBRANCH  10  21
BRANCH  15  23
HETATM   23  O4  UNL     1      21.539 -23.777 128.913  1.00  0.00    -0.395 OA
ATOM     24  H4  UNL     1      20.811 -24.149 129.396  1.00  0.00     0.210 HD
ENDBRANCH  15  23
BRANCH  16  25
HETATM   25  C20 UNL     1      21.260 -20.223 128.217  1.00  0.00     0.179 C 
BRANCH  25  26
HETATM   26  O5  UNL     1      20.581 -20.082 129.380  1.00  0.00    -0.395 OA
HETATM   27  C21 UNL     1      19.614 -19.109 129.228  1.00  0.00     0.201 C 
ENDBRANCH  25  26
ENDBRANCH  16  25
BRANCH   1  28
HETATM   28  C2  UNL     1      19.518 -22.176 127.121  1.00  0.00     0.001 C 
HETATM   29  C1  UNL     1      18.892 -21.812 125.764  1.00  0.00     0.005 C 
ENDBRANCH   1  28
TORSDOF 7
ENDMDL
MODEL 2
REMARK VINA RESULT: -6.312965203      2.111      5.729
REMARK  7 active torsions:
REMARK  status: ('A' for Active; 'I' for Inactive)
REMARK    1  A    between atoms: C2_2  and  C3_3 
REMARK    2  A    between atoms: C11_12  and  O1_13 
REMARK    3  A    between atoms: C13_16  and  O2_17 
REMARK    4  A    between atoms: O2_17  and  C14_18 
REMARK    5  A    between atoms: C18_23  and  O4_24 
REMARK    6  A    between atoms: C19_26  and  C20_27 
REMARK    7  A    between atoms: C20_27  and  O5_28 
ROOT
HETATM    1  C3  UNL     1      24.451 -21.709 129.882  1.00  0.00    -0.001 C 
HETATM    2  C4  UNL     1      25.671 -21.611 129.022  1.00  0.00     0.007 C 
HETATM    3  C5  UNL     1      25.480 -20.865 127.761  1.00  0.00     0.021 C 
HETATM    4  C6  UNL     1      24.277 -21.428 127.048  1.00  0.00     0.087 C 
HETATM    5 CL1  UNL     1      24.109 -20.327 125.610  1.00  0.00    -0.125 Cl
HETATM    6  C7  UNL     1      23.054 -21.293 127.930  1.00  0.00     0.018 C 
HETATM    7  C8  UNL     1      21.916 -21.548 127.017  1.00  0.00     0.019 C 
HETATM    8  C9  UNL     1      20.536 -21.334 127.401  1.00  0.00    -0.011 C 
HETATM    9  C10 UNL     1      19.676 -22.533 127.178  1.00  0.00     0.018 C 
HETATM   10  C11 UNL     1      19.814 -20.178 126.674  1.00  0.00     0.129 C 
HETATM   11  C12 UNL     1      18.560 -20.135 127.533  1.00  0.00     0.065 C 
HETATM   12  C13 UNL     1      19.131 -20.074 128.897  1.00  0.00     0.139 C 
HETATM   13  C16 UNL     1      20.450 -20.761 128.792  1.00  0.00     0.028 C 
HETATM   14  C17 UNL     1      20.720 -21.867 129.721  1.00  0.00     0.040 C 
HETATM   15  C18 UNL     1      22.135 -21.856 130.202  1.00  0.00     0.130 C 
HETATM   16  C19 UNL     1      23.187 -22.108 129.138  1.00  0.00     0.016 C 
ENDROOT
BRANCH  12  17
HETATM   17  O2  UNL     1      18.339 -20.446 129.957  1.00  0.00    -0.316 OA
BRANCH  17  18
HETATM   18  C14 UNL     1      18.145 -19.835 131.148  1.00  0.00     0.255 C 
HETATM   19  C15 UNL     1      18.687 -18.471 131.359  1.00  0.00     0.126 C 
HETATM   20  O3  UNL     1      17.519 -20.451 132.012  1.00  0.00    -0.266 OA
ENDBRANCH  17  18
ENDBRANCH  12  17
BRANCH  10  21
HETATM   21  O1  UNL     1      19.477 -20.524 125.390  1.00  0.00    -0.395 OA
ATOM     22  H1  UNL     1      18.912 -19.874 124.991  1.00  0.00     0.210 HD
ENDBRANCH  10  21
BRANCH  15  23
HETATM   23  O4  UNL     1      22.335 -20.672 130.904  1.00  0.00    -0.395 OA
ATOM     24  H4  UNL     1      22.121 -20.836 131.814  1.00  0.00     0.210 HD
ENDBRANCH  15  23
BRANCH  16  25
HETATM   25  C20 UNL     1      23.153 -23.600 128.916  1.00  0.00     0.179 C 
BRANCH  25  26
HETATM   26  O5  UNL     1      22.191 -24.304 129.558  1.00  0.00    -0.395 OA
HETATM   27  C21 UNL     1      21.739 -25.315 128.735  1.00  0.00     0.201 C 
ENDBRANCH  25  26
ENDBRANCH  16  25
BRANCH   1  28
HETATM   28  C2  UNL     1      24.796 -22.620 131.011  1.00  0.00     0.001 C 
HETATM   29  C1  UNL     1      26.238 -23.090 130.759  1.00  0.00     0.005 C 
ENDBRANCH   1  28
TORSDOF 7
ENDMDL
MODEL 3
REMARK VINA RESULT: -6.235019821     11.230     13.853
REMARK  7 active torsions:
REMARK  status: ('A' for Active; 'I' for Inactive)
REMARK    1  A    between atoms: C2_2  and  C3_3 
REMARK    2  A    between atoms: C11_12  and  O1_13 
REMARK    3  A    between atoms: C13_16  and  O2_17 
REMARK    4  A    between atoms: O2_17  and  C14_18 
REMARK    5  A    between atoms: C18_23  and  O4_24 
REMARK    6  A    between atoms: C19_26  and  C20_27 
REMARK    7  A    between atoms: C20_27  and  O5_28 
ROOT
HETATM    1  C3  UNL     1      21.396 -28.299 142.680  1.00  0.00    -0.001 C 
HETATM    2  C4  UNL     1      21.249 -29.788 142.648  1.00  0.00     0.007 C 
HETATM    3  C5  UNL     1      22.493 -30.525 142.341  1.00  0.00     0.021 C 
HETATM    4  C6  UNL     1      23.097 -29.946 141.087  1.00  0.00     0.087 C 
HETATM    5 CL1  UNL     1      24.661 -30.861 140.934  1.00  0.00    -0.125 Cl
HETATM    6  C7  UNL     1      23.394 -28.476 141.299  1.00  0.00     0.018 C 
HETATM    7  C8  UNL     1      24.276 -28.116 140.165  1.00  0.00     0.019 C 
HETATM    8  C9  UNL     1      24.959 -26.842 140.073  1.00  0.00    -0.011 C 
HETATM    9  C10 UNL     1      24.701 -26.133 138.786  1.00  0.00     0.018 C 
HETATM   10  C11 UNL     1      26.497 -26.901 140.201  1.00  0.00     0.129 C 
HETATM   11  C12 UNL     1      26.758 -25.407 140.322  1.00  0.00     0.065 C 
HETATM   12  C13 UNL     1      25.817 -25.023 141.397  1.00  0.00     0.139 C 
HETATM   13  C16 UNL     1      24.702 -26.008 141.301  1.00  0.00     0.028 C 
HETATM   14  C17 UNL     1      23.336 -25.482 141.176  1.00  0.00     0.040 C 
HETATM   15  C18 UNL     1      22.356 -26.286 141.968  1.00  0.00     0.130 C 
HETATM   16  C19 UNL     1      22.160 -27.717 141.503  1.00  0.00     0.016 C 
ENDROOT
BRANCH  12  17
HETATM   17  O2  UNL     1      25.450 -23.703 141.505  1.00  0.00    -0.316 OA
BRANCH  17  18
HETATM   18  C14 UNL     1      26.036 -22.695 142.190  1.00  0.00     0.255 C 
HETATM   19  C15 UNL     1      27.106 -23.011 143.168  1.00  0.00     0.126 C 
HETATM   20  O3  UNL     1      25.647 -21.548 141.967  1.00  0.00    -0.266 OA
ENDBRANCH  17  18
ENDBRANCH  12  17
BRANCH  10  21
HETATM   21  O1  UNL     1      27.079 -27.375 139.053  1.00  0.00    -0.395 OA
ATOM     22  H1  UNL     1      27.338 -28.284 139.144  1.00  0.00     0.210 HD
ENDBRANCH  10  21
BRANCH  15  23
HETATM   23  O4  UNL     1      22.712 -26.187 143.308  1.00  0.00    -0.395 OA
ATOM     24  H4  UNL     1      21.981 -26.501 143.826  1.00  0.00     0.210 HD
ENDBRANCH  15  23
BRANCH  16  25
HETATM   25  C20 UNL     1      21.265 -27.604 140.294  1.00  0.00     0.179 C 
BRANCH  25  26
HETATM   26  O5  UNL     1      21.006 -26.361 139.824  1.00  0.00    -0.395 OA
HETATM   27  C21 UNL     1      20.949 -26.397 138.446  1.00  0.00     0.201 C 
ENDBRANCH  25  26
ENDBRANCH  16  25
BRANCH   1  28
HETATM   28  C2  UNL     1      20.023 -27.738 142.842  1.00  0.00     0.001 C 
HETATM   29  C1  UNL     1      19.176 -28.851 143.483  1.00  0.00     0.005 C 
ENDBRANCH   1  28
TORSDOF 7
ENDMDL
MODEL 4
REMARK VINA RESULT: -6.014915459      9.027     12.478
REMARK  7 active torsions:
REMARK  status: ('A' for Active; 'I' for Inactive)
REMARK    1  A    between atoms: C2_2  and  C3_3 
REMARK    2  A    between atoms: C11_12  and  O1_13 
REMARK    3  A    between atoms: C13_16  and  O2_17 
REMARK    4  A    between atoms: O2_17  and  C14_18 
REMARK    5  A    between atoms: C18_23  and  O4_24 
REMARK    6  A    between atoms: C19_26  and  C20_27 
REMARK    7  A    between atoms: C20_27  and  O5_28 
ROOT
HETATM    1  C3  UNL     1      22.855 -29.202 141.327  1.00  0.00    -0.001 C 
HETATM    2  C4  UNL     1      21.851 -30.300 141.173  1.00  0.00     0.007 C 
HETATM    3  C5  UNL     1      21.602 -30.719 139.777  1.00  0.00     0.021 C 
HETATM    4  C6  UNL     1      21.293 -29.493 138.956  1.00  0.00     0.087 C 
HETATM    5 CL1  UNL     1      21.150 -30.162 137.272  1.00  0.00    -0.125 Cl
HETATM    6  C7  UNL     1      22.463 -28.533 139.018  1.00  0.00     0.018 C 
HETATM    7  C8  UNL     1      22.196 -27.564 137.930  1.00  0.00     0.019 C 
HETATM    8  C9  UNL     1      23.163 -26.574 137.504  1.00  0.00    -0.011 C 
HETATM    9  C10 UNL     1      22.615 -25.185 137.506  1.00  0.00     0.018 C 
HETATM   10  C11 UNL     1      23.743 -26.777 136.087  1.00  0.00     0.129 C 
HETATM   11  C12 UNL     1      24.851 -25.738 136.159  1.00  0.00     0.065 C 
HETATM   12  C13 UNL     1      25.523 -26.101 137.427  1.00  0.00     0.139 C 
HETATM   13  C16 UNL     1      24.457 -26.730 138.259  1.00  0.00     0.028 C 
HETATM   14  C17 UNL     1      24.229 -26.184 139.604  1.00  0.00     0.040 C 
HETATM   15  C18 UNL     1      23.945 -27.261 140.600  1.00  0.00     0.130 C 
HETATM   16  C19 UNL     1      22.657 -28.031 140.379  1.00  0.00     0.016 C 
ENDROOT
BRANCH  12  17
HETATM   17  O2  UNL     1      26.298 -25.155 138.053  1.00  0.00    -0.316 OA
BRANCH  17  18
HETATM   18  C14 UNL     1      27.519 -25.275 138.622  1.00  0.00     0.255 C 
HETATM   19  C15 UNL     1      28.244 -24.051 139.043  1.00  0.00     0.126 C 
HETATM   20  O3  UNL     1      27.978 -26.409 138.762  1.00  0.00    -0.266 OA
ENDBRANCH  17  18
ENDBRANCH  12  17
BRANCH  10  21
HETATM   21  O1  UNL     1      22.842 -26.416 135.118  1.00  0.00    -0.395 OA
ATOM     22  H1  UNL     1      23.030 -26.844 134.291  1.00  0.00     0.210 HD
ENDBRANCH  10  21
BRANCH  15  23
HETATM   23  O4  UNL     1      25.069 -28.077 140.674  1.00  0.00    -0.395 OA
ATOM     24  H4  UNL     1      25.025 -28.557 141.492  1.00  0.00     0.210 HD
ENDBRANCH  15  23
BRANCH  16  25
HETATM   25  C20 UNL     1      21.574 -27.115 140.889  1.00  0.00     0.179 C 
BRANCH  25  26
HETATM   26  O5  UNL     1      21.903 -25.819 141.104  1.00  0.00    -0.395 OA
HETATM   27  C21 UNL     1      20.816 -25.018 140.822  1.00  0.00     0.201 C 
ENDBRANCH  25  26
ENDBRANCH  16  25
BRANCH   1  28
HETATM   28  C2  UNL     1      22.849 -28.816 142.767  1.00  0.00     0.001 C 
HETATM   29  C1  UNL     1      21.702 -29.606 143.419  1.00  0.00     0.005 C 
ENDBRANCH   1  28
TORSDOF 7
ENDMDL
MODEL 5
REMARK VINA RESULT: -5.996121430      7.980     11.033
REMARK  7 active torsions:
REMARK  status: ('A' for Active; 'I' for Inactive)
REMARK    1  A    between atoms: C2_2  and  C3_3 
REMARK    2  A    between atoms: C11_12  and  O1_13 
REMARK    3  A    between atoms: C13_16  and  O2_17 
REMARK    4  A    between atoms: O2_17  and  C14_18 
REMARK    5  A    between atoms: C18_23  and  O4_24 
REMARK    6  A    between atoms: C19_26  and  C20_27 
REMARK    7  A    between atoms: C20_27  and  O5_28 
ROOT
HETATM    1  C3  UNL     1      23.135 -25.911 135.858  1.00  0.00    -0.001 C 
HETATM    2  C4  UNL     1      21.660 -26.157 135.826  1.00  0.00     0.007 C 
HETATM    3  C5  UNL     1      20.949 -25.816 137.076  1.00  0.00     0.021 C 
HETATM    4  C6  UNL     1      21.652 -26.489 138.227  1.00  0.00     0.087 C 
HETATM    5 CL1  UNL     1      20.745 -25.865 139.674  1.00  0.00    -0.125 Cl
HETATM    6  C7  UNL     1      23.089 -26.014 138.291  1.00  0.00     0.018 C 
HETATM    7  C8  UNL     1      23.560 -26.459 139.623  1.00  0.00     0.019 C 
HETATM    8  C9  UNL     1      24.830 -26.049 140.185  1.00  0.00    -0.011 C 
HETATM    9  C10 UNL     1      25.674 -27.201 140.620  1.00  0.00     0.018 C 
HETATM   10  C11 UNL     1      24.745 -25.122 141.418  1.00  0.00     0.129 C 
HETATM   11  C12 UNL     1      26.215 -24.741 141.500  1.00  0.00     0.065 C 
HETATM   12  C13 UNL     1      26.492 -24.308 140.112  1.00  0.00     0.139 C 
HETATM   13  C16 UNL     1      25.532 -25.079 139.271  1.00  0.00     0.028 C 
HETATM   14  C17 UNL     1      26.079 -25.868 138.159  1.00  0.00     0.040 C 
HETATM   15  C18 UNL     1      25.205 -25.804 136.949  1.00  0.00     0.130 C 
HETATM   16  C19 UNL     1      23.833 -26.434 137.103  1.00  0.00     0.016 C 
ENDROOT
BRANCH  12  17
HETATM   17  O2  UNL     1      27.796 -24.290 139.679  1.00  0.00    -0.316 OA
BRANCH  17  18
HETATM   18  C14 UNL     1      28.499 -23.295 139.092  1.00  0.00     0.255 C 
HETATM   19  C15 UNL     1      29.625 -22.672 139.830  1.00  0.00     0.126 C 
HETATM   20  O3  UNL     1      28.166 -22.949 137.958  1.00  0.00    -0.266 OA
ENDBRANCH  17  18
ENDBRANCH  12  17
BRANCH  10  21
HETATM   21  O1  UNL     1      24.390 -25.818 142.546  1.00  0.00    -0.395 OA
ATOM     22  H1  UNL     1      24.938 -26.583 142.670  1.00  0.00     0.210 HD
ENDBRANCH  10  21
BRANCH  15  23
HETATM   23  O4  UNL     1      25.158 -24.479 136.529  1.00  0.00    -0.395 OA
ATOM     24  H4  UNL     1      25.205 -24.475 135.580  1.00  0.00     0.210 HD
ENDBRANCH  15  23
BRANCH  16  25
HETATM   25  C20 UNL     1      24.080 -27.917 136.987  1.00  0.00     0.179 C 
BRANCH  25  26
HETATM   26  O5  UNL     1      23.204 -28.745 137.604  1.00  0.00    -0.395 OA
HETATM   27  C21 UNL     1      22.620 -29.573 136.667  1.00  0.00     0.201 C 
ENDBRANCH  25  26
ENDBRANCH  16  25
BRANCH   1  28
HETATM   28  C2  UNL     1      23.687 -26.459 134.586  1.00  0.00     0.001 C 
HETATM   29  C1  UNL     1      22.476 -26.852 133.724  1.00  0.00     0.005 C 
ENDBRANCH   1  28
TORSDOF 7
ENDMDL
