MODEL 1
REMARK VINA RESULT: -5.773681303      0.000      0.000
REMARK  5 active torsions:
REMARK  status: ('A' for Active; 'I' for Inactive)
REMARK    1  A    between atoms: C2_2  and  C3_8 
REMARK    2  A    between atoms: N1_3  and  N2_5 
REMARK    3  A    between atoms: C3_8  and  O1_9 
REMARK    4  A    between atoms: C4_12  and  C5_13 
REMARK    5  A    between atoms: C6_18  and  C7_19 
ROOT
HETATM    1  C3  UNL     1     -14.995 -14.779 -31.591  1.00  0.00     0.270 C 
HETATM    2  O2  UNL     1     -15.711 -15.600 -32.493  1.00  0.00    -0.275 OA
HETATM    3  C4  UNL     1     -15.460 -15.041 -33.759  1.00  0.00     0.400 C 
HETATM    4  O5  UNL     1     -14.178 -15.410 -34.057  1.00  0.00    -0.206 OA
HETATM    5  N3  UNL     1     -13.392 -14.620 -33.263  1.00  0.00    -0.037 NA
HETATM    6  C6  UNL     1     -14.418 -13.806 -32.618  1.00  0.00     0.313 C 
HETATM    7  O8  UNL     1     -15.359 -13.711 -33.553  1.00  0.00    -0.277 OA
ENDROOT
BRANCH   1   8
HETATM    8  C2  UNL     1     -14.049 -15.612 -30.868  1.00  0.00     0.066 C 
HETATM    9  C1  UNL     1     -13.609 -15.194 -29.494  1.00  0.00     0.071 C 
HETATM   10  N1  UNL     1     -13.650 -16.737 -31.292  1.00  0.00    -0.310 N 
ATOM     11  H1  UNL     1     -13.918 -17.038 -32.229  1.00  0.00     0.185 HD
BRANCH  10  12
HETATM   12  N2  UNL     1     -12.841 -17.589 -30.498  1.00  0.00    -0.345 N 
ATOM     13  H22 UNL     1     -13.038 -17.645 -29.498  1.00  0.00     0.176 HD
ATOM     14  H21 UNL     1     -12.081 -18.136 -30.902  1.00  0.00     0.176 HD
ENDBRANCH  10  12
ENDBRANCH   1   8
BRANCH   1  15
HETATM   15  O1  UNL     1     -15.847 -14.110 -30.754  1.00  0.00    -0.357 OA
ATOM     16  H1  UNL     1     -15.928 -13.189 -30.978  1.00  0.00     0.213 HD
ENDBRANCH   1  15
BRANCH   6  17
HETATM   17  C7  UNL     1     -13.933 -12.592 -31.950  1.00  0.00     0.236 C 
HETATM   18  O6  UNL     1     -12.780 -12.447 -31.541  1.00  0.00    -0.644 OA
HETATM   19  O7  UNL     1     -14.834 -11.513 -31.770  1.00  0.00    -0.644 OA
ENDBRANCH   6  17
BRANCH   3  20
HETATM   20  C5  UNL     1     -16.516 -15.416 -34.689  1.00  0.00     0.273 C 
HETATM   21  O3  UNL     1     -16.648 -16.573 -35.223  1.00  0.00    -0.642 OA
HETATM   22  O4  UNL     1     -17.452 -14.464 -35.028  1.00  0.00    -0.642 OA
ENDBRANCH   3  20
TORSDOF 5
ENDMDL
MODEL 2
REMARK VINA RESULT: -5.758376476      2.256      4.585
REMARK  5 active torsions:
REMARK  status: ('A' for Active; 'I' for Inactive)
REMARK    1  A    between atoms: C2_2  and  C3_8 
REMARK    2  A    between atoms: N1_3  and  N2_5 
REMARK    3  A    between atoms: C3_8  and  O1_9 
REMARK    4  A    between atoms: C4_12  and  C5_13 
REMARK    5  A    between atoms: C6_18  and  C7_19 
ROOT
HETATM    1  C3  UNL     1     -15.867 -13.659 -32.741  1.00  0.00     0.270 C 
HETATM    2  O2  UNL     1     -14.679 -13.948 -32.030  1.00  0.00    -0.275 OA
HETATM    3  C4  UNL     1     -14.078 -14.996 -32.750  1.00  0.00     0.400 C 
HETATM    4  O5  UNL     1     -13.557 -14.401 -33.866  1.00  0.00    -0.206 OA
HETATM    5  N3  UNL     1     -14.640 -14.129 -34.656  1.00  0.00    -0.037 NA
HETATM    6  C6  UNL     1     -15.703 -14.708 -33.841  1.00  0.00     0.313 C 
HETATM    7  O8  UNL     1     -15.100 -15.729 -33.240  1.00  0.00    -0.277 OA
ENDROOT
BRANCH   1   8
HETATM    8  C2  UNL     1     -15.827 -12.265 -33.149  1.00  0.00     0.066 C 
HETATM    9  C1  UNL     1     -14.745 -11.376 -32.606  1.00  0.00     0.071 C 
HETATM   10  N1  UNL     1     -16.598 -11.777 -34.027  1.00  0.00    -0.310 N 
ATOM     11  H1  UNL     1     -17.354 -12.352 -34.399  1.00  0.00     0.185 HD
BRANCH  10  12
HETATM   12  N2  UNL     1     -16.438 -10.452 -34.505  1.00  0.00    -0.345 N 
ATOM     13  H22 UNL     1     -15.525 -10.009 -34.400  1.00  0.00     0.176 HD
ATOM     14  H21 UNL     1     -17.206  -9.944 -34.944  1.00  0.00     0.176 HD
ENDBRANCH  10  12
ENDBRANCH   1   8
BRANCH   1  15
HETATM   15  O1  UNL     1     -16.972 -13.953 -31.989  1.00  0.00    -0.357 OA
ATOM     16  H1  UNL     1     -17.697 -14.270 -32.516  1.00  0.00     0.213 HD
ENDBRANCH   1  15
BRANCH   6  17
HETATM   17  C7  UNL     1     -16.982 -14.924 -34.530  1.00  0.00     0.236 C 
HETATM   18  O6  UNL     1     -17.914 -14.119 -34.514  1.00  0.00    -0.644 OA
HETATM   19  O7  UNL     1     -17.159 -16.120 -35.268  1.00  0.00    -0.644 OA
ENDBRANCH   6  17
BRANCH   3  20
HETATM   20  C5  UNL     1     -13.174 -15.743 -31.886  1.00  0.00     0.273 C 
HETATM   21  O3  UNL     1     -13.512 -16.740 -31.157  1.00  0.00    -0.642 OA
HETATM   22  O4  UNL     1     -11.852 -15.360 -31.843  1.00  0.00    -0.642 OA
ENDBRANCH   3  20
TORSDOF 5
ENDMDL
MODEL 3
REMARK VINA RESULT: -5.718020433      1.162      1.201
REMARK  5 active torsions:
REMARK  status: ('A' for Active; 'I' for Inactive)
REMARK    1  A    between atoms: C2_2  and  C3_8 
REMARK    2  A    between atoms: N1_3  and  N2_5 
REMARK    3  A    between atoms: C3_8  and  O1_9 
REMARK    4  A    between atoms: C4_12  and  C5_13 
REMARK    5  A    between atoms: C6_18  and  C7_19 
ROOT
HETATM    1  C3  UNL     1     -14.690 -14.406 -31.879  1.00  0.00     0.270 C 
HETATM    2  O2  UNL     1     -15.616 -15.178 -32.619  1.00  0.00    -0.275 OA
HETATM    3  C4  UNL     1     -15.686 -14.546 -33.872  1.00  0.00     0.400 C 
HETATM    4  O5  UNL     1     -14.522 -14.889 -34.504  1.00  0.00    -0.206 OA
HETATM    5  N3  UNL     1     -13.556 -14.141 -33.888  1.00  0.00    -0.037 NA
HETATM    6  C6  UNL     1     -14.380 -13.372 -32.960  1.00  0.00     0.313 C 
HETATM    7  O8  UNL     1     -15.525 -13.229 -33.622  1.00  0.00    -0.277 OA
ENDROOT
BRANCH   1   8
HETATM    8  C2  UNL     1     -13.599 -15.274 -31.466  1.00  0.00     0.066 C 
HETATM    9  C1  UNL     1     -13.870 -16.737 -31.256  1.00  0.00     0.071 C 
HETATM   10  N1  UNL     1     -12.399 -14.883 -31.372  1.00  0.00    -0.310 N 
ATOM     11  H1  UNL     1     -12.188 -13.892 -31.490  1.00  0.00     0.185 HD
BRANCH  10  12
HETATM   12  N2  UNL     1     -11.339 -15.787 -31.107  1.00  0.00    -0.345 N 
ATOM     13  H22 UNL     1     -11.483 -16.774 -31.321  1.00  0.00     0.176 HD
ATOM     14  H21 UNL     1     -10.452 -15.473 -30.713  1.00  0.00     0.176 HD
ENDBRANCH  10  12
ENDBRANCH   1   8
BRANCH   1  15
HETATM   15  O1  UNL     1     -15.300 -13.792 -30.819  1.00  0.00    -0.357 OA
ATOM     16  H1  UNL     1     -15.355 -12.850 -30.927  1.00  0.00     0.213 HD
ENDBRANCH   1  15
BRANCH   6  17
HETATM   17  C7  UNL     1     -13.733 -12.195 -32.366  1.00  0.00     0.236 C 
HETATM   18  O6  UNL     1     -13.168 -12.202 -31.273  1.00  0.00    -0.644 OA
HETATM   19  O7  UNL     1     -13.746 -10.978 -33.092  1.00  0.00    -0.644 OA
ENDBRANCH   6  17
BRANCH   3  20
HETATM   20  C5  UNL     1     -16.944 -14.874 -34.529  1.00  0.00     0.273 C 
HETATM   21  O3  UNL     1     -17.215 -15.999 -35.077  1.00  0.00    -0.642 OA
HETATM   22  O4  UNL     1     -17.927 -13.909 -34.568  1.00  0.00    -0.642 OA
ENDBRANCH   3  20
TORSDOF 5
ENDMDL
MODEL 4
REMARK VINA RESULT: -5.592598934      2.347      4.238
REMARK  5 active torsions:
REMARK  status: ('A' for Active; 'I' for Inactive)
REMARK    1  A    between atoms: C2_2  and  C3_8 
REMARK    2  A    between atoms: N1_3  and  N2_5 
REMARK    3  A    between atoms: C3_8  and  O1_9 
REMARK    4  A    between atoms: C4_12  and  C5_13 
REMARK    5  A    between atoms: C6_18  and  C7_19 
ROOT
HETATM    1  C3  UNL     1     -15.071 -14.677 -31.754  1.00  0.00     0.270 C 
HETATM    2  O2  UNL     1     -14.327 -15.302 -30.726  1.00  0.00    -0.275 OA
HETATM    3  C4  UNL     1     -13.430 -16.149 -31.399  1.00  0.00     0.400 C 
HETATM    4  O5  UNL     1     -12.479 -15.313 -31.915  1.00  0.00    -0.206 OA
HETATM    5  N3  UNL     1     -13.093 -14.693 -32.969  1.00  0.00    -0.037 NA
HETATM    6  C6  UNL     1     -14.390 -15.361 -32.938  1.00  0.00     0.313 C 
HETATM    7  O8  UNL     1     -14.091 -16.578 -32.495  1.00  0.00    -0.277 OA
ENDROOT
BRANCH   1   8
HETATM    8  C2  UNL     1     -14.898 -13.240 -31.633  1.00  0.00     0.066 C 
HETATM    9  C1  UNL     1     -15.978 -12.328 -32.142  1.00  0.00     0.071 C 
HETATM   10  N1  UNL     1     -13.924 -12.707 -31.022  1.00  0.00    -0.310 N 
ATOM     11  H1  UNL     1     -13.167 -13.300 -30.682  1.00  0.00     0.185 HD
BRANCH  10  12
HETATM   12  N2  UNL     1     -13.860 -11.308 -30.798  1.00  0.00    -0.345 N 
ATOM     13  H22 UNL     1     -13.340 -10.737 -31.465  1.00  0.00     0.176 HD
ATOM     14  H21 UNL     1     -14.317 -10.873 -29.997  1.00  0.00     0.176 HD
ENDBRANCH  10  12
ENDBRANCH   1   8
BRANCH   1  15
HETATM   15  O1  UNL     1     -16.387 -15.051 -31.703  1.00  0.00    -0.357 OA
ATOM     16  H1  UNL     1     -16.589 -15.753 -32.312  1.00  0.00     0.213 HD
ENDBRANCH   1  15
BRANCH   6  17
HETATM   17  C7  UNL     1     -15.207 -15.210 -34.149  1.00  0.00     0.236 C 
HETATM   18  O6  UNL     1     -16.177 -15.920 -34.415  1.00  0.00    -0.644 OA
HETATM   19  O7  UNL     1     -14.874 -14.182 -35.066  1.00  0.00    -0.644 OA
ENDBRANCH   6  17
BRANCH   3  20
HETATM   20  C5  UNL     1     -12.993 -17.221 -30.515  1.00  0.00     0.273 C 
HETATM   21  O3  UNL     1     -12.208 -17.073 -29.513  1.00  0.00    -0.642 OA
HETATM   22  O4  UNL     1     -13.453 -18.496 -30.761  1.00  0.00    -0.642 OA
ENDBRANCH   3  20
TORSDOF 5
ENDMDL
MODEL 5
REMARK VINA RESULT: -5.530962711      2.338      4.117
REMARK  5 active torsions:
REMARK  status: ('A' for Active; 'I' for Inactive)
REMARK    1  A    between atoms: C2_2  and  C3_8 
REMARK    2  A    between atoms: N1_3  and  N2_5 
REMARK    3  A    between atoms: C3_8  and  O1_9 
REMARK    4  A    between atoms: C4_12  and  C5_13 
REMARK    5  A    between atoms: C6_18  and  C7_19 
ROOT
HETATM    1  C3  UNL     1     -14.380 -14.665 -32.571  1.00  0.00     0.270 C 
HETATM    2  O2  UNL     1     -13.808 -15.944 -32.376  1.00  0.00    -0.275 OA
HETATM    3  C4  UNL     1     -14.192 -16.311 -31.074  1.00  0.00     0.400 C 
HETATM    4  O5  UNL     1     -15.513 -16.648 -31.181  1.00  0.00    -0.206 OA
HETATM    5  N3  UNL     1     -16.168 -15.455 -31.319  1.00  0.00    -0.037 NA
HETATM    6  C6  UNL     1     -15.045 -14.531 -31.202  1.00  0.00     0.313 C 
HETATM    7  O8  UNL     1     -14.222 -15.161 -30.369  1.00  0.00    -0.277 OA
ENDROOT
BRANCH   1   8
HETATM    8  C2  UNL     1     -15.258 -14.730 -33.727  1.00  0.00     0.066 C 
HETATM    9  C1  UNL     1     -15.811 -13.455 -34.297  1.00  0.00     0.071 C 
HETATM   10  N1  UNL     1     -15.503 -15.804 -34.353  1.00  0.00    -0.310 N 
ATOM     11  H1  UNL     1     -15.156 -16.687 -33.978  1.00  0.00     0.185 HD
BRANCH  10  12
HETATM   12  N2  UNL     1     -16.247 -15.810 -35.560  1.00  0.00    -0.345 N 
ATOM     13  H22 UNL     1     -16.360 -14.927 -36.060  1.00  0.00     0.176 HD
ATOM     14  H21 UNL     1     -16.662 -16.665 -35.930  1.00  0.00     0.176 HD
ENDBRANCH  10  12
ENDBRANCH   1   8
BRANCH   1  15
HETATM   15  O1  UNL     1     -13.409 -13.709 -32.705  1.00  0.00    -0.357 OA
ATOM     16  H1  UNL     1     -13.044 -13.443 -31.869  1.00  0.00     0.213 HD
ENDBRANCH   1  15
BRANCH   6  17
HETATM   17  C7  UNL     1     -15.403 -13.130 -30.948  1.00  0.00     0.236 C 
HETATM   18  O6  UNL     1     -14.579 -12.235 -30.755  1.00  0.00    -0.644 OA
HETATM   19  O7  UNL     1     -16.775 -12.774 -30.933  1.00  0.00    -0.644 OA
ENDBRANCH   6  17
BRANCH   3  20
HETATM   20  C5  UNL     1     -13.271 -17.307 -30.543  1.00  0.00     0.273 C 
HETATM   21  O3  UNL     1     -12.252 -17.049 -29.812  1.00  0.00    -0.642 OA
HETATM   22  O4  UNL     1     -13.505 -18.632 -30.840  1.00  0.00    -0.642 OA
ENDBRANCH   3  20
TORSDOF 5
ENDMDL
