MODEL 1
REMARK VINA RESULT: -5.560998922      0.000      0.000
REMARK  9 active torsions:
REMARK  status: ('A' for Active; 'I' for Inactive)
REMARK    1  A    between atoms: O1_2  and  C2_3 
REMARK    2  A    between atoms: C2_3  and  C3_5 
REMARK    3  A    between atoms: C3_5  and  O3_6 
REMARK    4  A    between atoms: O3_6  and  N1_7 
REMARK    5  A    between atoms: C5_12  and  N3_13 
REMARK    6  A    between atoms: N3_13  and  N4_15 
REMARK    7  A    between atoms: N5_18  and  N6_19 
REMARK    8  A    between atoms: C6_22  and  N7_23 
REMARK    9  A    between atoms: N7_23  and  O4_25 
ROOT
HETATM    1  N1  UNL     1     -14.625 -15.517 -32.919  1.00  0.00    -0.095 N 
ATOM      2  H1  UNL     1     -15.435 -16.137 -32.922  1.00  0.00     0.213 HD
HETATM    3  C4  UNL     1     -13.822 -15.829 -32.020  1.00  0.00     0.731 A 
HETATM    4  N2  UNL     1     -14.100 -16.902 -31.189  1.00  0.00    -0.016 N 
ATOM      5  H2  UNL     1     -14.966 -17.421 -31.331  1.00  0.00     0.203 HD
HETATM    6  C5  UNL     1     -13.286 -17.281 -30.216  1.00  0.00     0.747 A 
HETATM    7  N5  UNL     1     -12.136 -16.664 -29.956  1.00  0.00     0.087 N 
HETATM    8  C6  UNL     1     -11.843 -15.603 -30.763  1.00  0.00     0.752 A 
HETATM    9  N8  UNL     1     -12.662 -15.209 -31.754  1.00  0.00    -0.016 N 
ATOM     10  H8  UNL     1     -12.391 -14.410 -32.327  1.00  0.00     0.203 HD
ENDROOT
BRANCH   1  11
HETATM   11  O3  UNL     1     -14.712 -14.636 -33.836  1.00  0.00    -0.257 OA
BRANCH  11  12
HETATM   12  C3  UNL     1     -15.377 -14.521 -35.020  1.00  0.00     0.312 C 
BRANCH  12  13
HETATM   13  C2  UNL     1     -16.726 -15.122 -34.875  1.00  0.00     0.284 C 
HETATM   14  O2  UNL     1     -16.866 -16.352 -35.001  1.00  0.00    -0.263 OA
BRANCH  13  15
HETATM   15  O1  UNL     1     -17.810 -14.329 -34.602  1.00  0.00    -0.325 OA
HETATM   16  C1  UNL     1     -17.772 -13.310 -33.607  1.00  0.00     0.213 C 
ENDBRANCH  13  15
ENDBRANCH  12  13
ENDBRANCH  11  12
ENDBRANCH   1  11
BRANCH   6  17
HETATM   17  N3  UNL     1     -13.606 -18.290 -29.479  1.00  0.00    -0.136 N 
ATOM     18  H3  UNL     1     -13.323 -18.269 -28.499  1.00  0.00     0.205 HD
BRANCH  17  19
HETATM   19  N4  UNL     1     -14.303 -19.392 -29.919  1.00  0.00    -0.331 N 
ATOM     20  H42 UNL     1     -14.920 -19.252 -30.719  1.00  0.00     0.177 HD
ATOM     21  H41 UNL     1     -14.241 -20.321 -29.503  1.00  0.00     0.177 HD
ENDBRANCH  17  19
ENDBRANCH   6  17
BRANCH   8  22
HETATM   22  N7  UNL     1     -10.739 -14.973 -30.549  1.00  0.00    -0.096 N 
ATOM     23  H7  UNL     1     -10.731 -14.090 -30.038  1.00  0.00     0.213 HD
BRANCH  22  24
HETATM   24  O4  UNL     1      -9.580 -15.519 -31.024  1.00  0.00    -0.276 OA
ATOM     25  H4  UNL     1      -8.863 -14.935 -31.238  1.00  0.00     0.245 HD
ENDBRANCH  22  24
ENDBRANCH   8  22
BRANCH   7  26
HETATM   26  N6  UNL     1     -11.259 -17.032 -28.947  1.00  0.00    -0.309 N 
ATOM     27  H62 UNL     1     -11.305 -17.969 -28.547  1.00  0.00     0.178 HD
ATOM     28  H61 UNL     1     -10.543 -16.422 -28.553  1.00  0.00     0.178 HD
ENDBRANCH   7  26
TORSDOF 9
ENDMDL
MODEL 2
REMARK VINA RESULT: -5.535008849      2.038      3.343
REMARK  9 active torsions:
REMARK  status: ('A' for Active; 'I' for Inactive)
REMARK    1  A    between atoms: O1_2  and  C2_3 
REMARK    2  A    between atoms: C2_3  and  C3_5 
REMARK    3  A    between atoms: C3_5  and  O3_6 
REMARK    4  A    between atoms: O3_6  and  N1_7 
REMARK    5  A    between atoms: C5_12  and  N3_13 
REMARK    6  A    between atoms: N3_13  and  N4_15 
REMARK    7  A    between atoms: N5_18  and  N6_19 
REMARK    8  A    between atoms: C6_22  and  N7_23 
REMARK    9  A    between atoms: N7_23  and  O4_25 
ROOT
HETATM    1  N1  UNL     1     -12.961 -14.378 -32.435  1.00  0.00    -0.095 N 
ATOM      2  H1  UNL     1     -13.118 -13.376 -32.544  1.00  0.00     0.213 HD
HETATM    3  C4  UNL     1     -12.393 -14.631 -31.357  1.00  0.00     0.731 A 
HETATM    4  N2  UNL     1     -12.063 -13.601 -30.492  1.00  0.00    -0.016 N 
ATOM      5  H2  UNL     1     -12.295 -12.645 -30.759  1.00  0.00     0.203 HD
HETATM    6  C5  UNL     1     -11.460 -13.808 -29.333  1.00  0.00     0.747 A 
HETATM    7  N5  UNL     1     -11.119 -15.021 -28.902  1.00  0.00     0.087 N 
HETATM    8  C6  UNL     1     -11.435 -16.052 -29.741  1.00  0.00     0.752 A 
HETATM    9  N8  UNL     1     -12.048 -15.853 -30.920  1.00  0.00    -0.016 N 
ATOM     10  H8  UNL     1     -12.260 -16.661 -31.505  1.00  0.00     0.203 HD
ENDROOT
BRANCH   1  11
HETATM   11  O3  UNL     1     -13.400 -15.028 -33.441  1.00  0.00    -0.257 OA
BRANCH  11  12
HETATM   12  C3  UNL     1     -14.430 -14.884 -34.322  1.00  0.00     0.312 C 
BRANCH  12  13
HETATM   13  C2  UNL     1     -15.630 -15.564 -33.774  1.00  0.00     0.284 C 
HETATM   14  O2  UNL     1     -15.802 -15.607 -32.542  1.00  0.00    -0.263 OA
BRANCH  13  15
HETATM   15  O1  UNL     1     -16.543 -16.140 -34.618  1.00  0.00    -0.325 OA
HETATM   16  C1  UNL     1     -16.962 -15.510 -35.825  1.00  0.00     0.213 C 
ENDBRANCH  13  15
ENDBRANCH  12  13
ENDBRANCH  11  12
ENDBRANCH   1  11
BRANCH   6  17
HETATM   17  N3  UNL     1     -11.181 -12.803 -28.574  1.00  0.00    -0.136 N 
ATOM     18  H3  UNL     1     -10.412 -12.907 -27.912  1.00  0.00     0.205 HD
BRANCH  17  19
HETATM   19  N4  UNL     1     -11.847 -11.599 -28.594  1.00  0.00    -0.331 N 
ATOM     20  H42 UNL     1     -12.567 -11.463 -27.884  1.00  0.00     0.177 HD
ATOM     21  H41 UNL     1     -11.669 -10.848 -29.262  1.00  0.00     0.177 HD
ENDBRANCH  17  19
ENDBRANCH   6  17
BRANCH   8  22
HETATM   22  N7  UNL     1     -11.124 -17.245 -29.367  1.00  0.00    -0.096 N 
ATOM     23  H7  UNL     1     -11.843 -17.901 -29.061  1.00  0.00     0.213 HD
BRANCH  22  24
HETATM   24  O4  UNL     1      -9.808 -17.609 -29.391  1.00  0.00    -0.276 OA
ATOM     25  H4  UNL     1      -9.577 -18.437 -29.794  1.00  0.00     0.245 HD
ENDBRANCH  22  24
ENDBRANCH   8  22
BRANCH   7  26
HETATM   26  N6  UNL     1     -10.486 -15.276 -27.696  1.00  0.00    -0.309 N 
ATOM     27  H62 UNL     1     -10.077 -14.510 -27.161  1.00  0.00     0.178 HD
ATOM     28  H61 UNL     1     -10.389 -16.202 -27.279  1.00  0.00     0.178 HD
ENDBRANCH   7  26
TORSDOF 9
ENDMDL
MODEL 3
REMARK VINA RESULT: -5.513153980      2.048      2.842
REMARK  9 active torsions:
REMARK  status: ('A' for Active; 'I' for Inactive)
REMARK    1  A    between atoms: O1_2  and  C2_3 
REMARK    2  A    between atoms: C2_3  and  C3_5 
REMARK    3  A    between atoms: C3_5  and  O3_6 
REMARK    4  A    between atoms: O3_6  and  N1_7 
REMARK    5  A    between atoms: C5_12  and  N3_13 
REMARK    6  A    between atoms: N3_13  and  N4_15 
REMARK    7  A    between atoms: N5_18  and  N6_19 
REMARK    8  A    between atoms: C6_22  and  N7_23 
REMARK    9  A    between atoms: N7_23  and  O4_25 
ROOT
HETATM    1  N1  UNL     1     -16.137 -14.803 -31.372  1.00  0.00    -0.095 N 
ATOM      2  H1  UNL     1     -17.126 -14.705 -31.146  1.00  0.00     0.213 HD
HETATM    3  C4  UNL     1     -15.656 -15.831 -30.861  1.00  0.00     0.731 A 
HETATM    4  N2  UNL     1     -16.460 -16.663 -30.100  1.00  0.00    -0.016 N 
ATOM      5  H2  UNL     1     -17.440 -16.414 -29.971  1.00  0.00     0.203 HD
HETATM    6  C5  UNL     1     -16.007 -17.769 -29.531  1.00  0.00     0.747 A 
HETATM    7  N5  UNL     1     -14.743 -18.172 -29.642  1.00  0.00     0.087 N 
HETATM    8  C6  UNL     1     -13.933 -17.365 -30.389  1.00  0.00     0.752 A 
HETATM    9  N8  UNL     1     -14.383 -16.241 -30.971  1.00  0.00    -0.016 N 
ATOM     10  H8  UNL     1     -13.732 -15.677 -31.518  1.00  0.00     0.203 HD
ENDROOT
BRANCH   1  11
HETATM   11  O3  UNL     1     -15.730 -13.839 -32.101  1.00  0.00    -0.257 OA
BRANCH  11  12
HETATM   12  C3  UNL     1     -15.486 -13.655 -33.430  1.00  0.00     0.312 C 
BRANCH  12  13
HETATM   13  C2  UNL     1     -15.073 -14.949 -34.027  1.00  0.00     0.284 C 
HETATM   14  O2  UNL     1     -13.864 -15.234 -34.095  1.00  0.00    -0.263 OA
BRANCH  13  15
HETATM   15  O1  UNL     1     -16.016 -15.824 -34.499  1.00  0.00    -0.325 OA
HETATM   16  C1  UNL     1     -16.849 -15.513 -35.613  1.00  0.00     0.213 C 
ENDBRANCH  13  15
ENDBRANCH  12  13
ENDBRANCH  11  12
ENDBRANCH   1  11
BRANCH   6  17
HETATM   17  N3  UNL     1     -16.810 -18.499 -28.834  1.00  0.00    -0.136 N 
ATOM     18  H3  UNL     1     -16.481 -18.834 -27.929  1.00  0.00     0.205 HD
BRANCH  17  19
HETATM   19  N4  UNL     1     -18.080 -18.857 -29.225  1.00  0.00    -0.331 N 
ATOM     20  H42 UNL     1     -18.850 -18.485 -28.669  1.00  0.00     0.177 HD
ATOM     21  H41 UNL     1     -18.294 -19.460 -30.019  1.00  0.00     0.177 HD
ENDBRANCH  17  19
ENDBRANCH   6  17
BRANCH   8  22
HETATM   22  N7  UNL     1     -12.700 -17.715 -30.525  1.00  0.00    -0.096 N 
ATOM     23  H7  UNL     1     -12.403 -18.289 -31.315  1.00  0.00     0.213 HD
BRANCH  22  24
HETATM   24  O4  UNL     1     -11.801 -17.298 -29.585  1.00  0.00    -0.276 OA
ATOM     25  H4  UNL     1     -10.876 -17.417 -29.762  1.00  0.00     0.245 HD
ENDBRANCH  22  24
ENDBRANCH   8  22
BRANCH   7  26
HETATM   26  N6  UNL     1     -14.233 -19.323 -29.061  1.00  0.00    -0.309 N 
ATOM     27  H62 UNL     1     -13.406 -19.270 -28.465  1.00  0.00     0.178 HD
ATOM     28  H61 UNL     1     -14.626 -20.255 -29.184  1.00  0.00     0.178 HD
ENDBRANCH   7  26
TORSDOF 9
ENDMDL
MODEL 4
REMARK VINA RESULT: -5.494297470      1.114      1.600
REMARK  9 active torsions:
REMARK  status: ('A' for Active; 'I' for Inactive)
REMARK    1  A    between atoms: O1_2  and  C2_3 
REMARK    2  A    between atoms: C2_3  and  C3_5 
REMARK    3  A    between atoms: C3_5  and  O3_6 
REMARK    4  A    between atoms: O3_6  and  N1_7 
REMARK    5  A    between atoms: C5_12  and  N3_13 
REMARK    6  A    between atoms: N3_13  and  N4_15 
REMARK    7  A    between atoms: N5_18  and  N6_19 
REMARK    8  A    between atoms: C6_22  and  N7_23 
REMARK    9  A    between atoms: N7_23  and  O4_25 
ROOT
HETATM    1  N1  UNL     1     -15.591 -15.029 -31.731  1.00  0.00    -0.095 N 
ATOM      2  H1  UNL     1     -16.393 -15.636 -31.568  1.00  0.00     0.213 HD
HETATM    3  C4  UNL     1     -14.555 -15.504 -31.230  1.00  0.00     0.731 A 
HETATM    4  N2  UNL     1     -14.607 -16.714 -30.557  1.00  0.00    -0.016 N 
ATOM      5  H2  UNL     1     -15.502 -17.196 -30.485  1.00  0.00     0.203 HD
HETATM    6  C5  UNL     1     -13.541 -17.268 -30.003  1.00  0.00     0.747 A 
HETATM    7  N5  UNL     1     -12.333 -16.711 -30.045  1.00  0.00     0.087 N 
HETATM    8  C6  UNL     1     -12.259 -15.517 -30.704  1.00  0.00     0.752 A 
HETATM    9  N8  UNL     1     -13.335 -14.945 -31.271  1.00  0.00    -0.016 N 
ATOM     10  H8  UNL     1     -13.221 -14.052 -31.750  1.00  0.00     0.203 HD
ENDROOT
BRANCH   1  11
HETATM   11  O3  UNL     1     -15.922 -13.990 -32.393  1.00  0.00    -0.257 OA
BRANCH  11  12
HETATM   12  C3  UNL     1     -15.680 -13.512 -33.646  1.00  0.00     0.312 C 
BRANCH  12  13
HETATM   13  C2  UNL     1     -14.952 -14.547 -34.424  1.00  0.00     0.284 C 
HETATM   14  O2  UNL     1     -13.711 -14.501 -34.494  1.00  0.00    -0.263 OA
BRANCH  13  15
HETATM   15  O1  UNL     1     -15.643 -15.546 -35.058  1.00  0.00    -0.325 OA
HETATM   16  C1  UNL     1     -16.971 -15.361 -35.540  1.00  0.00     0.213 C 
ENDBRANCH  13  15
ENDBRANCH  12  13
ENDBRANCH  11  12
ENDBRANCH   1  11
BRANCH   6  17
HETATM   17  N3  UNL     1     -13.659 -18.398 -29.392  1.00  0.00    -0.136 N 
ATOM     18  H3  UNL     1     -13.215 -18.490 -28.478  1.00  0.00     0.205 HD
BRANCH  17  19
HETATM   19  N4  UNL     1     -14.342 -19.487 -29.883  1.00  0.00    -0.331 N 
ATOM     20  H42 UNL     1     -15.220 -19.721 -29.420  1.00  0.00     0.177 HD
ATOM     21  H41 UNL     1     -14.030 -20.063 -30.664  1.00  0.00     0.177 HD
ENDBRANCH  17  19
ENDBRANCH   6  17
BRANCH   8  22
HETATM   22  N7  UNL     1     -11.110 -14.939 -30.771  1.00  0.00    -0.096 N 
ATOM     23  H7  UNL     1     -10.915 -14.097 -30.228  1.00  0.00     0.213 HD
BRANCH  22  24
HETATM   24  O4  UNL     1     -10.158 -15.483 -31.586  1.00  0.00    -0.276 OA
ATOM     25  H4  UNL     1      -9.486 -16.027 -31.194  1.00  0.00     0.245 HD
ENDBRANCH  22  24
ENDBRANCH   8  22
BRANCH   7  26
HETATM   26  N6  UNL     1     -11.194 -17.262 -29.478  1.00  0.00    -0.309 N 
ATOM     27  H62 UNL     1     -11.116 -17.341 -28.463  1.00  0.00     0.178 HD
ATOM     28  H61 UNL     1     -10.394 -17.609 -30.007  1.00  0.00     0.178 HD
ENDBRANCH   7  26
TORSDOF 9
ENDMDL
MODEL 5
REMARK VINA RESULT: -5.491409042      2.113      2.797
REMARK  9 active torsions:
REMARK  status: ('A' for Active; 'I' for Inactive)
REMARK    1  A    between atoms: O1_2  and  C2_3 
REMARK    2  A    between atoms: C2_3  and  C3_5 
REMARK    3  A    between atoms: C3_5  and  O3_6 
REMARK    4  A    between atoms: O3_6  and  N1_7 
REMARK    5  A    between atoms: C5_12  and  N3_13 
REMARK    6  A    between atoms: N3_13  and  N4_15 
REMARK    7  A    between atoms: N5_18  and  N6_19 
REMARK    8  A    between atoms: C6_22  and  N7_23 
REMARK    9  A    between atoms: N7_23  and  O4_25 
ROOT
HETATM    1  N1  UNL     1     -12.721 -15.400 -31.745  1.00  0.00    -0.095 N 
ATOM      2  H1  UNL     1     -13.065 -16.352 -31.865  1.00  0.00     0.213 HD
HETATM    3  C4  UNL     1     -11.813 -15.351 -30.895  1.00  0.00     0.731 A 
HETATM    4  N2  UNL     1     -11.402 -16.510 -30.257  1.00  0.00    -0.016 N 
ATOM      5  H2  UNL     1     -11.857 -17.390 -30.499  1.00  0.00     0.203 HD
HETATM    6  C5  UNL     1     -10.442 -16.521 -29.346  1.00  0.00     0.747 A 
HETATM    7  N5  UNL     1      -9.794 -15.423 -28.967  1.00  0.00     0.087 N 
HETATM    8  C6  UNL     1     -10.183 -14.268 -29.584  1.00  0.00     0.752 A 
HETATM    9  N8  UNL     1     -11.156 -14.245 -30.511  1.00  0.00    -0.016 N 
ATOM     10  H8  UNL     1     -11.406 -13.353 -30.939  1.00  0.00     0.203 HD
ENDROOT
BRANCH   1  11
HETATM   11  O3  UNL     1     -13.340 -14.585 -32.506  1.00  0.00    -0.257 OA
BRANCH  11  12
HETATM   12  C3  UNL     1     -14.056 -14.680 -33.662  1.00  0.00     0.312 C 
BRANCH  12  13
HETATM   13  C2  UNL     1     -15.289 -15.464 -33.402  1.00  0.00     0.284 C 
HETATM   14  O2  UNL     1     -15.696 -15.597 -32.234  1.00  0.00    -0.263 OA
BRANCH  13  15
HETATM   15  O1  UNL     1     -15.975 -16.036 -34.441  1.00  0.00    -0.325 OA
HETATM   16  C1  UNL     1     -16.696 -15.259 -35.393  1.00  0.00     0.213 C 
ENDBRANCH  13  15
ENDBRANCH  12  13
ENDBRANCH  11  12
ENDBRANCH   1  11
BRANCH   6  17
HETATM   17  N3  UNL     1     -10.109 -17.637 -28.791  1.00  0.00    -0.136 N 
ATOM     18  H3  UNL     1      -9.340 -18.162 -29.208  1.00  0.00     0.205 HD
BRANCH  17  19
HETATM   19  N4  UNL     1     -10.714 -18.168 -27.676  1.00  0.00    -0.331 N 
ATOM     20  H42 UNL     1     -10.226 -18.936 -27.213  1.00  0.00     0.177 HD
ATOM     21  H41 UNL     1     -11.604 -17.850 -27.291  1.00  0.00     0.177 HD
ENDBRANCH  17  19
ENDBRANCH   6  17
BRANCH   8  22
HETATM   22  N7  UNL     1      -9.584 -13.178 -29.249  1.00  0.00    -0.096 N 
ATOM     23  H7  UNL     1     -10.001 -12.537 -28.573  1.00  0.00     0.213 HD
BRANCH  22  24
HETATM   24  O4  UNL     1      -8.375 -12.902 -29.822  1.00  0.00    -0.276 OA
ATOM     25  H4  UNL     1      -7.648 -12.679 -29.254  1.00  0.00     0.245 HD
ENDBRANCH  22  24
ENDBRANCH   8  22
BRANCH   7  26
HETATM   26  N6  UNL     1      -8.784 -15.396 -28.017  1.00  0.00    -0.309 N 
ATOM     27  H62 UNL     1      -8.993 -15.620 -27.044  1.00  0.00     0.178 HD
ATOM     28  H61 UNL     1      -7.812 -15.160 -28.214  1.00  0.00     0.178 HD
ENDBRANCH   7  26
TORSDOF 9
ENDMDL
