MODEL 1
REMARK VINA RESULT: -9.411885459      0.000      0.000
REMARK  8 active torsions:
REMARK  status: ('A' for Active; 'I' for Inactive)
REMARK    1  A    between atoms: C2_2  and  N1_3 
REMARK    2  A    between atoms: C2_2  and  C6_20 
REMARK       I    between atoms: N1_3  and  C3_5 
REMARK    3  A    between atoms: C3_5  and  C4_7 
REMARK    4  A    between atoms: C4_7  and  N2_8 
REMARK    5  A    between atoms: C4_7  and  C5_12 
REMARK       I    between atoms: C5_12  and  N3_14 
REMARK    6  A    between atoms: N3_14  and  N4_16 
REMARK    7  A    between atoms: N4_16  and  N5_17 
REMARK       I    between atoms: C6_20  and  N6_22 
REMARK    8  A    between atoms: C9_27  and  O4_28 
ROOT
HETATM    1  C1  UNL     1     119.205 103.377  11.090  1.00  0.00     0.042 C 
HETATM    2  C2  UNL     1     120.166 104.403  11.682  1.00  0.00     0.173 C 
ENDROOT
BRANCH   2   3
HETATM    3  N1  UNL     1     119.438 105.675  11.811  1.00  0.00    -0.346 N 
HETATM    4  C3  UNL     1     118.954 106.109  13.084  1.00  0.00     0.258 C 
HETATM    5  O1  UNL     1     119.163 105.387  14.074  1.00  0.00    -0.271 OA
ATOM      6  H1  UNL     1     119.279 106.254  10.986  1.00  0.00     0.163 HD
BRANCH   4   7
HETATM    7  C4  UNL     1     118.241 107.397  13.121  1.00  0.00     0.366 C 
BRANCH   7   8
HETATM    8  N2  UNL     1     119.084 108.563  13.235  1.00  0.00    -0.058 N 
ATOM      9  H23 UNL     1     118.566 109.399  12.962  1.00  0.00     0.275 HD
ATOM     10  H22 UNL     1     119.261 108.774  14.217  1.00  0.00     0.275 HD
ATOM     11  H21 UNL     1     119.965 108.514  12.722  1.00  0.00     0.275 HD
ENDBRANCH   7   8
BRANCH   7  12
HETATM   12  C5  UNL     1     117.238 107.411  14.217  1.00  0.00     0.274 C 
HETATM   13  O2  UNL     1     117.049 108.474  14.850  1.00  0.00    -0.269 OA
HETATM   14  N3  UNL     1     116.528 106.247  14.528  1.00  0.00    -0.252 N 
ATOM     15  H3  UNL     1     116.742 105.415  13.977  1.00  0.00     0.187 HD
BRANCH  14  16
HETATM   16  N4  UNL     1     115.553 106.114  15.523  1.00  0.00    -0.027 NA
BRANCH  16  17
HETATM   17  N5  UNL     1     114.387 106.811  15.251  1.00  0.00    -0.329 N 
ATOM     18  H52 UNL     1     113.472 106.361  15.236  1.00  0.00     0.174 HD
ATOM     19  H51 UNL     1     114.538 107.804  15.071  1.00  0.00     0.174 HD
ENDBRANCH  16  17
ENDBRANCH  14  16
ENDBRANCH   7  12
ENDBRANCH   4   7
ENDBRANCH   2   3
BRANCH   2  20
HETATM   20  C6  UNL     1     121.281 104.548  10.689  1.00  0.00     0.253 C 
HETATM   21  O3  UNL     1     121.092 105.454   9.798  1.00  0.00    -0.270 OA
HETATM   22  N6  UNL     1     122.447 103.779  10.698  1.00  0.00    -0.260 N 
HETATM   23  C7  UNL     1     123.456 103.887   9.793  1.00  0.00     0.193 A 
HETATM   24  C11 UNL     1     122.843 102.831  11.560  1.00  0.00     0.151 A 
HETATM   25  N7  UNL     1     124.434 103.040  10.089  1.00  0.00    -0.345 N 
HETATM   26  C8  UNL     1     124.108 102.357  11.178  1.00  0.00     0.130 A 
ATOM     27  H7  UNL     1     125.300 102.933   9.561  1.00  0.00     0.167 HD
HETATM   28  C9  UNL     1     124.763 101.373  11.892  1.00  0.00     0.175 A 
HETATM   29  N8  UNL     1     124.136 100.880  12.978  1.00  0.00    -0.287 N 
HETATM   30  C10 UNL     1     122.926 101.326  13.356  1.00  0.00     0.327 A 
ATOM     31  H8  UNL     1     124.591 100.151  13.527  1.00  0.00     0.172 HD
HETATM   32  O5  UNL     1     122.432 100.803  14.384  1.00  0.00    -0.247 OA
HETATM   33  N9  UNL     1     122.316 102.276  12.650  1.00  0.00    -0.292 N 
ATOM     34  H9  UNL     1     121.399 102.595  12.960  1.00  0.00     0.172 HD
BRANCH  28  35
HETATM   35  O4  UNL     1     126.017 100.939  11.459  1.00  0.00    -0.344 OA
ATOM     36  H4  UNL     1     126.622 100.569  12.090  1.00  0.00     0.219 HD
ENDBRANCH  28  35
ENDBRANCH   2  20
TORSDOF 8
ENDMDL
MODEL 2
REMARK VINA RESULT: -9.219419606      1.849      2.968
REMARK  8 active torsions:
REMARK  status: ('A' for Active; 'I' for Inactive)
REMARK    1  A    between atoms: C2_2  and  N1_3 
REMARK    2  A    between atoms: C2_2  and  C6_20 
REMARK       I    between atoms: N1_3  and  C3_5 
REMARK    3  A    between atoms: C3_5  and  C4_7 
REMARK    4  A    between atoms: C4_7  and  N2_8 
REMARK    5  A    between atoms: C4_7  and  C5_12 
REMARK       I    between atoms: C5_12  and  N3_14 
REMARK    6  A    between atoms: N3_14  and  N4_16 
REMARK    7  A    between atoms: N4_16  and  N5_17 
REMARK       I    between atoms: C6_20  and  N6_22 
REMARK    8  A    between atoms: C9_27  and  O4_28 
ROOT
HETATM    1  C1  UNL     1     122.256 107.008  11.120  1.00  0.00     0.042 C 
HETATM    2  C2  UNL     1     121.275 105.853  11.281  1.00  0.00     0.173 C 
ENDROOT
BRANCH   2   3
HETATM    3  N1  UNL     1     119.967 106.423  11.642  1.00  0.00    -0.346 N 
HETATM    4  C3  UNL     1     118.761 105.711  11.358  1.00  0.00     0.258 C 
HETATM    5  O1  UNL     1     118.846 104.602  10.802  1.00  0.00    -0.271 OA
ATOM      6  H1  UNL     1     119.920 107.334  12.098  1.00  0.00     0.163 HD
BRANCH   4   7
HETATM    7  C4  UNL     1     117.498 106.354  11.757  1.00  0.00     0.366 C 
BRANCH   7   8
HETATM    8  N2  UNL     1     117.267 107.660  11.189  1.00  0.00    -0.058 N 
ATOM      9  H23 UNL     1     118.011 108.301  11.468  1.00  0.00     0.275 HD
ATOM     10  H22 UNL     1     117.421 107.636  10.181  1.00  0.00     0.275 HD
ATOM     11  H21 UNL     1     116.356 108.070  11.396  1.00  0.00     0.275 HD
ENDBRANCH   7   8
BRANCH   7  12
HETATM   12  C5  UNL     1     117.396 106.439  13.237  1.00  0.00     0.274 C 
HETATM   13  O2  UNL     1     118.355 106.918  13.881  1.00  0.00    -0.269 OA
HETATM   14  N3  UNL     1     116.243 105.984  13.884  1.00  0.00    -0.252 N 
ATOM     15  H3  UNL     1     115.505 105.597  13.295  1.00  0.00     0.187 HD
BRANCH  14  16
HETATM   16  N4  UNL     1     116.004 106.009  15.263  1.00  0.00    -0.027 NA
BRANCH  16  17
HETATM   17  N5  UNL     1     116.359 107.205  15.864  1.00  0.00    -0.329 N 
ATOM     18  H52 UNL     1     116.539 108.054  15.328  1.00  0.00     0.174 HD
ATOM     19  H51 UNL     1     116.419 107.148  16.881  1.00  0.00     0.174 HD
ENDBRANCH  16  17
ENDBRANCH  14  16
ENDBRANCH   7  12
ENDBRANCH   4   7
ENDBRANCH   2   3
BRANCH   2  20
HETATM   20  C6  UNL     1     121.799 105.017  12.412  1.00  0.00     0.253 C 
HETATM   21  O3  UNL     1     121.237 105.236  13.547  1.00  0.00    -0.270 OA
HETATM   22  N6  UNL     1     122.815 104.068  12.283  1.00  0.00    -0.260 N 
HETATM   23  C7  UNL     1     123.312 103.318  13.302  1.00  0.00     0.193 A 
HETATM   24  C11 UNL     1     123.483 103.669  11.190  1.00  0.00     0.151 A 
HETATM   25  N7  UNL     1     124.247 102.491  12.853  1.00  0.00    -0.345 N 
HETATM   26  C8  UNL     1     124.396 102.664  11.546  1.00  0.00     0.130 A 
ATOM     27  H7  UNL     1     124.769 101.825  13.424  1.00  0.00     0.167 HD
HETATM   28  C9  UNL     1     125.220 102.064  10.614  1.00  0.00     0.175 A 
HETATM   29  N8  UNL     1     125.113 102.485   9.338  1.00  0.00    -0.287 N 
HETATM   30  C10 UNL     1     124.242 103.444   8.983  1.00  0.00     0.327 A 
ATOM     31  H8  UNL     1     125.709 102.064   8.625  1.00  0.00     0.172 HD
HETATM   32  O5  UNL     1     124.221 103.760   7.769  1.00  0.00    -0.247 OA
HETATM   33  N9  UNL     1     123.459 104.006   9.901  1.00  0.00    -0.292 N 
ATOM     34  H9  UNL     1     122.807 104.732   9.603  1.00  0.00     0.172 HD
BRANCH  28  35
HETATM   35  O4  UNL     1     126.111 101.075  11.031  1.00  0.00    -0.344 OA
ATOM     36  H4  UNL     1     126.452 101.102  11.918  1.00  0.00     0.219 HD
ENDBRANCH  28  35
ENDBRANCH   2  20
TORSDOF 8
ENDMDL
MODEL 3
REMARK VINA RESULT: -9.177682266      5.295      7.271
REMARK  8 active torsions:
REMARK  status: ('A' for Active; 'I' for Inactive)
REMARK    1  A    between atoms: C2_2  and  N1_3 
REMARK    2  A    between atoms: C2_2  and  C6_20 
REMARK       I    between atoms: N1_3  and  C3_5 
REMARK    3  A    between atoms: C3_5  and  C4_7 
REMARK    4  A    between atoms: C4_7  and  N2_8 
REMARK    5  A    between atoms: C4_7  and  C5_12 
REMARK       I    between atoms: C5_12  and  N3_14 
REMARK    6  A    between atoms: N3_14  and  N4_16 
REMARK    7  A    between atoms: N4_16  and  N5_17 
REMARK       I    between atoms: C6_20  and  N6_22 
REMARK    8  A    between atoms: C9_27  and  O4_28 
ROOT
HETATM    1  C1  UNL     1     125.255 102.745  13.699  1.00  0.00     0.042 C 
HETATM    2  C2  UNL     1     124.653 101.767  12.697  1.00  0.00     0.173 C 
ENDROOT
BRANCH   2   3
HETATM    3  N1  UNL     1     124.511 102.472  11.413  1.00  0.00    -0.346 N 
HETATM    4  C3  UNL     1     125.418 102.214  10.339  1.00  0.00     0.258 C 
HETATM    5  O1  UNL     1     126.325 101.382  10.517  1.00  0.00    -0.271 OA
ATOM      6  H1  UNL     1     123.759 103.150  11.287  1.00  0.00     0.163 HD
BRANCH   4   7
HETATM    7  C4  UNL     1     125.199 102.961   9.089  1.00  0.00     0.366 C 
BRANCH   7   8
HETATM    8  N2  UNL     1     126.373 103.595   8.538  1.00  0.00    -0.058 N 
ATOM      9  H23 UNL     1     126.103 104.281   7.833  1.00  0.00     0.275 HD
ATOM     10  H22 UNL     1     126.799 104.208   9.233  1.00  0.00     0.275 HD
ATOM     11  H21 UNL     1     127.072 102.957   8.157  1.00  0.00     0.275 HD
ENDBRANCH   7   8
BRANCH   7  12
HETATM   12  C5  UNL     1     124.131 103.978   9.264  1.00  0.00     0.274 C 
HETATM   13  O2  UNL     1     122.946 103.595   9.380  1.00  0.00    -0.269 OA
HETATM   14  N3  UNL     1     124.460 105.337   9.292  1.00  0.00    -0.252 N 
ATOM     15  H3  UNL     1     125.445 105.576   9.181  1.00  0.00     0.187 HD
BRANCH  14  16
HETATM   16  N4  UNL     1     123.565 106.401   9.457  1.00  0.00    -0.027 NA
BRANCH  16  17
HETATM   17  N5  UNL     1     122.527 106.399   8.540  1.00  0.00    -0.329 N 
ATOM     18  H52 UNL     1     122.666 106.159   7.558  1.00  0.00     0.174 HD
ATOM     19  H51 UNL     1     121.627 106.658   8.942  1.00  0.00     0.174 HD
ENDBRANCH  16  17
ENDBRANCH  14  16
ENDBRANCH   7  12
ENDBRANCH   4   7
ENDBRANCH   2   3
BRANCH   2  20
HETATM   20  C6  UNL     1     123.300 101.402  13.233  1.00  0.00     0.253 C 
HETATM   21  O3  UNL     1     122.311 101.884  12.569  1.00  0.00    -0.270 OA
HETATM   22  N6  UNL     1     123.090 100.607  14.362  1.00  0.00    -0.260 N 
HETATM   23  C7  UNL     1     121.871 100.285  14.870  1.00  0.00     0.193 A 
HETATM   24  C11 UNL     1     123.979  99.983  15.149  1.00  0.00     0.151 A 
HETATM   25  N7  UNL     1     122.005  99.493  15.926  1.00  0.00    -0.345 N 
HETATM   26  C8  UNL     1     123.294  99.272  16.147  1.00  0.00     0.130 A 
ATOM     27  H7  UNL     1     121.237  99.115  16.481  1.00  0.00     0.167 HD
HETATM   28  C9  UNL     1     123.962  98.530  17.102  1.00  0.00     0.175 A 
HETATM   29  N8  UNL     1     125.308  98.515  17.038  1.00  0.00    -0.287 N 
HETATM   30  C10 UNL     1     125.976  99.190  16.087  1.00  0.00     0.327 A 
ATOM     31  H8  UNL     1     125.832  97.979  17.729  1.00  0.00     0.172 HD
HETATM   32  O5  UNL     1     127.228  99.108  16.116  1.00  0.00    -0.247 OA
HETATM   33  N9  UNL     1     125.308  99.897  15.179  1.00  0.00    -0.292 N 
ATOM     34  H9  UNL     1     125.840 100.399  14.469  1.00  0.00     0.172 HD
BRANCH  28  35
HETATM   35  O4  UNL     1     123.226  97.849  18.072  1.00  0.00    -0.344 OA
ATOM     36  H4  UNL     1     123.643  97.154  18.567  1.00  0.00     0.219 HD
ENDBRANCH  28  35
ENDBRANCH   2  20
TORSDOF 8
ENDMDL
MODEL 4
REMARK VINA RESULT: -9.143738728      5.640      8.146
REMARK  8 active torsions:
REMARK  status: ('A' for Active; 'I' for Inactive)
REMARK    1  A    between atoms: C2_2  and  N1_3 
REMARK    2  A    between atoms: C2_2  and  C6_20 
REMARK       I    between atoms: N1_3  and  C3_5 
REMARK    3  A    between atoms: C3_5  and  C4_7 
REMARK    4  A    between atoms: C4_7  and  N2_8 
REMARK    5  A    between atoms: C4_7  and  C5_12 
REMARK       I    between atoms: C5_12  and  N3_14 
REMARK    6  A    between atoms: N3_14  and  N4_16 
REMARK    7  A    between atoms: N4_16  and  N5_17 
REMARK       I    between atoms: C6_20  and  N6_22 
REMARK    8  A    between atoms: C9_27  and  O4_28 
ROOT
HETATM    1  C1  UNL     1     125.651 101.966  14.284  1.00  0.00     0.042 C 
HETATM    2  C2  UNL     1     124.946 101.588  12.986  1.00  0.00     0.173 C 
ENDROOT
BRANCH   2   3
HETATM    3  N1  UNL     1     124.835 102.805  12.166  1.00  0.00    -0.346 N 
HETATM    4  C3  UNL     1     125.408 102.854  10.857  1.00  0.00     0.258 C 
HETATM    5  O1  UNL     1     125.999 101.846  10.433  1.00  0.00    -0.271 OA
ATOM      6  H1  UNL     1     124.345 103.621  12.533  1.00  0.00     0.163 HD
BRANCH   4   7
HETATM    7  C4  UNL     1     125.246 104.109  10.106  1.00  0.00     0.366 C 
BRANCH   7   8
HETATM    8  N2  UNL     1     123.990 104.791  10.311  1.00  0.00    -0.058 N 
ATOM      9  H23 UNL     1     123.314 104.158  10.739  1.00  0.00     0.275 HD
ATOM     10  H22 UNL     1     124.085 105.482  11.055  1.00  0.00     0.275 HD
ATOM     11  H21 UNL     1     123.589 105.222   9.479  1.00  0.00     0.275 HD
ENDBRANCH   7   8
BRANCH   7  12
HETATM   12  C5  UNL     1     125.446 103.881   8.651  1.00  0.00     0.274 C 
HETATM   13  O2  UNL     1     124.458 103.577   7.946  1.00  0.00    -0.269 OA
HETATM   14  N3  UNL     1     126.723 104.003   8.095  1.00  0.00    -0.252 N 
ATOM     15  H3  UNL     1     127.483 104.244   8.732  1.00  0.00     0.187 HD
BRANCH  14  16
HETATM   16  N4  UNL     1     127.058 103.826   6.748  1.00  0.00    -0.027 NA
BRANCH  16  17
HETATM   17  N5  UNL     1     126.451 104.739   5.902  1.00  0.00    -0.329 N 
ATOM     18  H52 UNL     1     125.751 104.464   5.213  1.00  0.00     0.174 HD
ATOM     19  H51 UNL     1     126.772 105.698   6.038  1.00  0.00     0.174 HD
ENDBRANCH  16  17
ENDBRANCH  14  16
ENDBRANCH   7  12
ENDBRANCH   4   7
ENDBRANCH   2   3
BRANCH   2  20
HETATM   20  C6  UNL     1     123.580 101.109  13.379  1.00  0.00     0.253 C 
HETATM   21  O3  UNL     1     122.617 101.606  12.689  1.00  0.00    -0.270 OA
HETATM   22  N6  UNL     1     123.333 100.198  14.409  1.00  0.00    -0.260 N 
HETATM   23  C7  UNL     1     122.099  99.770  14.788  1.00  0.00     0.193 A 
HETATM   24  C11 UNL     1     124.195  99.542  15.200  1.00  0.00     0.151 A 
HETATM   25  N7  UNL     1     122.200  98.886  15.772  1.00  0.00    -0.345 N 
HETATM   26  C8  UNL     1     123.479  98.705  16.071  1.00  0.00     0.130 A 
ATOM     27  H7  UNL     1     121.415  98.419  16.228  1.00  0.00     0.167 HD
HETATM   28  C9  UNL     1     124.116  97.906  17.000  1.00  0.00     0.175 A 
HETATM   29  N8  UNL     1     125.462  97.961  17.040  1.00  0.00    -0.287 N 
HETATM   30  C10 UNL     1     126.159  98.757  16.211  1.00  0.00     0.327 A 
ATOM     31  H8  UNL     1     125.963  97.385  17.716  1.00  0.00     0.172 HD
HETATM   32  O5  UNL     1     127.408  98.732  16.329  1.00  0.00    -0.247 OA
HETATM   33  N9  UNL     1     125.521  99.517  15.324  1.00  0.00    -0.292 N 
ATOM     34  H9  UNL     1     126.075 100.111  14.708  1.00  0.00     0.172 HD
BRANCH  28  35
HETATM   35  O4  UNL     1     123.349  97.099  17.842  1.00  0.00    -0.344 OA
ATOM     36  H4  UNL     1     123.650  96.219  18.040  1.00  0.00     0.219 HD
ENDBRANCH  28  35
ENDBRANCH   2  20
TORSDOF 8
ENDMDL
MODEL 5
REMARK VINA RESULT: -9.113904352      1.203      1.217
REMARK  8 active torsions:
REMARK  status: ('A' for Active; 'I' for Inactive)
REMARK    1  A    between atoms: C2_2  and  N1_3 
REMARK    2  A    between atoms: C2_2  and  C6_20 
REMARK       I    between atoms: N1_3  and  C3_5 
REMARK    3  A    between atoms: C3_5  and  C4_7 
REMARK    4  A    between atoms: C4_7  and  N2_8 
REMARK    5  A    between atoms: C4_7  and  C5_12 
REMARK       I    between atoms: C5_12  and  N3_14 
REMARK    6  A    between atoms: N3_14  and  N4_16 
REMARK    7  A    between atoms: N4_16  and  N5_17 
REMARK       I    between atoms: C6_20  and  N6_22 
REMARK    8  A    between atoms: C9_27  and  O4_28 
ROOT
HETATM    1  C1  UNL     1     119.556 103.173  11.308  1.00  0.00     0.042 C 
HETATM    2  C2  UNL     1     120.516 104.213  11.874  1.00  0.00     0.173 C 
ENDROOT
BRANCH   2   3
HETATM    3  N1  UNL     1     119.872 105.531  11.753  1.00  0.00    -0.346 N 
HETATM    4  C3  UNL     1     119.156 106.093  12.855  1.00  0.00     0.258 C 
HETATM    5  O1  UNL     1     119.093 105.443  13.913  1.00  0.00    -0.271 OA
ATOM      6  H1  UNL     1     119.937 106.048  10.876  1.00  0.00     0.163 HD
BRANCH   4   7
HETATM    7  C4  UNL     1     118.547 107.417  12.647  1.00  0.00     0.366 C 
BRANCH   7   8
HETATM    8  N2  UNL     1     119.399 108.541  12.952  1.00  0.00    -0.058 N 
ATOM      9  H23 UNL     1     118.998 109.399  12.572  1.00  0.00     0.275 HD
ATOM     10  H22 UNL     1     119.360 108.750  13.949  1.00  0.00     0.275 HD
ATOM     11  H21 UNL     1     120.369 108.444  12.651  1.00  0.00     0.275 HD
ENDBRANCH   7   8
BRANCH   7  12
HETATM   12  C5  UNL     1     117.281 107.541  13.416  1.00  0.00     0.274 C 
HETATM   13  O2  UNL     1     116.318 106.800  13.117  1.00  0.00    -0.269 OA
HETATM   14  N3  UNL     1     117.182 108.477  14.450  1.00  0.00    -0.252 N 
ATOM     15  H3  UNL     1     118.004 109.054  14.631  1.00  0.00     0.187 HD
BRANCH  14  16
HETATM   16  N4  UNL     1     116.063 108.698  15.261  1.00  0.00    -0.027 NA
BRANCH  16  17
HETATM   17  N5  UNL     1     114.879 108.812  14.550  1.00  0.00    -0.329 N 
ATOM     18  H52 UNL     1     113.978 108.948  15.008  1.00  0.00     0.174 HD
ATOM     19  H51 UNL     1     115.002 108.747  13.540  1.00  0.00     0.174 HD
ENDBRANCH  16  17
ENDBRANCH  14  16
ENDBRANCH   7  12
ENDBRANCH   4   7
ENDBRANCH   2   3
BRANCH   2  20
HETATM   20  C6  UNL     1     121.741 104.161  11.009  1.00  0.00     0.253 C 
HETATM   21  O3  UNL     1     121.754 105.008  10.043  1.00  0.00    -0.270 OA
HETATM   22  N6  UNL     1     122.803 103.275  11.203  1.00  0.00    -0.260 N 
HETATM   23  C7  UNL     1     123.910 103.204  10.416  1.00  0.00     0.193 A 
HETATM   24  C11 UNL     1     122.994 102.362  12.167  1.00  0.00     0.151 A 
HETATM   25  N7  UNL     1     124.747 102.284  10.878  1.00  0.00    -0.345 N 
HETATM   26  C8  UNL     1     124.230 101.727  11.966  1.00  0.00     0.130 A 
ATOM     27  H7  UNL     1     125.647 102.043  10.462  1.00  0.00     0.167 HD
HETATM   28  C9  UNL     1     124.688 100.739  12.815  1.00  0.00     0.175 A 
HETATM   29  N8  UNL     1     123.896 100.403  13.852  1.00  0.00    -0.287 N 
HETATM   30  C10 UNL     1     122.711 101.004  14.057  1.00  0.00     0.327 A 
ATOM     31  H8  UNL     1     124.204  99.676  14.497  1.00  0.00     0.172 HD
HETATM   32  O5  UNL     1     122.053 100.619  15.054  1.00  0.00    -0.247 OA
HETATM   33  N9  UNL     1     122.294 101.954  13.224  1.00  0.00    -0.292 N 
ATOM     34  H9  UNL     1     121.390 102.392  13.404  1.00  0.00     0.172 HD
BRANCH  28  35
HETATM   35  O4  UNL     1     125.923 100.142  12.559  1.00  0.00    -0.344 OA
ATOM     36  H4  UNL     1     126.314  99.583  13.221  1.00  0.00     0.219 HD
ENDBRANCH  28  35
ENDBRANCH   2  20
TORSDOF 8
ENDMDL
