MODEL 1
REMARK VINA RESULT: -8.940877483      0.000      0.000
REMARK  4 active torsions:
REMARK  status: ('A' for Active; 'I' for Inactive)
REMARK    1  A    between atoms: C1_2  and  C2_3 
REMARK       I    between atoms: C1_2  and  N1_9 
REMARK    2  A    between atoms: N2_12  and  N3_13 
REMARK    3  A    between atoms: C8_14  and  O2_15 
REMARK    4  A    between atoms: C11_19  and  O3_20 
ROOT
HETATM    1  O1  UNL     1     -89.149  -4.342  -0.617  1.00  0.00    -0.267 OA
HETATM    2  C1  UNL     1     -88.727  -4.628   0.569  1.00  0.00     0.262 C 
HETATM    3  N1  UNL     1     -89.113  -3.833   1.648  1.00  0.00    -0.344 N 
HETATM    4  C6  UNL     1     -88.673  -4.046   2.977  1.00  0.00     0.147 C 
HETATM    5  C7  UNL     1     -89.103  -2.965   3.938  1.00  0.00     0.163 C 
HETATM    6  N2  UNL     1     -89.289  -1.667   3.360  1.00  0.00    -0.314 N 
HETATM    7  C15 UNL     1     -89.323  -1.494   1.929  1.00  0.00     0.163 C 
HETATM    8  C16 UNL     1     -90.050  -2.726   1.361  1.00  0.00     0.147 C 
ENDROOT
BRANCH   6   9
HETATM    9  N3  UNL     1     -89.437  -0.564   4.258  1.00  0.00    -0.213 N 
HETATM   10  C8  UNL     1     -90.507   0.212   4.457  1.00  0.00     0.170 A 
HETATM   11  C9  UNL     1     -90.262   1.171   5.426  1.00  0.00     0.005 A 
HETATM   12  C10 UNL     1     -88.977   0.982   5.849  1.00  0.00     0.005 A 
HETATM   13  C14 UNL     1     -90.882   2.307   6.159  1.00  0.00     0.044 C 
HETATM   14  C11 UNL     1     -88.484  -0.102   5.111  1.00  0.00     0.170 A 
HETATM   15  C12 UNL     1     -88.610   1.976   6.894  1.00  0.00     0.044 C 
HETATM   16  C13 UNL     1     -89.716   3.001   6.783  1.00  0.00     0.009 C 
BRANCH  10  17
HETATM   17  O2  UNL     1     -91.722   0.126   3.818  1.00  0.00    -0.344 OA
ATOM     18  H2  UNL     1     -91.874  -0.096   2.908  1.00  0.00     0.219 HD
ENDBRANCH  10  17
BRANCH  14  19
HETATM   19  O3  UNL     1     -87.204  -0.596   5.264  1.00  0.00    -0.344 OA
ATOM     20  H3  UNL     1     -86.774  -0.816   6.081  1.00  0.00     0.219 HD
ENDBRANCH  14  19
ENDBRANCH   6   9
BRANCH   2  21
HETATM   21  C2  UNL     1     -87.851  -5.792   0.735  1.00  0.00     0.094 A 
HETATM   22  S1  UNL     1     -86.151  -5.932   0.632  1.00  0.00    -0.095 SA
HETATM   23  C3  UNL     1     -85.966  -7.593   0.947  1.00  0.00     0.052 A 
HETATM   24  C4  UNL     1     -87.256  -7.997   1.128  1.00  0.00     0.032 A 
HETATM   25  C5  UNL     1     -88.231  -7.091   1.023  1.00  0.00     0.057 A 
HETATM   26 CL1  UNL     1     -89.975  -7.482   1.220  1.00  0.00    -0.083 Cl
ENDBRANCH   2  21
TORSDOF 4
ENDMDL
MODEL 2
REMARK VINA RESULT: -8.870143569      1.149      2.121
REMARK  4 active torsions:
REMARK  status: ('A' for Active; 'I' for Inactive)
REMARK    1  A    between atoms: C1_2  and  C2_3 
REMARK       I    between atoms: C1_2  and  N1_9 
REMARK    2  A    between atoms: N2_12  and  N3_13 
REMARK    3  A    between atoms: C8_14  and  O2_15 
REMARK    4  A    between atoms: C11_19  and  O3_20 
ROOT
HETATM    1  O1  UNL     1     -88.714  -4.883  -0.462  1.00  0.00    -0.267 OA
HETATM    2  C1  UNL     1     -89.022  -5.219   0.745  1.00  0.00     0.262 C 
HETATM    3  N1  UNL     1     -89.410  -4.237   1.656  1.00  0.00    -0.344 N 
HETATM    4  C6  UNL     1     -89.731  -4.503   3.010  1.00  0.00     0.147 C 
HETATM    5  C7  UNL     1     -89.970  -3.261   3.832  1.00  0.00     0.163 C 
HETATM    6  N2  UNL     1     -89.264  -2.092   3.398  1.00  0.00    -0.314 N 
HETATM    7  C15 UNL     1     -88.603  -2.061   2.117  1.00  0.00     0.163 C 
HETATM    8  C16 UNL     1     -89.500  -2.852   1.148  1.00  0.00     0.147 C 
ENDROOT
BRANCH   6   9
HETATM    9  N3  UNL     1     -89.247  -0.969   4.284  1.00  0.00    -0.213 N 
HETATM   10  C8  UNL     1     -88.329  -0.641   5.197  1.00  0.00     0.170 A 
HETATM   11  C9  UNL     1     -88.663   0.534   5.851  1.00  0.00     0.005 A 
HETATM   12  C10 UNL     1     -89.848   0.955   5.317  1.00  0.00     0.005 A 
HETATM   13  C14 UNL     1     -88.206   1.484   6.900  1.00  0.00     0.044 C 
HETATM   14  C11 UNL     1     -90.192   0.007   4.344  1.00  0.00     0.170 A 
HETATM   15  C12 UNL     1     -90.302   2.217   5.962  1.00  0.00     0.044 C 
HETATM   16  C13 UNL     1     -89.422   2.301   7.189  1.00  0.00     0.009 C 
BRANCH  10  17
HETATM   17  O2  UNL     1     -87.179  -1.333   5.501  1.00  0.00    -0.344 OA
ATOM     18  H2  UNL     1     -87.107  -2.114   6.035  1.00  0.00     0.219 HD
ENDBRANCH  10  17
BRANCH  14  19
HETATM   19  O3  UNL     1     -91.338   0.095   3.580  1.00  0.00    -0.344 OA
ATOM     20  H3  UNL     1     -92.084   0.660   3.738  1.00  0.00     0.219 HD
ENDBRANCH  14  19
ENDBRANCH   6   9
BRANCH   2  21
HETATM   21  C2  UNL     1     -88.955  -6.637   1.113  1.00  0.00     0.094 A 
HETATM   22  S1  UNL     1     -87.610  -7.648   1.414  1.00  0.00    -0.095 SA
HETATM   23  C3  UNL     1     -88.406  -9.110   1.763  1.00  0.00     0.052 A 
HETATM   24  C4  UNL     1     -89.718  -8.762   1.634  1.00  0.00     0.032 A 
HETATM   25  C5  UNL     1     -90.017  -7.504   1.302  1.00  0.00     0.057 A 
HETATM   26 CL1  UNL     1     -91.698  -6.907   1.082  1.00  0.00    -0.083 Cl
ENDBRANCH   2  21
TORSDOF 4
ENDMDL
MODEL 3
REMARK VINA RESULT: -8.838903476      1.275      1.342
REMARK  4 active torsions:
REMARK  status: ('A' for Active; 'I' for Inactive)
REMARK    1  A    between atoms: C1_2  and  C2_3 
REMARK       I    between atoms: C1_2  and  N1_9 
REMARK    2  A    between atoms: N2_12  and  N3_13 
REMARK    3  A    between atoms: C8_14  and  O2_15 
REMARK    4  A    between atoms: C11_19  and  O3_20 
ROOT
HETATM    1  O1  UNL     1     -89.245  -4.319  -0.646  1.00  0.00    -0.267 OA
HETATM    2  C1  UNL     1     -89.082  -4.681   0.582  1.00  0.00     0.262 C 
HETATM    3  N1  UNL     1     -89.471  -3.823   1.610  1.00  0.00    -0.344 N 
HETATM    4  C6  UNL     1     -89.299  -4.116   2.985  1.00  0.00     0.147 C 
HETATM    5  C7  UNL     1     -89.656  -2.969   3.898  1.00  0.00     0.163 C 
HETATM    6  N2  UNL     1     -89.489  -1.661   3.337  1.00  0.00    -0.314 N 
HETATM    7  C15 UNL     1     -89.260  -1.488   1.924  1.00  0.00     0.163 C 
HETATM    8  C16 UNL     1     -90.114  -2.553   1.213  1.00  0.00     0.147 C 
ENDROOT
BRANCH   6   9
HETATM    9  N3  UNL     1     -89.560  -0.549   4.233  1.00  0.00    -0.213 N 
HETATM   10  C8  UNL     1     -90.585   0.279   4.457  1.00  0.00     0.170 A 
HETATM   11  C9  UNL     1     -90.267   1.229   5.414  1.00  0.00     0.005 A 
HETATM   12  C10 UNL     1     -88.982   0.979   5.802  1.00  0.00     0.005 A 
HETATM   13  C14 UNL     1     -90.811   2.396   6.157  1.00  0.00     0.044 C 
HETATM   14  C11 UNL     1     -88.562  -0.130   5.057  1.00  0.00     0.170 A 
HETATM   15  C12 UNL     1     -88.539   1.959   6.831  1.00  0.00     0.044 C 
HETATM   16  C13 UNL     1     -89.597   3.036   6.746  1.00  0.00     0.009 C 
BRANCH  10  17
HETATM   17  O2  UNL     1     -91.819   0.248   3.852  1.00  0.00    -0.344 OA
ATOM     18  H2  UNL     1     -92.321  -0.522   3.615  1.00  0.00     0.219 HD
ENDBRANCH  10  17
BRANCH  14  19
HETATM   19  O3  UNL     1     -87.304  -0.685   5.177  1.00  0.00    -0.344 OA
ATOM     20  H3  UNL     1     -86.692  -0.556   5.892  1.00  0.00     0.219 HD
ENDBRANCH  14  19
ENDBRANCH   6   9
BRANCH   2  21
HETATM   21  C2  UNL     1     -88.489  -5.995   0.849  1.00  0.00     0.094 A 
HETATM   22  S1  UNL     1     -89.203  -7.453   1.383  1.00  0.00    -0.095 SA
HETATM   23  C3  UNL     1     -87.832  -8.459   1.433  1.00  0.00     0.052 A 
HETATM   24  C4  UNL     1     -86.841  -7.615   1.025  1.00  0.00     0.032 A 
HETATM   25  C5  UNL     1     -87.158  -6.354   0.723  1.00  0.00     0.057 A 
HETATM   26 CL1  UNL     1     -85.957  -5.129   0.186  1.00  0.00    -0.083 Cl
ENDBRANCH   2  21
TORSDOF 4
ENDMDL
MODEL 4
REMARK VINA RESULT: -8.791950515      1.621      1.769
REMARK  4 active torsions:
REMARK  status: ('A' for Active; 'I' for Inactive)
REMARK    1  A    between atoms: C1_2  and  C2_3 
REMARK       I    between atoms: C1_2  and  N1_9 
REMARK    2  A    between atoms: N2_12  and  N3_13 
REMARK    3  A    between atoms: C8_14  and  O2_15 
REMARK    4  A    between atoms: C11_19  and  O3_20 
ROOT
HETATM    1  O1  UNL     1     -88.266  -4.089  -0.626  1.00  0.00    -0.267 OA
HETATM    2  C1  UNL     1     -87.805  -4.331   0.555  1.00  0.00     0.262 C 
HETATM    3  N1  UNL     1     -88.307  -3.627   1.648  1.00  0.00    -0.344 N 
HETATM    4  C6  UNL     1     -87.840  -3.796   2.975  1.00  0.00     0.147 C 
HETATM    5  C7  UNL     1     -88.429  -2.813   3.956  1.00  0.00     0.163 C 
HETATM    6  N2  UNL     1     -88.810  -1.547   3.404  1.00  0.00    -0.314 N 
HETATM    7  C15 UNL     1     -88.871  -1.352   1.976  1.00  0.00     0.163 C 
HETATM    8  C16 UNL     1     -89.402  -2.669   1.382  1.00  0.00     0.147 C 
ENDROOT
BRANCH   6   9
HETATM    9  N3  UNL     1     -89.125  -0.498   4.323  1.00  0.00    -0.213 N 
HETATM   10  C8  UNL     1     -90.269   0.179   4.457  1.00  0.00     0.170 A 
HETATM   11  C9  UNL     1     -90.187   1.114   5.476  1.00  0.00     0.005 A 
HETATM   12  C10 UNL     1     -88.929   1.013   5.999  1.00  0.00     0.005 A 
HETATM   13  C14 UNL     1     -90.959   2.164   6.192  1.00  0.00     0.044 C 
HETATM   14  C11 UNL     1     -88.287   0.004   5.269  1.00  0.00     0.170 A 
HETATM   15  C12 UNL     1     -88.735   1.990   7.105  1.00  0.00     0.044 C 
HETATM   16  C13 UNL     1     -89.911   2.925   6.937  1.00  0.00     0.009 C 
BRANCH  10  17
HETATM   17  O2  UNL     1     -91.416   0.020   3.715  1.00  0.00    -0.344 OA
ATOM     18  H2  UNL     1     -91.946   0.706   3.328  1.00  0.00     0.219 HD
ENDBRANCH  10  17
BRANCH  14  19
HETATM   19  O3  UNL     1     -86.987  -0.390   5.513  1.00  0.00    -0.344 OA
ATOM     20  H3  UNL     1     -86.257   0.172   5.745  1.00  0.00     0.219 HD
ENDBRANCH  14  19
ENDBRANCH   6   9
BRANCH   2  21
HETATM   21  C2  UNL     1     -86.762  -5.351   0.700  1.00  0.00     0.094 A 
HETATM   22  S1  UNL     1     -86.876  -7.023   1.035  1.00  0.00    -0.095 SA
HETATM   23  C3  UNL     1     -85.227  -7.443   1.035  1.00  0.00     0.052 A 
HETATM   24  C4  UNL     1     -84.626  -6.248   0.770  1.00  0.00     0.032 A 
HETATM   25  C5  UNL     1     -85.394  -5.169   0.596  1.00  0.00     0.057 A 
HETATM   26 CL1  UNL     1     -84.741  -3.529   0.256  1.00  0.00    -0.083 Cl
ENDBRANCH   2  21
TORSDOF 4
ENDMDL
MODEL 5
REMARK VINA RESULT: -8.536536562      2.942      4.270
REMARK  4 active torsions:
REMARK  status: ('A' for Active; 'I' for Inactive)
REMARK    1  A    between atoms: C1_2  and  C2_3 
REMARK       I    between atoms: C1_2  and  N1_9 
REMARK    2  A    between atoms: N2_12  and  N3_13 
REMARK    3  A    between atoms: C8_14  and  O2_15 
REMARK    4  A    between atoms: C11_19  and  O3_20 
ROOT
HETATM    1  O1  UNL     1     -85.438  -7.163   1.606  1.00  0.00    -0.267 OA
HETATM    2  C1  UNL     1     -85.610  -6.224   0.738  1.00  0.00     0.262 C 
HETATM    3  N1  UNL     1     -86.221  -5.032   1.124  1.00  0.00    -0.344 N 
HETATM    4  C6  UNL     1     -86.485  -3.960   0.236  1.00  0.00     0.147 C 
HETATM    5  C7  UNL     1     -87.291  -2.845   0.855  1.00  0.00     0.163 C 
HETATM    6  N2  UNL     1     -88.176  -3.239   1.910  1.00  0.00    -0.314 N 
HETATM    7  C15 UNL     1     -88.084  -4.551   2.500  1.00  0.00     0.163 C 
HETATM    8  C16 UNL     1     -86.586  -4.899   2.550  1.00  0.00     0.147 C 
ENDROOT
BRANCH   6   9
HETATM    9  N3  UNL     1     -89.144  -2.280   2.347  1.00  0.00    -0.213 N 
HETATM   10  C8  UNL     1     -89.146  -1.547   3.464  1.00  0.00     0.170 A 
HETATM   11  C9  UNL     1     -90.255  -0.719   3.522  1.00  0.00     0.005 A 
HETATM   12  C10 UNL     1     -90.975  -0.949   2.386  1.00  0.00     0.005 A 
HETATM   13  C14 UNL     1     -90.928   0.312   4.357  1.00  0.00     0.044 C 
HETATM   14  C11 UNL     1     -90.266  -1.922   1.669  1.00  0.00     0.170 A 
HETATM   15  C12 UNL     1     -92.202  -0.106   2.354  1.00  0.00     0.044 C 
HETATM   16  C13 UNL     1     -92.302   0.391   3.779  1.00  0.00     0.009 C 
BRANCH  10  17
HETATM   17  O2  UNL     1     -88.205  -1.564   4.467  1.00  0.00    -0.344 OA
ATOM     18  H2  UNL     1     -88.285  -1.181   5.333  1.00  0.00     0.219 HD
ENDBRANCH  10  17
BRANCH  14  19
HETATM   19  O3  UNL     1     -90.687  -2.415   0.450  1.00  0.00    -0.344 OA
ATOM     20  H3  UNL     1     -91.116  -1.927  -0.242  1.00  0.00     0.219 HD
ENDBRANCH  14  19
ENDBRANCH   6   9
BRANCH   2  21
HETATM   21  C2  UNL     1     -85.147  -6.451  -0.636  1.00  0.00     0.094 A 
HETATM   22  S1  UNL     1     -85.905  -7.233  -1.953  1.00  0.00    -0.095 SA
HETATM   23  C3  UNL     1     -84.700  -7.056  -3.140  1.00  0.00     0.052 A 
HETATM   24  C4  UNL     1     -83.726  -6.382  -2.465  1.00  0.00     0.032 A 
HETATM   25  C5  UNL     1     -83.937  -6.064  -1.185  1.00  0.00     0.057 A 
HETATM   26 CL1  UNL     1     -82.740  -5.191  -0.168  1.00  0.00    -0.083 Cl
ENDBRANCH   2  21
TORSDOF 4
ENDMDL
