MODEL 1
REMARK VINA RESULT: -6.640136500      0.000      0.000
REMARK  7 active torsions:
REMARK  status: ('A' for Active; 'I' for Inactive)
REMARK    1  A    between atoms: C2_2  and  C3_3 
REMARK    2  A    between atoms: C3_3  and  C4_4 
REMARK    3  A    between atoms: C6_7  and  N1_8 
REMARK       I    between atoms: N1_8  and  C7_10 
REMARK       I    between atoms: C7_10  and  N2_12 
REMARK    4  A    between atoms: N2_12  and  C8_14 
REMARK    5  A    between atoms: C15_21  and  N3_23 
REMARK    6  A    between atoms: N3_23  and  S1_25 
REMARK    7  A    between atoms: S1_25  and  N4_28 
ROOT
HETATM    1  C4  UNL     1       8.471  -3.748 -11.965  1.00  0.00     0.043 C 
HETATM    2 CL1  UNL     1       9.164  -3.023 -10.455  1.00  0.00    -0.119 Cl
HETATM    3  C5  UNL     1       8.823  -2.824 -13.066  1.00  0.00     0.058 C 
HETATM    4  C6  UNL     1       9.724  -3.366 -14.139  1.00  0.00     0.046 C 
HETATM    5  C14 UNL     1      11.147  -3.624 -13.556  1.00  0.00     0.063 C 
HETATM    6  C15 UNL     1      11.202  -4.997 -13.033  1.00  0.00     0.045 C 
HETATM    7  C16 UNL     1      12.214  -5.941 -13.578  1.00  0.00     0.039 C 
HETATM    8  C19 UNL     1       9.775  -5.485 -13.294  1.00  0.00     0.030 C 
HETATM    9  C20 UNL     1       8.886  -5.170 -12.146  1.00  0.00     0.012 C 
HETATM   10  C21 UNL     1       7.713  -6.155 -12.022  1.00  0.00     0.012 C 
HETATM   11  C22 UNL     1       9.385  -4.747 -14.557  1.00  0.00    -0.016 C 
HETATM   12  C23 UNL     1       8.002  -5.035 -15.006  1.00  0.00     0.018 C 
HETATM   13  C24 UNL     1      10.267  -5.056 -15.748  1.00  0.00     0.018 C 
ENDROOT
BRANCH   4  14
HETATM   14  N1  UNL     1       9.835  -2.394 -15.191  1.00  0.00    -0.333 N 
HETATM   15  C7  UNL     1       8.821  -1.773 -15.935  1.00  0.00     0.317 C 
HETATM   16  O1  UNL     1       7.586  -1.951 -15.811  1.00  0.00    -0.247 OA
HETATM   17  N2  UNL     1       9.174  -0.817 -16.965  1.00  0.00    -0.339 N 
ATOM     18  H2  UNL     1      10.157  -0.607 -17.137  1.00  0.00     0.164 HD
ATOM     19  H1  UNL     1      10.787  -2.117 -15.432  1.00  0.00     0.165 HD
BRANCH  17  20
HETATM   20  C8  UNL     1       8.174  -0.166 -17.739  1.00  0.00     0.086 C 
HETATM   21  C9  UNL     1       8.507  -0.151 -19.229  1.00  0.00     0.025 C 
HETATM   22  C10 UNL     1       7.231   0.304 -19.932  1.00  0.00     0.002 C 
HETATM   23  C11 UNL     1       6.812   1.677 -19.457  1.00  0.00     0.000 C 
HETATM   24  C12 UNL     1       6.620   1.701 -17.947  1.00  0.00     0.002 C 
HETATM   25  C13 UNL     1       7.936   1.266 -17.336  1.00  0.00     0.025 C 
ENDBRANCH  17  20
ENDBRANCH   4  14
BRANCH   1  26
HETATM   26  C3  UNL     1       6.976  -3.680 -11.595  1.00  0.00     0.026 C 
BRANCH  26  27
HETATM   27  C2  UNL     1       6.781  -2.767 -10.403  1.00  0.00    -0.003 C 
HETATM   28  C1  UNL     1       6.000  -1.526 -10.785  1.00  0.00     0.005 C 
ENDBRANCH  26  27
ENDBRANCH   1  26
BRANCH   6  29
HETATM   29  N3  UNL     1      11.501  -4.957 -11.591  1.00  0.00    -0.293 N 
ATOM     30  H3  UNL     1      11.379  -4.119 -11.022  1.00  0.00     0.174 HD
BRANCH  29  31
HETATM   31  S1  UNL     1      12.060  -6.416 -10.965  1.00  0.00     0.317 S 
HETATM   32  O2  UNL     1      11.274  -7.617 -11.477  1.00  0.00    -0.183 OA
HETATM   33  O3  UNL     1      13.471  -6.660 -11.506  1.00  0.00    -0.183 OA
BRANCH  31  34
HETATM   34  N4  UNL     1      12.197  -6.541  -9.277  1.00  0.00    -0.303 N 
HETATM   35  C17 UNL     1      11.200  -5.914  -8.490  1.00  0.00     0.163 C 
HETATM   36  C18 UNL     1      12.647  -7.811  -8.800  1.00  0.00     0.163 C 
ENDBRANCH  31  34
ENDBRANCH  29  31
ENDBRANCH   6  29
TORSDOF 7
ENDMDL
MODEL 2
REMARK VINA RESULT: -6.336208547      2.672      4.752
REMARK  7 active torsions:
REMARK  status: ('A' for Active; 'I' for Inactive)
REMARK    1  A    between atoms: C2_2  and  C3_3 
REMARK    2  A    between atoms: C3_3  and  C4_4 
REMARK    3  A    between atoms: C6_7  and  N1_8 
REMARK       I    between atoms: N1_8  and  C7_10 
REMARK       I    between atoms: C7_10  and  N2_12 
REMARK    4  A    between atoms: N2_12  and  C8_14 
REMARK    5  A    between atoms: C15_21  and  N3_23 
REMARK    6  A    between atoms: N3_23  and  S1_25 
REMARK    7  A    between atoms: S1_25  and  N4_28 
ROOT
HETATM    1  C4  UNL     1      10.805  -4.913 -12.565  1.00  0.00     0.043 C 
HETATM    2 CL1  UNL     1      11.473  -5.954 -13.890  1.00  0.00    -0.119 Cl
HETATM    3  C5  UNL     1      10.171  -3.754 -13.230  1.00  0.00     0.058 C 
HETATM    4  C6  UNL     1       8.687  -3.602 -13.049  1.00  0.00     0.046 C 
HETATM    5  C14 UNL     1       7.943  -4.758 -13.784  1.00  0.00     0.063 C 
HETATM    6  C15 UNL     1       7.783  -5.884 -12.853  1.00  0.00     0.045 C 
HETATM    7  C16 UNL     1       6.416  -6.382 -12.543  1.00  0.00     0.039 C 
HETATM    8  C19 UNL     1       8.490  -5.355 -11.603  1.00  0.00     0.030 C 
HETATM    9  C20 UNL     1       9.938  -5.686 -11.628  1.00  0.00     0.012 C 
HETATM   10  C21 UNL     1      10.539  -5.808 -10.219  1.00  0.00     0.012 C 
HETATM   11  C22 UNL     1       8.227  -3.865 -11.664  1.00  0.00    -0.016 C 
HETATM   12  C23 UNL     1       8.851  -3.110 -10.552  1.00  0.00     0.018 C 
HETATM   13  C24 UNL     1       6.760  -3.496 -11.629  1.00  0.00     0.018 C 
ENDROOT
BRANCH   4  14
HETATM   14  N1  UNL     1       8.271  -2.354 -13.628  1.00  0.00    -0.333 N 
HETATM   15  C7  UNL     1       8.172  -1.995 -14.980  1.00  0.00     0.317 C 
HETATM   16  O1  UNL     1       8.431  -2.722 -15.969  1.00  0.00    -0.247 OA
HETATM   17  N2  UNL     1       7.729  -0.661 -15.334  1.00  0.00    -0.339 N 
ATOM     18  H2  UNL     1       7.495   0.001 -14.595  1.00  0.00     0.164 HD
ATOM     19  H1  UNL     1       8.011  -1.627 -12.961  1.00  0.00     0.165 HD
BRANCH  17  20
HETATM   20  C8  UNL     1       7.616  -0.260 -16.694  1.00  0.00     0.086 C 
HETATM   21  C9  UNL     1       8.083   1.176 -16.920  1.00  0.00     0.025 C 
HETATM   22  C10 UNL     1       8.175   1.346 -18.434  1.00  0.00     0.002 C 
HETATM   23  C11 UNL     1       6.833   1.104 -19.088  1.00  0.00     0.000 C 
HETATM   24  C12 UNL     1       6.296  -0.278 -18.744  1.00  0.00     0.002 C 
HETATM   25  C13 UNL     1       6.211  -0.347 -17.233  1.00  0.00     0.025 C 
ENDBRANCH  17  20
ENDBRANCH   4  14
BRANCH   1  26
HETATM   26  C3  UNL     1      12.129  -4.541 -11.868  1.00  0.00     0.026 C 
BRANCH  26  27
HETATM   27  C2  UNL     1      13.296  -4.834 -12.787  1.00  0.00    -0.003 C 
HETATM   28  C1  UNL     1      14.131  -3.591 -13.025  1.00  0.00     0.005 C 
ENDBRANCH  26  27
ENDBRANCH   1  26
BRANCH   6  29
HETATM   29  N3  UNL     1       8.472  -7.067 -13.398  1.00  0.00    -0.293 N 
ATOM     30  H3  UNL     1       9.105  -7.645 -12.846  1.00  0.00     0.174 HD
BRANCH  29  31
HETATM   31  S1  UNL     1       8.122  -7.381 -15.015  1.00  0.00     0.317 S 
HETATM   32  O2  UNL     1       8.872  -6.460 -15.969  1.00  0.00    -0.183 OA
HETATM   33  O3  UNL     1       8.665  -8.769 -15.362  1.00  0.00    -0.183 OA
BRANCH  31  34
HETATM   34  N4  UNL     1       6.486  -7.410 -15.468  1.00  0.00    -0.303 N 
HETATM   35  C17 UNL     1       6.080  -6.552 -16.520  1.00  0.00     0.163 C 
HETATM   36  C18 UNL     1       5.881  -8.705 -15.465  1.00  0.00     0.163 C 
ENDBRANCH  31  34
ENDBRANCH  29  31
ENDBRANCH   6  29
TORSDOF 7
ENDMDL
MODEL 3
REMARK VINA RESULT: -6.274209652      3.388      6.619
REMARK  7 active torsions:
REMARK  status: ('A' for Active; 'I' for Inactive)
REMARK    1  A    between atoms: C2_2  and  C3_3 
REMARK    2  A    between atoms: C3_3  and  C4_4 
REMARK    3  A    between atoms: C6_7  and  N1_8 
REMARK       I    between atoms: N1_8  and  C7_10 
REMARK       I    between atoms: C7_10  and  N2_12 
REMARK    4  A    between atoms: N2_12  and  C8_14 
REMARK    5  A    between atoms: C15_21  and  N3_23 
REMARK    6  A    between atoms: N3_23  and  S1_25 
REMARK    7  A    between atoms: S1_25  and  N4_28 
ROOT
HETATM    1  C4  UNL     1       9.600  -5.222 -14.314  1.00  0.00     0.043 C 
HETATM    2 CL1  UNL     1      10.359  -6.838 -14.627  1.00  0.00    -0.119 Cl
HETATM    3  C5  UNL     1       8.269  -5.497 -13.728  1.00  0.00     0.058 C 
HETATM    4  C6  UNL     1       8.040  -5.018 -12.323  1.00  0.00     0.046 C 
HETATM    5  C14 UNL     1       8.930  -5.831 -11.333  1.00  0.00     0.063 C 
HETATM    6  C15 UNL     1      10.223  -5.147 -11.189  1.00  0.00     0.045 C 
HETATM    7  C16 UNL     1      10.663  -4.702  -9.840  1.00  0.00     0.039 C 
HETATM    8  C19 UNL     1      10.056  -3.965 -12.148  1.00  0.00     0.030 C 
HETATM    9  C20 UNL     1      10.492  -4.327 -13.521  1.00  0.00     0.012 C 
HETATM   10  C21 UNL     1      10.984  -3.111 -14.322  1.00  0.00     0.012 C 
HETATM   11  C22 UNL     1       8.576  -3.660 -12.063  1.00  0.00    -0.016 C 
HETATM   12  C23 UNL     1       8.151  -2.548 -12.945  1.00  0.00     0.018 C 
HETATM   13  C24 UNL     1       8.104  -3.277 -10.677  1.00  0.00     0.018 C 
ENDROOT
BRANCH   4  14
HETATM   14  N1  UNL     1       6.663  -5.233 -11.974  1.00  0.00    -0.333 N 
HETATM   15  C7  UNL     1       5.847  -6.344 -12.231  1.00  0.00     0.317 C 
HETATM   16  O1  UNL     1       6.180  -7.396 -12.828  1.00  0.00    -0.247 OA
HETATM   17  N2  UNL     1       4.468  -6.337 -11.785  1.00  0.00    -0.339 N 
ATOM     18  H2  UNL     1       4.107  -5.522 -11.289  1.00  0.00     0.164 HD
ATOM     19  H1  UNL     1       6.215  -4.469 -11.468  1.00  0.00     0.165 HD
BRANCH  17  20
HETATM   20  C8  UNL     1       3.610  -7.445 -12.027  1.00  0.00     0.086 C 
HETATM   21  C9  UNL     1       2.194  -7.016 -12.403  1.00  0.00     0.025 C 
HETATM   22  C10 UNL     1       1.500  -8.280 -12.906  1.00  0.00     0.002 C 
HETATM   23  C11 UNL     1       1.477  -9.347 -11.835  1.00  0.00     0.000 C 
HETATM   24  C12 UNL     1       2.884  -9.673 -11.353  1.00  0.00     0.002 C 
HETATM   25  C13 UNL     1       3.481  -8.376 -10.849  1.00  0.00     0.025 C 
ENDBRANCH  17  20
ENDBRANCH   4  14
BRANCH   1  26
HETATM   26  C3  UNL     1       9.509  -4.718 -15.768  1.00  0.00     0.026 C 
BRANCH  26  27
HETATM   27  C2  UNL     1       8.058  -4.545 -16.164  1.00  0.00    -0.003 C 
HETATM   28  C1  UNL     1       7.776  -3.122 -16.603  1.00  0.00     0.005 C 
ENDBRANCH  26  27
ENDBRANCH   1  26
BRANCH   6  29
HETATM   29  N3  UNL     1      11.302  -6.048 -11.631  1.00  0.00    -0.293 N 
ATOM     30  H3  UNL     1      11.865  -5.874 -12.464  1.00  0.00     0.174 HD
BRANCH  29  31
HETATM   31  S1  UNL     1      11.523  -7.391 -10.640  1.00  0.00     0.317 S 
HETATM   32  O2  UNL     1      10.266  -7.766  -9.867  1.00  0.00    -0.183 OA
HETATM   33  O3  UNL     1      11.767  -8.610 -11.533  1.00  0.00    -0.183 OA
BRANCH  31  34
HETATM   34  N4  UNL     1      12.832  -7.355  -9.558  1.00  0.00    -0.303 N 
HETATM   35  C17 UNL     1      12.592  -7.767  -8.224  1.00  0.00     0.163 C 
HETATM   36  C18 UNL     1      14.084  -7.766 -10.111  1.00  0.00     0.163 C 
ENDBRANCH  31  34
ENDBRANCH  29  31
ENDBRANCH   6  29
TORSDOF 7
ENDMDL
MODEL 4
REMARK VINA RESULT: -6.258524108      3.339      6.249
REMARK  7 active torsions:
REMARK  status: ('A' for Active; 'I' for Inactive)
REMARK    1  A    between atoms: C2_2  and  C3_3 
REMARK    2  A    between atoms: C3_3  and  C4_4 
REMARK    3  A    between atoms: C6_7  and  N1_8 
REMARK       I    between atoms: N1_8  and  C7_10 
REMARK       I    between atoms: C7_10  and  N2_12 
REMARK    4  A    between atoms: N2_12  and  C8_14 
REMARK    5  A    between atoms: C15_21  and  N3_23 
REMARK    6  A    between atoms: N3_23  and  S1_25 
REMARK    7  A    between atoms: S1_25  and  N4_28 
ROOT
HETATM    1  C4  UNL     1      10.112  -5.358 -14.403  1.00  0.00     0.043 C 
HETATM    2 CL1  UNL     1      11.313  -6.663 -14.776  1.00  0.00    -0.119 Cl
HETATM    3  C5  UNL     1       8.990  -6.018 -13.699  1.00  0.00     0.058 C 
HETATM    4  C6  UNL     1       8.738  -5.590 -12.281  1.00  0.00     0.046 C 
HETATM    5  C14 UNL     1       9.918  -6.051 -11.372  1.00  0.00     0.063 C 
HETATM    6  C15 UNL     1      10.937  -4.992 -11.346  1.00  0.00     0.045 C 
HETATM    7  C16 UNL     1      11.326  -4.389 -10.043  1.00  0.00     0.039 C 
HETATM    8  C19 UNL     1      10.327  -3.953 -12.291  1.00  0.00     0.030 C 
HETATM    9  C20 UNL     1      10.739  -4.203 -13.696  1.00  0.00     0.012 C 
HETATM   10  C21 UNL     1      10.754  -2.920 -14.543  1.00  0.00     0.012 C 
HETATM   11  C22 UNL     1       8.839  -4.126 -12.076  1.00  0.00    -0.016 C 
HETATM   12  C23 UNL     1       8.013  -3.232 -12.921  1.00  0.00     0.018 C 
HETATM   13  C24 UNL     1       8.387  -3.866 -10.655  1.00  0.00     0.018 C 
ENDROOT
BRANCH   4  14
HETATM   14  N1  UNL     1       7.533  -6.216 -11.811  1.00  0.00    -0.333 N 
HETATM   15  C7  UNL     1       6.286  -6.322 -12.442  1.00  0.00     0.317 C 
HETATM   16  O1  UNL     1       5.980  -5.882 -13.577  1.00  0.00    -0.247 OA
HETATM   17  N2  UNL     1       5.198  -7.000 -11.766  1.00  0.00    -0.339 N 
ATOM     18  H2  UNL     1       5.354  -7.392 -10.837  1.00  0.00     0.164 HD
ATOM     19  H1  UNL     1       7.594  -6.642 -10.886  1.00  0.00     0.165 HD
BRANCH  17  20
HETATM   20  C8  UNL     1       3.919  -7.128 -12.373  1.00  0.00     0.086 C 
HETATM   21  C9  UNL     1       2.778  -6.966 -11.373  1.00  0.00     0.025 C 
HETATM   22  C10 UNL     1       1.508  -6.838 -12.211  1.00  0.00     0.002 C 
HETATM   23  C11 UNL     1       1.303  -8.063 -13.073  1.00  0.00     0.000 C 
HETATM   24  C12 UNL     1       2.507  -8.311 -13.971  1.00  0.00     0.002 C 
HETATM   25  C13 UNL     1       3.707  -8.454 -13.059  1.00  0.00     0.025 C 
ENDBRANCH  17  20
ENDBRANCH   4  14
BRANCH   1  26
HETATM   26  C3  UNL     1       9.746  -4.955 -15.845  1.00  0.00     0.026 C 
BRANCH  26  27
HETATM   27  C2  UNL     1       8.285  -5.254 -16.109  1.00  0.00    -0.003 C 
HETATM   28  C1  UNL     1       7.541  -4.008 -16.548  1.00  0.00     0.005 C 
ENDBRANCH  26  27
ENDBRANCH   1  26
BRANCH   6  29
HETATM   29  N3  UNL     1      12.205  -5.523 -11.879  1.00  0.00    -0.293 N 
ATOM     30  H3  UNL     1      12.807  -4.993 -12.509  1.00  0.00     0.174 HD
BRANCH  29  31
HETATM   31  S1  UNL     1      12.570  -7.081 -11.356  1.00  0.00     0.317 S 
HETATM   32  O2  UNL     1      11.416  -8.055 -11.555  1.00  0.00    -0.183 OA
HETATM   33  O3  UNL     1      13.669  -7.644 -12.259  1.00  0.00    -0.183 OA
BRANCH  31  34
HETATM   34  N4  UNL     1      13.155  -7.255  -9.771  1.00  0.00    -0.303 N 
HETATM   35  C17 UNL     1      12.260  -7.750  -8.791  1.00  0.00     0.163 C 
HETATM   36  C18 UNL     1      14.499  -7.734  -9.673  1.00  0.00     0.163 C 
ENDBRANCH  31  34
ENDBRANCH  29  31
ENDBRANCH   6  29
TORSDOF 7
ENDMDL
MODEL 5
REMARK VINA RESULT: -6.225514963      1.832      2.322
REMARK  7 active torsions:
REMARK  status: ('A' for Active; 'I' for Inactive)
REMARK    1  A    between atoms: C2_2  and  C3_3 
REMARK    2  A    between atoms: C3_3  and  C4_4 
REMARK    3  A    between atoms: C6_7  and  N1_8 
REMARK       I    between atoms: N1_8  and  C7_10 
REMARK       I    between atoms: C7_10  and  N2_12 
REMARK    4  A    between atoms: N2_12  and  C8_14 
REMARK    5  A    between atoms: C15_21  and  N3_23 
REMARK    6  A    between atoms: N3_23  and  S1_25 
REMARK    7  A    between atoms: S1_25  and  N4_28 
ROOT
HETATM    1  C4  UNL     1      10.202  -4.655 -11.061  1.00  0.00     0.043 C 
HETATM    2 CL1  UNL     1      11.430  -3.985  -9.908  1.00  0.00    -0.119 Cl
HETATM    3  C5  UNL     1      10.248  -3.790 -12.261  1.00  0.00     0.058 C 
HETATM    4  C6  UNL     1      10.678  -4.441 -13.545  1.00  0.00     0.046 C 
HETATM    5  C14 UNL     1      12.183  -4.839 -13.459  1.00  0.00     0.063 C 
HETATM    6  C15 UNL     1      12.281  -6.202 -12.917  1.00  0.00     0.045 C 
HETATM    7  C16 UNL     1      12.955  -7.257 -13.721  1.00  0.00     0.039 C 
HETATM    8  C19 UNL     1      10.810  -6.540 -12.661  1.00  0.00     0.030 C 
HETATM    9  C20 UNL     1      10.394  -6.116 -11.299  1.00  0.00     0.012 C 
HETATM   10  C21 UNL     1       9.244  -6.969 -10.742  1.00  0.00     0.012 C 
HETATM   11  C22 UNL     1      10.088  -5.785 -13.757  1.00  0.00    -0.016 C 
HETATM   12  C23 UNL     1       8.615  -5.930 -13.703  1.00  0.00     0.018 C 
HETATM   13  C24 UNL     1      10.483  -6.203 -15.157  1.00  0.00     0.018 C 
ENDROOT
BRANCH   4  14
HETATM   14  N1  UNL     1      10.519  -3.502 -14.621  1.00  0.00    -0.333 N 
HETATM   15  C7  UNL     1       9.427  -2.676 -14.922  1.00  0.00     0.317 C 
HETATM   16  O1  UNL     1       8.351  -2.594 -14.282  1.00  0.00    -0.247 OA
HETATM   17  N2  UNL     1       9.488  -1.803 -16.077  1.00  0.00    -0.339 N 
ATOM     18  H2  UNL     1      10.326  -1.800 -16.658  1.00  0.00     0.164 HD
ATOM     19  H1  UNL     1      11.313  -3.427 -15.257  1.00  0.00     0.165 HD
BRANCH  17  20
HETATM   20  C8  UNL     1       8.401  -0.950 -16.414  1.00  0.00     0.086 C 
HETATM   21  C9  UNL     1       7.296  -1.683 -17.170  1.00  0.00     0.025 C 
HETATM   22  C10 UNL     1       6.107  -0.725 -17.194  1.00  0.00     0.002 C 
HETATM   23  C11 UNL     1       6.469   0.570 -17.885  1.00  0.00     0.000 C 
HETATM   24  C12 UNL     1       7.667   1.232 -17.218  1.00  0.00     0.002 C 
HETATM   25  C13 UNL     1       8.800   0.228 -17.266  1.00  0.00     0.025 C 
ENDBRANCH  17  20
ENDBRANCH   4  14
BRANCH   1  26
HETATM   26  C3  UNL     1       8.933  -4.423 -10.217  1.00  0.00     0.026 C 
BRANCH  26  27
HETATM   27  C2  UNL     1       8.301  -3.099 -10.589  1.00  0.00    -0.003 C 
HETATM   28  C1  UNL     1       7.723  -2.406  -9.372  1.00  0.00     0.005 C 
ENDBRANCH  26  27
ENDBRANCH   1  26
BRANCH   6  29
HETATM   29  N3  UNL     1      13.051  -6.173 -11.661  1.00  0.00    -0.293 N 
ATOM     30  H3  UNL     1      13.016  -5.391 -11.007  1.00  0.00     0.174 HD
BRANCH  29  31
HETATM   31  S1  UNL     1      13.993  -7.544 -11.401  1.00  0.00     0.317 S 
HETATM   32  O2  UNL     1      15.224  -7.591 -12.298  1.00  0.00    -0.183 OA
HETATM   33  O3  UNL     1      14.584  -7.459  -9.992  1.00  0.00    -0.183 OA
BRANCH  31  34
HETATM   34  N4  UNL     1      13.214  -9.051 -11.474  1.00  0.00    -0.303 N 
HETATM   35  C17 UNL     1      14.007 -10.186 -11.778  1.00  0.00     0.163 C 
HETATM   36  C18 UNL     1      12.202  -9.257 -10.486  1.00  0.00     0.163 C 
ENDBRANCH  31  34
ENDBRANCH  29  31
ENDBRANCH   6  29
TORSDOF 7
ENDMDL
