MODEL 1
REMARK VINA RESULT: -8.510691260      0.000      0.000
REMARK  5 active torsions:
REMARK  status: ('A' for Active; 'I' for Inactive)
REMARK    1  A    between atoms: C3_3  and  C4_4 
REMARK    2  A    between atoms: C6_6  and  C7_7 
REMARK    3  A    between atoms: C7_7  and  C8_8 
REMARK    4  A    between atoms: C8_8  and  C9_9 
REMARK    5  A    between atoms: C19_20  and  C20_21 
ROOT
HETATM    1  C1  UNL     1      63.799  47.848  34.464  1.00  0.00     0.012 C 
HETATM    2  C2  UNL     1      63.684  48.000  33.273  1.00  0.00    -0.117 C 
HETATM    3  C3  UNL     1      63.517  48.183  31.817  1.00  0.00     0.103 C 
ENDROOT
BRANCH   3   4
HETATM    4  C4  UNL     1      64.865  48.224  31.130  1.00  0.00     0.053 C 
HETATM    5  C5  UNL     1      64.616  48.692  29.713  1.00  0.00    -0.016 C 
HETATM    6  C6  UNL     1      65.447  48.317  28.724  1.00  0.00    -0.078 C 
HETATM    7  C11 UNL     1      66.479  47.483  29.226  1.00  0.00     0.026 C 
HETATM    8  C12 UNL     1      67.640  46.896  28.656  1.00  0.00     0.016 C 
HETATM    9  C19 UNL     1      65.788  46.332  29.912  1.00  0.00     0.002 C 
HETATM   10  C13 UNL     1      68.057  46.058  29.903  1.00  0.00     0.019 C 
HETATM   11  C14 UNL     1      68.050  46.855  31.173  1.00  0.00     0.278 C 
HETATM   12  C18 UNL     1      66.832  45.201  29.984  1.00  0.00     0.003 C 
HETATM   13  N1  UNL     1      66.855  46.964  31.893  1.00  0.00     0.095 N 
HETATM   14  C15 UNL     1      66.848  45.959  32.972  1.00  0.00     0.273 C 
HETATM   15  C22 UNL     1      65.564  46.922  31.289  1.00  0.00     0.240 C 
HETATM   16  C16 UNL     1      67.265  44.637  32.428  1.00  0.00     0.031 C 
HETATM   17  C17 UNL     1      66.703  44.284  31.090  1.00  0.00     0.007 C 
BRANCH   6  18
HETATM   18  C7  UNL     1      65.242  48.747  27.355  1.00  0.00     0.034 C 
BRANCH  18  19
HETATM   19  C8  UNL     1      63.885  49.353  27.091  1.00  0.00     0.004 C 
BRANCH  19  20
HETATM   20  C9  UNL     1      62.935  48.172  26.843  1.00  0.00    -0.004 C 
HETATM   21  C10 UNL     1      61.789  48.190  27.804  1.00  0.00     0.005 C 
ENDBRANCH  19  20
ENDBRANCH  18  19
ENDBRANCH   6  18
BRANCH   9  22
HETATM   22  C20 UNL     1      64.589  45.740  29.358  1.00  0.00     0.008 C 
HETATM   23  C21 UNL     1      64.666  44.848  28.177  1.00  0.00     0.006 C 
ENDBRANCH   9  22
ENDBRANCH   3   4
TORSDOF 5
ENDMDL
MODEL 2
REMARK VINA RESULT: -7.882454438      0.994      1.583
REMARK  5 active torsions:
REMARK  status: ('A' for Active; 'I' for Inactive)
REMARK    1  A    between atoms: C3_3  and  C4_4 
REMARK    2  A    between atoms: C6_6  and  C7_7 
REMARK    3  A    between atoms: C7_7  and  C8_8 
REMARK    4  A    between atoms: C8_8  and  C9_9 
REMARK    5  A    between atoms: C19_20  and  C20_21 
ROOT
HETATM    1  C1  UNL     1      63.568  47.829  34.423  1.00  0.00     0.012 C 
HETATM    2  C2  UNL     1      63.522  47.890  33.220  1.00  0.00    -0.117 C 
HETATM    3  C3  UNL     1      63.440  47.959  31.747  1.00  0.00     0.103 C 
ENDROOT
BRANCH   3   4
HETATM    4  C4  UNL     1      64.825  48.052  31.142  1.00  0.00     0.053 C 
HETATM    5  C5  UNL     1      64.639  48.378  29.677  1.00  0.00    -0.016 C 
HETATM    6  C6  UNL     1      65.560  47.990  28.778  1.00  0.00    -0.078 C 
HETATM    7  C11 UNL     1      66.616  47.287  29.414  1.00  0.00     0.026 C 
HETATM    8  C12 UNL     1      67.854  46.750  28.971  1.00  0.00     0.016 C 
HETATM    9  C19 UNL     1      65.969  46.145  30.155  1.00  0.00     0.002 C 
HETATM   10  C13 UNL     1      68.247  46.056  30.310  1.00  0.00     0.019 C 
HETATM   11  C14 UNL     1      68.094  46.954  31.502  1.00  0.00     0.278 C 
HETATM   12  C18 UNL     1      67.088  45.112  30.391  1.00  0.00     0.003 C 
HETATM   13  N1  UNL     1      66.848  47.025  32.135  1.00  0.00     0.095 N 
HETATM   14  C15 UNL     1      66.843  46.116  33.296  1.00  0.00     0.273 C 
HETATM   15  C22 UNL     1      65.608  46.828  31.459  1.00  0.00     0.240 C 
HETATM   16  C16 UNL     1      67.395  44.792  32.898  1.00  0.00     0.031 C 
HETATM   17  C17 UNL     1      66.954  44.284  31.565  1.00  0.00     0.007 C 
BRANCH   6  18
HETATM   18  C7  UNL     1      65.418  48.286  27.366  1.00  0.00     0.034 C 
BRANCH  18  19
HETATM   19  C8  UNL     1      65.168  49.743  27.059  1.00  0.00     0.004 C 
BRANCH  19  20
HETATM   20  C9  UNL     1      66.516  50.315  26.596  1.00  0.00    -0.004 C 
HETATM   21  C10 UNL     1      67.318  49.284  25.868  1.00  0.00     0.005 C 
ENDBRANCH  19  20
ENDBRANCH  18  19
ENDBRANCH   6  18
BRANCH   9  22
HETATM   22  C20 UNL     1      64.858  45.414  29.584  1.00  0.00     0.008 C 
HETATM   23  C21 UNL     1      65.025  44.659  28.320  1.00  0.00     0.006 C 
ENDBRANCH   9  22
ENDBRANCH   3   4
TORSDOF 5
ENDMDL
MODEL 3
REMARK VINA RESULT: -7.857762927      2.211      4.534
REMARK  5 active torsions:
REMARK  status: ('A' for Active; 'I' for Inactive)
REMARK    1  A    between atoms: C3_3  and  C4_4 
REMARK    2  A    between atoms: C6_6  and  C7_7 
REMARK    3  A    between atoms: C7_7  and  C8_8 
REMARK    4  A    between atoms: C8_8  and  C9_9 
REMARK    5  A    between atoms: C19_20  and  C20_21 
ROOT
HETATM    1  C1  UNL     1      63.494  47.913  33.927  1.00  0.00     0.012 C 
HETATM    2  C2  UNL     1      64.070  47.971  32.869  1.00  0.00    -0.117 C 
HETATM    3  C3  UNL     1      64.797  48.039  31.586  1.00  0.00     0.103 C 
ENDROOT
BRANCH   3   4
HETATM    4  C4  UNL     1      63.851  48.397  30.459  1.00  0.00     0.053 C 
HETATM    5  C5  UNL     1      62.639  47.504  30.609  1.00  0.00    -0.016 C 
HETATM    6  C6  UNL     1      61.913  47.168  29.529  1.00  0.00    -0.078 C 
HETATM    7  C11 UNL     1      62.460  47.749  28.355  1.00  0.00     0.026 C 
HETATM    8  C12 UNL     1      62.055  47.797  26.995  1.00  0.00     0.016 C 
HETATM    9  C19 UNL     1      63.894  47.290  28.293  1.00  0.00     0.002 C 
HETATM   10  C13 UNL     1      63.328  48.512  26.446  1.00  0.00     0.019 C 
HETATM   11  C14 UNL     1      63.719  49.713  27.254  1.00  0.00     0.278 C 
HETATM   12  C18 UNL     1      64.323  47.459  26.823  1.00  0.00     0.003 C 
HETATM   13  N1  UNL     1      64.543  49.534  28.371  1.00  0.00     0.095 N 
HETATM   14  C15 UNL     1      65.940  49.810  27.990  1.00  0.00     0.273 C 
HETATM   15  C22 UNL     1      64.562  48.343  29.154  1.00  0.00     0.240 C 
HETATM   16  C16 UNL     1      66.259  49.108  26.716  1.00  0.00     0.031 C 
HETATM   17  C17 UNL     1      65.723  47.720  26.594  1.00  0.00     0.007 C 
BRANCH   6  18
HETATM   18  C7  UNL     1      60.744  46.317  29.633  1.00  0.00     0.034 C 
BRANCH  18  19
HETATM   19  C8  UNL     1      60.028  46.405  30.960  1.00  0.00     0.004 C 
BRANCH  19  20
HETATM   20  C9  UNL     1      58.528  46.366  30.635  1.00  0.00    -0.004 C 
HETATM   21  C10 UNL     1      58.287  46.560  29.172  1.00  0.00     0.005 C 
ENDBRANCH  19  20
ENDBRANCH  18  19
ENDBRANCH   6  18
BRANCH   9  22
HETATM   22  C20 UNL     1      64.267  45.944  28.671  1.00  0.00     0.008 C 
HETATM   23  C21 UNL     1      65.684  45.605  28.947  1.00  0.00     0.006 C 
ENDBRANCH   9  22
ENDBRANCH   3   4
TORSDOF 5
ENDMDL
MODEL 4
REMARK VINA RESULT: -7.748352776      1.020      1.493
REMARK  5 active torsions:
REMARK  status: ('A' for Active; 'I' for Inactive)
REMARK    1  A    between atoms: C3_3  and  C4_4 
REMARK    2  A    between atoms: C6_6  and  C7_7 
REMARK    3  A    between atoms: C7_7  and  C8_8 
REMARK    4  A    between atoms: C8_8  and  C9_9 
REMARK    5  A    between atoms: C19_20  and  C20_21 
ROOT
HETATM    1  C1  UNL     1      61.999  47.228  29.405  1.00  0.00     0.012 C 
HETATM    2  C2  UNL     1      62.738  47.582  30.290  1.00  0.00    -0.117 C 
HETATM    3  C3  UNL     1      63.623  48.022  31.387  1.00  0.00     0.103 C 
ENDROOT
BRANCH   3   4
HETATM    4  C4  UNL     1      65.071  47.994  30.945  1.00  0.00     0.053 C 
HETATM    5  C5  UNL     1      65.091  48.421  29.493  1.00  0.00    -0.016 C 
HETATM    6  C6  UNL     1      66.065  47.984  28.676  1.00  0.00    -0.078 C 
HETATM    7  C11 UNL     1      66.961  47.133  29.374  1.00  0.00     0.026 C 
HETATM    8  C12 UNL     1      68.180  46.489  29.033  1.00  0.00     0.016 C 
HETATM    9  C19 UNL     1      66.117  46.031  29.961  1.00  0.00     0.002 C 
HETATM   10  C13 UNL     1      68.341  45.681  30.357  1.00  0.00     0.019 C 
HETATM   11  C14 UNL     1      68.144  46.522  31.583  1.00  0.00     0.278 C 
HETATM   12  C18 UNL     1      67.088  44.869  30.247  1.00  0.00     0.003 C 
HETATM   13  N1  UNL     1      66.848  46.695  32.080  1.00  0.00     0.095 N 
HETATM   14  C15 UNL     1      66.614  45.729  33.169  1.00  0.00     0.273 C 
HETATM   15  C22 UNL     1      65.680  46.676  31.261  1.00  0.00     0.240 C 
HETATM   16  C16 UNL     1      67.068  44.376  32.744  1.00  0.00     0.031 C 
HETATM   17  C17 UNL     1      66.733  43.996  31.339  1.00  0.00     0.007 C 
BRANCH   6  18
HETATM   18  C7  UNL     1      66.118  48.373  27.281  1.00  0.00     0.034 C 
BRANCH  18  19
HETATM   19  C8  UNL     1      65.166  49.484  26.909  1.00  0.00     0.004 C 
BRANCH  19  20
HETATM   20  C9  UNL     1      63.836  48.801  26.554  1.00  0.00    -0.004 C 
HETATM   21  C10 UNL     1      62.671  49.633  26.986  1.00  0.00     0.005 C 
ENDBRANCH  19  20
ENDBRANCH  18  19
ENDBRANCH   6  18
BRANCH   9  22
HETATM   22  C20 UNL     1      65.010  45.461  29.224  1.00  0.00     0.008 C 
HETATM   23  C21 UNL     1      65.247  44.732  27.955  1.00  0.00     0.006 C 
ENDBRANCH   9  22
ENDBRANCH   3   4
TORSDOF 5
ENDMDL
MODEL 5
REMARK VINA RESULT: -7.041350173      1.509      4.820
REMARK  5 active torsions:
REMARK  status: ('A' for Active; 'I' for Inactive)
REMARK    1  A    between atoms: C3_3  and  C4_4 
REMARK    2  A    between atoms: C6_6  and  C7_7 
REMARK    3  A    between atoms: C7_7  and  C8_8 
REMARK    4  A    between atoms: C8_8  and  C9_9 
REMARK    5  A    between atoms: C19_20  and  C20_21 
ROOT
HETATM    1  C1  UNL     1      64.760  49.472  34.238  1.00  0.00     0.012 C 
HETATM    2  C2  UNL     1      64.580  49.497  33.046  1.00  0.00    -0.117 C 
HETATM    3  C3  UNL     1      64.353  49.551  31.588  1.00  0.00     0.103 C 
ENDROOT
BRANCH   3   4
HETATM    4  C4  UNL     1      64.459  48.167  30.983  1.00  0.00     0.053 C 
HETATM    5  C5  UNL     1      65.906  47.745  31.113  1.00  0.00    -0.016 C 
HETATM    6  C6  UNL     1      66.438  46.883  30.229  1.00  0.00    -0.078 C 
HETATM    7  C11 UNL     1      65.476  46.502  29.258  1.00  0.00     0.026 C 
HETATM    8  C12 UNL     1      65.470  45.576  28.182  1.00  0.00     0.016 C 
HETATM    9  C19 UNL     1      64.980  47.784  28.638  1.00  0.00     0.002 C 
HETATM   10  C13 UNL     1      64.068  45.954  27.616  1.00  0.00     0.019 C 
HETATM   11  C14 UNL     1      63.009  46.024  28.675  1.00  0.00     0.278 C 
HETATM   12  C18 UNL     1      64.369  47.382  27.282  1.00  0.00     0.003 C 
HETATM   13  N1  UNL     1      62.832  47.225  29.371  1.00  0.00     0.095 N 
HETATM   14  C15 UNL     1      61.728  47.984  28.755  1.00  0.00     0.273 C 
HETATM   15  C22 UNL     1      63.882  48.159  29.613  1.00  0.00     0.240 C 
HETATM   16  C16 UNL     1      61.901  48.005  27.276  1.00  0.00     0.031 C 
HETATM   17  C17 UNL     1      63.298  48.216  26.793  1.00  0.00     0.007 C 
BRANCH   6  18
HETATM   18  C7  UNL     1      67.819  46.454  30.322  1.00  0.00     0.034 C 
BRANCH  18  19
HETATM   19  C8  UNL     1      68.244  46.026  31.706  1.00  0.00     0.004 C 
BRANCH  19  20
HETATM   20  C9  UNL     1      67.303  44.879  32.103  1.00  0.00    -0.004 C 
HETATM   21  C10 UNL     1      67.306  44.665  33.583  1.00  0.00     0.005 C 
ENDBRANCH  19  20
ENDBRANCH  18  19
ENDBRANCH   6  18
BRANCH   9  22
HETATM   22  C20 UNL     1      65.881  48.882  28.366  1.00  0.00     0.008 C 
HETATM   23  C21 UNL     1      66.608  48.957  27.076  1.00  0.00     0.006 C 
ENDBRANCH   9  22
ENDBRANCH   3   4
TORSDOF 5
ENDMDL
