MODEL 1
REMARK VINA RESULT: -9.071810796      0.000      0.000
REMARK  6 active torsions:
REMARK  status: ('A' for Active; 'I' for Inactive)
REMARK    1  A    between atoms: C3_3  and  O1_4 
REMARK    2  A    between atoms: C11_13  and  C12_14 
REMARK    3  A    between atoms: C12_14  and  C13_15 
REMARK    4  A    between atoms: C13_15  and  C14_16 
REMARK    5  A    between atoms: C14_16  and  C15_17 
REMARK    6  A    between atoms: C15_17  and  C16_18 
ROOT
HETATM    1  C1  UNL     1      67.677  44.952  33.971  1.00  0.00     0.015 C 
HETATM    2  C2  UNL     1      67.362  45.576  32.992  1.00  0.00    -0.079 C 
HETATM    3  C3  UNL     1      66.969  46.329  31.774  1.00  0.00     0.120 C 
HETATM    4  C4  UNL     1      66.404  45.335  30.815  1.00  0.00     0.051 C 
HETATM    5  C5  UNL     1      65.638  45.923  29.682  1.00  0.00     0.009 C 
HETATM    6  C6  UNL     1      65.504  47.415  29.806  1.00  0.00    -0.006 C 
HETATM    7  C7  UNL     1      64.969  47.740  31.191  1.00  0.00    -0.006 C 
HETATM    8  C8  UNL     1      63.644  47.104  31.457  1.00  0.00     0.005 C 
HETATM    9  C9  UNL     1      62.715  47.373  30.292  1.00  0.00     0.006 C 
HETATM   10  C10 UNL     1      63.260  48.446  29.382  1.00  0.00    -0.006 C 
HETATM   11  C11 UNL     1      62.444  48.575  28.139  1.00  0.00    -0.010 C 
HETATM   12  C18 UNL     1      62.777  47.347  27.363  1.00  0.00     0.005 C 
HETATM   13  C19 UNL     1      64.271  47.187  27.624  1.00  0.00     0.006 C 
HETATM   14  C20 UNL     1      64.611  48.039  28.808  1.00  0.00    -0.006 C 
HETATM   15  C21 UNL     1      66.019  47.389  32.203  1.00  0.00     0.056 C 
ENDROOT
BRANCH   3  16
HETATM   16  O1  UNL     1      68.183  46.867  31.284  1.00  0.00    -0.378 OA
ATOM     17  H1  UNL     1      68.795  46.141  31.321  1.00  0.00     0.211 HD
ENDBRANCH   3  16
BRANCH  11  18
HETATM   18  C12 UNL     1      60.970  48.708  28.348  1.00  0.00     0.005 C 
BRANCH  18  19
HETATM   19  C13 UNL     1      60.217  47.409  28.284  1.00  0.00     0.000 C 
BRANCH  19  20
HETATM   20  C14 UNL     1      58.763  47.550  28.663  1.00  0.00     0.000 C 
BRANCH  20  21
HETATM   21  C15 UNL     1      58.295  46.318  29.384  1.00  0.00    -0.000 C 
BRANCH  21  22
HETATM   22  C16 UNL     1      59.455  45.610  30.056  1.00  0.00    -0.005 C 
HETATM   23  C17 UNL     1      59.539  45.893  31.520  1.00  0.00     0.005 C 
ENDBRANCH  21  22
ENDBRANCH  20  21
ENDBRANCH  19  20
ENDBRANCH  18  19
ENDBRANCH  11  18
TORSDOF 6
ENDMDL
MODEL 2
REMARK VINA RESULT: -8.854491191      2.536      6.374
REMARK  6 active torsions:
REMARK  status: ('A' for Active; 'I' for Inactive)
REMARK    1  A    between atoms: C3_3  and  O1_4 
REMARK    2  A    between atoms: C11_13  and  C12_14 
REMARK    3  A    between atoms: C12_14  and  C13_15 
REMARK    4  A    between atoms: C13_15  and  C14_16 
REMARK    5  A    between atoms: C14_16  and  C15_17 
REMARK    6  A    between atoms: C15_17  and  C16_18 
ROOT
HETATM    1  C1  UNL     1      62.251  49.325  26.909  1.00  0.00     0.015 C 
HETATM    2  C2  UNL     1      62.931  48.493  27.452  1.00  0.00    -0.079 C 
HETATM    3  C3  UNL     1      63.785  47.478  28.117  1.00  0.00     0.120 C 
HETATM    4  C4  UNL     1      65.172  48.031  28.144  1.00  0.00     0.051 C 
HETATM    5  C5  UNL     1      66.107  47.333  29.068  1.00  0.00     0.009 C 
HETATM    6  C6  UNL     1      65.415  46.266  29.871  1.00  0.00    -0.006 C 
HETATM    7  C7  UNL     1      64.186  46.874  30.527  1.00  0.00    -0.006 C 
HETATM    8  C8  UNL     1      64.523  48.021  31.421  1.00  0.00     0.005 C 
HETATM    9  C9  UNL     1      65.655  47.624  32.344  1.00  0.00     0.006 C 
HETATM   10  C10 UNL     1      65.888  46.134  32.327  1.00  0.00    -0.006 C 
HETATM   11  C11 UNL     1      67.121  45.765  33.084  1.00  0.00    -0.010 C 
HETATM   12  C18 UNL     1      68.232  46.237  32.211  1.00  0.00     0.005 C 
HETATM   13  C19 UNL     1      67.720  45.900  30.814  1.00  0.00     0.006 C 
HETATM   14  C20 UNL     1      66.246  45.653  30.927  1.00  0.00    -0.006 C 
HETATM   15  C21 UNL     1      63.194  47.217  29.455  1.00  0.00     0.056 C 
ENDROOT
BRANCH   3  16
HETATM   16  O1  UNL     1      63.713  46.346  27.271  1.00  0.00    -0.378 OA
ATOM     17  H1  UNL     1      64.092  45.642  27.783  1.00  0.00     0.211 HD
ENDBRANCH   3  16
BRANCH  11  18
HETATM   18  C12 UNL     1      67.227  46.338  34.461  1.00  0.00     0.005 C 
BRANCH  18  19
HETATM   19  C13 UNL     1      65.960  46.254  35.265  1.00  0.00     0.000 C 
BRANCH  19  20
HETATM   20  C14 UNL     1      65.796  47.402  36.231  1.00  0.00     0.000 C 
BRANCH  20  21
HETATM   21  C15 UNL     1      65.221  48.595  35.523  1.00  0.00    -0.000 C 
BRANCH  21  22
HETATM   22  C16 UNL     1      63.756  48.378  35.197  1.00  0.00    -0.005 C 
HETATM   23  C17 UNL     1      62.854  49.321  35.924  1.00  0.00     0.005 C 
ENDBRANCH  21  22
ENDBRANCH  20  21
ENDBRANCH  19  20
ENDBRANCH  18  19
ENDBRANCH  11  18
TORSDOF 6
ENDMDL
MODEL 3
REMARK VINA RESULT: -8.840317644      1.478      2.127
REMARK  6 active torsions:
REMARK  status: ('A' for Active; 'I' for Inactive)
REMARK    1  A    between atoms: C3_3  and  O1_4 
REMARK    2  A    between atoms: C11_13  and  C12_14 
REMARK    3  A    between atoms: C12_14  and  C13_15 
REMARK    4  A    between atoms: C13_15  and  C14_16 
REMARK    5  A    between atoms: C14_16  and  C15_17 
REMARK    6  A    between atoms: C15_17  and  C16_18 
ROOT
HETATM    1  C1  UNL     1      66.046  46.614  36.606  1.00  0.00     0.015 C 
HETATM    2  C2  UNL     1      66.241  46.693  35.421  1.00  0.00    -0.079 C 
HETATM    3  C3  UNL     1      66.474  46.772  33.957  1.00  0.00     0.120 C 
HETATM    4  C4  UNL     1      65.787  45.596  33.346  1.00  0.00     0.051 C 
HETATM    5  C5  UNL     1      65.603  45.675  31.870  1.00  0.00     0.009 C 
HETATM    6  C6  UNL     1      66.062  46.994  31.315  1.00  0.00    -0.006 C 
HETATM    7  C7  UNL     1      65.408  48.110  32.112  1.00  0.00    -0.006 C 
HETATM    8  C8  UNL     1      63.917  48.050  32.064  1.00  0.00     0.005 C 
HETATM    9  C9  UNL     1      63.467  47.890  30.628  1.00  0.00     0.006 C 
HETATM   10  C10 UNL     1      64.590  48.163  29.659  1.00  0.00    -0.006 C 
HETATM   11  C11 UNL     1      64.201  47.821  28.260  1.00  0.00    -0.010 C 
HETATM   12  C18 UNL     1      64.172  46.331  28.250  1.00  0.00     0.005 C 
HETATM   13  C19 UNL     1      65.371  45.972  29.121  1.00  0.00     0.006 C 
HETATM   14  C20 UNL     1      65.751  47.203  29.886  1.00  0.00    -0.006 C 
HETATM   15  C21 UNL     1      65.967  48.093  33.504  1.00  0.00     0.056 C 
ENDROOT
BRANCH   3  16
HETATM   16  O1  UNL     1      67.878  46.662  33.817  1.00  0.00    -0.378 OA
ATOM     17  H1  UNL     1      68.068  45.756  34.031  1.00  0.00     0.211 HD
ENDBRANCH   3  16
BRANCH  11  18
HETATM   18  C12 UNL     1      62.902  48.396  27.794  1.00  0.00     0.005 C 
BRANCH  18  19
HETATM   19  C13 UNL     1      61.795  47.390  27.651  1.00  0.00     0.000 C 
BRANCH  19  20
HETATM   20  C14 UNL     1      60.639  47.646  28.586  1.00  0.00     0.000 C 
BRANCH  20  21
HETATM   21  C15 UNL     1      60.327  46.406  29.373  1.00  0.00    -0.000 C 
BRANCH  21  22
HETATM   22  C16 UNL     1      58.839  46.114  29.358  1.00  0.00    -0.005 C 
HETATM   23  C17 UNL     1      58.128  46.781  28.225  1.00  0.00     0.005 C 
ENDBRANCH  21  22
ENDBRANCH  20  21
ENDBRANCH  19  20
ENDBRANCH  18  19
ENDBRANCH  11  18
TORSDOF 6
ENDMDL
MODEL 4
REMARK VINA RESULT: -8.419878391      2.564      4.424
REMARK  6 active torsions:
REMARK  status: ('A' for Active; 'I' for Inactive)
REMARK    1  A    between atoms: C3_3  and  O1_4 
REMARK    2  A    between atoms: C11_13  and  C12_14 
REMARK    3  A    between atoms: C12_14  and  C13_15 
REMARK    4  A    between atoms: C13_15  and  C14_16 
REMARK    5  A    between atoms: C14_16  and  C15_17 
REMARK    6  A    between atoms: C15_17  and  C16_18 
ROOT
HETATM    1  C1  UNL     1      62.448  49.653  36.809  1.00  0.00     0.015 C 
HETATM    2  C2  UNL     1      63.291  49.328  36.014  1.00  0.00    -0.079 C 
HETATM    3  C3  UNL     1      64.329  48.909  35.039  1.00  0.00     0.120 C 
HETATM    4  C4  UNL     1      64.337  47.416  35.032  1.00  0.00     0.051 C 
HETATM    5  C5  UNL     1      65.053  46.799  33.882  1.00  0.00     0.009 C 
HETATM    6  C6  UNL     1      65.532  47.829  32.898  1.00  0.00    -0.006 C 
HETATM    7  C7  UNL     1      64.364  48.729  32.530  1.00  0.00    -0.006 C 
HETATM    8  C8  UNL     1      63.224  47.971  31.932  1.00  0.00     0.005 C 
HETATM    9  C9  UNL     1      63.744  47.058  30.842  1.00  0.00     0.006 C 
HETATM   10  C10 UNL     1      65.161  47.403  30.457  1.00  0.00    -0.006 C 
HETATM   11  C11 UNL     1      65.737  46.389  29.526  1.00  0.00    -0.010 C 
HETATM   12  C18 UNL     1      65.960  45.196  30.389  1.00  0.00     0.005 C 
HETATM   13  C19 UNL     1      66.449  45.818  31.693  1.00  0.00     0.006 C 
HETATM   14  C20 UNL     1      66.098  47.274  31.651  1.00  0.00    -0.006 C 
HETATM   15  C21 UNL     1      63.984  49.535  33.737  1.00  0.00     0.056 C 
ENDROOT
BRANCH   3  16
HETATM   16  O1  UNL     1      65.538  49.415  35.572  1.00  0.00    -0.378 OA
ATOM     17  H1  UNL     1      65.996  49.773  34.821  1.00  0.00     0.211 HD
ENDBRANCH   3  16
BRANCH  11  18
HETATM   18  C12 UNL     1      64.895  46.055  28.337  1.00  0.00     0.005 C 
BRANCH  18  19
HETATM   19  C13 UNL     1      64.599  47.223  27.440  1.00  0.00     0.000 C 
BRANCH  19  20
HETATM   20  C14 UNL     1      63.122  47.432  27.209  1.00  0.00     0.000 C 
BRANCH  20  21
HETATM   21  C15 UNL     1      62.746  48.851  27.525  1.00  0.00    -0.000 C 
BRANCH  21  22
HETATM   22  C16 UNL     1      61.580  48.900  28.492  1.00  0.00    -0.005 C 
HETATM   23  C17 UNL     1      60.867  47.593  28.610  1.00  0.00     0.005 C 
ENDBRANCH  21  22
ENDBRANCH  20  21
ENDBRANCH  19  20
ENDBRANCH  18  19
ENDBRANCH  11  18
TORSDOF 6
ENDMDL
MODEL 5
REMARK VINA RESULT: -8.396562204      2.519      6.735
REMARK  6 active torsions:
REMARK  status: ('A' for Active; 'I' for Inactive)
REMARK    1  A    between atoms: C3_3  and  O1_4 
REMARK    2  A    between atoms: C11_13  and  C12_14 
REMARK    3  A    between atoms: C12_14  and  C13_15 
REMARK    4  A    between atoms: C13_15  and  C14_16 
REMARK    5  A    between atoms: C14_16  and  C15_17 
REMARK    6  A    between atoms: C15_17  and  C16_18 
ROOT
HETATM    1  C1  UNL     1      56.373  46.287  30.582  1.00  0.00     0.015 C 
HETATM    2  C2  UNL     1      57.358  46.368  29.894  1.00  0.00    -0.079 C 
HETATM    3  C3  UNL     1      58.570  46.488  29.046  1.00  0.00     0.120 C 
HETATM    4  C4  UNL     1      58.899  47.941  28.965  1.00  0.00     0.051 C 
HETATM    5  C5  UNL     1      60.265  48.248  28.456  1.00  0.00     0.009 C 
HETATM    6  C6  UNL     1      61.074  47.001  28.229  1.00  0.00    -0.006 C 
HETATM    7  C7  UNL     1      61.024  46.154  29.490  1.00  0.00    -0.006 C 
HETATM    8  C8  UNL     1      61.557  46.874  30.685  1.00  0.00     0.005 C 
HETATM    9  C9  UNL     1      62.892  47.498  30.341  1.00  0.00     0.006 C 
HETATM   10  C10 UNL     1      63.442  46.957  29.045  1.00  0.00    -0.006 C 
HETATM   11  C11 UNL     1      64.657  47.707  28.611  1.00  0.00    -0.010 C 
HETATM   12  C18 UNL     1      64.125  49.026  28.166  1.00  0.00     0.005 C 
HETATM   13  C19 UNL     1      62.827  48.638  27.465  1.00  0.00     0.006 C 
HETATM   14  C20 UNL     1      62.491  47.240  27.889  1.00  0.00    -0.006 C 
HETATM   15  C21 UNL     1      59.624  45.645  29.668  1.00  0.00     0.056 C 
ENDROOT
BRANCH   3  16
HETATM   16  O1  UNL     1      58.167  45.993  27.782  1.00  0.00    -0.378 OA
ATOM     17  H1  UNL     1      57.479  46.585  27.504  1.00  0.00     0.211 HD
ENDBRANCH   3  16
BRANCH  11  18
HETATM   18  C12 UNL     1      65.719  47.869  29.651  1.00  0.00     0.005 C 
BRANCH  18  19
HETATM   19  C13 UNL     1      66.548  46.638  29.886  1.00  0.00     0.000 C 
BRANCH  19  20
HETATM   20  C14 UNL     1      66.267  45.981  31.215  1.00  0.00     0.000 C 
BRANCH  20  21
HETATM   21  C15 UNL     1      66.633  44.525  31.159  1.00  0.00    -0.000 C 
BRANCH  21  22
HETATM   22  C16 UNL     1      66.393  43.854  32.497  1.00  0.00    -0.005 C 
HETATM   23  C17 UNL     1      67.139  44.505  33.615  1.00  0.00     0.005 C 
ENDBRANCH  21  22
ENDBRANCH  20  21
ENDBRANCH  19  20
ENDBRANCH  18  19
ENDBRANCH  11  18
TORSDOF 6
ENDMDL
