MODEL 1
REMARK VINA RESULT: -9.195184634      0.000      0.000
REMARK  4 active torsions:
REMARK  status: ('A' for Active; 'I' for Inactive)
REMARK    1  A    between atoms: C2_2  and  N1_3 
REMARK    2  A    between atoms: C2_2  and  C14_16 
REMARK    3  A    between atoms: N1_3  and  C3_5 
REMARK    4  A    between atoms: C14_16  and  C16_18 
ROOT
HETATM    1  N1  UNL     1      66.183  47.521  30.116  1.00  0.00    -0.388 N 
ATOM      2  H1  UNL     1      66.845  48.044  29.544  1.00  0.00     0.159 HD
ENDROOT
BRANCH   1   3
HETATM    3  C2  UNL     1      66.744  46.755  31.179  1.00  0.00    -0.000 C 
HETATM    4  C1  UNL     1      67.103  45.491  30.979  1.00  0.00     0.038 C 
BRANCH   3   5
HETATM    5  C14 UNL     1      66.852  47.462  32.476  1.00  0.00     0.034 C 
HETATM    6  C15 UNL     1      68.280  47.333  32.946  1.00  0.00     0.017 C 
BRANCH   5   7
HETATM    7  C16 UNL     1      65.858  47.092  33.511  1.00  0.00    -0.005 C 
HETATM    8  C17 UNL     1      64.421  47.185  33.051  1.00  0.00     0.005 C 
HETATM    9  C18 UNL     1      63.685  48.295  33.767  1.00  0.00     0.000 C 
HETATM   10  C19 UNL     1      64.485  49.569  33.807  1.00  0.00     0.000 C 
HETATM   11  C20 UNL     1      65.743  49.338  34.595  1.00  0.00     0.000 C 
HETATM   12  C21 UNL     1      65.961  47.858  34.784  1.00  0.00     0.005 C 
ENDBRANCH   5   7
ENDBRANCH   3   5
ENDBRANCH   1   3
BRANCH   1  13
HETATM   13  C3  UNL     1      64.821  47.643  29.759  1.00  0.00     0.089 C 
HETATM   14  C4  UNL     1      64.403  46.688  28.658  1.00  0.00     0.010 C 
HETATM   15  C5  UNL     1      64.966  47.078  27.330  1.00  0.00     0.011 C 
HETATM   16  C13 UNL     1      62.885  46.658  28.679  1.00  0.00     0.015 C 
HETATM   17  C6  UNL     1      64.333  48.392  26.930  1.00  0.00    -0.013 C 
HETATM   18  C7  UNL     1      64.776  49.410  27.959  1.00  0.00     0.011 C 
HETATM   19  C12 UNL     1      62.824  48.341  26.934  1.00  0.00     0.013 C 
HETATM   20  C8  UNL     1      64.359  49.003  29.355  1.00  0.00     0.010 C 
HETATM   21  C9  UNL     1      62.836  49.032  29.350  1.00  0.00     0.015 C 
HETATM   22  C10 UNL     1      62.336  48.048  28.331  1.00  0.00    -0.043 C 
HETATM   23  C11 UNL     1      60.842  47.932  28.335  1.00  0.00     0.015 C 
ENDBRANCH   1  13
TORSDOF 4
ENDMDL
MODEL 2
REMARK VINA RESULT: -9.076302205      1.174      3.076
REMARK  4 active torsions:
REMARK  status: ('A' for Active; 'I' for Inactive)
REMARK    1  A    between atoms: C2_2  and  N1_3 
REMARK    2  A    between atoms: C2_2  and  C14_16 
REMARK    3  A    between atoms: N1_3  and  C3_5 
REMARK    4  A    between atoms: C14_16  and  C16_18 
ROOT
HETATM    1  N1  UNL     1      64.254  47.560  31.607  1.00  0.00    -0.388 N 
ATOM      2  H1  UNL     1      64.059  46.561  31.673  1.00  0.00     0.159 HD
ENDROOT
BRANCH   1   3
HETATM    3  C2  UNL     1      64.807  48.166  32.772  1.00  0.00    -0.000 C 
HETATM    4  C1  UNL     1      64.651  49.468  32.991  1.00  0.00     0.038 C 
BRANCH   3   5
HETATM    5  C14 UNL     1      65.568  47.253  33.656  1.00  0.00     0.034 C 
HETATM    6  C15 UNL     1      65.223  47.609  35.081  1.00  0.00     0.017 C 
BRANCH   5   7
HETATM    7  C16 UNL     1      67.027  47.164  33.411  1.00  0.00    -0.005 C 
HETATM    8  C17 UNL     1      67.444  47.546  32.009  1.00  0.00     0.005 C 
HETATM    9  C18 UNL     1      67.972  46.351  31.247  1.00  0.00     0.000 C 
HETATM   10  C19 UNL     1      67.085  45.145  31.405  1.00  0.00     0.000 C 
HETATM   11  C20 UNL     1      67.063  44.733  32.849  1.00  0.00     0.000 C 
HETATM   12  C21 UNL     1      67.634  45.836  33.702  1.00  0.00     0.005 C 
ENDBRANCH   5   7
ENDBRANCH   3   5
ENDBRANCH   1   3
BRANCH   1  13
HETATM   13  C3  UNL     1      63.942  48.173  30.373  1.00  0.00     0.089 C 
HETATM   14  C4  UNL     1      62.958  47.376  29.540  1.00  0.00     0.010 C 
HETATM   15  C5  UNL     1      63.575  46.141  28.968  1.00  0.00     0.011 C 
HETATM   16  C13 UNL     1      62.432  48.329  28.481  1.00  0.00     0.015 C 
HETATM   17  C6  UNL     1      64.627  46.572  27.972  1.00  0.00    -0.013 C 
HETATM   18  C7  UNL     1      65.683  47.317  28.761  1.00  0.00     0.011 C 
HETATM   19  C12 UNL     1      64.086  47.501  26.912  1.00  0.00     0.013 C 
HETATM   20  C8  UNL     1      65.094  48.507  29.486  1.00  0.00     0.010 C 
HETATM   21  C9  UNL     1      64.624  49.459  28.393  1.00  0.00     0.015 C 
HETATM   22  C10 UNL     1      63.582  48.766  27.562  1.00  0.00    -0.043 C 
HETATM   23  C11 UNL     1      62.984  49.668  26.527  1.00  0.00     0.015 C 
ENDBRANCH   1  13
TORSDOF 4
ENDMDL
MODEL 3
REMARK VINA RESULT: -8.996326714      1.403      5.752
REMARK  4 active torsions:
REMARK  status: ('A' for Active; 'I' for Inactive)
REMARK    1  A    between atoms: C2_2  and  N1_3 
REMARK    2  A    between atoms: C2_2  and  C14_16 
REMARK    3  A    between atoms: N1_3  and  C3_5 
REMARK    4  A    between atoms: C14_16  and  C16_18 
ROOT
HETATM    1  N1  UNL     1      66.030  47.939  32.111  1.00  0.00    -0.388 N 
ATOM      2  H1  UNL     1      66.001  48.929  31.867  1.00  0.00     0.159 HD
ENDROOT
BRANCH   1   3
HETATM    3  C2  UNL     1      66.789  47.103  31.241  1.00  0.00    -0.000 C 
HETATM    4  C1  UNL     1      68.116  47.172  31.232  1.00  0.00     0.038 C 
BRANCH   3   5
HETATM    5  C14 UNL     1      65.989  46.216  30.365  1.00  0.00     0.034 C 
HETATM    6  C15 UNL     1      66.633  44.852  30.391  1.00  0.00     0.017 C 
BRANCH   5   7
HETATM    7  C16 UNL     1      65.723  46.712  28.994  1.00  0.00    -0.005 C 
HETATM    8  C17 UNL     1      66.079  48.166  28.781  1.00  0.00     0.005 C 
HETATM    9  C18 UNL     1      64.844  49.007  28.550  1.00  0.00     0.000 C 
HETATM   10  C19 UNL     1      63.756  48.696  29.543  1.00  0.00     0.000 C 
HETATM   11  C20 UNL     1      63.319  47.270  29.367  1.00  0.00     0.000 C 
HETATM   12  C21 UNL     1      64.323  46.530  28.520  1.00  0.00     0.005 C 
ENDBRANCH   5   7
ENDBRANCH   3   5
ENDBRANCH   1   3
BRANCH   1  13
HETATM   13  C3  UNL     1      65.314  47.565  33.270  1.00  0.00     0.089 C 
HETATM   14  C4  UNL     1      63.884  48.069  33.279  1.00  0.00     0.010 C 
HETATM   15  C5  UNL     1      63.809  49.546  33.499  1.00  0.00     0.011 C 
HETATM   16  C13 UNL     1      63.160  47.267  34.347  1.00  0.00     0.015 C 
HETATM   17  C6  UNL     1      64.301  49.827  34.900  1.00  0.00    -0.013 C 
HETATM   18  C7  UNL     1      65.756  49.409  34.933  1.00  0.00     0.011 C 
HETATM   19  C12 UNL     1      63.559  49.040  35.953  1.00  0.00     0.013 C 
HETATM   20  C8  UNL     1      65.919  47.947  34.579  1.00  0.00     0.010 C 
HETATM   21  C9  UNL     1      65.225  47.177  35.695  1.00  0.00     0.015 C 
HETATM   22  C10 UNL     1      63.774  47.565  35.722  1.00  0.00    -0.043 C 
HETATM   23  C11 UNL     1      62.989  46.773  36.722  1.00  0.00     0.015 C 
ENDBRANCH   1  13
TORSDOF 4
ENDMDL
MODEL 4
REMARK VINA RESULT: -8.785522464      1.333      5.859
REMARK  4 active torsions:
REMARK  status: ('A' for Active; 'I' for Inactive)
REMARK    1  A    between atoms: C2_2  and  N1_3 
REMARK    2  A    between atoms: C2_2  and  C14_16 
REMARK    3  A    between atoms: N1_3  and  C3_5 
REMARK    4  A    between atoms: C14_16  and  C16_18 
ROOT
HETATM    1  N1  UNL     1      65.917  47.693  31.936  1.00  0.00    -0.388 N 
ATOM      2  H1  UNL     1      66.348  48.614  31.864  1.00  0.00     0.159 HD
ENDROOT
BRANCH   1   3
HETATM    3  C2  UNL     1      66.063  46.846  30.800  1.00  0.00    -0.000 C 
HETATM    4  C1  UNL     1      66.741  45.707  30.893  1.00  0.00     0.038 C 
BRANCH   3   5
HETATM    5  C14 UNL     1      65.443  47.352  29.553  1.00  0.00     0.034 C 
HETATM    6  C15 UNL     1      66.553  47.867  28.671  1.00  0.00     0.017 C 
BRANCH   5   7
HETATM    7  C16 UNL     1      64.329  48.315  29.716  1.00  0.00    -0.005 C 
HETATM    8  C17 UNL     1      62.953  47.689  29.647  1.00  0.00     0.005 C 
HETATM    9  C18 UNL     1      62.207  48.137  28.411  1.00  0.00     0.000 C 
HETATM   10  C19 UNL     1      63.065  48.067  27.177  1.00  0.00     0.000 C 
HETATM   11  C20 UNL     1      64.220  49.016  27.323  1.00  0.00     0.000 C 
HETATM   12  C21 UNL     1      64.339  49.456  28.760  1.00  0.00     0.005 C 
ENDBRANCH   5   7
ENDBRANCH   3   5
ENDBRANCH   1   3
BRANCH   1  13
HETATM   13  C3  UNL     1      65.249  47.413  33.149  1.00  0.00     0.089 C 
HETATM   14  C4  UNL     1      63.846  47.984  33.205  1.00  0.00     0.010 C 
HETATM   15  C5  UNL     1      63.847  49.471  33.348  1.00  0.00     0.011 C 
HETATM   16  C13 UNL     1      63.146  47.272  34.351  1.00  0.00     0.015 C 
HETATM   17  C6  UNL     1      64.427  49.802  34.705  1.00  0.00    -0.013 C 
HETATM   18  C7  UNL     1      65.862  49.318  34.685  1.00  0.00     0.011 C 
HETATM   19  C12 UNL     1      63.709  49.106  35.835  1.00  0.00     0.013 C 
HETATM   20  C8  UNL     1      65.941  47.834  34.402  1.00  0.00     0.010 C 
HETATM   21  C9  UNL     1      65.275  47.156  35.592  1.00  0.00     0.015 C 
HETATM   22  C10 UNL     1      63.847  47.612  35.674  1.00  0.00    -0.043 C 
HETATM   23  C11 UNL     1      63.084  46.910  36.755  1.00  0.00     0.015 C 
ENDBRANCH   1  13
TORSDOF 4
ENDMDL
MODEL 5
REMARK VINA RESULT: -8.770200677      1.537      3.035
REMARK  4 active torsions:
REMARK  status: ('A' for Active; 'I' for Inactive)
REMARK    1  A    between atoms: C2_2  and  N1_3 
REMARK    2  A    between atoms: C2_2  and  C14_16 
REMARK    3  A    between atoms: N1_3  and  C3_5 
REMARK    4  A    between atoms: C14_16  and  C16_18 
ROOT
HETATM    1  N1  UNL     1      65.272  47.357  31.708  1.00  0.00    -0.388 N 
ATOM      2  H1  UNL     1      64.708  46.508  31.753  1.00  0.00     0.159 HD
ENDROOT
BRANCH   1   3
HETATM    3  C2  UNL     1      65.873  47.773  32.931  1.00  0.00    -0.000 C 
HETATM    4  C1  UNL     1      67.170  47.573  33.144  1.00  0.00     0.038 C 
BRANCH   3   5
HETATM    5  C14 UNL     1      64.948  48.389  33.910  1.00  0.00     0.034 C 
HETATM    6  C15 UNL     1      64.557  49.744  33.374  1.00  0.00     0.017 C 
BRANCH   5   7
HETATM    7  C16 UNL     1      65.408  48.425  35.317  1.00  0.00    -0.005 C 
HETATM    8  C17 UNL     1      65.729  47.067  35.900  1.00  0.00     0.005 C 
HETATM    9  C18 UNL     1      64.747  46.689  36.986  1.00  0.00     0.000 C 
HETATM   10  C19 UNL     1      63.323  46.950  36.575  1.00  0.00     0.000 C 
HETATM   11  C20 UNL     1      63.136  48.424  36.349  1.00  0.00     0.000 C 
HETATM   12  C21 UNL     1      64.480  49.101  36.266  1.00  0.00     0.005 C 
ENDBRANCH   5   7
ENDBRANCH   3   5
ENDBRANCH   1   3
BRANCH   1  13
HETATM   13  C3  UNL     1      65.362  47.975  30.441  1.00  0.00     0.089 C 
HETATM   14  C4  UNL     1      64.028  48.479  29.924  1.00  0.00     0.010 C 
HETATM   15  C5  UNL     1      63.128  47.361  29.507  1.00  0.00     0.011 C 
HETATM   16  C13 UNL     1      64.349  49.443  28.795  1.00  0.00     0.015 C 
HETATM   17  C6  UNL     1      63.753  46.691  28.304  1.00  0.00    -0.013 C 
HETATM   18  C7  UNL     1      65.065  46.102  28.778  1.00  0.00     0.011 C 
HETATM   19  C12 UNL     1      64.046  47.657  27.182  1.00  0.00     0.013 C 
HETATM   20  C8  UNL     1      65.976  47.167  29.347  1.00  0.00     0.010 C 
HETATM   21  C9  UNL     1      66.313  48.083  28.178  1.00  0.00     0.015 C 
HETATM   22  C10 UNL     1      65.042  48.687  27.653  1.00  0.00    -0.043 C 
HETATM   23  C11 UNL     1      65.292  49.689  26.567  1.00  0.00     0.015 C 
ENDBRANCH   1  13
TORSDOF 4
ENDMDL
