MODEL 1
REMARK VINA RESULT: -6.888501394      0.000      0.000
REMARK  4 active torsions:
REMARK  status: ('A' for Active; 'I' for Inactive)
REMARK    1  A    between atoms: C13_13  and  C15_15 
REMARK    2  A    between atoms: C16_16  and  C17_17 
REMARK    3  A    between atoms: C17_17  and  N1_18 
REMARK    4  A    between atoms: N1_18  and  C18_21 
ROOT
HETATM    1  C1  UNL     1      64.231  49.374  31.672  1.00  0.00     0.015 C 
HETATM    2  C2  UNL     1      64.470  48.220  31.089  1.00  0.00    -0.076 C 
HETATM    3  C3  UNL     1      65.217  47.265  31.962  1.00  0.00     0.040 C 
HETATM    4  C4  UNL     1      66.615  47.225  31.489  1.00  0.00    -0.002 C 
HETATM    5  C5  UNL     1      66.964  48.200  30.400  1.00  0.00     0.012 C 
HETATM    6  C6  UNL     1      66.466  47.118  29.427  1.00  0.00     0.003 C 
HETATM    7  C7  UNL     1      66.841  46.152  30.409  1.00  0.00    -0.039 C 
HETATM    8  C8  UNL     1      68.381  45.924  30.394  1.00  0.00     0.015 C 
HETATM    9  C9  UNL     1      66.259  44.839  30.661  1.00  0.00     0.015 C 
HETATM   10  C10 UNL     1      65.182  47.413  28.854  1.00  0.00    -0.029 C 
HETATM   11  C11 UNL     1      64.791  46.280  27.907  1.00  0.00     0.016 C 
HETATM   12  C12 UNL     1      65.475  48.549  27.834  1.00  0.00     0.016 C 
HETATM   13  C13 UNL     1      64.026  47.914  29.699  1.00  0.00     0.003 C 
HETATM   14  C14 UNL     1      63.454  49.170  29.127  1.00  0.00     0.025 C 
ENDROOT
BRANCH  13  15
HETATM   15  C15 UNL     1      62.964  46.862  29.670  1.00  0.00    -0.015 C 
HETATM   16  C16 UNL     1      61.546  47.120  29.649  1.00  0.00    -0.003 C 
BRANCH  16  17
HETATM   17  C17 UNL     1      60.828  47.779  28.533  1.00  0.00     0.260 C 
BRANCH  17  18
HETATM   18  N1  UNL     1      59.707  48.590  28.898  1.00  0.00    -0.064 N 
ATOM     19  H12 UNL     1      59.761  48.917  29.862  1.00  0.00     0.278 HD
ATOM     20  H11 UNL     1      59.719  49.500  28.438  1.00  0.00     0.278 HD
BRANCH  18  21
HETATM   21  C18 UNL     1      58.493  47.855  28.632  1.00  0.00     0.115 C 
HETATM   22  C19 UNL     1      57.318  48.761  28.338  1.00  0.00     0.045 C 
HETATM   23  C20 UNL     1      58.698  46.989  27.402  1.00  0.00     0.045 C 
HETATM   24  C21 UNL     1      58.118  46.939  29.772  1.00  0.00     0.045 C 
ENDBRANCH  18  21
ENDBRANCH  17  18
ENDBRANCH  16  17
ENDBRANCH  13  15
TORSDOF 4
ENDMDL
MODEL 2
REMARK VINA RESULT: -6.869927123      0.955      1.058
REMARK  4 active torsions:
REMARK  status: ('A' for Active; 'I' for Inactive)
REMARK    1  A    between atoms: C13_13  and  C15_15 
REMARK    2  A    between atoms: C16_16  and  C17_17 
REMARK    3  A    between atoms: C17_17  and  N1_18 
REMARK    4  A    between atoms: N1_18  and  C18_21 
ROOT
HETATM    1  C1  UNL     1      63.841  49.605  30.117  1.00  0.00     0.015 C 
HETATM    2  C2  UNL     1      64.167  48.332  30.169  1.00  0.00    -0.076 C 
HETATM    3  C3  UNL     1      65.024  47.993  31.345  1.00  0.00     0.040 C 
HETATM    4  C4  UNL     1      66.405  47.813  30.857  1.00  0.00    -0.002 C 
HETATM    5  C5  UNL     1      66.631  48.130  29.405  1.00  0.00     0.012 C 
HETATM    6  C6  UNL     1      66.206  46.677  29.137  1.00  0.00     0.003 C 
HETATM    7  C7  UNL     1      66.697  46.360  30.441  1.00  0.00    -0.039 C 
HETATM    8  C8  UNL     1      68.250  46.255  30.430  1.00  0.00     0.015 C 
HETATM    9  C9  UNL     1      66.245  45.316  31.352  1.00  0.00     0.015 C 
HETATM   10  C10 UNL     1      64.884  46.562  28.587  1.00  0.00    -0.029 C 
HETATM   11  C11 UNL     1      64.571  45.083  28.359  1.00  0.00     0.016 C 
HETATM   12  C12 UNL     1      65.042  47.050  27.119  1.00  0.00     0.016 C 
HETATM   13  C13 UNL     1      63.713  47.343  29.151  1.00  0.00     0.003 C 
HETATM   14  C14 UNL     1      63.011  48.103  28.073  1.00  0.00     0.025 C 
ENDROOT
BRANCH  13  15
HETATM   15  C15 UNL     1      62.751  46.351  29.724  1.00  0.00    -0.015 C 
HETATM   16  C16 UNL     1      61.426  46.665  30.197  1.00  0.00    -0.003 C 
BRANCH  16  17
HETATM   17  C17 UNL     1      60.317  47.140  29.337  1.00  0.00     0.260 C 
BRANCH  17  18
HETATM   18  N1  UNL     1      59.079  47.414  30.001  1.00  0.00    -0.064 N 
ATOM     19  H12 UNL     1      58.937  46.822  30.819  1.00  0.00     0.278 HD
ATOM     20  H11 UNL     1      59.084  48.316  30.477  1.00  0.00     0.278 HD
BRANCH  18  21
HETATM   21  C18 UNL     1      58.002  47.302  29.045  1.00  0.00     0.115 C 
HETATM   22  C19 UNL     1      57.164  48.558  28.964  1.00  0.00     0.045 C 
HETATM   23  C20 UNL     1      58.589  47.075  27.664  1.00  0.00     0.045 C 
HETATM   24  C21 UNL     1      57.091  46.136  29.345  1.00  0.00     0.045 C 
ENDBRANCH  18  21
ENDBRANCH  17  18
ENDBRANCH  16  17
ENDBRANCH  13  15
TORSDOF 4
ENDMDL
MODEL 3
REMARK VINA RESULT: -6.746196662      2.423      6.647
REMARK  4 active torsions:
REMARK  status: ('A' for Active; 'I' for Inactive)
REMARK    1  A    between atoms: C13_13  and  C15_15 
REMARK    2  A    between atoms: C16_16  and  C17_17 
REMARK    3  A    between atoms: C17_17  and  N1_18 
REMARK    4  A    between atoms: N1_18  and  C18_21 
ROOT
HETATM    1  C1  UNL     1      65.704  48.433  27.048  1.00  0.00     0.015 C 
HETATM    2  C2  UNL     1      64.863  47.882  27.894  1.00  0.00    -0.076 C 
HETATM    3  C3  UNL     1      63.659  47.298  27.230  1.00  0.00     0.040 C 
HETATM    4  C4  UNL     1      62.525  48.212  27.474  1.00  0.00    -0.002 C 
HETATM    5  C5  UNL     1      62.864  49.501  28.171  1.00  0.00     0.012 C 
HETATM    6  C6  UNL     1      62.680  48.711  29.478  1.00  0.00     0.003 C 
HETATM    7  C7  UNL     1      61.765  47.874  28.770  1.00  0.00    -0.039 C 
HETATM    8  C8  UNL     1      60.386  48.579  28.615  1.00  0.00     0.015 C 
HETATM    9  C9  UNL     1      61.457  46.468  28.999  1.00  0.00     0.015 C 
HETATM   10  C10 UNL     1      63.920  48.393  30.130  1.00  0.00    -0.029 C 
HETATM   11  C11 UNL     1      63.618  47.617  31.412  1.00  0.00     0.016 C 
HETATM   12  C12 UNL     1      64.395  49.749  30.723  1.00  0.00     0.016 C 
HETATM   13  C13 UNL     1      65.109  47.846  29.364  1.00  0.00     0.003 C 
HETATM   14  C14 UNL     1      66.333  48.659  29.631  1.00  0.00     0.025 C 
ENDROOT
BRANCH  13  15
HETATM   15  C15 UNL     1      65.356  46.456  29.857  1.00  0.00    -0.015 C 
HETATM   16  C16 UNL     1      66.640  45.936  30.255  1.00  0.00    -0.003 C 
BRANCH  16  17
HETATM   17  C17 UNL     1      67.414  46.414  31.425  1.00  0.00     0.260 C 
BRANCH  17  18
HETATM   18  N1  UNL     1      66.674  46.603  32.635  1.00  0.00    -0.064 N 
ATOM     19  H12 UNL     1      66.366  47.567  32.756  1.00  0.00     0.278 HD
ATOM     20  H11 UNL     1      65.754  46.163  32.601  1.00  0.00     0.278 HD
BRANCH  18  21
HETATM   21  C18 UNL     1      67.468  46.134  33.746  1.00  0.00     0.115 C 
HETATM   22  C19 UNL     1      67.506  44.625  33.836  1.00  0.00     0.045 C 
HETATM   23  C20 UNL     1      68.900  46.600  33.560  1.00  0.00     0.045 C 
HETATM   24  C21 UNL     1      66.982  46.682  35.067  1.00  0.00     0.045 C 
ENDBRANCH  18  21
ENDBRANCH  17  18
ENDBRANCH  16  17
ENDBRANCH  13  15
TORSDOF 4
ENDMDL
MODEL 4
REMARK VINA RESULT: -6.253988629      2.560      6.036
REMARK  4 active torsions:
REMARK  status: ('A' for Active; 'I' for Inactive)
REMARK    1  A    between atoms: C13_13  and  C15_15 
REMARK    2  A    between atoms: C16_16  and  C17_17 
REMARK    3  A    between atoms: C17_17  and  N1_18 
REMARK    4  A    between atoms: N1_18  and  C18_21 
ROOT
HETATM    1  C1  UNL     1      61.590  48.247  28.534  1.00  0.00     0.015 C 
HETATM    2  C2  UNL     1      62.808  48.687  28.763  1.00  0.00    -0.076 C 
HETATM    3  C3  UNL     1      63.166  49.880  27.938  1.00  0.00     0.040 C 
HETATM    4  C4  UNL     1      64.071  49.427  26.863  1.00  0.00    -0.002 C 
HETATM    5  C5  UNL     1      64.290  47.942  26.777  1.00  0.00     0.012 C 
HETATM    6  C6  UNL     1      65.410  48.162  27.808  1.00  0.00     0.003 C 
HETATM    7  C7  UNL     1      65.552  49.482  27.279  1.00  0.00    -0.039 C 
HETATM    8  C8  UNL     1      66.341  49.452  25.937  1.00  0.00     0.015 C 
HETATM    9  C9  UNL     1      65.995  50.691  27.961  1.00  0.00     0.015 C 
HETATM   10  C10 UNL     1      65.063  47.722  29.130  1.00  0.00    -0.029 C 
HETATM   11  C11 UNL     1      66.244  47.983  30.064  1.00  0.00     0.016 C 
HETATM   12  C12 UNL     1      65.111  46.171  29.038  1.00  0.00     0.016 C 
HETATM   13  C13 UNL     1      63.720  48.050  29.755  1.00  0.00     0.003 C 
HETATM   14  C14 UNL     1      63.047  46.812  30.249  1.00  0.00     0.025 C 
ENDROOT
BRANCH  13  15
HETATM   15  C15 UNL     1      63.980  48.939  30.929  1.00  0.00    -0.015 C 
HETATM   16  C16 UNL     1      63.856  48.543  32.309  1.00  0.00    -0.003 C 
BRANCH  16  17
HETATM   17  C17 UNL     1      64.712  47.532  32.973  1.00  0.00     0.260 C 
BRANCH  17  18
HETATM   18  N1  UNL     1      64.779  47.605  34.401  1.00  0.00    -0.064 N 
ATOM     19  H12 UNL     1      64.040  48.186  34.796  1.00  0.00     0.278 HD
ATOM     20  H11 UNL     1      64.521  46.725  34.847  1.00  0.00     0.278 HD
BRANCH  18  21
HETATM   21  C18 UNL     1      66.097  48.052  34.784  1.00  0.00     0.115 C 
HETATM   22  C19 UNL     1      67.101  47.930  33.659  1.00  0.00     0.045 C 
HETATM   23  C20 UNL     1      66.031  49.522  35.157  1.00  0.00     0.045 C 
HETATM   24  C21 UNL     1      66.629  47.305  35.984  1.00  0.00     0.045 C 
ENDBRANCH  18  21
ENDBRANCH  17  18
ENDBRANCH  16  17
ENDBRANCH  13  15
TORSDOF 4
ENDMDL
MODEL 5
REMARK VINA RESULT: -6.188897806      2.601      6.132
REMARK  4 active torsions:
REMARK  status: ('A' for Active; 'I' for Inactive)
REMARK    1  A    between atoms: C13_13  and  C15_15 
REMARK    2  A    between atoms: C16_16  and  C17_17 
REMARK    3  A    between atoms: C17_17  and  N1_18 
REMARK    4  A    between atoms: N1_18  and  C18_21 
ROOT
HETATM    1  C1  UNL     1      61.619  48.208  28.658  1.00  0.00     0.015 C 
HETATM    2  C2  UNL     1      62.841  48.655  28.844  1.00  0.00    -0.076 C 
HETATM    3  C3  UNL     1      63.155  49.864  28.025  1.00  0.00     0.040 C 
HETATM    4  C4  UNL     1      64.019  49.436  26.906  1.00  0.00    -0.002 C 
HETATM    5  C5  UNL     1      64.246  47.955  26.788  1.00  0.00     0.012 C 
HETATM    6  C6  UNL     1      65.406  48.168  27.775  1.00  0.00     0.003 C 
HETATM    7  C7  UNL     1      65.515  49.497  27.262  1.00  0.00    -0.039 C 
HETATM    8  C8  UNL     1      66.248  49.495  25.889  1.00  0.00     0.015 C 
HETATM    9  C9  UNL     1      65.976  50.699  27.944  1.00  0.00     0.015 C 
HETATM   10  C10 UNL     1      65.117  47.704  29.103  1.00  0.00    -0.029 C 
HETATM   11  C11 UNL     1      66.333  47.962  29.992  1.00  0.00     0.016 C 
HETATM   12  C12 UNL     1      65.174  46.155  28.984  1.00  0.00     0.016 C 
HETATM   13  C13 UNL     1      63.798  48.011  29.788  1.00  0.00     0.003 C 
HETATM   14  C14 UNL     1      63.156  46.759  30.289  1.00  0.00     0.025 C 
ENDROOT
BRANCH  13  15
HETATM   15  C15 UNL     1      64.099  48.884  30.964  1.00  0.00    -0.015 C 
HETATM   16  C16 UNL     1      64.066  48.456  32.340  1.00  0.00    -0.003 C 
BRANCH  16  17
HETATM   17  C17 UNL     1      64.987  47.458  32.933  1.00  0.00     0.260 C 
BRANCH  17  18
HETATM   18  N1  UNL     1      66.252  47.957  33.379  1.00  0.00    -0.064 N 
ATOM     19  H12 UNL     1      66.636  48.662  32.750  1.00  0.00     0.278 HD
ATOM     20  H11 UNL     1      66.168  48.540  34.211  1.00  0.00     0.278 HD
BRANCH  18  21
HETATM   21  C18 UNL     1      67.150  46.843  33.573  1.00  0.00     0.115 C 
HETATM   22  C19 UNL     1      68.586  47.194  33.255  1.00  0.00     0.045 C 
HETATM   23  C20 UNL     1      67.113  46.427  35.033  1.00  0.00     0.045 C 
HETATM   24  C21 UNL     1      66.756  45.640  32.750  1.00  0.00     0.045 C 
ENDBRANCH  18  21
ENDBRANCH  17  18
ENDBRANCH  16  17
ENDBRANCH  13  15
TORSDOF 4
ENDMDL
