MODEL 1
REMARK VINA RESULT: -6.766557106      0.000      0.000
REMARK  2 active torsions:
REMARK  status: ('A' for Active; 'I' for Inactive)
REMARK    1  A    between atoms: O1_1  and  C1_3 
REMARK    2  A    between atoms: C7_13  and  C8_14 
ROOT
HETATM    1  C1  UNL     1     104.256  15.742  19.185  1.00  0.00     0.348 C 
HETATM    2  N1  UNL     1     102.939  15.321  18.696  1.00  0.00    -0.040 N 
ATOM      3  H11 UNL     1     102.301  15.150  19.473  1.00  0.00     0.280 HD
ATOM      4  H12 UNL     1     102.982  14.381  18.303  1.00  0.00     0.280 HD
HETATM    5  C2  UNL     1     102.369  16.227  17.768  1.00  0.00     0.217 C 
HETATM    6  C3  UNL     1     101.491  15.516  16.747  1.00  0.00     0.036 C 
HETATM    7  C4  UNL     1     102.087  15.774  15.402  1.00  0.00     0.005 C 
HETATM    8  C5  UNL     1     103.471  16.316  15.625  1.00  0.00     0.034 C 
HETATM    9  C6  UNL     1     103.295  17.039  16.963  1.00  0.00     0.152 C 
HETATM   10  O2  UNL     1     104.494  17.355  17.529  1.00  0.00    -0.374 OA
HETATM   11  C7  UNL     1     104.393  17.187  18.913  1.00  0.00     0.183 C 
ENDROOT
BRANCH  11  12
HETATM   12  C8  UNL     1     105.574  17.856  19.539  1.00  0.00     0.044 C 
HETATM   13  C9  UNL     1     105.823  17.480  20.959  1.00  0.00     0.010 C 
HETATM   14  C10 UNL     1     107.224  16.983  21.211  1.00  0.00     0.028 C 
HETATM   15  C11 UNL     1     108.282  17.788  20.547  1.00  0.00     0.232 C 
HETATM   16  N2  UNL     1     107.837  18.537  19.403  1.00  0.00    -0.075 N 
HETATM   17  C12 UNL     1     106.844  17.689  18.723  1.00  0.00     0.239 C 
ATOM     18  H22 UNL     1     107.487  19.466  19.637  1.00  0.00     0.277 HD
ATOM     19  H21 UNL     1     108.597  18.840  18.795  1.00  0.00     0.277 HD
ENDBRANCH  11  12
BRANCH   1  20
HETATM   20  O1  UNL     1     105.184  14.946  18.513  1.00  0.00    -0.368 OA
ATOM     21  H1  UNL     1     105.781  14.625  19.179  1.00  0.00     0.212 HD
ENDBRANCH   1  20
TORSDOF 2
ENDMDL
MODEL 2
REMARK VINA RESULT: -6.481368941      1.009      1.417
REMARK  2 active torsions:
REMARK  status: ('A' for Active; 'I' for Inactive)
REMARK    1  A    between atoms: O1_1  and  C1_3 
REMARK    2  A    between atoms: C7_13  and  C8_14 
ROOT
HETATM    1  C1  UNL     1     104.246  15.270  19.485  1.00  0.00     0.348 C 
HETATM    2  N1  UNL     1     102.863  15.314  19.001  1.00  0.00    -0.040 N 
ATOM      3  H11 UNL     1     102.205  15.275  19.780  1.00  0.00     0.280 HD
ATOM      4  H12 UNL     1     102.616  14.444  18.529  1.00  0.00     0.280 HD
HETATM    5  C2  UNL     1     102.593  16.429  18.172  1.00  0.00     0.217 C 
HETATM    6  C3  UNL     1     101.538  16.113  17.119  1.00  0.00     0.036 C 
HETATM    7  C4  UNL     1     102.180  16.298  15.785  1.00  0.00     0.005 C 
HETATM    8  C5  UNL     1     103.665  16.372  16.012  1.00  0.00     0.034 C 
HETATM    9  C6  UNL     1     103.720  16.992  17.411  1.00  0.00     0.152 C 
HETATM   10  O2  UNL     1     104.960  16.877  17.966  1.00  0.00    -0.374 OA
HETATM   11  C7  UNL     1     104.816  16.624  19.333  1.00  0.00     0.183 C 
ENDROOT
BRANCH  11  12
HETATM   12  C8  UNL     1     106.147  16.845  19.978  1.00  0.00     0.044 C 
HETATM   13  C9  UNL     1     107.139  17.562  19.129  1.00  0.00     0.010 C 
HETATM   14  C10 UNL     1     107.726  18.781  19.795  1.00  0.00     0.028 C 
HETATM   15  C11 UNL     1     108.102  18.574  21.218  1.00  0.00     0.232 C 
HETATM   16  N2  UNL     1     107.406  17.500  21.872  1.00  0.00    -0.075 N 
HETATM   17  C12 UNL     1     106.035  17.516  21.335  1.00  0.00     0.239 C 
ATOM     18  H22 UNL     1     107.870  16.596  21.775  1.00  0.00     0.277 HD
ATOM     19  H21 UNL     1     107.445  17.550  22.890  1.00  0.00     0.277 HD
ENDBRANCH  11  12
BRANCH   1  20
HETATM   20  O1  UNL     1     104.886  14.294  18.721  1.00  0.00    -0.368 OA
ATOM     21  H1  UNL     1     104.272  14.056  18.037  1.00  0.00     0.212 HD
ENDBRANCH   1  20
TORSDOF 2
ENDMDL
MODEL 3
REMARK VINA RESULT: -6.088074988      2.673      3.591
REMARK  2 active torsions:
REMARK  status: ('A' for Active; 'I' for Inactive)
REMARK    1  A    between atoms: O1_1  and  C1_3 
REMARK    2  A    between atoms: C7_13  and  C8_14 
ROOT
HETATM    1  C1  UNL     1     102.945  16.847  15.826  1.00  0.00     0.348 C 
HETATM    2  N1  UNL     1     102.096  17.691  14.978  1.00  0.00    -0.040 N 
ATOM      3  H11 UNL     1     101.125  17.655  15.289  1.00  0.00     0.280 HD
ATOM      4  H12 UNL     1     101.991  17.282  14.050  1.00  0.00     0.280 HD
HETATM    5  C2  UNL     1     102.546  19.031  14.889  1.00  0.00     0.217 C 
HETATM    6  C3  UNL     1     102.208  19.654  13.541  1.00  0.00     0.036 C 
HETATM    7  C4  UNL     1     103.501  20.029  12.896  1.00  0.00     0.005 C 
HETATM    8  C5  UNL     1     104.596  19.334  13.656  1.00  0.00     0.034 C 
HETATM    9  C6  UNL     1     103.988  19.271  15.059  1.00  0.00     0.152 C 
HETATM   10  O2  UNL     1     104.668  18.407  15.866  1.00  0.00    -0.374 OA
HETATM   11  C7  UNL     1     103.750  17.741  16.683  1.00  0.00     0.183 C 
ENDROOT
BRANCH  11  12
HETATM   12  C8  UNL     1     104.517  17.073  17.779  1.00  0.00     0.044 C 
HETATM   13  C9  UNL     1     105.912  17.567  17.953  1.00  0.00     0.010 C 
HETATM   14  C10 UNL     1     106.218  18.012  19.361  1.00  0.00     0.028 C 
HETATM   15  C11 UNL     1     105.707  17.095  20.412  1.00  0.00     0.232 C 
HETATM   16  N2  UNL     1     104.606  16.266  20.002  1.00  0.00    -0.075 N 
HETATM   17  C12 UNL     1     103.783  17.097  19.107  1.00  0.00     0.239 C 
ATOM     18  H22 UNL     1     104.896  15.382  19.583  1.00  0.00     0.277 HD
ATOM     19  H21 UNL     1     104.083  15.869  20.782  1.00  0.00     0.277 HD
ENDBRANCH  11  12
BRANCH   1  20
HETATM   20  O1  UNL     1     103.701  16.067  14.950  1.00  0.00    -0.368 OA
ATOM     21  H1  UNL     1     103.614  15.173  15.258  1.00  0.00     0.212 HD
ENDBRANCH   1  20
TORSDOF 2
ENDMDL
MODEL 4
REMARK VINA RESULT: -6.023654397      1.528      1.920
REMARK  2 active torsions:
REMARK  status: ('A' for Active; 'I' for Inactive)
REMARK    1  A    between atoms: O1_1  and  C1_3 
REMARK    2  A    between atoms: C7_13  and  C8_14 
ROOT
HETATM    1  C1  UNL     1     104.311  16.090  18.811  1.00  0.00     0.348 C 
HETATM    2  N1  UNL     1     103.169  16.483  17.979  1.00  0.00    -0.040 N 
ATOM      3  H11 UNL     1     102.327  16.588  18.545  1.00  0.00     0.280 HD
ATOM      4  H12 UNL     1     102.874  15.711  17.380  1.00  0.00     0.280 HD
HETATM    5  C2  UNL     1     103.407  17.650  17.212  1.00  0.00     0.217 C 
HETATM    6  C3  UNL     1     102.649  17.626  15.891  1.00  0.00     0.036 C 
HETATM    7  C4  UNL     1     103.668  17.680  14.801  1.00  0.00     0.005 C 
HETATM    8  C5  UNL     1     105.003  17.383  15.424  1.00  0.00     0.034 C 
HETATM    9  C6  UNL     1     104.801  17.938  16.837  1.00  0.00     0.152 C 
HETATM   10  O2  UNL     1     105.773  17.509  17.692  1.00  0.00    -0.374 OA
HETATM   11  C7  UNL     1     105.194  17.267  18.941  1.00  0.00     0.183 C 
ENDROOT
BRANCH  11  12
HETATM   12  C8  UNL     1     106.301  17.140  19.938  1.00  0.00     0.044 C 
HETATM   13  C9  UNL     1     107.551  17.866  19.575  1.00  0.00     0.010 C 
HETATM   14  C10 UNL     1     108.029  18.810  20.650  1.00  0.00     0.028 C 
HETATM   15  C11 UNL     1     107.968  18.247  22.024  1.00  0.00     0.232 C 
HETATM   16  N2  UNL     1     107.025  17.175  22.191  1.00  0.00    -0.075 N 
HETATM   17  C12 UNL     1     105.869  17.513  21.345  1.00  0.00     0.239 C 
ATOM     18  H22 UNL     1     107.418  16.254  21.994  1.00  0.00     0.277 HD
ATOM     19  H21 UNL     1     106.779  16.998  23.164  1.00  0.00     0.277 HD
ENDBRANCH  11  12
BRANCH   1  20
HETATM   20  O1  UNL     1     104.901  15.006  18.161  1.00  0.00    -0.368 OA
ATOM     21  H1  UNL     1     104.765  14.257  18.730  1.00  0.00     0.212 HD
ENDBRANCH   1  20
TORSDOF 2
ENDMDL
MODEL 5
REMARK VINA RESULT: -6.004788871      2.546      3.278
REMARK  2 active torsions:
REMARK  status: ('A' for Active; 'I' for Inactive)
REMARK    1  A    between atoms: O1_1  and  C1_3 
REMARK    2  A    between atoms: C7_13  and  C8_14 
ROOT
HETATM    1  C1  UNL     1     103.629  17.053  16.552  1.00  0.00     0.348 C 
HETATM    2  N1  UNL     1     103.003  17.928  15.555  1.00  0.00    -0.040 N 
ATOM      3  H11 UNL     1     102.073  18.216  15.859  1.00  0.00     0.280 HD
ATOM      4  H12 UNL     1     102.750  17.401  14.718  1.00  0.00     0.280 HD
HETATM    5  C2  UNL     1     103.793  19.054  15.220  1.00  0.00     0.217 C 
HETATM    6  C3  UNL     1     103.578  19.490  13.777  1.00  0.00     0.036 C 
HETATM    7  C4  UNL     1     104.894  19.373  13.083  1.00  0.00     0.005 C 
HETATM    8  C5  UNL     1     105.793  18.556  13.968  1.00  0.00     0.034 C 
HETATM    9  C6  UNL     1     105.252  18.917  15.354  1.00  0.00     0.152 C 
HETATM   10  O2  UNL     1     105.708  18.062  16.313  1.00  0.00    -0.374 OA
HETATM   11  C7  UNL     1     104.681  17.833  17.233  1.00  0.00     0.183 C 
ENDROOT
BRANCH  11  12
HETATM   12  C8  UNL     1     105.287  17.192  18.440  1.00  0.00     0.044 C 
HETATM   13  C9  UNL     1     106.677  17.631  18.747  1.00  0.00     0.010 C 
HETATM   14  C10 UNL     1     106.848  18.138  20.157  1.00  0.00     0.028 C 
HETATM   15  C11 UNL     1     106.177  17.303  21.187  1.00  0.00     0.232 C 
HETATM   16  N2  UNL     1     105.087  16.504  20.696  1.00  0.00    -0.075 N 
HETATM   17  C12 UNL     1     104.412  17.322  19.674  1.00  0.00     0.239 C 
ATOM     18  H22 UNL     1     105.376  15.587  20.357  1.00  0.00     0.277 HD
ATOM     19  H21 UNL     1     104.461  16.174  21.430  1.00  0.00     0.277 HD
ENDBRANCH  11  12
BRANCH   1  20
HETATM   20  O1  UNL     1     104.107  15.950  15.843  1.00  0.00    -0.368 OA
ATOM     21  H1  UNL     1     104.300  16.267  14.969  1.00  0.00     0.212 HD
ENDBRANCH   1  20
TORSDOF 2
ENDMDL
