MODEL 1
REMARK VINA RESULT: -8.488492319      0.000      0.000
REMARK  4 active torsions:
REMARK  status: ('A' for Active; 'I' for Inactive)
REMARK    1  A    between atoms: C1_2  and  C2_3 
REMARK    2  A    between atoms: C7_8  and  C8_9 
REMARK    3  A    between atoms: C8_9  and  O2_10 
REMARK    4  A    between atoms: N1_12  and  C9_14 
ROOT
HETATM    1  C9  UNL     1      11.935   4.841  22.528  1.00  0.00     0.056 A 
HETATM    2  C10 UNL     1      13.256   4.624  22.090  1.00  0.00    -0.008 A 
HETATM    3  C11 UNL     1      13.874   3.442  22.399  1.00  0.00     0.018 A 
HETATM    4  N2  UNL     1      13.287   2.452  23.113  1.00  0.00    -0.358 N 
ATOM      5  H2  UNL     1      13.799   1.593  23.317  1.00  0.00     0.166 HD
HETATM    6  C12 UNL     1      12.055   2.605  23.542  1.00  0.00     0.046 A 
HETATM    7  C13 UNL     1      11.561   1.601  24.336  1.00  0.00     0.033 C 
HETATM    8  C14 UNL     1      10.722   1.728  25.469  1.00  0.00     0.033 C 
HETATM    9  C15 UNL     1       9.719   2.646  25.648  1.00  0.00     0.046 A 
HETATM   10  N3  UNL     1       8.700   3.126  26.342  1.00  0.00    -0.354 N 
ATOM     11  H3  UNL     1       8.263   2.857  27.223  1.00  0.00     0.166 HD
HETATM   12  C16 UNL     1       8.458   4.095  25.457  1.00  0.00     0.059 A 
HETATM   13  C17 UNL     1       9.482   3.692  24.665  1.00  0.00     0.031 A 
HETATM   14  C18 UNL     1      10.057   4.044  23.473  1.00  0.00     0.016 C 
HETATM   15  C19 UNL     1      11.387   3.826  23.224  1.00  0.00     0.031 A 
HETATM   16  C20 UNL     1       9.406   4.548  22.340  1.00  0.00     0.155 C 
HETATM   17  O3  UNL     1       8.436   5.516  22.720  1.00  0.00    -0.321 OA
HETATM   18  C21 UNL     1       7.652   5.857  23.787  1.00  0.00     0.087 A 
HETATM   19  C22 UNL     1       6.809   6.926  23.548  1.00  0.00     0.038 A 
HETATM   20  C23 UNL     1       5.988   7.333  24.566  1.00  0.00     0.003 A 
HETATM   21  C24 UNL     1       5.988   6.705  25.806  1.00  0.00     0.001 A 
HETATM   22  C25 UNL     1       6.829   5.640  26.039  1.00  0.00     0.016 A 
HETATM   23  C26 UNL     1       7.633   5.241  25.041  1.00  0.00     0.025 A 
HETATM   24  C27 UNL     1      15.263   3.146  21.958  1.00  0.00     0.057 C 
HETATM   25  C28 UNL     1      16.009   4.458  21.977  1.00  0.00     0.006 C 
HETATM   26  C29 UNL     1      15.353   5.302  20.913  1.00  0.00     0.005 C 
HETATM   27  C30 UNL     1      13.939   5.686  21.283  1.00  0.00     0.043 C 
ENDROOT
BRANCH   1  28
HETATM   28  N1  UNL     1      11.359   5.955  22.402  1.00  0.00    -0.335 N 
HETATM   29  C8  UNL     1      11.250   7.199  22.867  1.00  0.00     0.151 C 
ATOM     30  H1  UNL     1      10.707   5.868  21.622  1.00  0.00     0.168 HD
BRANCH  29  31
HETATM   31  C7  UNL     1      10.451   7.963  23.796  1.00  0.00     0.028 A 
HETATM   32  C2  UNL     1      10.426   7.853  25.130  1.00  0.00     0.016 A 
HETATM   33  C3  UNL     1       9.690   8.781  25.906  1.00  0.00     0.015 A 
HETATM   34  C4  UNL     1       8.983   9.806  25.358  1.00  0.00     0.001 A 
HETATM   35  C5  UNL     1       9.017   9.902  23.969  1.00  0.00     0.001 A 
HETATM   36  C6  UNL     1       9.711   9.032  23.210  1.00  0.00     0.017 A 
BRANCH  32  37
HETATM   37  C1  UNL     1      10.986   6.784  25.900  1.00  0.00     0.271 C 
HETATM   38  O1  UNL     1      10.587   6.290  26.921  1.00  0.00    -0.301 OA
ENDBRANCH  32  37
ENDBRANCH  29  31
BRANCH  29  39
HETATM   39  O2  UNL     1      12.152   8.054  22.336  1.00  0.00    -0.345 OA
ATOM     40  H2  UNL     1      13.008   7.658  22.459  1.00  0.00     0.219 HD
ENDBRANCH  29  39
ENDBRANCH   1  28
TORSDOF 4
ENDMDL
MODEL 2
REMARK VINA RESULT: -8.450847032      1.033      1.691
REMARK  4 active torsions:
REMARK  status: ('A' for Active; 'I' for Inactive)
REMARK    1  A    between atoms: C1_2  and  C2_3 
REMARK    2  A    between atoms: C7_8  and  C8_9 
REMARK    3  A    between atoms: C8_9  and  O2_10 
REMARK    4  A    between atoms: N1_12  and  C9_14 
ROOT
HETATM    1  C9  UNL     1      11.999   4.263  22.725  1.00  0.00     0.056 A 
HETATM    2  C10 UNL     1      13.279   3.817  22.342  1.00  0.00    -0.008 A 
HETATM    3  C11 UNL     1      13.683   2.560  22.708  1.00  0.00     0.018 A 
HETATM    4  N2  UNL     1      12.919   1.704  23.427  1.00  0.00    -0.358 N 
ATOM      5  H2  UNL     1      13.274   0.781  23.673  1.00  0.00     0.166 HD
HETATM    6  C12 UNL     1      11.716   2.073  23.805  1.00  0.00     0.046 A 
HETATM    7  C13 UNL     1      11.038   1.191  24.609  1.00  0.00     0.033 C 
HETATM    8  C14 UNL     1      10.196   1.492  25.706  1.00  0.00     0.033 C 
HETATM    9  C15 UNL     1       9.353   2.567  25.822  1.00  0.00     0.046 A 
HETATM   10  N3  UNL     1       8.406   3.232  26.465  1.00  0.00    -0.354 N 
ATOM     11  H3  UNL     1       7.903   3.068  27.337  1.00  0.00     0.166 HD
HETATM   12  C16 UNL     1       8.355   4.197  25.545  1.00  0.00     0.059 A 
HETATM   13  C17 UNL     1       9.324   3.604  24.802  1.00  0.00     0.031 A 
HETATM   14  C18 UNL     1       9.986   3.817  23.623  1.00  0.00     0.016 C 
HETATM   15  C19 UNL     1      11.268   3.375  23.429  1.00  0.00     0.031 A 
HETATM   16  C20 UNL     1       9.463   4.382  22.452  1.00  0.00     0.155 C 
HETATM   17  O3  UNL     1       8.655   5.509  22.769  1.00  0.00    -0.321 OA
HETATM   18  C21 UNL     1       7.905   6.009  23.797  1.00  0.00     0.087 A 
HETATM   19  C22 UNL     1       7.258   7.194  23.497  1.00  0.00     0.038 A 
HETATM   20  C23 UNL     1       6.484   7.764  24.472  1.00  0.00     0.003 A 
HETATM   21  C24 UNL     1       6.341   7.187  25.729  1.00  0.00     0.001 A 
HETATM   22  C25 UNL     1       6.986   6.007  26.023  1.00  0.00     0.016 A 
HETATM   23  C26 UNL     1       7.745   5.448  25.066  1.00  0.00     0.025 A 
HETATM   24  C27 UNL     1      15.017   2.025  22.326  1.00  0.00     0.057 C 
HETATM   25  C28 UNL     1      15.969   3.197  22.335  1.00  0.00     0.006 C 
HETATM   26  C29 UNL     1      15.495   4.101  21.224  1.00  0.00     0.005 C 
HETATM   27  C30 UNL     1      14.153   4.725  21.531  1.00  0.00     0.043 C 
ENDROOT
BRANCH   1  28
HETATM   28  N1  UNL     1      11.619   5.451  22.546  1.00  0.00    -0.335 N 
HETATM   29  C8  UNL     1      11.735   6.717  22.945  1.00  0.00     0.151 C 
ATOM     30  H1  UNL     1      10.944   5.438  21.782  1.00  0.00     0.168 HD
BRANCH  29  31
HETATM   31  C7  UNL     1      11.100   7.654  23.842  1.00  0.00     0.028 A 
HETATM   32  C2  UNL     1      10.455   8.782  23.518  1.00  0.00     0.016 A 
HETATM   33  C3  UNL     1       9.762   9.515  24.512  1.00  0.00     0.015 A 
HETATM   34  C4  UNL     1       9.715   9.128  25.816  1.00  0.00     0.001 A 
HETATM   35  C5  UNL     1      10.394   7.955  26.135  1.00  0.00     0.001 A 
HETATM   36  C6  UNL     1      11.059   7.241  25.206  1.00  0.00     0.017 A 
BRANCH  32  37
HETATM   37  C1  UNL     1      10.483   9.435  22.245  1.00  0.00     0.271 C 
HETATM   38  O1  UNL     1      11.417   9.904  21.649  1.00  0.00    -0.301 OA
ENDBRANCH  32  37
ENDBRANCH  29  31
BRANCH  29  39
HETATM   39  O2  UNL     1      12.757   7.376  22.356  1.00  0.00    -0.345 OA
ATOM     40  H2  UNL     1      13.171   6.761  21.761  1.00  0.00     0.219 HD
ENDBRANCH  29  39
ENDBRANCH   1  28
TORSDOF 4
ENDMDL
MODEL 3
REMARK VINA RESULT: -8.378678763      2.718      5.027
REMARK  4 active torsions:
REMARK  status: ('A' for Active; 'I' for Inactive)
REMARK    1  A    between atoms: C1_2  and  C2_3 
REMARK    2  A    between atoms: C7_8  and  C8_9 
REMARK    3  A    between atoms: C8_9  and  O2_10 
REMARK    4  A    between atoms: N1_12  and  C9_14 
ROOT
HETATM    1  C9  UNL     1      13.127   6.962  25.259  1.00  0.00     0.056 A 
HETATM    2  C10 UNL     1      14.528   6.943  25.120  1.00  0.00    -0.008 A 
HETATM    3  C11 UNL     1      15.257   8.011  25.574  1.00  0.00     0.018 A 
HETATM    4  N2  UNL     1      14.706   9.103  26.156  1.00  0.00    -0.358 N 
ATOM      5  H2  UNL     1      15.299   9.871  26.472  1.00  0.00     0.166 HD
HETATM    6  C12 UNL     1      13.404   9.167  26.311  1.00  0.00     0.046 A 
HETATM    7  C13 UNL     1      12.912  10.342  26.823  1.00  0.00     0.033 C 
HETATM    8  C14 UNL     1      11.720  11.012  26.458  1.00  0.00     0.033 C 
HETATM    9  C15 UNL     1      10.532  10.432  26.092  1.00  0.00     0.046 A 
HETATM   10  N3  UNL     1       9.249  10.520  25.776  1.00  0.00    -0.354 N 
ATOM     11  H3  UNL     1       8.605  11.303  25.676  1.00  0.00     0.166 HD
HETATM   12  C16 UNL     1       9.117   9.200  25.638  1.00  0.00     0.059 A 
HETATM   13  C17 UNL     1      10.421   8.989  25.948  1.00  0.00     0.031 A 
HETATM   14  C18 UNL     1      11.281   7.935  26.099  1.00  0.00     0.016 C 
HETATM   15  C19 UNL     1      12.623   8.062  25.854  1.00  0.00     0.031 A 
HETATM   16  C20 UNL     1      10.977   6.663  26.604  1.00  0.00     0.155 C 
HETATM   17  O3  UNL     1       9.736   6.210  26.079  1.00  0.00    -0.321 OA
HETATM   18  C21 UNL     1       8.566   6.703  25.569  1.00  0.00     0.087 A 
HETATM   19  C22 UNL     1       7.636   5.730  25.252  1.00  0.00     0.038 A 
HETATM   20  C23 UNL     1       6.436   6.138  24.736  1.00  0.00     0.003 A 
HETATM   21  C24 UNL     1       6.143   7.481  24.528  1.00  0.00     0.001 A 
HETATM   22  C25 UNL     1       7.071   8.446  24.846  1.00  0.00     0.016 A 
HETATM   23  C26 UNL     1       8.249   8.046  25.353  1.00  0.00     0.025 A 
HETATM   24  C27 UNL     1      16.739   8.049  25.467  1.00  0.00     0.057 C 
HETATM   25  C28 UNL     1      17.097   7.333  24.187  1.00  0.00     0.006 C 
HETATM   26  C29 UNL     1      16.682   5.900  24.405  1.00  0.00     0.005 C 
HETATM   27  C30 UNL     1      15.182   5.748  24.496  1.00  0.00     0.043 C 
ENDROOT
BRANCH   1  28
HETATM   28  N1  UNL     1      12.387   6.083  24.741  1.00  0.00    -0.335 N 
HETATM   29  C8  UNL     1      11.818   5.644  23.619  1.00  0.00     0.151 C 
ATOM     30  H1  UNL     1      12.110   5.446  25.487  1.00  0.00     0.168 HD
BRANCH  29  31
HETATM   31  C7  UNL     1      10.574   5.760  22.895  1.00  0.00     0.028 A 
HETATM   32  C2  UNL     1      10.102   6.836  22.254  1.00  0.00     0.016 A 
HETATM   33  C3  UNL     1       8.927   6.738  21.469  1.00  0.00     0.015 A 
HETATM   34  C4  UNL     1       8.228   5.580  21.328  1.00  0.00     0.001 A 
HETATM   35  C5  UNL     1       8.731   4.472  22.006  1.00  0.00     0.001 A 
HETATM   36  C6  UNL     1       9.847   4.540  22.757  1.00  0.00     0.017 A 
BRANCH  32  37
HETATM   37  C1  UNL     1      10.601   8.173  22.367  1.00  0.00     0.271 C 
HETATM   38  O1  UNL     1      10.016   9.217  22.252  1.00  0.00    -0.301 OA
ENDBRANCH  32  37
ENDBRANCH  29  31
BRANCH  29  39
HETATM   39  O2  UNL     1      12.617   4.834  22.891  1.00  0.00    -0.345 OA
ATOM     40  H2  UNL     1      12.881   5.329  22.124  1.00  0.00     0.219 HD
ENDBRANCH  29  39
ENDBRANCH   1  28
TORSDOF 4
ENDMDL
MODEL 4
REMARK VINA RESULT: -8.095952160      2.030      5.849
REMARK  4 active torsions:
REMARK  status: ('A' for Active; 'I' for Inactive)
REMARK    1  A    between atoms: C1_2  and  C2_3 
REMARK    2  A    between atoms: C7_8  and  C8_9 
REMARK    3  A    between atoms: C8_9  and  O2_10 
REMARK    4  A    between atoms: N1_12  and  C9_14 
ROOT
HETATM    1  C9  UNL     1       8.349   4.699  26.273  1.00  0.00     0.056 A 
HETATM    2  C10 UNL     1       7.190   3.942  26.529  1.00  0.00    -0.008 A 
HETATM    3  C11 UNL     1       7.223   2.586  26.333  1.00  0.00     0.018 A 
HETATM    4  N2  UNL     1       8.318   1.916  25.901  1.00  0.00    -0.358 N 
ATOM      5  H2  UNL     1       8.283   0.905  25.771  1.00  0.00     0.166 HD
HETATM    6  C12 UNL     1       9.425   2.578  25.652  1.00  0.00     0.046 A 
HETATM    7  C13 UNL     1      10.462   1.846  25.130  1.00  0.00     0.033 C 
HETATM    8  C14 UNL     1      11.390   2.247  24.139  1.00  0.00     0.033 C 
HETATM    9  C15 UNL     1      11.914   3.502  23.965  1.00  0.00     0.046 A 
HETATM   10  N3  UNL     1      12.752   4.335  23.368  1.00  0.00    -0.354 N 
ATOM     11  H3  UNL     1      13.442   4.221  22.626  1.00  0.00     0.166 HD
HETATM   12  C16 UNL     1      12.355   5.377  24.100  1.00  0.00     0.059 A 
HETATM   13  C17 UNL     1      11.458   4.618  24.778  1.00  0.00     0.031 A 
HETATM   14  C18 UNL     1      10.543   4.768  25.787  1.00  0.00     0.016 C 
HETATM   15  C19 UNL     1       9.418   3.991  25.856  1.00  0.00     0.031 A 
HETATM   16  C20 UNL     1      10.651   5.606  26.905  1.00  0.00     0.155 C 
HETATM   17  O3  UNL     1      11.168   6.873  26.522  1.00  0.00    -0.321 OA
HETATM   18  C21 UNL     1      11.941   7.444  25.549  1.00  0.00     0.087 A 
HETATM   19  C22 UNL     1      12.169   8.795  25.731  1.00  0.00     0.038 A 
HETATM   20  C23 UNL     1      12.935   9.445  24.800  1.00  0.00     0.003 A 
HETATM   21  C24 UNL     1      13.475   8.785  23.702  1.00  0.00     0.001 A 
HETATM   22  C25 UNL     1      13.246   7.439  23.525  1.00  0.00     0.016 A 
HETATM   23  C26 UNL     1      12.495   6.802  24.438  1.00  0.00     0.025 A 
HETATM   24  C27 UNL     1       6.037   1.729  26.595  1.00  0.00     0.057 C 
HETATM   25  C28 UNL     1       4.823   2.551  26.234  1.00  0.00     0.006 C 
HETATM   26  C29 UNL     1       4.805   3.686  27.227  1.00  0.00     0.005 C 
HETATM   27  C30 UNL     1       5.959   4.639  27.024  1.00  0.00     0.043 C 
ENDROOT
BRANCH   1  28
HETATM   28  N1  UNL     1       8.349   5.959  26.296  1.00  0.00    -0.335 N 
HETATM   29  C8  UNL     1       8.039   7.073  25.634  1.00  0.00     0.151 C 
ATOM     30  H1  UNL     1       8.752   6.243  27.188  1.00  0.00     0.168 HD
BRANCH  29  31
HETATM   31  C7  UNL     1       8.650   8.037  24.749  1.00  0.00     0.028 A 
HETATM   32  C2  UNL     1       9.007   7.857  23.471  1.00  0.00     0.016 A 
HETATM   33  C3  UNL     1       9.464   8.953  22.699  1.00  0.00     0.015 A 
HETATM   34  C4  UNL     1       9.568  10.214  23.198  1.00  0.00     0.001 A 
HETATM   35  C5  UNL     1       9.198  10.382  24.530  1.00  0.00     0.001 A 
HETATM   36  C6  UNL     1       8.758   9.354  25.283  1.00  0.00     0.017 A 
BRANCH  32  37
HETATM   37  C1  UNL     1       9.100   6.602  22.789  1.00  0.00     0.271 C 
HETATM   38  O1  UNL     1       9.822   6.279  21.883  1.00  0.00    -0.301 OA
ENDBRANCH  32  37
ENDBRANCH  29  31
BRANCH  29  39
HETATM   39  O2  UNL     1       6.757   7.465  25.809  1.00  0.00    -0.345 OA
ATOM     40  H2  UNL     1       6.218   6.691  25.698  1.00  0.00     0.219 HD
ENDBRANCH  29  39
ENDBRANCH   1  28
TORSDOF 4
ENDMDL
MODEL 5
REMARK VINA RESULT: -8.031414792      2.288      7.015
REMARK  4 active torsions:
REMARK  status: ('A' for Active; 'I' for Inactive)
REMARK    1  A    between atoms: C1_2  and  C2_3 
REMARK    2  A    between atoms: C7_8  and  C8_9 
REMARK    3  A    between atoms: C8_9  and  O2_10 
REMARK    4  A    between atoms: N1_12  and  C9_14 
ROOT
HETATM    1  C9  UNL     1       7.640   3.941  25.168  1.00  0.00     0.056 A 
HETATM    2  C10 UNL     1       6.495   3.462  25.833  1.00  0.00    -0.008 A 
HETATM    3  C11 UNL     1       5.506   4.345  26.178  1.00  0.00     0.018 A 
HETATM    4  N2  UNL     1       5.561   5.673  25.916  1.00  0.00    -0.358 N 
ATOM      5  H2  UNL     1       4.795   6.284  26.200  1.00  0.00     0.166 HD
HETATM    6  C12 UNL     1       6.607   6.168  25.295  1.00  0.00     0.046 A 
HETATM    7  C13 UNL     1       6.634   7.533  25.149  1.00  0.00     0.033 C 
HETATM    8  C14 UNL     1       7.756   8.391  25.244  1.00  0.00     0.033 C 
HETATM    9  C15 UNL     1       9.037   8.114  24.841  1.00  0.00     0.046 A 
HETATM   10  N3  UNL     1      10.289   8.485  24.626  1.00  0.00    -0.354 N 
ATOM     11  H3  UNL     1      10.794   9.360  24.766  1.00  0.00     0.166 HD
HETATM   12  C16 UNL     1      10.642   7.287  24.157  1.00  0.00     0.059 A 
HETATM   13  C17 UNL     1       9.390   6.796  24.336  1.00  0.00     0.031 A 
HETATM   14  C18 UNL     1       8.709   5.626  24.131  1.00  0.00     0.016 C 
HETATM   15  C19 UNL     1       7.647   5.266  24.918  1.00  0.00     0.031 A 
HETATM   16  C20 UNL     1       8.895   4.715  23.083  1.00  0.00     0.155 C 
HETATM   17  O3  UNL     1      10.282   4.521  22.840  1.00  0.00    -0.321 OA
HETATM   18  C21 UNL     1      11.477   5.169  22.992  1.00  0.00     0.087 A 
HETATM   19  C22 UNL     1      12.562   4.472  22.493  1.00  0.00     0.038 A 
HETATM   20  C23 UNL     1      13.799   5.051  22.605  1.00  0.00     0.003 A 
HETATM   21  C24 UNL     1      13.978   6.295  23.198  1.00  0.00     0.001 A 
HETATM   22  C25 UNL     1      12.894   6.985  23.693  1.00  0.00     0.016 A 
HETATM   23  C26 UNL     1      11.682   6.418  23.583  1.00  0.00     0.025 A 
HETATM   24  C27 UNL     1       4.268   3.902  26.871  1.00  0.00     0.057 C 
HETATM   25  C28 UNL     1       4.668   2.767  27.782  1.00  0.00     0.006 C 
HETATM   26  C29 UNL     1       5.108   1.656  26.861  1.00  0.00     0.005 C 
HETATM   27  C30 UNL     1       6.385   1.996  26.128  1.00  0.00     0.043 C 
ENDROOT
BRANCH   1  28
HETATM   28  N1  UNL     1       8.645   3.213  24.948  1.00  0.00    -0.335 N 
HETATM   29  C8  UNL     1       9.726   2.638  25.475  1.00  0.00     0.151 C 
ATOM     30  H1  UNL     1       8.622   2.960  23.961  1.00  0.00     0.168 HD
BRANCH  29  31
HETATM   31  C7  UNL     1      11.136   2.893  25.650  1.00  0.00     0.028 A 
HETATM   32  C2  UNL     1      11.705   3.834  26.414  1.00  0.00     0.016 A 
HETATM   33  C3  UNL     1      13.110   3.856  26.586  1.00  0.00     0.015 A 
HETATM   34  C4  UNL     1      13.940   2.952  26.001  1.00  0.00     0.001 A 
HETATM   35  C5  UNL     1      13.332   1.983  25.206  1.00  0.00     0.001 A 
HETATM   36  C6  UNL     1      11.997   1.941  25.028  1.00  0.00     0.017 A 
BRANCH  32  37
HETATM   37  C1  UNL     1      11.040   4.951  27.013  1.00  0.00     0.271 C 
HETATM   38  O1  UNL     1      10.177   4.966  27.850  1.00  0.00    -0.301 OA
ENDBRANCH  32  37
ENDBRANCH  29  31
BRANCH  29  39
HETATM   39  O2  UNL     1       9.475   1.437  26.040  1.00  0.00    -0.345 OA
ATOM     40  H2  UNL     1       9.634   1.535  26.972  1.00  0.00     0.219 HD
ENDBRANCH  29  39
ENDBRANCH   1  28
TORSDOF 4
ENDMDL
