MODEL 1
REMARK VINA RESULT: -9.861424689      0.000      0.000
REMARK  5 active torsions:
REMARK  status: ('A' for Active; 'I' for Inactive)
REMARK    1  A    between atoms: C11_13  and  N2_14 
REMARK    2  A    between atoms: N2_14  and  C12_16 
REMARK    3  A    between atoms: C12_16  and  O2_17 
REMARK    4  A    between atoms: C12_16  and  N3_19 
REMARK    5  A    between atoms: N3_19  and  C13_21 
ROOT
HETATM    1  C1  UNL     1      14.998   2.604  21.563  1.00  0.00     0.068 C 
HETATM    2  C2  UNL     1      13.760   2.643  22.388  1.00  0.00     0.005 A 
HETATM    3  C3  UNL     1      13.697   1.768  23.483  1.00  0.00     0.027 A 
HETATM    4  C4  UNL     1      12.543   1.826  24.239  1.00  0.00     0.034 A 
HETATM    5  C5  UNL     1      11.498   2.679  23.965  1.00  0.00     0.068 A 
HETATM    6  N1  UNL     1      10.263   3.224  24.198  1.00  0.00    -0.315 N 
HETATM    7  C6  UNL     1       9.316   3.014  25.139  1.00  0.00     0.111 C 
HETATM    8  C7  UNL     1       7.953   3.307  25.280  1.00  0.00     0.002 A 
HETATM    9  C8  UNL     1       7.106   4.208  24.665  1.00  0.00    -0.009 A 
HETATM   10  C9  UNL     1       7.257   5.167  23.665  1.00  0.00     0.070 C 
HETATM   11  C10 UNL     1       8.199   5.293  22.660  1.00  0.00     0.201 C 
HETATM   12  O1  UNL     1       7.725   5.758  21.608  1.00  0.00    -0.286 OA
HETATM   13  C11 UNL     1       9.557   5.020  22.545  1.00  0.00     0.115 C 
HETATM   14  C19 UNL     1      10.385   4.037  23.136  1.00  0.00     0.099 A 
HETATM   15  C20 UNL     1      11.631   3.557  22.815  1.00  0.00     0.090 A 
HETATM   16  N4  UNL     1      12.774   3.486  22.082  1.00  0.00    -0.356 N 
ATOM     17  H4  UNL     1      12.881   4.097  21.273  1.00  0.00     0.166 HD
HETATM   18  C21 UNL     1       5.975   3.758  25.467  1.00  0.00    -0.013 A 
HETATM   19  C22 UNL     1       4.646   3.787  25.860  1.00  0.00     0.025 A 
HETATM   20  C23 UNL     1       4.207   2.918  26.851  1.00  0.00    -0.025 A 
HETATM   21  C24 UNL     1       2.889   2.949  27.242  1.00  0.00     0.012 A 
HETATM   22  C25 UNL     1       2.382   2.106  28.229  1.00  0.00     0.001 A 
HETATM   23  C26 UNL     1       3.248   1.211  28.826  1.00  0.00     0.001 A 
HETATM   24  C27 UNL     1       4.565   1.169  28.444  1.00  0.00     0.012 A 
HETATM   25  C28 UNL     1       5.058   2.021  27.455  1.00  0.00    -0.025 A 
HETATM   26  C29 UNL     1       6.382   1.985  27.069  1.00  0.00     0.025 A 
HETATM   27  C30 UNL     1       6.825   2.853  26.081  1.00  0.00    -0.012 A 
ENDROOT
BRANCH  13  28
HETATM   28  N2  UNL     1      10.254   5.721  21.779  1.00  0.00    -0.317 N 
ATOM     29  H2  UNL     1      10.487   5.297  20.882  1.00  0.00     0.169 HD
BRANCH  28  30
HETATM   30  C12 UNL     1      10.752   7.000  21.987  1.00  0.00     0.222 C 
BRANCH  30  31
HETATM   31  O2  UNL     1      10.825   7.820  20.958  1.00  0.00    -0.332 OA
ATOM     32  H2  UNL     1      10.465   8.695  21.050  1.00  0.00     0.220 HD
ENDBRANCH  30  31
BRANCH  30  33
HETATM   33  N3  UNL     1      11.213   7.568  23.199  1.00  0.00    -0.322 N 
ATOM     34  H3  UNL     1      12.184   7.383  23.449  1.00  0.00     0.169 HD
BRANCH  33  35
HETATM   35  C13 UNL     1      10.477   8.359  24.091  1.00  0.00     0.035 A 
HETATM   36  C14 UNL     1      11.031   9.579  24.472  1.00  0.00     0.029 A 
HETATM   37  C15 UNL     1      10.371  10.432  25.317  1.00  0.00     0.002 A 
HETATM   38  C16 UNL     1       9.132  10.133  25.832  1.00  0.00     0.000 A 
HETATM   39  C17 UNL     1       8.572   8.924  25.457  1.00  0.00     0.002 A 
HETATM   40  C18 UNL     1       9.232   8.061  24.607  1.00  0.00     0.029 A 
ENDBRANCH  33  35
ENDBRANCH  30  33
ENDBRANCH  28  30
ENDBRANCH  13  28
TORSDOF 5
ENDMDL
MODEL 2
REMARK VINA RESULT: -9.652449732      0.946      1.019
REMARK  5 active torsions:
REMARK  status: ('A' for Active; 'I' for Inactive)
REMARK    1  A    between atoms: C11_13  and  N2_14 
REMARK    2  A    between atoms: N2_14  and  C12_16 
REMARK    3  A    between atoms: C12_16  and  O2_17 
REMARK    4  A    between atoms: C12_16  and  N3_19 
REMARK    5  A    between atoms: N3_19  and  C13_21 
ROOT
HETATM    1  C1  UNL     1      15.408   2.550  21.843  1.00  0.00     0.068 C 
HETATM    2  C2  UNL     1      14.104   2.635  22.556  1.00  0.00     0.005 A 
HETATM    3  C3  UNL     1      13.904   1.749  23.625  1.00  0.00     0.027 A 
HETATM    4  C4  UNL     1      12.691   1.850  24.277  1.00  0.00     0.034 A 
HETATM    5  C5  UNL     1      11.714   2.755  23.927  1.00  0.00     0.068 A 
HETATM    6  N1  UNL     1      10.489   3.353  24.060  1.00  0.00    -0.315 N 
HETATM    7  C6  UNL     1       9.454   3.174  24.909  1.00  0.00     0.111 C 
HETATM    8  C7  UNL     1       8.098   3.529  24.934  1.00  0.00     0.002 A 
HETATM    9  C8  UNL     1       7.351   4.477  24.264  1.00  0.00    -0.009 A 
HETATM   10  C9  UNL     1       7.634   5.442  23.298  1.00  0.00     0.070 C 
HETATM   11  C10 UNL     1       8.666   5.537  22.383  1.00  0.00     0.201 C 
HETATM   12  O1  UNL     1       8.309   6.038  21.301  1.00  0.00    -0.286 OA
HETATM   13  C11 UNL     1      10.015   5.202  22.383  1.00  0.00     0.115 C 
HETATM   14  C19 UNL     1      10.742   4.174  23.028  1.00  0.00     0.099 A 
HETATM   15  C20 UNL     1      11.989   3.641  22.809  1.00  0.00     0.090 A 
HETATM   16  N4  UNL     1      13.188   3.527  22.179  1.00  0.00    -0.356 N 
ATOM     17  H4  UNL     1      13.394   4.144  21.393  1.00  0.00     0.166 HD
HETATM   18  C21 UNL     1       6.133   4.069  24.954  1.00  0.00    -0.013 A 
HETATM   19  C22 UNL     1       4.778   4.154  25.229  1.00  0.00     0.025 A 
HETATM   20  C23 UNL     1       4.213   3.292  26.162  1.00  0.00    -0.025 A 
HETATM   21  C24 UNL     1       2.869   3.379  26.434  1.00  0.00     0.012 A 
HETATM   22  C25 UNL     1       2.238   2.547  27.358  1.00  0.00     0.001 A 
HETATM   23  C26 UNL     1       3.006   1.605  28.012  1.00  0.00     0.001 A 
HETATM   24  C27 UNL     1       4.349   1.507  27.748  1.00  0.00     0.012 A 
HETATM   25  C28 UNL     1       4.966   2.348  26.822  1.00  0.00    -0.025 A 
HETATM   26  C29 UNL     1       6.316   2.256  26.554  1.00  0.00     0.025 A 
HETATM   27  C30 UNL     1       6.884   3.117  25.625  1.00  0.00    -0.012 A 
ENDROOT
BRANCH  13  28
HETATM   28  N2  UNL     1      10.808   5.881  21.695  1.00  0.00    -0.317 N 
ATOM     29  H2  UNL     1      10.826   5.664  20.699  1.00  0.00     0.169 HD
BRANCH  28  30
HETATM   30  C12 UNL     1      11.668   6.891  22.105  1.00  0.00     0.222 C 
BRANCH  30  31
HETATM   31  O2  UNL     1      12.949   6.781  21.815  1.00  0.00    -0.332 OA
ATOM     32  H2  UNL     1      13.252   5.984  21.397  1.00  0.00     0.220 HD
ENDBRANCH  30  31
BRANCH  30  33
HETATM   33  N3  UNL     1      11.348   8.069  22.821  1.00  0.00    -0.322 N 
ATOM     34  H3  UNL     1      11.963   8.870  22.677  1.00  0.00     0.169 HD
BRANCH  33  35
HETATM   35  C13 UNL     1      10.277   8.252  23.706  1.00  0.00     0.035 A 
HETATM   36  C14 UNL     1       9.174   8.962  23.237  1.00  0.00     0.029 A 
HETATM   37  C15 UNL     1       8.068   9.165  24.020  1.00  0.00     0.002 A 
HETATM   38  C16 UNL     1       7.987   8.682  25.304  1.00  0.00     0.000 A 
HETATM   39  C17 UNL     1       9.077   7.973  25.778  1.00  0.00     0.002 A 
HETATM   40  C18 UNL     1      10.194   7.766  24.994  1.00  0.00     0.029 A 
ENDBRANCH  33  35
ENDBRANCH  30  33
ENDBRANCH  28  30
ENDBRANCH  13  28
TORSDOF 5
ENDMDL
MODEL 3
REMARK VINA RESULT: -9.629484727      1.348      1.733
REMARK  5 active torsions:
REMARK  status: ('A' for Active; 'I' for Inactive)
REMARK    1  A    between atoms: C11_13  and  N2_14 
REMARK    2  A    between atoms: N2_14  and  C12_16 
REMARK    3  A    between atoms: C12_16  and  O2_17 
REMARK    4  A    between atoms: C12_16  and  N3_19 
REMARK    5  A    between atoms: N3_19  and  C13_21 
ROOT
HETATM    1  C1  UNL     1      16.254   4.352  21.192  1.00  0.00     0.068 C 
HETATM    2  C2  UNL     1      14.959   4.262  21.920  1.00  0.00     0.005 A 
HETATM    3  C3  UNL     1      14.876   3.322  22.959  1.00  0.00     0.027 A 
HETATM    4  C4  UNL     1      13.669   3.261  23.625  1.00  0.00     0.034 A 
HETATM    5  C5  UNL     1      12.590   4.059  23.317  1.00  0.00     0.068 A 
HETATM    6  N1  UNL     1      11.306   4.507  23.483  1.00  0.00    -0.315 N 
HETATM    7  C6  UNL     1      10.310   4.181  24.335  1.00  0.00     0.111 C 
HETATM    8  C7  UNL     1       8.923   4.376  24.386  1.00  0.00     0.002 A 
HETATM    9  C8  UNL     1       8.062   5.254  23.756  1.00  0.00    -0.009 A 
HETATM   10  C9  UNL     1       8.219   6.277  22.823  1.00  0.00     0.070 C 
HETATM   11  C10 UNL     1       9.221   6.522  21.902  1.00  0.00     0.201 C 
HETATM   12  O1  UNL     1       8.795   7.016  20.842  1.00  0.00    -0.286 OA
HETATM   13  C11 UNL     1      10.600   6.346  21.877  1.00  0.00     0.115 C 
HETATM   14  C19 UNL     1      11.449   5.386  22.478  1.00  0.00     0.099 A 
HETATM   15  C20 UNL     1      12.746   5.008  22.229  1.00  0.00     0.090 A 
HETATM   16  N4  UNL     1      13.942   5.055  21.584  1.00  0.00    -0.356 N 
ATOM     17  H4  UNL     1      14.064   5.718  20.819  1.00  0.00     0.166 HD
HETATM   18  C21 UNL     1       6.909   4.685  24.444  1.00  0.00    -0.013 A 
HETATM   19  C22 UNL     1       5.557   4.604  24.734  1.00  0.00     0.025 A 
HETATM   20  C23 UNL     1       5.107   3.652  25.641  1.00  0.00    -0.025 A 
HETATM   21  C24 UNL     1       3.766   3.574  25.929  1.00  0.00     0.012 A 
HETATM   22  C25 UNL     1       3.247   2.644  26.828  1.00  0.00     0.001 A 
HETATM   23  C26 UNL     1       4.127   1.774  27.442  1.00  0.00     0.001 A 
HETATM   24  C27 UNL     1       5.469   1.840  27.161  1.00  0.00     0.012 A 
HETATM   25  C28 UNL     1       5.972   2.779  26.260  1.00  0.00    -0.025 A 
HETATM   26  C29 UNL     1       7.320   2.852  25.976  1.00  0.00     0.025 A 
HETATM   27  C30 UNL     1       7.773   3.804  25.072  1.00  0.00    -0.012 A 
ENDROOT
BRANCH  13  28
HETATM   28  N2  UNL     1      11.301   7.134  21.206  1.00  0.00    -0.317 N 
ATOM     29  H2  UNL     1      11.595   6.794  20.291  1.00  0.00     0.169 HD
BRANCH  28  30
HETATM   30  C12 UNL     1      11.731   8.411  21.539  1.00  0.00     0.222 C 
BRANCH  30  31
HETATM   31  O2  UNL     1      12.062   9.236  20.566  1.00  0.00    -0.332 OA
ATOM     32  H2  UNL     1      11.415   9.864  20.266  1.00  0.00     0.220 HD
ENDBRANCH  30  31
BRANCH  30  33
HETATM   33  N3  UNL     1      11.872   8.973  22.831  1.00  0.00    -0.322 N 
ATOM     34  H3  UNL     1      12.791   9.345  23.069  1.00  0.00     0.169 HD
BRANCH  33  35
HETATM   35  C13 UNL     1      10.881   9.073  23.818  1.00  0.00     0.035 A 
HETATM   36  C14 UNL     1       9.908  10.056  23.650  1.00  0.00     0.029 A 
HETATM   37  C15 UNL     1       8.883  10.209  24.548  1.00  0.00     0.002 A 
HETATM   38  C16 UNL     1       8.761   9.406  25.656  1.00  0.00     0.000 A 
HETATM   39  C17 UNL     1       9.723   8.425  25.830  1.00  0.00     0.002 A 
HETATM   40  C18 UNL     1      10.757   8.266  24.930  1.00  0.00     0.029 A 
ENDBRANCH  33  35
ENDBRANCH  30  33
ENDBRANCH  28  30
ENDBRANCH  13  28
TORSDOF 5
ENDMDL
MODEL 4
REMARK VINA RESULT: -9.095750253      1.536      1.567
REMARK  5 active torsions:
REMARK  status: ('A' for Active; 'I' for Inactive)
REMARK    1  A    between atoms: C11_13  and  N2_14 
REMARK    2  A    between atoms: N2_14  and  C12_16 
REMARK    3  A    between atoms: C12_16  and  O2_17 
REMARK    4  A    between atoms: C12_16  and  N3_19 
REMARK    5  A    between atoms: N3_19  and  C13_21 
ROOT
HETATM    1  C1  UNL     1      15.894   4.506  24.385  1.00  0.00     0.068 C 
HETATM    2  C2  UNL     1      14.464   4.462  24.797  1.00  0.00     0.005 A 
HETATM    3  C3  UNL     1      14.192   4.052  26.111  1.00  0.00     0.027 A 
HETATM    4  C4  UNL     1      12.860   4.025  26.473  1.00  0.00     0.034 A 
HETATM    5  C5  UNL     1      11.834   4.373  25.623  1.00  0.00     0.068 A 
HETATM    6  N1  UNL     1      10.517   4.570  25.302  1.00  0.00    -0.315 N 
HETATM    7  C6  UNL     1       9.362   4.431  25.989  1.00  0.00     0.111 C 
HETATM    8  C7  UNL     1       8.002   4.334  25.665  1.00  0.00     0.002 A 
HETATM    9  C8  UNL     1       7.266   4.663  24.544  1.00  0.00    -0.009 A 
HETATM   10  C9  UNL     1       7.572   5.207  23.297  1.00  0.00     0.070 C 
HETATM   11  C10 UNL     1       8.759   5.246  22.590  1.00  0.00     0.201 C 
HETATM   12  O1  UNL     1       8.593   5.146  21.360  1.00  0.00    -0.286 OA
HETATM   13  C11 UNL     1      10.103   5.368  22.926  1.00  0.00     0.115 C 
HETATM   14  C19 UNL     1      10.844   4.952  24.058  1.00  0.00     0.099 A 
HETATM   15  C20 UNL     1      12.189   4.786  24.276  1.00  0.00     0.090 A 
HETATM   16  N4  UNL     1      13.506   4.807  23.937  1.00  0.00    -0.356 N 
ATOM     17  H4  UNL     1      13.768   5.096  22.995  1.00  0.00     0.166 HD
HETATM   18  C21 UNL     1       6.029   4.209  25.169  1.00  0.00    -0.013 A 
HETATM   19  C22 UNL     1       4.664   3.975  25.185  1.00  0.00     0.025 A 
HETATM   20  C23 UNL     1       4.078   3.422  26.317  1.00  0.00    -0.025 A 
HETATM   21  C24 UNL     1       2.723   3.193  26.333  1.00  0.00     0.012 A 
HETATM   22  C25 UNL     1       2.070   2.642  27.435  1.00  0.00     0.001 A 
HETATM   23  C26 UNL     1       2.829   2.317  28.542  1.00  0.00     0.001 A 
HETATM   24  C27 UNL     1       4.183   2.539  28.539  1.00  0.00     0.012 A 
HETATM   25  C28 UNL     1       4.821   3.094  27.429  1.00  0.00    -0.025 A 
HETATM   26  C29 UNL     1       6.181   3.321  27.420  1.00  0.00     0.025 A 
HETATM   27  C30 UNL     1       6.769   3.876  26.291  1.00  0.00    -0.012 A 
ENDROOT
BRANCH  13  28
HETATM   28  N2  UNL     1      10.880   5.929  22.124  1.00  0.00    -0.317 N 
ATOM     29  H2  UNL     1      11.680   5.373  21.823  1.00  0.00     0.169 HD
BRANCH  28  30
HETATM   30  C12 UNL     1      10.801   7.207  21.587  1.00  0.00     0.222 C 
BRANCH  30  31
HETATM   31  O2  UNL     1      10.549   7.333  20.300  1.00  0.00    -0.332 OA
ATOM     32  H2  UNL     1      10.902   6.683  19.703  1.00  0.00     0.220 HD
ENDBRANCH  30  31
BRANCH  30  33
HETATM   33  N3  UNL     1      10.960   8.444  22.257  1.00  0.00    -0.322 N 
ATOM     34  H3  UNL     1      11.640   9.092  21.861  1.00  0.00     0.169 HD
BRANCH  33  35
HETATM   35  C13 UNL     1      10.283   8.872  23.407  1.00  0.00     0.035 A 
HETATM   36  C14 UNL     1      11.019   9.576  24.357  1.00  0.00     0.029 A 
HETATM   37  C15 UNL     1      10.435  10.060  25.500  1.00  0.00     0.002 A 
HETATM   38  C16 UNL     1       9.099   9.879  25.767  1.00  0.00     0.000 A 
HETATM   39  C17 UNL     1       8.360   9.182  24.827  1.00  0.00     0.002 A 
HETATM   40  C18 UNL     1       8.941   8.692  23.676  1.00  0.00     0.029 A 
ENDBRANCH  33  35
ENDBRANCH  30  33
ENDBRANCH  28  30
ENDBRANCH  13  28
TORSDOF 5
ENDMDL
MODEL 5
REMARK VINA RESULT: -9.090606486      1.691      2.840
REMARK  5 active torsions:
REMARK  status: ('A' for Active; 'I' for Inactive)
REMARK    1  A    between atoms: C11_13  and  N2_14 
REMARK    2  A    between atoms: N2_14  and  C12_16 
REMARK    3  A    between atoms: C12_16  and  O2_17 
REMARK    4  A    between atoms: C12_16  and  N3_19 
REMARK    5  A    between atoms: N3_19  and  C13_21 
ROOT
HETATM    1  C1  UNL     1      15.204   3.417  21.636  1.00  0.00     0.068 C 
HETATM    2  C2  UNL     1      13.934   3.367  22.412  1.00  0.00     0.005 A 
HETATM    3  C3  UNL     1      13.872   2.455  23.476  1.00  0.00     0.027 A 
HETATM    4  C4  UNL     1      12.688   2.431  24.185  1.00  0.00     0.034 A 
HETATM    5  C5  UNL     1      11.612   3.240  23.895  1.00  0.00     0.068 A 
HETATM    6  N1  UNL     1      10.343   3.715  24.094  1.00  0.00    -0.315 N 
HETATM    7  C6  UNL     1       9.372   3.427  24.988  1.00  0.00     0.111 C 
HETATM    8  C7  UNL     1       7.991   3.647  25.082  1.00  0.00     0.002 A 
HETATM    9  C8  UNL     1       7.123   4.524  24.461  1.00  0.00    -0.009 A 
HETATM   10  C9  UNL     1       7.264   5.522  23.497  1.00  0.00     0.070 C 
HETATM   11  C10 UNL     1       8.237   5.726  22.536  1.00  0.00     0.201 C 
HETATM   12  O1  UNL     1       7.782   6.201  21.479  1.00  0.00    -0.286 OA
HETATM   13  C11 UNL     1       9.611   5.525  22.467  1.00  0.00     0.115 C 
HETATM   14  C19 UNL     1      10.465   4.566  23.063  1.00  0.00     0.099 A 
HETATM   15  C20 UNL     1      11.745   4.159  22.778  1.00  0.00     0.090 A 
HETATM   16  N4  UNL     1      12.918   4.169  22.091  1.00  0.00    -0.356 N 
ATOM     17  H4  UNL     1      13.025   4.811  21.305  1.00  0.00     0.166 HD
HETATM   18  C21 UNL     1       5.986   3.993  25.202  1.00  0.00    -0.013 A 
HETATM   19  C22 UNL     1       4.644   3.942  25.541  1.00  0.00     0.025 A 
HETATM   20  C23 UNL     1       4.210   3.021  26.487  1.00  0.00    -0.025 A 
HETATM   21  C24 UNL     1       2.879   2.974  26.824  1.00  0.00     0.012 A 
HETATM   22  C25 UNL     1       2.377   2.075  27.764  1.00  0.00     0.001 A 
HETATM   23  C26 UNL     1       3.263   1.206  28.368  1.00  0.00     0.001 A 
HETATM   24  C27 UNL     1       4.595   1.242  28.039  1.00  0.00     0.012 A 
HETATM   25  C28 UNL     1       5.082   2.149  27.098  1.00  0.00    -0.025 A 
HETATM   26  C29 UNL     1       6.420   2.191  26.765  1.00  0.00     0.025 A 
HETATM   27  C30 UNL     1       6.857   3.112  25.822  1.00  0.00    -0.012 A 
ENDROOT
BRANCH  13  28
HETATM   28  N2  UNL     1      10.301   6.284  21.753  1.00  0.00    -0.317 N 
ATOM     29  H2  UNL     1      10.578   5.907  20.847  1.00  0.00     0.169 HD
BRANCH  28  30
HETATM   30  C12 UNL     1      10.739   7.572  22.026  1.00  0.00     0.222 C 
BRANCH  30  31
HETATM   31  O2  UNL     1       9.850   8.545  22.059  1.00  0.00    -0.332 OA
ATOM     32  H2  UNL     1       8.928   8.318  22.021  1.00  0.00     0.220 HD
ENDBRANCH  30  31
BRANCH  30  33
HETATM   33  N3  UNL     1      12.062   8.005  22.285  1.00  0.00    -0.322 N 
ATOM     34  H3  UNL     1      12.190   8.624  23.086  1.00  0.00     0.169 HD
BRANCH  33  35
HETATM   35  C13 UNL     1      13.213   7.674  21.559  1.00  0.00     0.035 A 
HETATM   36  C14 UNL     1      14.382   7.447  22.282  1.00  0.00     0.029 A 
HETATM   37  C15 UNL     1      15.550   7.089  21.660  1.00  0.00     0.002 A 
HETATM   38  C16 UNL     1      15.631   6.934  20.297  1.00  0.00     0.000 A 
HETATM   39  C17 UNL     1      14.474   7.156  19.570  1.00  0.00     0.002 A 
HETATM   40  C18 UNL     1      13.295   7.517  20.190  1.00  0.00     0.029 A 
ENDBRANCH  33  35
ENDBRANCH  30  33
ENDBRANCH  28  30
ENDBRANCH  13  28
TORSDOF 5
ENDMDL
