MODEL 1
REMARK VINA RESULT: -9.166219078      0.000      0.000
REMARK  17 active torsions:
REMARK  status: ('A' for Active; 'I' for Inactive)
REMARK    1  A    between atoms: O1_2  and  C2_3 
REMARK    2  A    between atoms: C6_8  and  O3_9 
REMARK    3  A    between atoms: O3_9  and  C7_10 
REMARK    4  A    between atoms: C10_14  and  N1_15 
REMARK    5  A    between atoms: C13_18  and  O5_19 
REMARK    6  A    between atoms: O5_19  and  C14_20 
REMARK    7  A    between atoms: C15_22  and  C16_23 
REMARK    8  A    between atoms: C16_23  and  O7_24 
REMARK    9  A    between atoms: C17_26  and  O8_27 
REMARK   10  A    between atoms: C18_29  and  O9_30 
REMARK   11  A    between atoms: O9_30  and  C19_31 
REMARK   12  A    between atoms: C22_35  and  O11_36 
REMARK   13  A    between atoms: C23_38  and  O12_39 
REMARK   14  A    between atoms: C24_41  and  O13_42 
REMARK   15  A    between atoms: C25_44  and  O14_45 
REMARK   16  A    between atoms: C26_47  and  O15_48 
REMARK   17  A    between atoms: C27_50  and  O16_51 
ROOT
HETATM    1  C14 UNL     1       1.381  29.555 -10.784  1.00  0.00     0.292 C 
HETATM    2  O6  UNL     1       0.645  30.775 -10.712  1.00  0.00    -0.348 OA
HETATM    3  C15 UNL     1       0.030  30.810  -9.459  1.00  0.00     0.179 C 
HETATM    4  C17 UNL     1      -0.909  29.612  -9.299  1.00  0.00     0.181 C 
HETATM    5  C18 UNL     1      -1.019  29.020 -10.699  1.00  0.00     0.189 C 
HETATM    6  C25 UNL     1       0.374  28.499 -11.079  1.00  0.00     0.205 C 
ENDROOT
BRANCH   1   7
HETATM    7  O5  UNL     1       2.383  29.659 -11.732  1.00  0.00    -0.348 OA
BRANCH   7   8
HETATM    8  C13 UNL     1       3.610  29.504 -11.185  1.00  0.00     0.194 C 
HETATM    9  C10 UNL     1       4.643  30.158 -12.122  1.00  0.00     0.281 C 
HETATM   10  C8  UNL     1       5.847  30.443 -11.309  1.00  0.00     0.156 C 
HETATM   11  O4  UNL     1       5.806  29.620 -10.163  1.00  0.00    -0.351 OA
HETATM   12  C9  UNL     1       7.142  30.194 -12.029  1.00  0.00     0.042 C 
HETATM   13  C7  UNL     1       5.546  28.272 -10.502  1.00  0.00     0.294 C 
HETATM   14  C26 UNL     1       4.135  28.093 -11.021  1.00  0.00     0.204 C 
BRANCH   9  15
HETATM   15  N1  UNL     1       4.008  31.214 -12.806  1.00  0.00     0.089 N 
HETATM   16  C11 UNL     1       4.526  31.215 -14.197  1.00  0.00     0.310 C 
HETATM   17  C12 UNL     1       4.313  32.535 -12.303  1.00  0.00     0.310 C 
ENDBRANCH   9  15
BRANCH  13  18
HETATM   18  O3  UNL     1       5.691  27.561  -9.342  1.00  0.00    -0.326 OA
BRANCH  18  19
HETATM   19  C6  UNL     1       7.000  27.253  -9.005  1.00  0.00     0.299 C 
HETATM   20  O2  UNL     1       6.955  25.930  -8.416  1.00  0.00    -0.329 OA
HETATM   21  C5  UNL     1       8.162  25.381  -8.070  1.00  0.00     0.143 C 
HETATM   22  C3  UNL     1       9.254  25.777  -8.741  1.00  0.00    -0.031 C 
HETATM   23  C2  UNL     1       9.225  26.762  -9.821  1.00  0.00     0.184 C 
HETATM   24  C4  UNL     1      10.594  25.178  -8.376  1.00  0.00     0.048 C 
HETATM   25  C27 UNL     1       7.809  27.081 -10.263  1.00  0.00     0.207 C 
BRANCH  23  26
HETATM   26  O1  UNL     1       9.826  27.968  -9.433  1.00  0.00    -0.384 OA
HETATM   27  C1  UNL     1       9.407  28.957 -10.318  1.00  0.00     0.202 C 
ENDBRANCH  23  26
BRANCH  25  28
HETATM   28  O16 UNL     1       7.329  26.048 -11.040  1.00  0.00    -0.388 OA
ATOM     29  H16 UNL     1       6.468  26.276 -11.371  1.00  0.00     0.210 HD
ENDBRANCH  25  28
ENDBRANCH  18  19
ENDBRANCH  13  18
BRANCH  14  30
HETATM   30  O15 UNL     1       3.368  27.452 -10.069  1.00  0.00    -0.388 OA
ATOM     31  H15 UNL     1       2.503  27.844 -10.038  1.00  0.00     0.210 HD
ENDBRANCH  14  30
ENDBRANCH   7   8
ENDBRANCH   1   7
BRANCH   6  32
HETATM   32  O14 UNL     1       0.660  27.362 -10.317  1.00  0.00    -0.388 OA
ATOM     33  H14 UNL     1      -0.076  26.764 -10.358  1.00  0.00     0.210 HD
ENDBRANCH   6  32
BRANCH   3  34
HETATM   34  C16 UNL     1      -0.772  32.095  -9.378  1.00  0.00     0.198 C 
BRANCH  34  35
HETATM   35  O7  UNL     1      -0.716  32.631  -8.097  1.00  0.00    -0.398 OA
ATOM     36  H7  UNL     1      -0.351  33.509  -8.115  1.00  0.00     0.209 HD
ENDBRANCH  34  35
ENDBRANCH   3  34
BRANCH   5  37
HETATM   37  O9  UNL     1      -1.930  28.035 -10.850  1.00  0.00    -0.348 OA
BRANCH  37  38
HETATM   38  C19 UNL     1      -2.045  27.566 -12.154  1.00  0.00     0.292 C 
HETATM   39  O10 UNL     1      -2.368  28.698 -12.923  1.00  0.00    -0.351 OA
HETATM   40  C20 UNL     1      -3.702  28.872 -13.154  1.00  0.00     0.152 C 
HETATM   41  C21 UNL     1      -3.867  30.280 -13.751  1.00  0.00     0.042 C 
HETATM   42  C22 UNL     1      -4.151  27.866 -14.195  1.00  0.00     0.178 C 
HETATM   43  C23 UNL     1      -3.563  26.539 -13.838  1.00  0.00     0.183 C 
HETATM   44  C24 UNL     1      -3.045  26.498 -12.390  1.00  0.00     0.204 C 
BRANCH  42  45
HETATM   45  O11 UNL     1      -3.797  28.293 -15.471  1.00  0.00    -0.390 OA
ATOM     46  H11 UNL     1      -3.446  27.571 -15.980  1.00  0.00     0.210 HD
ENDBRANCH  42  45
BRANCH  43  47
HETATM   47  O12 UNL     1      -2.432  26.357 -14.639  1.00  0.00    -0.390 OA
ATOM     48  H12 UNL     1      -1.736  26.888 -14.270  1.00  0.00     0.210 HD
ENDBRANCH  43  47
BRANCH  44  49
HETATM   49  O13 UNL     1      -4.119  26.526 -11.539  1.00  0.00    -0.388 OA
ATOM     50  H13 UNL     1      -4.081  25.890 -10.835  1.00  0.00     0.210 HD
ENDBRANCH  44  49
ENDBRANCH  37  38
ENDBRANCH   5  37
BRANCH   4  51
HETATM   51  O8  UNL     1      -0.371  28.761  -8.374  1.00  0.00    -0.390 OA
ATOM     52  H8  UNL     1      -0.926  28.764  -7.604  1.00  0.00     0.210 HD
ENDBRANCH   4  51
TORSDOF 17
ENDMDL
MODEL 2
REMARK VINA RESULT: -9.124312238      1.316      1.637
REMARK  17 active torsions:
REMARK  status: ('A' for Active; 'I' for Inactive)
REMARK    1  A    between atoms: O1_2  and  C2_3 
REMARK    2  A    between atoms: C6_8  and  O3_9 
REMARK    3  A    between atoms: O3_9  and  C7_10 
REMARK    4  A    between atoms: C10_14  and  N1_15 
REMARK    5  A    between atoms: C13_18  and  O5_19 
REMARK    6  A    between atoms: O5_19  and  C14_20 
REMARK    7  A    between atoms: C15_22  and  C16_23 
REMARK    8  A    between atoms: C16_23  and  O7_24 
REMARK    9  A    between atoms: C17_26  and  O8_27 
REMARK   10  A    between atoms: C18_29  and  O9_30 
REMARK   11  A    between atoms: O9_30  and  C19_31 
REMARK   12  A    between atoms: C22_35  and  O11_36 
REMARK   13  A    between atoms: C23_38  and  O12_39 
REMARK   14  A    between atoms: C24_41  and  O13_42 
REMARK   15  A    between atoms: C25_44  and  O14_45 
REMARK   16  A    between atoms: C26_47  and  O15_48 
REMARK   17  A    between atoms: C27_50  and  O16_51 
ROOT
HETATM    1  C14 UNL     1       1.122  29.590 -11.463  1.00  0.00     0.292 C 
HETATM    2  O6  UNL     1       0.238  30.624 -11.032  1.00  0.00    -0.348 OA
HETATM    3  C15 UNL     1      -0.123  30.332  -9.714  1.00  0.00     0.179 C 
HETATM    4  C17 UNL     1      -0.823  28.971  -9.650  1.00  0.00     0.181 C 
HETATM    5  C18 UNL     1      -1.108  28.616 -11.103  1.00  0.00     0.189 C 
HETATM    6  C25 UNL     1       0.249  28.432 -11.798  1.00  0.00     0.205 C 
ENDROOT
BRANCH   1   7
HETATM    7  O5  UNL     1       1.897  30.036 -12.519  1.00  0.00    -0.348 OA
BRANCH   7   8
HETATM    8  C13 UNL     1       3.214  29.823 -12.301  1.00  0.00     0.194 C 
HETATM    9  C10 UNL     1       3.965  31.144 -12.553  1.00  0.00     0.281 C 
HETATM   10  C8  UNL     1       5.257  31.053 -11.835  1.00  0.00     0.156 C 
HETATM   11  O4  UNL     1       5.532  29.688 -11.602  1.00  0.00    -0.351 OA
HETATM   12  C9  UNL     1       6.414  31.652 -12.584  1.00  0.00     0.042 C 
HETATM   13  C7  UNL     1       5.378  28.921 -12.779  1.00  0.00     0.294 C 
HETATM   14  C26 UNL     1       3.928  28.840 -13.204  1.00  0.00     0.204 C 
BRANCH   9  15
HETATM   15  N1  UNL     1       3.089  32.209 -12.262  1.00  0.00     0.089 N 
HETATM   16  C11 UNL     1       3.225  33.205 -13.354  1.00  0.00     0.310 C 
HETATM   17  C12 UNL     1       3.405  32.945 -11.058  1.00  0.00     0.310 C 
ENDBRANCH   9  15
BRANCH  13  18
HETATM   18  O3  UNL     1       5.825  27.664 -12.466  1.00  0.00    -0.326 OA
BRANCH  18  19
HETATM   19  C6  UNL     1       6.043  27.441 -11.116  1.00  0.00     0.299 C 
HETATM   20  O2  UNL     1       5.235  26.289 -10.771  1.00  0.00    -0.329 OA
HETATM   21  C5  UNL     1       5.350  25.833  -9.484  1.00  0.00     0.143 C 
HETATM   22  C3  UNL     1       6.499  26.064  -8.830  1.00  0.00    -0.031 C 
HETATM   23  C2  UNL     1       7.634  26.776  -9.418  1.00  0.00     0.184 C 
HETATM   24  C4  UNL     1       6.646  25.565  -7.410  1.00  0.00     0.048 C 
HETATM   25  C27 UNL     1       7.463  26.985 -10.911  1.00  0.00     0.207 C 
BRANCH  23  26
HETATM   26  O1  UNL     1       7.807  28.038  -8.833  1.00  0.00    -0.384 OA
HETATM   27  C1  UNL     1       9.020  28.553  -9.281  1.00  0.00     0.202 C 
ENDBRANCH  23  26
BRANCH  25  28
HETATM   28  O16 UNL     1       7.719  25.802 -11.571  1.00  0.00    -0.388 OA
ATOM     29  H16 UNL     1       8.455  25.922 -12.159  1.00  0.00     0.210 HD
ENDBRANCH  25  28
ENDBRANCH  18  19
ENDBRANCH  13  18
BRANCH  14  30
HETATM   30  O15 UNL     1       3.437  27.576 -12.945  1.00  0.00    -0.388 OA
ATOM     31  H15 UNL     1       2.708  27.390 -13.525  1.00  0.00     0.210 HD
ENDBRANCH  14  30
ENDBRANCH   7   8
ENDBRANCH   1   7
BRANCH   6  32
HETATM   32  O14 UNL     1       0.843  27.255 -11.335  1.00  0.00    -0.388 OA
ATOM     33  H14 UNL     1       1.675  27.129 -11.776  1.00  0.00     0.210 HD
ENDBRANCH   6  32
BRANCH   3  34
HETATM   34  C16 UNL     1      -1.080  31.414  -9.251  1.00  0.00     0.198 C 
BRANCH  34  35
HETATM   35  O7  UNL     1      -0.673  31.942  -8.032  1.00  0.00    -0.398 OA
ATOM     36  H7  UNL     1      -0.430  32.856  -8.126  1.00  0.00     0.209 HD
ENDBRANCH  34  35
ENDBRANCH   3  34
BRANCH   5  37
HETATM   37  O9  UNL     1      -1.872  27.520 -11.301  1.00  0.00    -0.348 OA
BRANCH  37  38
HETATM   38  C19 UNL     1      -2.004  27.155 -12.635  1.00  0.00     0.292 C 
HETATM   39  O10 UNL     1      -2.171  28.366 -13.331  1.00  0.00    -0.351 OA
HETATM   40  C20 UNL     1      -3.469  28.711 -13.576  1.00  0.00     0.152 C 
HETATM   41  C21 UNL     1      -3.452  30.165 -14.078  1.00  0.00     0.042 C 
HETATM   42  C22 UNL     1      -4.002  27.836 -14.694  1.00  0.00     0.178 C 
HETATM   43  C23 UNL     1      -3.583  26.428 -14.417  1.00  0.00     0.183 C 
HETATM   44  C24 UNL     1      -3.114  26.230 -12.965  1.00  0.00     0.204 C 
BRANCH  42  45
HETATM   45  O11 UNL     1      -3.565  28.302 -15.930  1.00  0.00    -0.390 OA
ATOM     46  H11 UNL     1      -4.237  28.177 -16.590  1.00  0.00     0.210 HD
ENDBRANCH  42  45
BRANCH  43  47
HETATM   47  O12 UNL     1      -2.458  26.167 -15.206  1.00  0.00    -0.390 OA
ATOM     48  H12 UNL     1      -2.622  25.355 -15.671  1.00  0.00     0.210 HD
ENDBRANCH  43  47
BRANCH  44  49
HETATM   49  O13 UNL     1      -4.201  26.329 -12.136  1.00  0.00    -0.388 OA
ATOM     50  H13 UNL     1      -5.040  26.302 -12.581  1.00  0.00     0.210 HD
ENDBRANCH  44  49
ENDBRANCH  37  38
ENDBRANCH   5  37
BRANCH   4  51
HETATM   51  O8  UNL     1       0.005  28.090  -9.012  1.00  0.00    -0.390 OA
ATOM     52  H8  UNL     1       0.457  28.553  -8.316  1.00  0.00     0.210 HD
ENDBRANCH   4  51
TORSDOF 17
ENDMDL
MODEL 3
REMARK VINA RESULT: -9.116309545      1.793      2.639
REMARK  17 active torsions:
REMARK  status: ('A' for Active; 'I' for Inactive)
REMARK    1  A    between atoms: O1_2  and  C2_3 
REMARK    2  A    between atoms: C6_8  and  O3_9 
REMARK    3  A    between atoms: O3_9  and  C7_10 
REMARK    4  A    between atoms: C10_14  and  N1_15 
REMARK    5  A    between atoms: C13_18  and  O5_19 
REMARK    6  A    between atoms: O5_19  and  C14_20 
REMARK    7  A    between atoms: C15_22  and  C16_23 
REMARK    8  A    between atoms: C16_23  and  O7_24 
REMARK    9  A    between atoms: C17_26  and  O8_27 
REMARK   10  A    between atoms: C18_29  and  O9_30 
REMARK   11  A    between atoms: O9_30  and  C19_31 
REMARK   12  A    between atoms: C22_35  and  O11_36 
REMARK   13  A    between atoms: C23_38  and  O12_39 
REMARK   14  A    between atoms: C24_41  and  O13_42 
REMARK   15  A    between atoms: C25_44  and  O14_45 
REMARK   16  A    between atoms: C26_47  and  O15_48 
REMARK   17  A    between atoms: C27_50  and  O16_51 
ROOT
HETATM    1  C14 UNL     1       0.662  30.009 -11.421  1.00  0.00     0.292 C 
HETATM    2  O6  UNL     1      -0.542  30.242 -10.692  1.00  0.00    -0.348 OA
HETATM    3  C15 UNL     1      -1.182  29.008 -10.551  1.00  0.00     0.179 C 
HETATM    4  C17 UNL     1      -1.498  28.419 -11.929  1.00  0.00     0.181 C 
HETATM    5  C18 UNL     1      -1.251  29.563 -12.902  1.00  0.00     0.189 C 
HETATM    6  C25 UNL     1       0.249  29.889 -12.846  1.00  0.00     0.205 C 
ENDROOT
BRANCH   1   7
HETATM    7  O5  UNL     1       1.568  31.027 -11.181  1.00  0.00    -0.348 OA
BRANCH   7   8
HETATM    8  C13 UNL     1       2.801  30.548 -10.904  1.00  0.00     0.194 C 
HETATM    9  C10 UNL     1       3.811  31.245 -11.834  1.00  0.00     0.281 C 
HETATM   10  C8  UNL     1       5.143  31.121 -11.199  1.00  0.00     0.156 C 
HETATM   11  O4  UNL     1       5.091  30.053 -10.278  1.00  0.00    -0.351 OA
HETATM   12  C9  UNL     1       6.260  30.860 -12.169  1.00  0.00     0.042 C 
HETATM   13  C7  UNL     1       4.531  28.893 -10.861  1.00  0.00     0.294 C 
HETATM   14  C26 UNL     1       3.057  29.076 -11.154  1.00  0.00     0.204 C 
BRANCH   9  15
HETATM   15  N1  UNL     1       3.311  32.525 -12.143  1.00  0.00     0.089 N 
HETATM   16  C11 UNL     1       3.625  32.790 -13.570  1.00  0.00     0.310 C 
HETATM   17  C12 UNL     1       3.939  33.613 -11.425  1.00  0.00     0.310 C 
ENDBRANCH   9  15
BRANCH  13  18
HETATM   18  O3  UNL     1       4.683  27.898  -9.932  1.00  0.00    -0.326 OA
BRANCH  18  19
HETATM   19  C6  UNL     1       5.997  27.572  -9.636  1.00  0.00     0.299 C 
HETATM   20  O2  UNL     1       5.948  26.818  -8.400  1.00  0.00    -0.329 OA
HETATM   21  C5  UNL     1       7.141  26.319  -7.948  1.00  0.00     0.143 C 
HETATM   22  C3  UNL     1       8.104  26.065  -8.848  1.00  0.00    -0.031 C 
HETATM   23  C2  UNL     1       7.947  26.292 -10.284  1.00  0.00     0.184 C 
HETATM   24  C4  UNL     1       9.426  25.510  -8.367  1.00  0.00     0.048 C 
HETATM   25  C27 UNL     1       6.507  26.591 -10.659  1.00  0.00     0.207 C 
BRANCH  23  26
HETATM   26  O1  UNL     1       8.729  27.370 -10.722  1.00  0.00    -0.384 OA
HETATM   27  C1  UNL     1       9.018  27.167 -12.068  1.00  0.00     0.202 C 
ENDBRANCH  23  26
BRANCH  25  28
HETATM   28  O16 UNL     1       5.779  25.420 -10.650  1.00  0.00    -0.388 OA
ATOM     29  H16 UNL     1       5.311  25.347  -9.827  1.00  0.00     0.210 HD
ENDBRANCH  25  28
ENDBRANCH  18  19
ENDBRANCH  13  18
BRANCH  14  30
HETATM   30  O15 UNL     1       2.309  28.345 -10.252  1.00  0.00    -0.388 OA
ATOM     31  H15 UNL     1       2.133  28.873  -9.482  1.00  0.00     0.210 HD
ENDBRANCH  14  30
ENDBRANCH   7   8
ENDBRANCH   1   7
BRANCH   6  32
HETATM   32  O14 UNL     1       0.964  28.850 -13.448  1.00  0.00    -0.388 OA
ATOM     33  H14 UNL     1       1.893  29.045 -13.410  1.00  0.00     0.210 HD
ENDBRANCH   6  32
BRANCH   3  34
HETATM   34  C16 UNL     1      -2.474  29.245  -9.794  1.00  0.00     0.198 C 
BRANCH  34  35
HETATM   35  O7  UNL     1      -3.168  28.055  -9.619  1.00  0.00    -0.398 OA
ATOM     36  H7  UNL     1      -4.026  28.102 -10.027  1.00  0.00     0.209 HD
ENDBRANCH  34  35
ENDBRANCH   3  34
BRANCH   5  37
HETATM   37  O9  UNL     1      -1.619  29.336 -14.182  1.00  0.00    -0.348 OA
BRANCH  37  38
HETATM   38  C19 UNL     1      -2.123  28.060 -14.407  1.00  0.00     0.292 C 
HETATM   39  O10 UNL     1      -1.054  27.338 -14.969  1.00  0.00    -0.351 OA
HETATM   40  C20 UNL     1      -1.052  27.287 -16.333  1.00  0.00     0.152 C 
HETATM   41  C21 UNL     1       0.313  26.715 -16.751  1.00  0.00     0.042 C 
HETATM   42  C22 UNL     1      -2.124  26.316 -16.784  1.00  0.00     0.178 C 
HETATM   43  C23 UNL     1      -3.361  26.594 -15.993  1.00  0.00     0.183 C 
HETATM   44  C24 UNL     1      -3.311  27.960 -15.287  1.00  0.00     0.204 C 
BRANCH  42  45
HETATM   45  O11 UNL     1      -1.680  25.003 -16.659  1.00  0.00    -0.390 OA
ATOM     46  H11 UNL     1      -2.377  24.393 -16.870  1.00  0.00     0.210 HD
ENDBRANCH  42  45
BRANCH  43  47
HETATM   47  O12 UNL     1      -3.416  25.650 -14.962  1.00  0.00    -0.390 OA
ATOM     48  H12 UNL     1      -4.299  25.301 -14.946  1.00  0.00     0.210 HD
ENDBRANCH  43  47
BRANCH  44  49
HETATM   49  O13 UNL     1      -3.401  28.946 -16.234  1.00  0.00    -0.388 OA
ATOM     50  H13 UNL     1      -2.580  29.382 -16.429  1.00  0.00     0.210 HD
ENDBRANCH  44  49
ENDBRANCH  37  38
ENDBRANCH   5  37
BRANCH   4  51
HETATM   51  O8  UNL     1      -0.693  27.332 -12.128  1.00  0.00    -0.390 OA
ATOM     52  H8  UNL     1      -0.937  26.659 -11.504  1.00  0.00     0.210 HD
ENDBRANCH   4  51
TORSDOF 17
ENDMDL
MODEL 4
REMARK VINA RESULT: -9.033065203      2.485      8.269
REMARK  17 active torsions:
REMARK  status: ('A' for Active; 'I' for Inactive)
REMARK    1  A    between atoms: O1_2  and  C2_3 
REMARK    2  A    between atoms: C6_8  and  O3_9 
REMARK    3  A    between atoms: O3_9  and  C7_10 
REMARK    4  A    between atoms: C10_14  and  N1_15 
REMARK    5  A    between atoms: C13_18  and  O5_19 
REMARK    6  A    between atoms: O5_19  and  C14_20 
REMARK    7  A    between atoms: C15_22  and  C16_23 
REMARK    8  A    between atoms: C16_23  and  O7_24 
REMARK    9  A    between atoms: C17_26  and  O8_27 
REMARK   10  A    between atoms: C18_29  and  O9_30 
REMARK   11  A    between atoms: O9_30  and  C19_31 
REMARK   12  A    between atoms: C22_35  and  O11_36 
REMARK   13  A    between atoms: C23_38  and  O12_39 
REMARK   14  A    between atoms: C24_41  and  O13_42 
REMARK   15  A    between atoms: C25_44  and  O14_45 
REMARK   16  A    between atoms: C26_47  and  O15_48 
REMARK   17  A    between atoms: C27_50  and  O16_51 
ROOT
HETATM    1  C14 UNL     1       7.033  30.047 -12.017  1.00  0.00     0.292 C 
HETATM    2  O6  UNL     1       7.540  29.979 -10.686  1.00  0.00    -0.348 OA
HETATM    3  C15 UNL     1       8.598  29.066 -10.696  1.00  0.00     0.179 C 
HETATM    4  C17 UNL     1       8.102  27.690 -11.148  1.00  0.00     0.181 C 
HETATM    5  C18 UNL     1       6.583  27.800 -11.120  1.00  0.00     0.189 C 
HETATM    6  C25 UNL     1       6.186  28.834 -12.184  1.00  0.00     0.205 C 
ENDROOT
BRANCH   1   7
HETATM    7  O5  UNL     1       6.355  31.237 -12.209  1.00  0.00    -0.348 OA
BRANCH   7   8
HETATM    8  C13 UNL     1       5.017  31.052 -12.253  1.00  0.00     0.194 C 
HETATM    9  C10 UNL     1       4.479  31.718 -13.534  1.00  0.00     0.281 C 
HETATM   10  C8  UNL     1       3.173  31.088 -13.835  1.00  0.00     0.156 C 
HETATM   11  O4  UNL     1       2.690  30.493 -12.650  1.00  0.00    -0.351 OA
HETATM   12  C9  UNL     1       2.135  32.049 -14.343  1.00  0.00     0.042 C 
HETATM   13  C7  UNL     1       2.751  31.390 -11.559  1.00  0.00     0.294 C 
HETATM   14  C26 UNL     1       4.181  31.681 -11.157  1.00  0.00     0.204 C 
BRANCH   9  15
HETATM   15  N1  UNL     1       5.499  31.689 -14.505  1.00  0.00     0.089 N 
HETATM   16  C11 UNL     1       5.347  32.904 -15.343  1.00  0.00     0.310 C 
HETATM   17  C12 UNL     1       5.415  30.589 -15.441  1.00  0.00     0.310 C 
ENDBRANCH   9  15
BRANCH  13  18
HETATM   18  O3  UNL     1       2.114  30.760 -10.523  1.00  0.00    -0.326 OA
BRANCH  18  19
HETATM   19  C6  UNL     1       0.852  30.271 -10.823  1.00  0.00     0.299 C 
HETATM   20  O2  UNL     1       0.939  28.833 -10.666  1.00  0.00    -0.329 OA
HETATM   21  C5  UNL     1      -0.227  28.135 -10.842  1.00  0.00     0.143 C 
HETATM   22  C3  UNL     1      -1.387  28.765 -10.600  1.00  0.00    -0.031 C 
HETATM   23  C2  UNL     1      -1.472  30.157 -10.159  1.00  0.00     0.184 C 
HETATM   24  C4  UNL     1      -2.683  28.009 -10.784  1.00  0.00     0.048 C 
HETATM   25  C27 UNL     1      -0.118  30.712  -9.759  1.00  0.00     0.207 C 
BRANCH  23  26
HETATM   26  O1  UNL     1      -1.986  30.985 -11.167  1.00  0.00    -0.384 OA
HETATM   27  C1  UNL     1      -2.904  31.851 -10.581  1.00  0.00     0.202 C 
ENDBRANCH  23  26
BRANCH  25  28
HETATM   28  O16 UNL     1       0.230  30.222  -8.518  1.00  0.00    -0.388 OA
ATOM     29  H16 UNL     1       1.047  29.743  -8.586  1.00  0.00     0.210 HD
ENDBRANCH  25  28
ENDBRANCH  18  19
ENDBRANCH  13  18
BRANCH  14  30
HETATM   30  O15 UNL     1       4.470  31.040  -9.969  1.00  0.00    -0.388 OA
ATOM     31  H15 UNL     1       5.126  31.534  -9.491  1.00  0.00     0.210 HD
ENDBRANCH  14  30
ENDBRANCH   7   8
ENDBRANCH   1   7
BRANCH   6  32
HETATM   32  O14 UNL     1       6.402  28.289 -13.453  1.00  0.00    -0.388 OA
ATOM     33  H14 UNL     1       5.583  28.278 -13.934  1.00  0.00     0.210 HD
ENDBRANCH   6  32
BRANCH   3  34
HETATM   34  C16 UNL     1       9.134  28.970  -9.281  1.00  0.00     0.198 C 
BRANCH  34  35
HETATM   35  O7  UNL     1       9.553  30.215  -8.827  1.00  0.00    -0.398 OA
ATOM     36  H7  UNL     1       9.602  30.228  -7.878  1.00  0.00     0.209 HD
ENDBRANCH  34  35
ENDBRANCH   3  34
BRANCH   5  37
HETATM   37  O9  UNL     1       5.907  26.650 -11.328  1.00  0.00    -0.348 OA
BRANCH  37  38
HETATM   38  C19 UNL     1       5.893  25.795 -10.232  1.00  0.00     0.292 C 
HETATM   39  O10 UNL     1       5.460  24.556 -10.739  1.00  0.00    -0.351 OA
HETATM   40  C20 UNL     1       4.123  24.318 -10.603  1.00  0.00     0.152 C 
HETATM   41  C21 UNL     1       3.808  23.074 -11.452  1.00  0.00     0.042 C 
HETATM   42  C22 UNL     1       3.835  23.981  -9.154  1.00  0.00     0.178 C 
HETATM   43  C23 UNL     1       4.566  24.963  -8.297  1.00  0.00     0.183 C 
HETATM   44  C24 UNL     1       5.038  26.195  -9.089  1.00  0.00     0.204 C 
BRANCH  42  45
HETATM   45  O11 UNL     1       4.175  22.659  -8.881  1.00  0.00    -0.390 OA
ATOM     46  H11 UNL     1       4.332  22.540  -7.952  1.00  0.00     0.210 HD
ENDBRANCH  42  45
BRANCH  43  47
HETATM   47  O12 UNL     1       5.738  24.338  -7.857  1.00  0.00    -0.390 OA
ATOM     48  H12 UNL     1       5.859  24.575  -6.945  1.00  0.00     0.210 HD
ENDBRANCH  43  47
BRANCH  44  49
HETATM   49  O13 UNL     1       3.941  26.941  -9.432  1.00  0.00    -0.388 OA
ATOM     50  H13 UNL     1       3.109  26.503  -9.299  1.00  0.00     0.210 HD
ENDBRANCH  44  49
ENDBRANCH  37  38
ENDBRANCH   5  37
BRANCH   4  51
HETATM   51  O8  UNL     1       8.620  27.429 -12.386  1.00  0.00    -0.390 OA
ATOM     52  H8  UNL     1       7.997  27.722 -13.040  1.00  0.00     0.210 HD
ENDBRANCH   4  51
TORSDOF 17
ENDMDL
MODEL 5
REMARK VINA RESULT: -8.914948397      2.321      9.343
REMARK  17 active torsions:
REMARK  status: ('A' for Active; 'I' for Inactive)
REMARK    1  A    between atoms: O1_2  and  C2_3 
REMARK    2  A    between atoms: C6_8  and  O3_9 
REMARK    3  A    between atoms: O3_9  and  C7_10 
REMARK    4  A    between atoms: C10_14  and  N1_15 
REMARK    5  A    between atoms: C13_18  and  O5_19 
REMARK    6  A    between atoms: O5_19  and  C14_20 
REMARK    7  A    between atoms: C15_22  and  C16_23 
REMARK    8  A    between atoms: C16_23  and  O7_24 
REMARK    9  A    between atoms: C17_26  and  O8_27 
REMARK   10  A    between atoms: C18_29  and  O9_30 
REMARK   11  A    between atoms: O9_30  and  C19_31 
REMARK   12  A    between atoms: C22_35  and  O11_36 
REMARK   13  A    between atoms: C23_38  and  O12_39 
REMARK   14  A    between atoms: C24_41  and  O13_42 
REMARK   15  A    between atoms: C25_44  and  O14_45 
REMARK   16  A    between atoms: C26_47  and  O15_48 
REMARK   17  A    between atoms: C27_50  and  O16_51 
ROOT
HETATM    1  C14 UNL     1       3.116  30.749 -12.277  1.00  0.00     0.292 C 
HETATM    2  O6  UNL     1       2.804  29.357 -12.302  1.00  0.00    -0.348 OA
HETATM    3  C15 UNL     1       2.535  28.974 -10.986  1.00  0.00     0.179 C 
HETATM    4  C17 UNL     1       3.759  29.229 -10.102  1.00  0.00     0.181 C 
HETATM    5  C18 UNL     1       4.886  29.526 -11.083  1.00  0.00     0.189 C 
HETATM    6  C25 UNL     1       4.525  30.833 -11.804  1.00  0.00     0.205 C 
ENDROOT
BRANCH   1   7
HETATM    7  O5  UNL     1       2.908  31.306 -13.526  1.00  0.00    -0.348 OA
BRANCH   7   8
HETATM    8  C13 UNL     1       2.038  30.579 -14.262  1.00  0.00     0.194 C 
HETATM    9  C10 UNL     1       2.744  30.149 -15.561  1.00  0.00     0.281 C 
HETATM   10  C8  UNL     1       2.011  28.974 -16.085  1.00  0.00     0.156 C 
HETATM   11  O4  UNL     1       0.722  28.972 -15.513  1.00  0.00    -0.351 OA
HETATM   12  C9  UNL     1       1.869  28.961 -17.581  1.00  0.00     0.042 C 
HETATM   13  C7  UNL     1       0.102  30.237 -15.628  1.00  0.00     0.294 C 
HETATM   14  C26 UNL     1       0.786  31.271 -14.760  1.00  0.00     0.204 C 
BRANCH   9  15
HETATM   15  N1  UNL     1       4.123  30.039 -15.295  1.00  0.00     0.089 N 
HETATM   16  C11 UNL     1       4.845  30.667 -16.430  1.00  0.00     0.310 C 
HETATM   17  C12 UNL     1       4.627  28.684 -15.249  1.00  0.00     0.310 C 
ENDBRANCH   9  15
BRANCH  13  18
HETATM   18  O3  UNL     1      -1.184  30.063 -15.190  1.00  0.00    -0.326 OA
BRANCH  18  19
HETATM   19  C6  UNL     1      -1.452  28.818 -14.643  1.00  0.00     0.299 C 
HETATM   20  O2  UNL     1      -2.095  29.077 -13.370  1.00  0.00    -0.329 OA
HETATM   21  C5  UNL     1      -2.523  27.976 -12.675  1.00  0.00     0.143 C 
HETATM   22  C3  UNL     1      -2.833  26.870 -13.368  1.00  0.00    -0.031 C 
HETATM   23  C2  UNL     1      -2.738  26.776 -14.824  1.00  0.00     0.184 C 
HETATM   24  C4  UNL     1      -3.312  25.647 -12.618  1.00  0.00     0.048 C 
HETATM   25  C27 UNL     1      -2.507  28.130 -15.468  1.00  0.00     0.207 C 
BRANCH  23  26
HETATM   26  O1  UNL     1      -1.685  25.938 -15.217  1.00  0.00    -0.384 OA
HETATM   27  C1  UNL     1      -1.790  25.737 -16.590  1.00  0.00     0.202 C 
ENDBRANCH  23  26
BRANCH  25  28
HETATM   28  O16 UNL     1      -3.690  28.840 -15.478  1.00  0.00    -0.388 OA
ATOM     29  H16 UNL     1      -3.747  29.345 -16.281  1.00  0.00     0.210 HD
ENDBRANCH  25  28
ENDBRANCH  18  19
ENDBRANCH  13  18
BRANCH  14  30
HETATM   30  O15 UNL     1      -0.011  31.565 -13.670  1.00  0.00    -0.388 OA
ATOM     31  H15 UNL     1       0.522  31.932 -12.975  1.00  0.00     0.210 HD
ENDBRANCH  14  30
ENDBRANCH   7   8
ENDBRANCH   1   7
BRANCH   6  32
HETATM   32  O14 UNL     1       4.648  31.898 -10.906  1.00  0.00    -0.388 OA
ATOM     33  H14 UNL     1       5.483  31.835 -10.458  1.00  0.00     0.210 HD
ENDBRANCH   6  32
BRANCH   3  34
HETATM   34  C16 UNL     1       2.220  27.490 -10.996  1.00  0.00     0.198 C 
BRANCH  34  35
HETATM   35  O7  UNL     1       2.861  26.843  -9.946  1.00  0.00    -0.398 OA
ATOM     36  H7  UNL     1       3.210  26.006 -10.229  1.00  0.00     0.209 HD
ENDBRANCH  34  35
ENDBRANCH   3  34
BRANCH   5  37
HETATM   37  O9  UNL     1       6.121  29.629 -10.545  1.00  0.00    -0.348 OA
BRANCH  37  38
HETATM   38  C19 UNL     1       6.731  28.406 -10.290  1.00  0.00     0.292 C 
HETATM   39  O10 UNL     1       7.851  28.714  -9.497  1.00  0.00    -0.351 OA
HETATM   40  C20 UNL     1       9.021  28.849 -10.188  1.00  0.00     0.152 C 
HETATM   41  C21 UNL     1      10.044  29.453  -9.210  1.00  0.00     0.042 C 
HETATM   42  C22 UNL     1       9.511  27.472 -10.588  1.00  0.00     0.178 C 
HETATM   43  C23 UNL     1       8.346  26.706 -11.124  1.00  0.00     0.183 C 
HETATM   44  C24 UNL     1       7.154  27.615 -11.470  1.00  0.00     0.204 C 
BRANCH  42  45
HETATM   45  O11 UNL     1      10.130  26.842  -9.513  1.00  0.00    -0.390 OA
ATOM     46  H11 UNL     1      11.007  27.184  -9.385  1.00  0.00     0.210 HD
ENDBRANCH  42  45
BRANCH  43  47
HETATM   47  O12 UNL     1       7.888  25.874 -10.097  1.00  0.00    -0.390 OA
ATOM     48  H12 UNL     1       7.734  25.016 -10.476  1.00  0.00     0.210 HD
ENDBRANCH  43  47
BRANCH  44  49
HETATM   49  O13 UNL     1       7.479  28.365 -12.570  1.00  0.00    -0.388 OA
ATOM     50  H13 UNL     1       7.306  27.940 -13.401  1.00  0.00     0.210 HD
ENDBRANCH  44  49
ENDBRANCH  37  38
ENDBRANCH   5  37
BRANCH   4  51
HETATM   51  O8  UNL     1       3.471  30.262  -9.253  1.00  0.00    -0.390 OA
ATOM     52  H8  UNL     1       3.408  29.916  -8.371  1.00  0.00     0.210 HD
ENDBRANCH   4  51
TORSDOF 17
ENDMDL
