MODEL 1
REMARK VINA RESULT: -7.309520338      0.000      0.000
REMARK  8 active torsions:
REMARK  status: ('A' for Active; 'I' for Inactive)
REMARK    1  A    between atoms: C4_11  and  C5_12 
REMARK    2  A    between atoms: C4_11  and  C7_16 
REMARK    3  A    between atoms: C5_12  and  C6_13 
REMARK    4  A    between atoms: C9_18  and  N6_19 
REMARK    5  A    between atoms: N6_19  and  C10_21 
REMARK    6  A    between atoms: C10_21  and  C11_22 
REMARK    7  A    between atoms: C11_22  and  N7_23 
REMARK    8  A    between atoms: C16_31  and  N9_32 
ROOT
HETATM    1  C7  UNL     1     -25.192  28.621   2.155  1.00  0.00     0.079 A 
HETATM    2  C8  UNL     1     -24.643  27.378   1.939  1.00  0.00     0.079 A 
HETATM    3  C9  UNL     1     -25.276  26.518   1.067  1.00  0.00     0.118 A 
HETATM    4  N8  UNL     1     -26.388  26.875   0.448  1.00  0.00    -0.177 N 
ATOM      5  H8  UNL     1     -26.843  26.226  -0.194  1.00  0.00     0.185 HD
HETATM    6  C16 UNL     1     -26.918  28.091   0.663  1.00  0.00     0.677 A 
HETATM    7  N10 UNL     1     -26.303  28.943   1.519  1.00  0.00    -0.191 N 
ATOM      8  H10 UNL     1     -26.712  29.865   1.676  1.00  0.00     0.184 HD
ENDROOT
BRANCH   1   9
HETATM    9  C4  UNL     1     -24.504  29.574   3.114  1.00  0.00     0.164 A 
HETATM   10  N1  UNL     1     -24.312  30.843   2.455  1.00  0.00    -0.327 N 
HETATM   11  C1  UNL     1     -23.372  31.007   1.358  1.00  0.00     0.155 C 
HETATM   12  C2  UNL     1     -25.037  32.019   2.844  1.00  0.00     0.194 A 
HETATM   13  N2  UNL     1     -24.856  33.253   2.164  1.00  0.00    -0.063 NA
HETATM   14  N3  UNL     1     -25.868  31.978   3.821  1.00  0.00    -0.305 N 
HETATM   15  C3  UNL     1     -26.086  30.771   4.526  1.00  0.00     0.192 A 
ATOM     16  H3  UNL     1     -26.375  32.821   4.090  1.00  0.00     0.171 HD
HETATM   17  N4  UNL     1     -26.998  30.717   5.614  1.00  0.00    -0.063 NA
HETATM   18  N5  UNL     1     -25.460  29.727   4.183  1.00  0.00    -0.332 N 
ATOM     19  H5  UNL     1     -25.655  28.888   4.730  1.00  0.00     0.165 HD
BRANCH   9  20
HETATM   20  C5  UNL     1     -23.259  28.972   3.643  1.00  0.00     0.174 C 
BRANCH  20  21
HETATM   21  C6  UNL     1     -22.657  29.627   4.807  1.00  0.00     0.177 C 
HETATM   22  O1  UNL     1     -23.095  29.538   5.968  1.00  0.00    -0.648 OA
HETATM   23  O2  UNL     1     -21.499  30.431   4.679  1.00  0.00    -0.648 OA
ENDBRANCH  20  21
ENDBRANCH   9  20
ENDBRANCH   1   9
BRANCH   3  24
HETATM   24  N6  UNL     1     -24.740  25.361   0.886  1.00  0.00    -0.374 N 
ATOM     25  H6  UNL     1     -24.533  24.802   1.713  1.00  0.00     0.161 HD
BRANCH  24  26
HETATM   26  C10 UNL     1     -24.414  24.798  -0.397  1.00  0.00     0.140 C 
BRANCH  26  27
HETATM   27  C11 UNL     1     -23.585  25.783  -1.187  1.00  0.00     0.136 C 
BRANCH  27  28
HETATM   28  N7  UNL     1     -24.245  26.337  -2.310  1.00  0.00    -0.407 N 
HETATM   29  C12 UNL     1     -24.046  25.716  -3.569  1.00  0.00     0.143 C 
HETATM   30  C13 UNL     1     -23.168  26.505  -4.511  1.00  0.00     0.187 C 
HETATM   31  O3  UNL     1     -23.531  27.836  -4.592  1.00  0.00    -0.388 OA
HETATM   32  C14 UNL     1     -24.565  28.195  -3.761  1.00  0.00     0.187 C 
HETATM   33  C15 UNL     1     -24.358  27.755  -2.321  1.00  0.00     0.143 C 
ENDBRANCH  27  28
ENDBRANCH  26  27
ENDBRANCH  24  26
ENDBRANCH   3  24
BRANCH   6  34
HETATM   34  N9  UNL     1     -28.004  28.478   0.080  1.00  0.00    -0.234 N 
ATOM     35  H92 UNL     1     -28.204  28.131  -0.859  1.00  0.00     0.174 HD
ATOM     36  H91 UNL     1     -28.661  29.116   0.528  1.00  0.00     0.174 HD
ENDBRANCH   6  34
TORSDOF 8
ENDMDL
MODEL 2
REMARK VINA RESULT: -7.221094324      1.574      2.610
REMARK  8 active torsions:
REMARK  status: ('A' for Active; 'I' for Inactive)
REMARK    1  A    between atoms: C4_11  and  C5_12 
REMARK    2  A    between atoms: C4_11  and  C7_16 
REMARK    3  A    between atoms: C5_12  and  C6_13 
REMARK    4  A    between atoms: C9_18  and  N6_19 
REMARK    5  A    between atoms: N6_19  and  C10_21 
REMARK    6  A    between atoms: C10_21  and  C11_22 
REMARK    7  A    between atoms: C11_22  and  N7_23 
REMARK    8  A    between atoms: C16_31  and  N9_32 
ROOT
HETATM    1  C7  UNL     1     -25.046  28.705   1.994  1.00  0.00     0.079 A 
HETATM    2  C8  UNL     1     -26.006  29.250   1.175  1.00  0.00     0.079 A 
HETATM    3  C9  UNL     1     -26.596  28.447   0.221  1.00  0.00     0.118 A 
HETATM    4  N8  UNL     1     -26.248  27.178   0.092  1.00  0.00    -0.177 N 
ATOM      5  H8  UNL     1     -26.694  26.598  -0.619  1.00  0.00     0.185 HD
HETATM    6  C16 UNL     1     -25.309  26.651   0.898  1.00  0.00     0.677 A 
HETATM    7  N10 UNL     1     -24.725  27.433   1.838  1.00  0.00    -0.191 N 
ATOM      8  H10 UNL     1     -24.014  27.026   2.445  1.00  0.00     0.184 HD
ENDROOT
BRANCH   1   9
HETATM    9  C4  UNL     1     -24.390  29.580   3.045  1.00  0.00     0.164 A 
HETATM   10  N1  UNL     1     -24.121  30.877   2.473  1.00  0.00    -0.327 N 
HETATM   11  C1  UNL     1     -23.112  31.071   1.444  1.00  0.00     0.155 C 
HETATM   12  C2  UNL     1     -24.834  32.053   2.885  1.00  0.00     0.194 A 
HETATM   13  N2  UNL     1     -24.575  33.315   2.289  1.00  0.00    -0.063 NA
HETATM   14  N3  UNL     1     -25.723  31.984   3.807  1.00  0.00    -0.305 N 
HETATM   15  C3  UNL     1     -26.018  30.748   4.428  1.00  0.00     0.192 A 
ATOM     16  H3  UNL     1     -26.221  32.827   4.094  1.00  0.00     0.171 HD
HETATM   17  N4  UNL     1     -26.997  30.663   5.456  1.00  0.00    -0.063 NA
HETATM   18  N5  UNL     1     -25.404  29.704   4.063  1.00  0.00    -0.332 N 
ATOM     19  H5  UNL     1     -25.657  28.843   4.548  1.00  0.00     0.165 HD
BRANCH   9  20
HETATM   20  C5  UNL     1     -23.197  28.909   3.611  1.00  0.00     0.174 C 
BRANCH  20  21
HETATM   21  C6  UNL     1     -22.584  29.541   4.782  1.00  0.00     0.177 C 
HETATM   22  O1  UNL     1     -23.046  29.480   5.936  1.00  0.00    -0.648 OA
HETATM   23  O2  UNL     1     -21.386  30.285   4.671  1.00  0.00    -0.648 OA
ENDBRANCH  20  21
ENDBRANCH   9  20
ENDBRANCH   1   9
BRANCH   3  24
HETATM   24  N6  UNL     1     -27.490  28.984  -0.534  1.00  0.00    -0.374 N 
ATOM     25  H6  UNL     1     -28.369  28.483  -0.654  1.00  0.00     0.161 HD
BRANCH  24  26
HETATM   26  C10 UNL     1     -27.340  30.239  -1.221  1.00  0.00     0.140 C 
BRANCH  26  27
HETATM   27  C11 UNL     1     -26.983  29.987  -2.666  1.00  0.00     0.136 C 
BRANCH  27  28
HETATM   28  N7  UNL     1     -25.597  30.045  -2.948  1.00  0.00    -0.407 N 
HETATM   29  C12 UNL     1     -24.970  28.869  -3.432  1.00  0.00     0.143 C 
HETATM   30  C13 UNL     1     -24.074  28.192  -2.424  1.00  0.00     0.187 C 
HETATM   31  O3  UNL     1     -23.212  29.071  -1.797  1.00  0.00    -0.388 OA
HETATM   32  C14 UNL     1     -23.378  30.385  -2.160  1.00  0.00     0.187 C 
HETATM   33  C15 UNL     1     -24.822  30.854  -2.073  1.00  0.00     0.143 C 
ENDBRANCH  27  28
ENDBRANCH  26  27
ENDBRANCH  24  26
ENDBRANCH   3  24
BRANCH   6  34
HETATM   34  N9  UNL     1     -24.940  25.417   0.804  1.00  0.00    -0.234 N 
ATOM     35  H92 UNL     1     -24.033  25.209   0.385  1.00  0.00     0.174 HD
ATOM     36  H91 UNL     1     -25.526  24.650   1.134  1.00  0.00     0.174 HD
ENDBRANCH   6  34
TORSDOF 8
ENDMDL
MODEL 3
REMARK VINA RESULT: -7.158489159      1.452      2.338
REMARK  8 active torsions:
REMARK  status: ('A' for Active; 'I' for Inactive)
REMARK    1  A    between atoms: C4_11  and  C5_12 
REMARK    2  A    between atoms: C4_11  and  C7_16 
REMARK    3  A    between atoms: C5_12  and  C6_13 
REMARK    4  A    between atoms: C9_18  and  N6_19 
REMARK    5  A    between atoms: N6_19  and  C10_21 
REMARK    6  A    between atoms: C10_21  and  C11_22 
REMARK    7  A    between atoms: C11_22  and  N7_23 
REMARK    8  A    between atoms: C16_31  and  N9_32 
ROOT
HETATM    1  C7  UNL     1     -24.752  28.762   1.831  1.00  0.00     0.079 A 
HETATM    2  C8  UNL     1     -25.417  29.383   0.800  1.00  0.00     0.079 A 
HETATM    3  C9  UNL     1     -25.931  28.607  -0.218  1.00  0.00     0.118 A 
HETATM    4  N8  UNL     1     -25.790  27.293  -0.208  1.00  0.00    -0.177 N 
ATOM      5  H8  UNL     1     -26.177  26.734  -0.969  1.00  0.00     0.185 HD
HETATM    6  C16 UNL     1     -25.140  26.693   0.803  1.00  0.00     0.677 A 
HETATM    7  N10 UNL     1     -24.631  27.447   1.808  1.00  0.00    -0.191 N 
ATOM      8  H10 UNL     1     -24.139  26.983   2.572  1.00  0.00     0.184 HD
ENDROOT
BRANCH   1   9
HETATM    9  C4  UNL     1     -24.181  29.606   2.955  1.00  0.00     0.164 A 
HETATM   10  N1  UNL     1     -23.899  30.928   2.450  1.00  0.00    -0.327 N 
HETATM   11  C1  UNL     1     -22.830  31.177   1.497  1.00  0.00     0.155 C 
HETATM   12  C2  UNL     1     -24.658  32.075   2.859  1.00  0.00     0.194 A 
HETATM   13  N2  UNL     1     -24.384  33.364   2.329  1.00  0.00    -0.063 NA
HETATM   14  N3  UNL     1     -25.603  31.958   3.718  1.00  0.00    -0.305 N 
HETATM   15  C3  UNL     1     -25.916  30.694   4.271  1.00  0.00     0.192 A 
ATOM     16  H3  UNL     1     -26.133  32.781   4.004  1.00  0.00     0.171 HD
HETATM   17  N4  UNL     1     -26.956  30.554   5.230  1.00  0.00    -0.063 NA
HETATM   18  N5  UNL     1     -25.260  29.675   3.908  1.00  0.00    -0.332 N 
ATOM     19  H5  UNL     1     -25.528  28.792   4.343  1.00  0.00     0.165 HD
BRANCH   9  20
HETATM   20  C5  UNL     1     -23.015  28.932   3.571  1.00  0.00     0.174 C 
BRANCH  20  21
HETATM   21  C6  UNL     1     -22.460  29.554   4.776  1.00  0.00     0.177 C 
HETATM   22  O1  UNL     1     -22.955  29.449   5.912  1.00  0.00    -0.648 OA
HETATM   23  O2  UNL     1     -21.286  30.342   4.720  1.00  0.00    -0.648 OA
ENDBRANCH  20  21
ENDBRANCH   9  20
ENDBRANCH   1   9
BRANCH   3  24
HETATM   24  N6  UNL     1     -26.547  29.216  -1.171  1.00  0.00    -0.374 N 
ATOM     25  H6  UNL     1     -27.367  29.770  -0.925  1.00  0.00     0.161 HD
BRANCH  24  26
HETATM   26  C10 UNL     1     -26.165  29.172  -2.557  1.00  0.00     0.140 C 
BRANCH  26  27
HETATM   27  C11 UNL     1     -24.889  29.955  -2.757  1.00  0.00     0.136 C 
BRANCH  27  28
HETATM   28  N7  UNL     1     -23.826  29.213  -3.324  1.00  0.00    -0.407 N 
HETATM   29  C12 UNL     1     -23.991  27.811  -3.452  1.00  0.00     0.143 C 
HETATM   30  C13 UNL     1     -23.170  27.005  -2.475  1.00  0.00     0.187 C 
HETATM   31  O3  UNL     1     -21.851  27.413  -2.420  1.00  0.00    -0.388 OA
HETATM   32  C14 UNL     1     -21.559  28.501  -3.206  1.00  0.00     0.187 C 
HETATM   33  C15 UNL     1     -22.517  29.663  -3.000  1.00  0.00     0.143 C 
ENDBRANCH  27  28
ENDBRANCH  26  27
ENDBRANCH  24  26
ENDBRANCH   3  24
BRANCH   6  34
HETATM   34  N9  UNL     1     -24.979  25.411   0.850  1.00  0.00    -0.234 N 
ATOM     35  H92 UNL     1     -25.419  24.838   0.130  1.00  0.00     0.174 HD
ATOM     36  H91 UNL     1     -24.430  24.962   1.582  1.00  0.00     0.174 HD
ENDBRANCH   6  34
TORSDOF 8
ENDMDL
MODEL 4
REMARK VINA RESULT: -6.958509079      2.148      2.757
REMARK  8 active torsions:
REMARK  status: ('A' for Active; 'I' for Inactive)
REMARK    1  A    between atoms: C4_11  and  C5_12 
REMARK    2  A    between atoms: C4_11  and  C7_16 
REMARK    3  A    between atoms: C5_12  and  C6_13 
REMARK    4  A    between atoms: C9_18  and  N6_19 
REMARK    5  A    between atoms: N6_19  and  C10_21 
REMARK    6  A    between atoms: C10_21  and  C11_22 
REMARK    7  A    between atoms: C11_22  and  N7_23 
REMARK    8  A    between atoms: C16_31  and  N9_32 
ROOT
HETATM    1  C7  UNL     1     -25.055  28.607   2.021  1.00  0.00     0.079 A 
HETATM    2  C8  UNL     1     -24.484  27.385   1.753  1.00  0.00     0.079 A 
HETATM    3  C9  UNL     1     -25.092  26.557   0.832  1.00  0.00     0.118 A 
HETATM    4  N8  UNL     1     -26.202  26.926   0.217  1.00  0.00    -0.177 N 
ATOM      5  H8  UNL     1     -26.640  26.302  -0.461  1.00  0.00     0.185 HD
HETATM    6  C16 UNL     1     -26.755  28.122   0.483  1.00  0.00     0.677 A 
HETATM    7  N10 UNL     1     -26.164  28.942   1.387  1.00  0.00    -0.191 N 
ATOM      8  H10 UNL     1     -26.589  29.848   1.582  1.00  0.00     0.184 HD
ENDROOT
BRANCH   1   9
HETATM    9  C4  UNL     1     -24.394  29.523   3.033  1.00  0.00     0.164 A 
HETATM   10  N1  UNL     1     -24.163  30.809   2.419  1.00  0.00    -0.327 N 
HETATM   11  C1  UNL     1     -23.179  30.992   1.364  1.00  0.00     0.155 C 
HETATM   12  C2  UNL     1     -24.889  31.982   2.815  1.00  0.00     0.194 A 
HETATM   13  N2  UNL     1     -24.667  33.232   2.178  1.00  0.00    -0.063 NA
HETATM   14  N3  UNL     1     -25.758  31.923   3.757  1.00  0.00    -0.305 N 
HETATM   15  C3  UNL     1     -26.016  30.698   4.417  1.00  0.00     0.192 A 
ATOM     16  H3  UNL     1     -26.265  32.764   4.031  1.00  0.00     0.171 HD
HETATM   17  N4  UNL     1     -26.970  30.624   5.468  1.00  0.00    -0.063 NA
HETATM   18  N5  UNL     1     -25.389  29.657   4.068  1.00  0.00    -0.332 N 
ATOM     19  H5  UNL     1     -25.615  28.805   4.583  1.00  0.00     0.165 HD
BRANCH   9  20
HETATM   20  C5  UNL     1     -23.177  28.891   3.591  1.00  0.00     0.174 C 
BRANCH  20  21
HETATM   21  C6  UNL     1     -22.576  29.542   4.758  1.00  0.00     0.177 C 
HETATM   22  O1  UNL     1     -23.028  29.467   5.914  1.00  0.00    -0.648 OA
HETATM   23  O2  UNL     1     -21.404  30.325   4.638  1.00  0.00    -0.648 OA
ENDBRANCH  20  21
ENDBRANCH   9  20
ENDBRANCH   1   9
BRANCH   3  24
HETATM   24  N6  UNL     1     -24.537  25.419   0.603  1.00  0.00    -0.374 N 
ATOM     25  H6  UNL     1     -24.885  24.611   1.119  1.00  0.00     0.161 HD
BRANCH  24  26
HETATM   26  C10 UNL     1     -23.461  25.201  -0.327  1.00  0.00     0.140 C 
BRANCH  26  27
HETATM   27  C11 UNL     1     -23.947  24.346  -1.473  1.00  0.00     0.136 C 
BRANCH  27  28
HETATM   28  N7  UNL     1     -23.422  23.031  -1.490  1.00  0.00    -0.407 N 
HETATM   29  C12 UNL     1     -23.222  22.414  -2.750  1.00  0.00     0.143 C 
HETATM   30  C13 UNL     1     -24.217  21.322  -3.063  1.00  0.00     0.187 C 
HETATM   31  O3  UNL     1     -24.380  20.431  -2.019  1.00  0.00    -0.388 OA
HETATM   32  C14 UNL     1     -23.664  20.742  -0.889  1.00  0.00     0.187 C 
HETATM   33  C15 UNL     1     -23.854  22.181  -0.436  1.00  0.00     0.143 C 
ENDBRANCH  27  28
ENDBRANCH  26  27
ENDBRANCH  24  26
ENDBRANCH   3  24
BRANCH   6  34
HETATM   34  N9  UNL     1     -27.840  28.520  -0.094  1.00  0.00    -0.234 N 
ATOM     35  H92 UNL     1     -28.412  27.832  -0.584  1.00  0.00     0.174 HD
ATOM     36  H91 UNL     1     -28.137  29.496  -0.076  1.00  0.00     0.174 HD
ENDBRANCH   6  34
TORSDOF 8
ENDMDL
MODEL 5
REMARK VINA RESULT: -6.887737547      1.961      3.104
REMARK  8 active torsions:
REMARK  status: ('A' for Active; 'I' for Inactive)
REMARK    1  A    between atoms: C4_11  and  C5_12 
REMARK    2  A    between atoms: C4_11  and  C7_16 
REMARK    3  A    between atoms: C5_12  and  C6_13 
REMARK    4  A    between atoms: C9_18  and  N6_19 
REMARK    5  A    between atoms: N6_19  and  C10_21 
REMARK    6  A    between atoms: C10_21  and  C11_22 
REMARK    7  A    between atoms: C11_22  and  N7_23 
REMARK    8  A    between atoms: C16_31  and  N9_32 
ROOT
HETATM    1  C7  UNL     1     -24.757  28.666   1.894  1.00  0.00     0.079 A 
HETATM    2  C8  UNL     1     -25.916  29.052   1.262  1.00  0.00     0.079 A 
HETATM    3  C9  UNL     1     -26.432  28.242   0.272  1.00  0.00     0.118 A 
HETATM    4  N8  UNL     1     -25.828  27.117  -0.067  1.00  0.00    -0.177 N 
ATOM      5  H8  UNL     1     -26.223  26.529  -0.802  1.00  0.00     0.185 HD
HETATM    6  C16 UNL     1     -24.696  26.745   0.555  1.00  0.00     0.677 A 
HETATM    7  N10 UNL     1     -24.182  27.534   1.529  1.00  0.00    -0.191 N 
ATOM      8  H10 UNL     1     -23.323  27.244   1.997  1.00  0.00     0.184 HD
ENDROOT
BRANCH   1   9
HETATM    9  C4  UNL     1     -24.181  29.550   2.983  1.00  0.00     0.164 A 
HETATM   10  N1  UNL     1     -23.919  30.859   2.434  1.00  0.00    -0.327 N 
HETATM   11  C1  UNL     1     -22.863  31.088   1.460  1.00  0.00     0.155 C 
HETATM   12  C2  UNL     1     -24.684  32.011   2.816  1.00  0.00     0.194 A 
HETATM   13  N2  UNL     1     -24.429  33.285   2.242  1.00  0.00    -0.063 NA
HETATM   14  N3  UNL     1     -25.617  31.912   3.690  1.00  0.00    -0.305 N 
HETATM   15  C3  UNL     1     -25.910  30.663   4.286  1.00  0.00     0.192 A 
ATOM     16  H3  UNL     1     -26.152  32.739   3.956  1.00  0.00     0.171 HD
HETATM   17  N4  UNL     1     -26.938  30.544   5.262  1.00  0.00    -0.063 NA
HETATM   18  N5  UNL     1     -25.249  29.639   3.947  1.00  0.00    -0.332 N 
ATOM     19  H5  UNL     1     -25.503  28.768   4.414  1.00  0.00     0.165 HD
BRANCH   9  20
HETATM   20  C5  UNL     1     -23.001  28.907   3.606  1.00  0.00     0.174 C 
BRANCH  20  21
HETATM   21  C6  UNL     1     -22.461  29.551   4.806  1.00  0.00     0.177 C 
HETATM   22  O1  UNL     1     -22.950  29.440   5.944  1.00  0.00    -0.648 OA
HETATM   23  O2  UNL     1     -21.308  30.370   4.744  1.00  0.00    -0.648 OA
ENDBRANCH  20  21
ENDBRANCH   9  20
ENDBRANCH   1   9
BRANCH   3  24
HETATM   24  N6  UNL     1     -27.517  28.630  -0.303  1.00  0.00    -0.374 N 
ATOM     25  H6  UNL     1     -28.307  27.986  -0.302  1.00  0.00     0.161 HD
BRANCH  24  26
HETATM   26  C10 UNL     1     -27.695  29.903  -0.948  1.00  0.00     0.140 C 
BRANCH  26  27
HETATM   27  C11 UNL     1     -26.931  29.924  -2.251  1.00  0.00     0.136 C 
BRANCH  27  28
HETATM   28  N7  UNL     1     -26.127  31.073  -2.443  1.00  0.00    -0.407 N 
HETATM   29  C12 UNL     1     -25.150  31.033  -3.468  1.00  0.00     0.143 C 
HETATM   30  C13 UNL     1     -23.732  30.924  -2.961  1.00  0.00     0.187 C 
HETATM   31  O3  UNL     1     -23.453  31.827  -1.953  1.00  0.00    -0.388 OA
HETATM   32  C14 UNL     1     -24.524  32.596  -1.566  1.00  0.00     0.187 C 
HETATM   33  C15 UNL     1     -25.769  31.780  -1.262  1.00  0.00     0.143 C 
ENDBRANCH  27  28
ENDBRANCH  26  27
ENDBRANCH  24  26
ENDBRANCH   3  24
BRANCH   6  34
HETATM   34  N9  UNL     1     -24.074  25.653   0.252  1.00  0.00    -0.234 N 
ATOM     35  H92 UNL     1     -24.222  24.830   0.836  1.00  0.00     0.174 HD
ATOM     36  H91 UNL     1     -23.443  25.594  -0.547  1.00  0.00     0.174 HD
ENDBRANCH   6  34
TORSDOF 8
ENDMDL
