MODEL 1
REMARK VINA RESULT: -5.833977969      0.000      0.000
REMARK  11 active torsions:
REMARK  status: ('A' for Active; 'I' for Inactive)
REMARK    1  A    between atoms: S1_2  and  C2_3 
REMARK    2  A    between atoms: C2_3  and  C3_4 
REMARK    3  A    between atoms: C3_4  and  N1_5 
REMARK    4  A    between atoms: C3_4  and  C4_9 
REMARK       I    between atoms: C4_9  and  N2_11 
REMARK    5  A    between atoms: N2_11  and  C5_13 
REMARK    6  A    between atoms: C5_13  and  C6_14 
REMARK    7  A    between atoms: C11_21  and  O4_22 
REMARK    8  A    between atoms: C12_24  and  O5_25 
REMARK    9  A    between atoms: C14_29  and  C15_30 
REMARK   10  A    between atoms: C15_30  and  O7_31 
REMARK   11  A    between atoms: C16_33  and  O8_34 
ROOT
HETATM    1  C6  UNL     1     -25.211  27.789   0.283  1.00  0.00     0.153 C 
HETATM    2  O2  UNL     1     -26.468  28.376   0.349  1.00  0.00    -0.334 OA
HETATM    3  C7  UNL     1     -26.426  29.644  -0.166  1.00  0.00     0.159 C 
HETATM    4  C8  UNL     1     -27.063  30.703   0.747  1.00  0.00     0.078 C 
HETATM    5  C9  UNL     1     -27.179  29.787  -1.486  1.00  0.00     0.078 C 
HETATM    6  O3  UNL     1     -25.100  29.944  -0.410  1.00  0.00    -0.344 OA
HETATM    7  C10 UNL     1     -24.446  28.733  -0.591  1.00  0.00     0.199 C 
HETATM    8  C11 UNL     1     -24.424  28.302  -2.028  1.00  0.00     0.190 C 
HETATM    9  C12 UNL     1     -23.636  27.006  -2.043  1.00  0.00     0.143 C 
HETATM   10  C13 UNL     1     -23.981  26.173  -3.256  1.00  0.00     0.213 C 
HETATM   11  O6  UNL     1     -24.956  25.571  -2.491  1.00  0.00    -0.369 OA
HETATM   12  C14 UNL     1     -24.341  25.936  -1.262  1.00  0.00     0.146 C 
HETATM   13  C16 UNL     1     -25.272  26.377  -0.233  1.00  0.00     0.201 C 
ENDROOT
BRANCH   1  14
HETATM   14  C5  UNL     1     -24.511  27.753   1.608  1.00  0.00     0.107 C 
BRANCH  14  15
HETATM   15  N2  UNL     1     -23.835  28.884   2.089  1.00  0.00    -0.336 N 
HETATM   16  C4  UNL     1     -24.133  29.789   3.118  1.00  0.00     0.252 C 
HETATM   17  O1  UNL     1     -25.157  29.675   3.799  1.00  0.00    -0.271 OA
ATOM     18  H2  UNL     1     -22.964  29.087   1.599  1.00  0.00     0.168 HD
BRANCH  16  19
HETATM   19  C3  UNL     1     -23.246  30.929   3.452  1.00  0.00     0.284 C 
BRANCH  19  20
HETATM   20  C2  UNL     1     -23.863  32.257   3.090  1.00  0.00     0.116 C 
BRANCH  20  21
HETATM   21  S1  UNL     1     -23.577  32.662   1.354  1.00  0.00    -0.171 SA
HETATM   22  C1  UNL     1     -22.092  31.835   0.760  1.00  0.00     0.089 C 
ENDBRANCH  20  21
ENDBRANCH  19  20
BRANCH  19  23
HETATM   23  N1  UNL     1     -22.938  30.941   4.864  1.00  0.00    -0.066 N 
ATOM     24  H13 UNL     1     -22.834  31.886   5.236  1.00  0.00     0.275 HD
ATOM     25  H12 UNL     1     -23.727  30.651   5.441  1.00  0.00     0.275 HD
ATOM     26  H11 UNL     1     -22.108  30.366   5.016  1.00  0.00     0.275 HD
ENDBRANCH  19  23
ENDBRANCH  16  19
ENDBRANCH  14  15
ENDBRANCH   1  14
BRANCH  13  27
HETATM   27  O8  UNL     1     -25.269  25.468   0.819  1.00  0.00    -0.389 OA
ATOM     28  H8  UNL     1     -24.600  24.805   0.689  1.00  0.00     0.210 HD
ENDBRANCH  13  27
BRANCH   8  29
HETATM   29  O4  UNL     1     -23.714  29.236  -2.776  1.00  0.00    -0.390 OA
ATOM     30  H4  UNL     1     -23.494  29.978  -2.225  1.00  0.00     0.210 HD
ENDBRANCH   8  29
BRANCH  12  31
HETATM   31  C15 UNL     1     -23.356  24.840  -0.927  1.00  0.00     0.208 C 
BRANCH  31  32
HETATM   32  O7  UNL     1     -23.962  23.593  -0.746  1.00  0.00    -0.398 OA
ATOM     33  H7  UNL     1     -23.423  22.869  -1.042  1.00  0.00     0.209 HD
ENDBRANCH  31  32
ENDBRANCH  12  31
BRANCH   9  34
HETATM   34  O5  UNL     1     -22.287  27.151  -1.878  1.00  0.00    -0.382 OA
ATOM     35  H5  UNL     1     -21.770  26.992  -2.659  1.00  0.00     0.211 HD
ENDBRANCH   9  34
TORSDOF 11
ENDMDL
MODEL 2
REMARK VINA RESULT: -5.824597643      2.046      4.080
REMARK  11 active torsions:
REMARK  status: ('A' for Active; 'I' for Inactive)
REMARK    1  A    between atoms: S1_2  and  C2_3 
REMARK    2  A    between atoms: C2_3  and  C3_4 
REMARK    3  A    between atoms: C3_4  and  N1_5 
REMARK    4  A    between atoms: C3_4  and  C4_9 
REMARK       I    between atoms: C4_9  and  N2_11 
REMARK    5  A    between atoms: N2_11  and  C5_13 
REMARK    6  A    between atoms: C5_13  and  C6_14 
REMARK    7  A    between atoms: C11_21  and  O4_22 
REMARK    8  A    between atoms: C12_24  and  O5_25 
REMARK    9  A    between atoms: C14_29  and  C15_30 
REMARK   10  A    between atoms: C15_30  and  O7_31 
REMARK   11  A    between atoms: C16_33  and  O8_34 
ROOT
HETATM    1  C6  UNL     1     -24.725  28.396  -2.417  1.00  0.00     0.153 C 
HETATM    2  O2  UNL     1     -24.698  28.079  -3.770  1.00  0.00    -0.334 OA
HETATM    3  C7  UNL     1     -23.524  27.449  -4.085  1.00  0.00     0.159 C 
HETATM    4  C8  UNL     1     -22.811  28.046  -5.308  1.00  0.00     0.078 C 
HETATM    5  C9  UNL     1     -23.704  25.975  -4.440  1.00  0.00     0.078 C 
HETATM    6  O3  UNL     1     -22.712  27.511  -2.969  1.00  0.00    -0.344 OA
HETATM    7  C10 UNL     1     -23.554  27.639  -1.873  1.00  0.00     0.199 C 
HETATM    8  C11 UNL     1     -23.945  26.311  -1.291  1.00  0.00     0.190 C 
HETATM    9  C12 UNL     1     -24.810  26.642  -0.090  1.00  0.00     0.143 C 
HETATM   10  C13 UNL     1     -25.716  25.486   0.264  1.00  0.00     0.213 C 
HETATM   11  O6  UNL     1     -26.659  26.047  -0.568  1.00  0.00    -0.369 OA
HETATM   12  C14 UNL     1     -26.070  27.340  -0.507  1.00  0.00     0.146 C 
HETATM   13  C16 UNL     1     -26.042  28.047  -1.780  1.00  0.00     0.201 C 
ENDROOT
BRANCH   1  14
HETATM   14  C5  UNL     1     -24.468  29.849  -2.152  1.00  0.00     0.107 C 
BRANCH  14  15
HETATM   15  N2  UNL     1     -24.028  30.277  -0.890  1.00  0.00    -0.336 N 
HETATM   16  C4  UNL     1     -24.663  30.998   0.131  1.00  0.00     0.252 C 
HETATM   17  O1  UNL     1     -25.830  31.386   0.015  1.00  0.00    -0.271 OA
ATOM     18  H2  UNL     1     -23.065  30.016  -0.676  1.00  0.00     0.168 HD
BRANCH  16  19
HETATM   19  C3  UNL     1     -23.983  31.335   1.404  1.00  0.00     0.284 C 
BRANCH  19  20
HETATM   20  C2  UNL     1     -24.872  31.119   2.602  1.00  0.00     0.116 C 
BRANCH  20  21
HETATM   21  S1  UNL     1     -24.370  29.657   3.536  1.00  0.00    -0.171 SA
HETATM   22  C1  UNL     1     -23.539  30.148   5.056  1.00  0.00     0.089 C 
ENDBRANCH  20  21
ENDBRANCH  19  20
BRANCH  19  23
HETATM   23  N1  UNL     1     -22.789  30.537   1.574  1.00  0.00    -0.066 N 
ATOM     24  H13 UNL     1     -22.226  30.487   0.725  1.00  0.00     0.275 HD
ATOM     25  H12 UNL     1     -22.097  30.986   2.173  1.00  0.00     0.275 HD
ATOM     26  H11 UNL     1     -23.066  29.616   1.915  1.00  0.00     0.275 HD
ENDBRANCH  19  23
ENDBRANCH  16  19
ENDBRANCH  14  15
ENDBRANCH   1  14
BRANCH  13  27
HETATM   27  O8  UNL     1     -26.867  29.164  -1.712  1.00  0.00    -0.389 OA
ATOM     28  H8  UNL     1     -27.597  29.080  -2.314  1.00  0.00     0.210 HD
ENDBRANCH  13  27
BRANCH   8  29
HETATM   29  O4  UNL     1     -22.806  25.662  -0.826  1.00  0.00    -0.390 OA
ATOM     30  H4  UNL     1     -22.838  24.748  -1.085  1.00  0.00     0.210 HD
ENDBRANCH   8  29
BRANCH  12  31
HETATM   31  C15 UNL     1     -26.672  28.034   0.694  1.00  0.00     0.208 C 
BRANCH  31  32
HETATM   32  O7  UNL     1     -28.039  28.286   0.555  1.00  0.00    -0.398 OA
ATOM     33  H7  UNL     1     -28.232  28.953  -0.093  1.00  0.00     0.209 HD
ENDBRANCH  31  32
ENDBRANCH  12  31
BRANCH   9  34
HETATM   34  O5  UNL     1     -24.129  27.121   0.994  1.00  0.00    -0.382 OA
ATOM     35  H5  UNL     1     -24.600  27.066   1.818  1.00  0.00     0.211 HD
ENDBRANCH   9  34
TORSDOF 11
ENDMDL
MODEL 3
REMARK VINA RESULT: -5.774204730      1.988      4.209
REMARK  11 active torsions:
REMARK  status: ('A' for Active; 'I' for Inactive)
REMARK    1  A    between atoms: S1_2  and  C2_3 
REMARK    2  A    between atoms: C2_3  and  C3_4 
REMARK    3  A    between atoms: C3_4  and  N1_5 
REMARK    4  A    between atoms: C3_4  and  C4_9 
REMARK       I    between atoms: C4_9  and  N2_11 
REMARK    5  A    between atoms: N2_11  and  C5_13 
REMARK    6  A    between atoms: C5_13  and  C6_14 
REMARK    7  A    between atoms: C11_21  and  O4_22 
REMARK    8  A    between atoms: C12_24  and  O5_25 
REMARK    9  A    between atoms: C14_29  and  C15_30 
REMARK   10  A    between atoms: C15_30  and  O7_31 
REMARK   11  A    between atoms: C16_33  and  O8_34 
ROOT
HETATM    1  C6  UNL     1     -24.589  28.084  -2.645  1.00  0.00     0.153 C 
HETATM    2  O2  UNL     1     -24.622  27.596  -3.945  1.00  0.00    -0.334 OA
HETATM    3  C7  UNL     1     -23.510  26.838  -4.196  1.00  0.00     0.159 C 
HETATM    4  C8  UNL     1     -22.784  27.216  -5.497  1.00  0.00     0.078 C 
HETATM    5  C9  UNL     1     -23.812  25.351  -4.355  1.00  0.00     0.078 C 
HETATM    6  O3  UNL     1     -22.667  26.976  -3.110  1.00  0.00    -0.344 OA
HETATM    7  C10 UNL     1     -23.467  27.310  -2.026  1.00  0.00     0.199 C 
HETATM    8  C11 UNL     1     -23.944  26.103  -1.272  1.00  0.00     0.190 C 
HETATM    9  C12 UNL     1     -24.750  26.653  -0.110  1.00  0.00     0.143 C 
HETATM   10  C13 UNL     1     -25.733  25.628   0.405  1.00  0.00     0.213 C 
HETATM   11  O6  UNL     1     -26.651  26.153  -0.479  1.00  0.00    -0.369 OA
HETATM   12  C14 UNL     1     -25.962  27.392  -0.594  1.00  0.00     0.146 C 
HETATM   13  C16 UNL     1     -25.912  27.926  -1.947  1.00  0.00     0.201 C 
ENDROOT
BRANCH   1  14
HETATM   14  C5  UNL     1     -24.214  29.533  -2.573  1.00  0.00     0.107 C 
BRANCH  14  15
HETATM   15  N2  UNL     1     -23.595  30.055  -1.427  1.00  0.00    -0.336 N 
HETATM   16  C4  UNL     1     -24.046  30.936  -0.435  1.00  0.00     0.252 C 
HETATM   17  O1  UNL     1     -25.185  31.414  -0.467  1.00  0.00    -0.271 OA
ATOM     18  H2  UNL     1     -22.636  29.732  -1.291  1.00  0.00     0.168 HD
BRANCH  16  19
HETATM   19  C3  UNL     1     -23.194  31.347   0.706  1.00  0.00     0.284 C 
BRANCH  19  20
HETATM   20  C2  UNL     1     -23.723  32.578   1.400  1.00  0.00     0.116 C 
BRANCH  20  21
HETATM   21  S1  UNL     1     -24.392  32.176   3.029  1.00  0.00    -0.171 SA
HETATM   22  C1  UNL     1     -26.149  31.805   2.903  1.00  0.00     0.089 C 
ENDBRANCH  20  21
ENDBRANCH  19  20
BRANCH  19  23
HETATM   23  N1  UNL     1     -23.096  30.284   1.681  1.00  0.00    -0.066 N 
ATOM     24  H13 UNL     1     -22.181  29.833   1.680  1.00  0.00     0.275 HD
ATOM     25  H12 UNL     1     -23.078  30.630   2.641  1.00  0.00     0.275 HD
ATOM     26  H11 UNL     1     -23.858  29.626   1.515  1.00  0.00     0.275 HD
ENDBRANCH  19  23
ENDBRANCH  16  19
ENDBRANCH  14  15
ENDBRANCH   1  14
BRANCH  13  27
HETATM   27  O8  UNL     1     -26.646  29.105  -2.011  1.00  0.00    -0.389 OA
ATOM     28  H8  UNL     1     -26.076  29.861  -1.927  1.00  0.00     0.210 HD
ENDBRANCH  13  27
BRANCH   8  29
HETATM   29  O4  UNL     1     -22.848  25.429  -0.744  1.00  0.00    -0.390 OA
ATOM     30  H4  UNL     1     -22.979  25.299   0.187  1.00  0.00     0.210 HD
ENDBRANCH   8  29
BRANCH  12  31
HETATM   31  C15 UNL     1     -26.477  28.279   0.517  1.00  0.00     0.208 C 
BRANCH  31  32
HETATM   32  O7  UNL     1     -27.864  28.448   0.487  1.00  0.00    -0.398 OA
ATOM     33  H7  UNL     1     -28.161  29.189   1.001  1.00  0.00     0.209 HD
ENDBRANCH  31  32
ENDBRANCH  12  31
BRANCH   9  34
HETATM   34  O5  UNL     1     -24.006  27.210   0.893  1.00  0.00    -0.382 OA
ATOM     35  H5  UNL     1     -24.045  26.748   1.723  1.00  0.00     0.211 HD
ENDBRANCH   9  34
TORSDOF 11
ENDMDL
MODEL 4
REMARK VINA RESULT: -5.702376180      1.907      3.947
REMARK  11 active torsions:
REMARK  status: ('A' for Active; 'I' for Inactive)
REMARK    1  A    between atoms: S1_2  and  C2_3 
REMARK    2  A    between atoms: C2_3  and  C3_4 
REMARK    3  A    between atoms: C3_4  and  N1_5 
REMARK    4  A    between atoms: C3_4  and  C4_9 
REMARK       I    between atoms: C4_9  and  N2_11 
REMARK    5  A    between atoms: N2_11  and  C5_13 
REMARK    6  A    between atoms: C5_13  and  C6_14 
REMARK    7  A    between atoms: C11_21  and  O4_22 
REMARK    8  A    between atoms: C12_24  and  O5_25 
REMARK    9  A    between atoms: C14_29  and  C15_30 
REMARK   10  A    between atoms: C15_30  and  O7_31 
REMARK   11  A    between atoms: C16_33  and  O8_34 
ROOT
HETATM    1  C6  UNL     1     -24.649  28.341  -2.438  1.00  0.00     0.153 C 
HETATM    2  O2  UNL     1     -24.648  28.016  -3.788  1.00  0.00    -0.334 OA
HETATM    3  C7  UNL     1     -23.501  27.342  -4.113  1.00  0.00     0.159 C 
HETATM    4  C8  UNL     1     -22.781  27.907  -5.347  1.00  0.00     0.078 C 
HETATM    5  C9  UNL     1     -23.736  25.874  -4.458  1.00  0.00     0.078 C 
HETATM    6  O3  UNL     1     -22.675  27.381  -3.006  1.00  0.00    -0.344 OA
HETATM    7  C10 UNL     1     -23.500  27.545  -1.902  1.00  0.00     0.199 C 
HETATM    8  C11 UNL     1     -23.930  26.235  -1.308  1.00  0.00     0.190 C 
HETATM    9  C12 UNL     1     -24.770  26.603  -0.100  1.00  0.00     0.143 C 
HETATM   10  C13 UNL     1     -25.712  25.481   0.271  1.00  0.00     0.213 C 
HETATM   11  O6  UNL     1     -26.644  26.072  -0.554  1.00  0.00    -0.369 OA
HETATM   12  C14 UNL     1     -26.009  27.343  -0.507  1.00  0.00     0.146 C 
HETATM   13  C16 UNL     1     -25.970  28.041  -1.784  1.00  0.00     0.201 C 
ENDROOT
BRANCH   1  14
HETATM   14  C5  UNL     1     -24.338  29.785  -2.183  1.00  0.00     0.107 C 
BRANCH  14  15
HETATM   15  N2  UNL     1     -23.832  30.198  -0.942  1.00  0.00    -0.336 N 
HETATM   16  C4  UNL     1     -24.404  30.927   0.110  1.00  0.00     0.252 C 
HETATM   17  O1  UNL     1     -25.566  31.341   0.049  1.00  0.00    -0.271 OA
ATOM     18  H2  UNL     1     -22.866  29.916  -0.774  1.00  0.00     0.168 HD
BRANCH  16  19
HETATM   19  C3  UNL     1     -23.658  31.245   1.351  1.00  0.00     0.284 C 
BRANCH  19  20
HETATM   20  C2  UNL     1     -24.506  31.989   2.352  1.00  0.00     0.116 C 
BRANCH  20  21
HETATM   21  S1  UNL     1     -24.099  33.748   2.378  1.00  0.00    -0.171 SA
HETATM   22  C1  UNL     1     -23.060  34.165   0.969  1.00  0.00     0.089 C 
ENDBRANCH  20  21
ENDBRANCH  19  20
BRANCH  19  23
HETATM   23  N1  UNL     1     -23.169  30.038   1.978  1.00  0.00    -0.066 N 
ATOM     24  H13 UNL     1     -22.865  30.190   2.940  1.00  0.00     0.275 HD
ATOM     25  H12 UNL     1     -23.913  29.367   2.172  1.00  0.00     0.275 HD
ATOM     26  H11 UNL     1     -22.432  29.647   1.390  1.00  0.00     0.275 HD
ENDBRANCH  19  23
ENDBRANCH  16  19
ENDBRANCH  14  15
ENDBRANCH   1  14
BRANCH  13  27
HETATM   27  O8  UNL     1     -26.755  29.187  -1.714  1.00  0.00    -0.389 OA
ATOM     28  H8  UNL     1     -27.270  29.193  -0.915  1.00  0.00     0.210 HD
ENDBRANCH  13  27
BRANCH   8  29
HETATM   29  O4  UNL     1     -22.810  25.548  -0.851  1.00  0.00    -0.390 OA
ATOM     30  H4  UNL     1     -23.068  24.676  -0.579  1.00  0.00     0.210 HD
ENDBRANCH   8  29
BRANCH  12  31
HETATM   31  C15 UNL     1     -26.573  28.064   0.696  1.00  0.00     0.208 C 
BRANCH  31  32
HETATM   32  O7  UNL     1     -27.937  28.342   0.581  1.00  0.00    -0.398 OA
ATOM     33  H7  UNL     1     -28.115  29.210   0.239  1.00  0.00     0.209 HD
ENDBRANCH  31  32
ENDBRANCH  12  31
BRANCH   9  34
HETATM   34  O5  UNL     1     -24.061  27.063   0.975  1.00  0.00    -0.382 OA
ATOM     35  H5  UNL     1     -24.165  26.553   1.770  1.00  0.00     0.211 HD
ENDBRANCH   9  34
TORSDOF 11
ENDMDL
MODEL 5
REMARK VINA RESULT: -5.691866071      2.749      5.884
REMARK  11 active torsions:
REMARK  status: ('A' for Active; 'I' for Inactive)
REMARK    1  A    between atoms: S1_2  and  C2_3 
REMARK    2  A    between atoms: C2_3  and  C3_4 
REMARK    3  A    between atoms: C3_4  and  N1_5 
REMARK    4  A    between atoms: C3_4  and  C4_9 
REMARK       I    between atoms: C4_9  and  N2_11 
REMARK    5  A    between atoms: N2_11  and  C5_13 
REMARK    6  A    between atoms: C5_13  and  C6_14 
REMARK    7  A    between atoms: C11_21  and  O4_22 
REMARK    8  A    between atoms: C12_24  and  O5_25 
REMARK    9  A    between atoms: C14_29  and  C15_30 
REMARK   10  A    between atoms: C15_30  and  O7_31 
REMARK   11  A    between atoms: C16_33  and  O8_34 
ROOT
HETATM    1  C6  UNL     1     -25.282  28.802   1.704  1.00  0.00     0.153 C 
HETATM    2  O2  UNL     1     -25.150  28.572   3.068  1.00  0.00    -0.334 OA
HETATM    3  C7  UNL     1     -23.945  29.045   3.513  1.00  0.00     0.159 C 
HETATM    4  C8  UNL     1     -23.155  28.029   4.354  1.00  0.00     0.078 C 
HETATM    5  C9  UNL     1     -24.070  30.265   4.422  1.00  0.00     0.078 C 
HETATM    6  O3  UNL     1     -23.218  29.428   2.402  1.00  0.00    -0.344 OA
HETATM    7  C10 UNL     1     -24.141  29.724   1.408  1.00  0.00     0.199 C 
HETATM    8  C11 UNL     1     -24.548  31.169   1.415  1.00  0.00     0.190 C 
HETATM    9  C12 UNL     1     -25.505  31.318   0.247  1.00  0.00     0.143 C 
HETATM   10  C13 UNL     1     -26.413  32.511   0.436  1.00  0.00     0.213 C 
HETATM   11  O6  UNL     1     -27.303  31.661   1.055  1.00  0.00    -0.369 OA
HETATM   12  C14 UNL     1     -26.744  30.499   0.456  1.00  0.00     0.146 C 
HETATM   13  C16 UNL     1     -26.636  29.356   1.351  1.00  0.00     0.201 C 
ENDROOT
BRANCH   1  14
HETATM   14  C5  UNL     1     -25.073  27.567   0.880  1.00  0.00     0.107 C 
BRANCH  14  15
HETATM   15  N2  UNL     1     -24.638  27.662  -0.451  1.00  0.00    -0.336 N 
HETATM   16  C4  UNL     1     -24.523  26.708  -1.472  1.00  0.00     0.252 C 
HETATM   17  O1  UNL     1     -24.830  25.526  -1.285  1.00  0.00    -0.271 OA
ATOM     18  H2  UNL     1     -24.351  28.601  -0.727  1.00  0.00     0.168 HD
BRANCH  16  19
HETATM   19  C3  UNL     1     -24.032  27.053  -2.827  1.00  0.00     0.284 C 
BRANCH  19  20
HETATM   20  C2  UNL     1     -23.947  25.846  -3.728  1.00  0.00     0.116 C 
BRANCH  20  21
HETATM   21  S1  UNL     1     -23.390  26.303  -5.384  1.00  0.00    -0.171 SA
HETATM   22  C1  UNL     1     -21.851  27.232  -5.286  1.00  0.00     0.089 C 
ENDBRANCH  20  21
ENDBRANCH  19  20
BRANCH  19  23
HETATM   23  N1  UNL     1     -24.898  28.027  -3.453  1.00  0.00    -0.066 N 
ATOM     24  H13 UNL     1     -24.603  28.263  -4.400  1.00  0.00     0.275 HD
ATOM     25  H12 UNL     1     -25.816  27.646  -3.684  1.00  0.00     0.275 HD
ATOM     26  H11 UNL     1     -24.954  28.844  -2.844  1.00  0.00     0.275 HD
ENDBRANCH  19  23
ENDBRANCH  16  19
ENDBRANCH  14  15
ENDBRANCH   1  14
BRANCH  13  27
HETATM   27  O8  UNL     1     -27.485  28.343   0.920  1.00  0.00    -0.389 OA
ATOM     28  H8  UNL     1     -28.203  28.223   1.530  1.00  0.00     0.210 HD
ENDBRANCH  13  27
BRANCH   8  29
HETATM   29  O4  UNL     1     -23.434  31.960   1.152  1.00  0.00    -0.390 OA
ATOM     30  H4  UNL     1     -23.248  32.500   1.911  1.00  0.00     0.210 HD
ENDBRANCH   8  29
BRANCH  12  31
HETATM   31  C15 UNL     1     -27.445  30.316  -0.871  1.00  0.00     0.208 C 
BRANCH  31  32
HETATM   32  O7  UNL     1     -26.954  29.235  -1.608  1.00  0.00    -0.398 OA
ATOM     33  H7  UNL     1     -27.422  28.426  -1.441  1.00  0.00     0.209 HD
ENDBRANCH  31  32
ENDBRANCH  12  31
BRANCH   9  34
HETATM   34  O5  UNL     1     -24.915  31.303  -0.986  1.00  0.00    -0.382 OA
ATOM     35  H5  UNL     1     -25.323  31.868  -1.631  1.00  0.00     0.211 HD
ENDBRANCH   9  34
TORSDOF 11
ENDMDL
