MODEL 1
REMARK VINA RESULT: -8.266533074      0.000      0.000
REMARK  15 active torsions:
REMARK  status: ('A' for Active; 'I' for Inactive)
REMARK    1  A    between atoms: C2_2  and  C3_3 
REMARK    2  A    between atoms: C3_3  and  C4_4 
REMARK    3  A    between atoms: C4_4  and  N1_5 
REMARK    4  A    between atoms: N1_5  and  C5_7 
REMARK    5  A    between atoms: C8_12  and  O1_13 
REMARK    6  A    between atoms: C10_15  and  N3_16 
REMARK    7  A    between atoms: N3_16  and  C11_18 
REMARK    8  A    between atoms: C12_21  and  C13_22 
REMARK    9  A    between atoms: C13_22  and  N5_23 
REMARK   10  A    between atoms: C23_35  and  C24_36 
REMARK   11  A    between atoms: C24_36  and  O2_37 
REMARK   12  A    between atoms: C24_36  and  N7_39 
REMARK   13  A    between atoms: N7_39  and  C25_41 
REMARK   14  A    between atoms: C25_41  and  C26_42 
REMARK   15  A    between atoms: C26_42  and  N8_43 
ROOT
HETATM    1  C5  UNL     1      18.049  34.571  17.398  1.00  0.00     0.116 A 
HETATM    2  N2  UNL     1      19.046  33.759  16.897  1.00  0.00    -0.341 N 
ATOM      3  H2  UNL     1      20.015  34.065  16.982  1.00  0.00     0.167 HD
HETATM    4  C6  UNL     1      18.793  32.587  16.304  1.00  0.00     0.046 A 
HETATM    5  C7  UNL     1      19.797  31.777  15.806  1.00  0.00     0.069 A 
HETATM    6  C8  UNL     1      19.513  30.560  15.196  1.00  0.00     0.097 A 
HETATM    7  C10 UNL     1      18.209  30.129  15.073  1.00  0.00     0.068 A 
HETATM    8  C20 UNL     1      17.202  30.959  15.581  1.00  0.00     0.046 A 
HETATM    9  C21 UNL     1      17.482  32.173  16.190  1.00  0.00    -0.006 A 
HETATM   10  C22 UNL     1      16.490  32.979  16.689  1.00  0.00     0.033 A 
HETATM   11  C23 UNL     1      16.740  34.215  17.315  1.00  0.00     0.059 A 
ENDROOT
BRANCH   7  12
HETATM   12  N3  UNL     1      17.843  28.912  14.473  1.00  0.00    -0.334 N 
ATOM     13  H3  UNL     1      17.320  28.239  15.034  1.00  0.00     0.168 HD
BRANCH  12  14
HETATM   14  C11 UNL     1      18.129  28.594  13.253  1.00  0.00     0.149 A 
HETATM   15  N4  UNL     1      18.859  27.565  12.826  1.00  0.00    -0.338 N 
HETATM   16  C12 UNL     1      19.039  27.409  11.551  1.00  0.00     0.046 A 
ATOM     17  H4  UNL     1      19.271  26.910  13.492  1.00  0.00     0.168 HD
HETATM   18  C19 UNL     1      18.458  28.324  10.705  1.00  0.00     0.080 A 
HETATM   19  S1  UNL     1      17.676  29.371  11.806  1.00  0.00    -0.064 SA
BRANCH  16  20
HETATM   20  C13 UNL     1      19.848  26.284  10.930  1.00  0.00     0.330 C 
BRANCH  20  21
HETATM   21  N5  UNL     1      21.046  26.873  10.381  1.00  0.00     0.097 N 
HETATM   22  C14 UNL     1      21.742  27.554  11.482  1.00  0.00     0.303 C 
HETATM   23  C15 UNL     1      23.083  28.019  10.982  1.00  0.00     0.302 C 
HETATM   24  N6  UNL     1      23.961  26.913  10.710  1.00  0.00     0.087 N 
HETATM   25  C16 UNL     1      25.080  26.848  11.613  1.00  0.00     0.310 C 
HETATM   26  C17 UNL     1      23.201  25.690  10.671  1.00  0.00     0.302 C 
HETATM   27  C18 UNL     1      21.913  25.831   9.912  1.00  0.00     0.303 C 
ENDBRANCH  20  21
ENDBRANCH  16  20
ENDBRANCH  12  14
ENDBRANCH   7  12
BRANCH   6  28
HETATM   28  O1  UNL     1      20.531  29.760  14.702  1.00  0.00    -0.354 OA
HETATM   29  C9  UNL     1      21.620  30.362  13.988  1.00  0.00     0.210 C 
ENDBRANCH   6  28
BRANCH  11  30
HETATM   30  C24 UNL     1      15.618  34.981  17.832  1.00  0.00     0.150 C 
BRANCH  30  31
HETATM   31  O2  UNL     1      14.941  34.441  18.808  1.00  0.00    -0.346 OA
ATOM     32  H2  UNL     1      13.996  34.429  18.715  1.00  0.00     0.219 HD
ENDBRANCH  30  31
BRANCH  30  33
HETATM   33  N7  UNL     1      15.155  36.231  17.433  1.00  0.00    -0.369 N 
ATOM     34  H7  UNL     1      15.075  36.437  16.437  1.00  0.00     0.161 HD
BRANCH  33  35
HETATM   35  C25 UNL     1      14.783  37.251  18.401  1.00  0.00     0.152 C 
BRANCH  35  36
HETATM   36  C26 UNL     1      15.909  38.197  18.649  1.00  0.00     0.290 C 
BRANCH  36  37
HETATM   37  N8  UNL     1      16.188  38.991  17.447  1.00  0.00     0.081 N 
HETATM   38  C27 UNL     1      15.555  40.279  17.649  1.00  0.00     0.309 C 
HETATM   39  C28 UNL     1      17.613  39.172  17.275  1.00  0.00     0.309 C 
ENDBRANCH  36  37
ENDBRANCH  35  36
ENDBRANCH  33  35
ENDBRANCH  30  33
ENDBRANCH  11  30
BRANCH   1  40
HETATM   40  N1  UNL     1      18.389  35.678  17.928  1.00  0.00    -0.376 N 
ATOM     41  H1  UNL     1      17.762  36.465  17.763  1.00  0.00     0.161 HD
BRANCH  40  42
HETATM   42  C4  UNL     1      19.541  35.951  18.723  1.00  0.00     0.121 C 
BRANCH  42  43
HETATM   43  C3  UNL     1      20.506  36.907  18.050  1.00  0.00     0.019 C 
BRANCH  43  44
HETATM   44  C2  UNL     1      21.777  36.212  17.650  1.00  0.00    -0.003 C 
HETATM   45  C1  UNL     1      21.954  34.930  18.403  1.00  0.00     0.005 C 
ENDBRANCH  43  44
ENDBRANCH  42  43
ENDBRANCH  40  42
ENDBRANCH   1  40
TORSDOF 15
ENDMDL
MODEL 2
REMARK VINA RESULT: -8.249420596      2.340     11.147
REMARK  15 active torsions:
REMARK  status: ('A' for Active; 'I' for Inactive)
REMARK    1  A    between atoms: C2_2  and  C3_3 
REMARK    2  A    between atoms: C3_3  and  C4_4 
REMARK    3  A    between atoms: C4_4  and  N1_5 
REMARK    4  A    between atoms: N1_5  and  C5_7 
REMARK    5  A    between atoms: C8_12  and  O1_13 
REMARK    6  A    between atoms: C10_15  and  N3_16 
REMARK    7  A    between atoms: N3_16  and  C11_18 
REMARK    8  A    between atoms: C12_21  and  C13_22 
REMARK    9  A    between atoms: C13_22  and  N5_23 
REMARK   10  A    between atoms: C23_35  and  C24_36 
REMARK   11  A    between atoms: C24_36  and  O2_37 
REMARK   12  A    between atoms: C24_36  and  N7_39 
REMARK   13  A    between atoms: N7_39  and  C25_41 
REMARK   14  A    between atoms: C25_41  and  C26_42 
REMARK   15  A    between atoms: C26_42  and  N8_43 
ROOT
HETATM    1  C5  UNL     1      20.923  27.753  11.129  1.00  0.00     0.116 A 
HETATM    2  N2  UNL     1      21.457  28.769  11.895  1.00  0.00    -0.341 N 
ATOM      3  H2  UNL     1      22.355  29.166  11.622  1.00  0.00     0.167 HD
HETATM    4  C6  UNL     1      20.843  29.254  12.980  1.00  0.00     0.046 A 
HETATM    5  C7  UNL     1      21.383  30.273  13.742  1.00  0.00     0.069 A 
HETATM    6  C8  UNL     1      20.727  30.766  14.865  1.00  0.00     0.097 A 
HETATM    7  C10 UNL     1      19.511  30.242  15.248  1.00  0.00     0.068 A 
HETATM    8  C20 UNL     1      18.976  29.210  14.469  1.00  0.00     0.046 A 
HETATM    9  C21 UNL     1      19.627  28.717  13.347  1.00  0.00    -0.006 A 
HETATM   10  C22 UNL     1      19.094  27.707  12.586  1.00  0.00     0.033 A 
HETATM   11  C23 UNL     1      19.728  27.185  11.442  1.00  0.00     0.059 A 
ENDROOT
BRANCH   7  12
HETATM   12  N3  UNL     1      18.787  30.688  16.368  1.00  0.00    -0.334 N 
ATOM     13  H3  UNL     1      18.809  30.115  17.212  1.00  0.00     0.168 HD
BRANCH  12  14
HETATM   14  C11 UNL     1      18.094  31.779  16.392  1.00  0.00     0.149 A 
HETATM   15  N4  UNL     1      18.454  32.965  16.883  1.00  0.00    -0.338 N 
HETATM   16  C12 UNL     1      17.615  33.952  16.818  1.00  0.00     0.046 A 
ATOM     17  H4  UNL     1      19.375  33.094  17.303  1.00  0.00     0.168 HD
HETATM   18  C19 UNL     1      16.390  33.715  16.239  1.00  0.00     0.080 A 
HETATM   19  S1  UNL     1      16.517  32.064  15.817  1.00  0.00    -0.064 SA
BRANCH  16  20
HETATM   20  C13 UNL     1      17.894  35.350  17.338  1.00  0.00     0.330 C 
BRANCH  20  21
HETATM   21  N5  UNL     1      16.629  36.043  17.400  1.00  0.00     0.097 N 
HETATM   22  C14 UNL     1      16.272  36.173  18.820  1.00  0.00     0.303 C 
HETATM   23  C15 UNL     1      15.055  37.051  18.927  1.00  0.00     0.302 C 
HETATM   24  N6  UNL     1      15.348  38.411  18.565  1.00  0.00     0.087 N 
HETATM   25  C16 UNL     1      15.263  39.320  19.677  1.00  0.00     0.310 C 
HETATM   26  C17 UNL     1      16.618  38.470  17.889  1.00  0.00     0.302 C 
HETATM   27  C18 UNL     1      16.792  37.370  16.881  1.00  0.00     0.303 C 
ENDBRANCH  20  21
ENDBRANCH  16  20
ENDBRANCH  12  14
ENDBRANCH   7  12
BRANCH   6  28
HETATM   28  O1  UNL     1      21.282  31.788  15.619  1.00  0.00    -0.354 OA
HETATM   29  C9  UNL     1      21.612  33.033  14.987  1.00  0.00     0.210 C 
ENDBRANCH   6  28
BRANCH  11  30
HETATM   30  C24 UNL     1      19.066  26.132  10.690  1.00  0.00     0.150 C 
BRANCH  30  31
HETATM   31  O2  UNL     1      19.728  25.019  10.535  1.00  0.00    -0.346 OA
ATOM     32  H2  UNL     1      19.287  24.221  10.801  1.00  0.00     0.219 HD
ENDBRANCH  30  31
BRANCH  30  33
HETATM   33  N7  UNL     1      17.803  26.138  10.105  1.00  0.00    -0.369 N 
ATOM     34  H7  UNL     1      16.978  26.048  10.700  1.00  0.00     0.161 HD
BRANCH  33  35
HETATM   35  C25 UNL     1      17.629  26.270   8.668  1.00  0.00     0.152 C 
BRANCH  35  36
HETATM   36  C26 UNL     1      18.338  27.475   8.146  1.00  0.00     0.290 C 
BRANCH  36  37
HETATM   37  N8  UNL     1      18.954  27.186   6.845  1.00  0.00     0.081 N 
HETATM   38  C27 UNL     1      18.739  25.774   6.594  1.00  0.00     0.309 C 
HETATM   39  C28 UNL     1      18.328  27.966   5.800  1.00  0.00     0.309 C 
ENDBRANCH  36  37
ENDBRANCH  35  36
ENDBRANCH  33  35
ENDBRANCH  30  33
ENDBRANCH  11  30
BRANCH   1  40
HETATM   40  N1  UNL     1      21.592  27.346  10.124  1.00  0.00    -0.376 N 
ATOM     41  H1  UNL     1      21.057  27.158   9.276  1.00  0.00     0.161 HD
BRANCH  40  42
HETATM   42  C4  UNL     1      22.997  27.120  10.042  1.00  0.00     0.121 C 
BRANCH  42  43
HETATM   43  C3  UNL     1      23.447  25.916  10.847  1.00  0.00     0.019 C 
BRANCH  43  44
HETATM   44  C2  UNL     1      24.719  26.200  11.594  1.00  0.00    -0.003 C 
HETATM   45  C1  UNL     1      24.810  27.643  11.980  1.00  0.00     0.005 C 
ENDBRANCH  43  44
ENDBRANCH  42  43
ENDBRANCH  40  42
ENDBRANCH   1  40
TORSDOF 15
ENDMDL
MODEL 3
REMARK VINA RESULT: -8.243070040      2.359     11.298
REMARK  15 active torsions:
REMARK  status: ('A' for Active; 'I' for Inactive)
REMARK    1  A    between atoms: C2_2  and  C3_3 
REMARK    2  A    between atoms: C3_3  and  C4_4 
REMARK    3  A    between atoms: C4_4  and  N1_5 
REMARK    4  A    between atoms: N1_5  and  C5_7 
REMARK    5  A    between atoms: C8_12  and  O1_13 
REMARK    6  A    between atoms: C10_15  and  N3_16 
REMARK    7  A    between atoms: N3_16  and  C11_18 
REMARK    8  A    between atoms: C12_21  and  C13_22 
REMARK    9  A    between atoms: C13_22  and  N5_23 
REMARK   10  A    between atoms: C23_35  and  C24_36 
REMARK   11  A    between atoms: C24_36  and  O2_37 
REMARK   12  A    between atoms: C24_36  and  N7_39 
REMARK   13  A    between atoms: N7_39  and  C25_41 
REMARK   14  A    between atoms: C25_41  and  C26_42 
REMARK   15  A    between atoms: C26_42  and  N8_43 
ROOT
HETATM    1  C5  UNL     1      20.343  28.999  13.271  1.00  0.00     0.116 A 
HETATM    2  N2  UNL     1      20.824  30.115  13.924  1.00  0.00    -0.341 N 
ATOM      3  H2  UNL     1      21.797  30.122  14.228  1.00  0.00     0.167 HD
HETATM    4  C6  UNL     1      20.064  31.187  14.175  1.00  0.00     0.046 A 
HETATM    5  C7  UNL     1      20.552  32.303  14.828  1.00  0.00     0.069 A 
HETATM    6  C8  UNL     1      19.747  33.410  15.076  1.00  0.00     0.097 A 
HETATM    7  C10 UNL     1      18.429  33.418  14.670  1.00  0.00     0.068 A 
HETATM    8  C20 UNL     1      17.948  32.282  14.011  1.00  0.00     0.046 A 
HETATM    9  C21 UNL     1      18.748  31.177  13.762  1.00  0.00    -0.006 A 
HETATM   10  C22 UNL     1      18.270  30.068  13.111  1.00  0.00     0.033 A 
HETATM   11  C23 UNL     1      19.056  28.931  12.840  1.00  0.00     0.059 A 
ENDROOT
BRANCH   7  12
HETATM   12  N3  UNL     1      17.555  34.498  14.882  1.00  0.00    -0.334 N 
ATOM     13  H3  UNL     1      17.475  35.202  14.147  1.00  0.00     0.168 HD
BRANCH  12  14
HETATM   14  C11 UNL     1      16.846  34.655  15.951  1.00  0.00     0.149 A 
HETATM   15  N4  UNL     1      16.869  35.678  16.805  1.00  0.00    -0.338 N 
HETATM   16  C12 UNL     1      16.078  35.656  17.832  1.00  0.00     0.046 A 
ATOM     17  H4  UNL     1      17.500  36.466  16.653  1.00  0.00     0.168 HD
HETATM   18  C19 UNL     1      15.251  34.567  17.982  1.00  0.00     0.080 A 
HETATM   19  S1  UNL     1      15.666  33.624  16.618  1.00  0.00    -0.064 SA
BRANCH  16  20
HETATM   20  C13 UNL     1      16.003  36.751  18.881  1.00  0.00     0.330 C 
BRANCH  20  21
HETATM   21  N5  UNL     1      16.193  38.009  18.199  1.00  0.00     0.097 N 
HETATM   22  C14 UNL     1      15.032  38.855  18.512  1.00  0.00     0.303 C 
HETATM   23  C15 UNL     1      15.288  40.234  17.969  1.00  0.00     0.302 C 
HETATM   24  N6  UNL     1      16.345  40.899  18.682  1.00  0.00     0.087 N 
HETATM   25  C16 UNL     1      15.884  42.025  19.450  1.00  0.00     0.310 C 
HETATM   26  C17 UNL     1      17.071  39.940  19.475  1.00  0.00     0.302 C 
HETATM   27  C18 UNL     1      17.352  38.665  18.733  1.00  0.00     0.303 C 
ENDBRANCH  20  21
ENDBRANCH  16  20
ENDBRANCH  12  14
ENDBRANCH   7  12
BRANCH   6  28
HETATM   28  O1  UNL     1      20.252  34.521  15.733  1.00  0.00    -0.354 OA
HETATM   29  C9  UNL     1      20.656  34.409  17.104  1.00  0.00     0.210 C 
ENDBRANCH   6  28
BRANCH  11  30
HETATM   30  C24 UNL     1      18.458  27.818  12.121  1.00  0.00     0.150 C 
BRANCH  30  31
HETATM   31  O2  UNL     1      18.169  26.756  12.822  1.00  0.00    -0.346 OA
ATOM     32  H2  UNL     1      17.301  26.725  13.208  1.00  0.00     0.219 HD
ENDBRANCH  30  31
BRANCH  30  33
HETATM   33  N7  UNL     1      18.141  27.721  10.770  1.00  0.00    -0.369 N 
ATOM     34  H7  UNL     1      17.166  27.801  10.480  1.00  0.00     0.161 HD
BRANCH  33  35
HETATM   35  C25 UNL     1      19.165  27.508   9.760  1.00  0.00     0.152 C 
BRANCH  35  36
HETATM   36  C26 UNL     1      19.532  26.066   9.656  1.00  0.00     0.290 C 
BRANCH  36  37
HETATM   37  N8  UNL     1      20.933  25.863  10.044  1.00  0.00     0.081 N 
HETATM   38  C27 UNL     1      20.918  24.956  11.175  1.00  0.00     0.309 C 
HETATM   39  C28 UNL     1      21.682  25.271   8.957  1.00  0.00     0.309 C 
ENDBRANCH  36  37
ENDBRANCH  35  36
ENDBRANCH  33  35
ENDBRANCH  30  33
ENDBRANCH  11  30
BRANCH   1  40
HETATM   40  N1  UNL     1      21.139  28.019  13.096  1.00  0.00    -0.376 N 
ATOM     41  H1  UNL     1      20.764  27.094  13.307  1.00  0.00     0.161 HD
BRANCH  40  42
HETATM   42  C4  UNL     1      22.489  28.059  12.641  1.00  0.00     0.121 C 
BRANCH  42  43
HETATM   43  C3  UNL     1      22.605  28.432  11.176  1.00  0.00     0.019 C 
BRANCH  43  44
HETATM   44  C2  UNL     1      23.891  27.932  10.582  1.00  0.00    -0.003 C 
HETATM   45  C1  UNL     1      24.560  26.946  11.489  1.00  0.00     0.005 C 
ENDBRANCH  43  44
ENDBRANCH  42  43
ENDBRANCH  40  42
ENDBRANCH   1  40
TORSDOF 15
ENDMDL
MODEL 4
REMARK VINA RESULT: -8.157076824      1.236      1.401
REMARK  15 active torsions:
REMARK  status: ('A' for Active; 'I' for Inactive)
REMARK    1  A    between atoms: C2_2  and  C3_3 
REMARK    2  A    between atoms: C3_3  and  C4_4 
REMARK    3  A    between atoms: C4_4  and  N1_5 
REMARK    4  A    between atoms: N1_5  and  C5_7 
REMARK    5  A    between atoms: C8_12  and  O1_13 
REMARK    6  A    between atoms: C10_15  and  N3_16 
REMARK    7  A    between atoms: N3_16  and  C11_18 
REMARK    8  A    between atoms: C12_21  and  C13_22 
REMARK    9  A    between atoms: C13_22  and  N5_23 
REMARK   10  A    between atoms: C23_35  and  C24_36 
REMARK   11  A    between atoms: C24_36  and  O2_37 
REMARK   12  A    between atoms: C24_36  and  N7_39 
REMARK   13  A    between atoms: N7_39  and  C25_41 
REMARK   14  A    between atoms: C25_41  and  C26_42 
REMARK   15  A    between atoms: C26_42  and  N8_43 
ROOT
HETATM    1  C5  UNL     1      18.805  34.351  16.473  1.00  0.00     0.116 A 
HETATM    2  N2  UNL     1      19.642  33.263  16.335  1.00  0.00    -0.341 N 
ATOM      3  H2  UNL     1      20.609  33.347  16.647  1.00  0.00     0.167 HD
HETATM    4  C6  UNL     1      19.236  32.102  15.807  1.00  0.00     0.046 A 
HETATM    5  C7  UNL     1      20.080  31.016  15.673  1.00  0.00     0.069 A 
HETATM    6  C8  UNL     1      19.638  29.816  15.126  1.00  0.00     0.097 A 
HETATM    7  C10 UNL     1      18.333  29.684  14.699  1.00  0.00     0.068 A 
HETATM    8  C20 UNL     1      17.490  30.792  14.840  1.00  0.00     0.046 A 
HETATM    9  C21 UNL     1      17.928  31.989  15.387  1.00  0.00    -0.006 A 
HETATM   10  C22 UNL     1      17.094  33.070  15.525  1.00  0.00     0.033 A 
HETATM   11  C23 UNL     1      17.506  34.298  16.077  1.00  0.00     0.059 A 
ENDROOT
BRANCH   7  12
HETATM   12  N3  UNL     1      17.812  28.505  14.139  1.00  0.00    -0.334 N 
ATOM     13  H3  UNL     1      17.218  27.917  14.724  1.00  0.00     0.168 HD
BRANCH  12  14
HETATM   14  C11 UNL     1      18.040  28.119  12.926  1.00  0.00     0.149 A 
HETATM   15  N4  UNL     1      18.816  27.116  12.519  1.00  0.00    -0.338 N 
HETATM   16  C12 UNL     1      18.923  26.880  11.248  1.00  0.00     0.046 A 
ATOM     17  H4  UNL     1      19.318  26.541  13.197  1.00  0.00     0.168 HD
HETATM   18  C19 UNL     1      18.220  27.689  10.385  1.00  0.00     0.080 A 
HETATM   19  S1  UNL     1      17.437  28.756  11.466  1.00  0.00    -0.064 SA
BRANCH  16  20
HETATM   20  C13 UNL     1      19.771  25.773  10.649  1.00  0.00     0.330 C 
BRANCH  20  21
HETATM   21  N5  UNL     1      20.963  26.389  10.116  1.00  0.00     0.097 N 
HETATM   22  C14 UNL     1      21.560  27.189  11.195  1.00  0.00     0.303 C 
HETATM   23  C15 UNL     1      22.899  27.693  10.729  1.00  0.00     0.302 C 
HETATM   24  N6  UNL     1      23.849  26.623  10.586  1.00  0.00     0.087 N 
HETATM   25  C16 UNL     1      24.920  26.690  11.545  1.00  0.00     0.310 C 
HETATM   26  C17 UNL     1      23.161  25.358  10.603  1.00  0.00     0.302 C 
HETATM   27  C18 UNL     1      21.909  25.367   9.773  1.00  0.00     0.303 C 
ENDBRANCH  20  21
ENDBRANCH  16  20
ENDBRANCH  12  14
ENDBRANCH   7  12
BRANCH   6  28
HETATM   28  O1  UNL     1      20.496  28.736  14.998  1.00  0.00    -0.354 OA
HETATM   29  C9  UNL     1      21.677  28.862  14.194  1.00  0.00     0.210 C 
ENDBRANCH   6  28
BRANCH  11  30
HETATM   30  C24 UNL     1      16.536  35.373  16.202  1.00  0.00     0.150 C 
BRANCH  30  31
HETATM   31  O2  UNL     1      16.749  36.440  15.482  1.00  0.00    -0.346 OA
ATOM     32  H2  UNL     1      16.163  37.174  15.625  1.00  0.00     0.219 HD
ENDBRANCH  30  31
BRANCH  30  33
HETATM   33  N7  UNL     1      15.390  35.429  16.989  1.00  0.00    -0.369 N 
ATOM     34  H7  UNL     1      14.475  35.362  16.543  1.00  0.00     0.161 HD
BRANCH  33  35
HETATM   35  C25 UNL     1      15.465  35.579  18.434  1.00  0.00     0.152 C 
BRANCH  35  36
HETATM   36  C26 UNL     1      16.188  36.828  18.811  1.00  0.00     0.290 C 
BRANCH  36  37
HETATM   37  N8  UNL     1      15.335  38.002  18.591  1.00  0.00     0.081 N 
HETATM   38  C27 UNL     1      14.998  38.517  19.903  1.00  0.00     0.309 C 
HETATM   39  C28 UNL     1      16.046  39.014  17.839  1.00  0.00     0.309 C 
ENDBRANCH  36  37
ENDBRANCH  35  36
ENDBRANCH  33  35
ENDBRANCH  30  33
ENDBRANCH  11  30
BRANCH   1  40
HETATM   40  N1  UNL     1      19.290  35.420  16.970  1.00  0.00    -0.376 N 
ATOM     41  H1  UNL     1      18.815  36.287  16.717  1.00  0.00     0.161 HD
BRANCH  40  42
HETATM   42  C4  UNL     1      20.415  35.551  17.835  1.00  0.00     0.121 C 
BRANCH  42  43
HETATM   43  C3  UNL     1      21.149  36.864  17.649  1.00  0.00     0.019 C 
BRANCH  43  44
HETATM   44  C2  UNL     1      22.591  36.748  18.053  1.00  0.00    -0.003 C 
HETATM   45  C1  UNL     1      23.154  38.079  18.444  1.00  0.00     0.005 C 
ENDBRANCH  43  44
ENDBRANCH  42  43
ENDBRANCH  40  42
ENDBRANCH   1  40
TORSDOF 15
ENDMDL
MODEL 5
REMARK VINA RESULT: -8.150358920      2.762     11.271
REMARK  15 active torsions:
REMARK  status: ('A' for Active; 'I' for Inactive)
REMARK    1  A    between atoms: C2_2  and  C3_3 
REMARK    2  A    between atoms: C3_3  and  C4_4 
REMARK    3  A    between atoms: C4_4  and  N1_5 
REMARK    4  A    between atoms: N1_5  and  C5_7 
REMARK    5  A    between atoms: C8_12  and  O1_13 
REMARK    6  A    between atoms: C10_15  and  N3_16 
REMARK    7  A    between atoms: N3_16  and  C11_18 
REMARK    8  A    between atoms: C12_21  and  C13_22 
REMARK    9  A    between atoms: C13_22  and  N5_23 
REMARK   10  A    between atoms: C23_35  and  C24_36 
REMARK   11  A    between atoms: C24_36  and  O2_37 
REMARK   12  A    between atoms: C24_36  and  N7_39 
REMARK   13  A    between atoms: N7_39  and  C25_41 
REMARK   14  A    between atoms: C25_41  and  C26_42 
REMARK   15  A    between atoms: C26_42  and  N8_43 
ROOT
HETATM    1  C5  UNL     1      20.737  27.110  11.812  1.00  0.00     0.116 A 
HETATM    2  N2  UNL     1      21.464  28.201  12.241  1.00  0.00    -0.341 N 
ATOM      3  H2  UNL     1      22.476  28.110  12.331  1.00  0.00     0.167 HD
HETATM    4  C6  UNL     1      20.896  29.374  12.544  1.00  0.00     0.046 A 
HETATM    5  C7  UNL     1      21.630  30.464  12.972  1.00  0.00     0.069 A 
HETATM    6  C8  UNL     1      21.021  31.676  13.279  1.00  0.00     0.097 A 
HETATM    7  C10 UNL     1      19.654  31.817  13.161  1.00  0.00     0.068 A 
HETATM    8  C20 UNL     1      18.923  30.706  12.728  1.00  0.00     0.046 A 
HETATM    9  C21 UNL     1      19.528  29.496  12.421  1.00  0.00    -0.006 A 
HETATM   10  C22 UNL     1      18.804  28.413  11.993  1.00  0.00     0.033 A 
HETATM   11  C23 UNL     1      19.387  27.172  11.671  1.00  0.00     0.059 A 
ENDROOT
BRANCH   7  12
HETATM   12  N3  UNL     1      18.967  33.009  13.450  1.00  0.00    -0.334 N 
ATOM     13  H3  UNL     1      18.871  33.700  12.705  1.00  0.00     0.168 HD
BRANCH  12  14
HETATM   14  C11 UNL     1      18.448  33.283  14.602  1.00  0.00     0.149 A 
HETATM   15  N4  UNL     1      17.433  34.104  14.867  1.00  0.00    -0.338 N 
HETATM   16  C12 UNL     1      17.051  34.253  16.098  1.00  0.00     0.046 A 
ATOM     17  H4  UNL     1      16.963  34.608  14.114  1.00  0.00     0.168 HD
HETATM   18  C19 UNL     1      17.723  33.546  17.068  1.00  0.00     0.080 A 
HETATM   19  S1  UNL     1      18.882  32.697  16.141  1.00  0.00    -0.064 SA
BRANCH  16  20
HETATM   20  C13 UNL     1      15.913  35.156  16.540  1.00  0.00     0.330 C 
BRANCH  20  21
HETATM   21  N5  UNL     1      16.348  35.837  17.736  1.00  0.00     0.097 N 
HETATM   22  C14 UNL     1      16.692  37.214  17.353  1.00  0.00     0.303 C 
HETATM   23  C15 UNL     1      16.971  38.000  18.604  1.00  0.00     0.302 C 
HETATM   24  N6  UNL     1      15.781  38.195  19.386  1.00  0.00     0.087 N 
HETATM   25  C16 UNL     1      15.356  39.569  19.432  1.00  0.00     0.310 C 
HETATM   26  C17 UNL     1      14.747  37.305  18.924  1.00  0.00     0.302 C 
HETATM   27  C18 UNL     1      15.253  35.915  18.659  1.00  0.00     0.303 C 
ENDBRANCH  20  21
ENDBRANCH  16  20
ENDBRANCH  12  14
ENDBRANCH   7  12
BRANCH   6  28
HETATM   28  O1  UNL     1      21.772  32.759  13.706  1.00  0.00    -0.354 OA
HETATM   29  C9  UNL     1      22.714  32.589  14.774  1.00  0.00     0.210 C 
ENDBRANCH   6  28
BRANCH  11  30
HETATM   30  C24 UNL     1      18.532  26.094  11.202  1.00  0.00     0.150 C 
BRANCH  30  31
HETATM   31  O2  UNL     1      18.411  25.059  11.987  1.00  0.00    -0.346 OA
ATOM     32  H2  UNL     1      17.532  24.842  12.274  1.00  0.00     0.219 HD
ENDBRANCH  30  31
BRANCH  30  33
HETATM   33  N7  UNL     1      17.807  26.006  10.017  1.00  0.00    -0.369 N 
ATOM     34  H7  UNL     1      16.790  26.077  10.050  1.00  0.00     0.161 HD
BRANCH  33  35
HETATM   35  C25 UNL     1      18.464  25.816   8.734  1.00  0.00     0.152 C 
BRANCH  35  36
HETATM   36  C26 UNL     1      18.495  27.083   7.949  1.00  0.00     0.290 C 
BRANCH  36  37
HETATM   37  N8  UNL     1      18.431  26.798   6.510  1.00  0.00     0.081 N 
HETATM   38  C27 UNL     1      18.367  28.082   5.840  1.00  0.00     0.309 C 
HETATM   39  C28 UNL     1      19.613  26.083   6.079  1.00  0.00     0.309 C 
ENDBRANCH  36  37
ENDBRANCH  35  36
ENDBRANCH  33  35
ENDBRANCH  30  33
ENDBRANCH  11  30
BRANCH   1  40
HETATM   40  N1  UNL     1      21.367  26.030  11.566  1.00  0.00    -0.376 N 
ATOM     41  H1  UNL     1      21.471  25.384  12.348  1.00  0.00     0.161 HD
BRANCH  40  42
HETATM   42  C4  UNL     1      21.945  25.616  10.330  1.00  0.00     0.121 C 
BRANCH  42  43
HETATM   43  C3  UNL     1      23.293  26.258  10.067  1.00  0.00     0.019 C 
BRANCH  43  44
HETATM   44  C2  UNL     1      24.259  25.982  11.184  1.00  0.00    -0.003 C 
HETATM   45  C1  UNL     1      24.967  27.230  11.610  1.00  0.00     0.005 C 
ENDBRANCH  43  44
ENDBRANCH  42  43
ENDBRANCH  40  42
ENDBRANCH   1  40
TORSDOF 15
ENDMDL
