MODEL 1
REMARK VINA RESULT: -8.374312308      0.000      0.000
REMARK  15 active torsions:
REMARK  status: ('A' for Active; 'I' for Inactive)
REMARK    1  A    between atoms: C2_2  and  O1_3 
REMARK    2  A    between atoms: O1_3  and  C3_4 
REMARK    3  A    between atoms: C9_12  and  N2_13 
REMARK    4  A    between atoms: N2_13  and  C10_15 
REMARK    5  A    between atoms: N4_19  and  C12_21 
REMARK    6  A    between atoms: C12_21  and  C13_22 
REMARK    7  A    between atoms: C13_22  and  C14_23 
REMARK    8  A    between atoms: C14_23  and  O2_24 
REMARK    9  A    between atoms: C14_23  and  C15_26 
REMARK   10  A    between atoms: C15_26  and  N5_27 
REMARK   11  A    between atoms: N6_30  and  C18_31 
REMARK   12  A    between atoms: C18_31  and  C19_32 
REMARK   13  A    between atoms: C19_32  and  O3_33 
REMARK   14  A    between atoms: C25_41  and  C26_42 
REMARK   15  A    between atoms: C27_43  and  C28_44 
ROOT
HETATM    1  C10 UNL     1      20.590  33.944  16.573  1.00  0.00     0.141 A 
HETATM    2  N3  UNL     1      20.497  32.832  15.778  1.00  0.00    -0.175 N 
ATOM      3  H3  UNL     1      19.665  32.713  15.200  1.00  0.00     0.186 HD
HETATM    4  C11 UNL     1      21.445  31.903  15.728  1.00  0.00     0.679 A 
HETATM    5  N4  UNL     1      21.393  30.856  15.010  1.00  0.00    -0.226 N 
ATOM      6  H4  UNL     1      22.203  30.240  15.082  1.00  0.00     0.177 HD
HETATM    7  N7  UNL     1      22.580  32.021  16.485  1.00  0.00    -0.200 N 
ATOM      8  H7  UNL     1      23.304  31.304  16.440  1.00  0.00     0.183 HD
HETATM    9  C24 UNL     1      22.731  33.074  17.275  1.00  0.00     0.130 A 
HETATM   10  C25 UNL     1      21.727  34.045  17.321  1.00  0.00     0.078 A 
ENDROOT
BRANCH   5  11
HETATM   11  C12 UNL     1      20.376  30.414  14.122  1.00  0.00     0.140 C 
BRANCH  11  12
HETATM   12  C13 UNL     1      19.504  29.423  14.907  1.00  0.00     0.053 C 
BRANCH  12  13
HETATM   13  C14 UNL     1      18.856  28.478  13.876  1.00  0.00     0.148 C 
BRANCH  13  14
HETATM   14  O2  UNL     1      18.142  27.558  14.620  1.00  0.00    -0.394 OA
ATOM     15  H2  UNL     1      17.546  27.145  14.006  1.00  0.00     0.210 HD
ENDBRANCH  13  14
BRANCH  13  16
HETATM   16  C15 UNL     1      19.932  27.939  13.005  1.00  0.00     0.304 C 
BRANCH  16  17
HETATM   17  N5  UNL     1      19.641  27.852  11.617  1.00  0.00     0.098 N 
HETATM   18  C16 UNL     1      20.815  28.366  10.908  1.00  0.00     0.303 C 
HETATM   19  C17 UNL     1      21.953  27.426  10.822  1.00  0.00     0.302 C 
HETATM   20  N6  UNL     1      21.759  26.096  11.258  1.00  0.00     0.094 N 
HETATM   21  C21 UNL     1      20.444  25.581  11.339  1.00  0.00     0.307 C 
HETATM   22  C22 UNL     1      19.325  26.541  11.106  1.00  0.00     0.247 C 
HETATM   23  C23 UNL     1      19.141  26.691   9.599  1.00  0.00     0.045 C 
BRANCH  20  24
HETATM   24  C18 UNL     1      22.585  25.192  10.488  1.00  0.00     0.298 C 
BRANCH  24  25
HETATM   25  C19 UNL     1      24.041  25.503  10.506  1.00  0.00     0.197 C 
BRANCH  25  26
HETATM   26  O3  UNL     1      24.616  25.597  11.750  1.00  0.00    -0.394 OA
HETATM   27  C20 UNL     1      25.336  26.786  11.829  1.00  0.00     0.201 C 
ENDBRANCH  25  26
ENDBRANCH  24  25
ENDBRANCH  20  24
ENDBRANCH  16  17
ENDBRANCH  13  16
ENDBRANCH  12  13
ENDBRANCH  11  12
ENDBRANCH   5  11
BRANCH   1  28
HETATM   28  N2  UNL     1      19.680  34.743  16.555  1.00  0.00    -0.337 N 
ATOM     29  H2  UNL     1      19.957  35.511  15.944  1.00  0.00     0.167 HD
BRANCH  28  30
HETATM   30  C9  UNL     1      18.428  35.023  17.030  1.00  0.00     0.091 A 
HETATM   31  C3  UNL     1      17.446  34.040  17.073  1.00  0.00     0.170 A 
HETATM   32  N1  UNL     1      16.233  34.304  17.536  1.00  0.00    -0.339 N 
HETATM   33  C4  UNL     1      15.901  35.530  17.984  1.00  0.00     0.008 A 
ATOM     34  H1  UNL     1      15.534  33.561  17.554  1.00  0.00     0.168 HD
HETATM   35  C5  UNL     1      14.547  35.869  18.505  1.00  0.00     0.068 C 
HETATM   36  C6  UNL     1      16.847  36.541  17.962  1.00  0.00     0.033 A 
HETATM   37  C7  UNL     1      18.106  36.295  17.489  1.00  0.00    -0.029 A 
HETATM   38  C8  UNL     1      19.155  37.384  17.461  1.00  0.00     0.050 C 
BRANCH  31  39
HETATM   39  O1  UNL     1      17.775  32.777  16.619  1.00  0.00    -0.334 OA
BRANCH  39  40
HETATM   40  C2  UNL     1      16.944  31.976  15.846  1.00  0.00     0.173 C 
HETATM   41  C1  UNL     1      17.154  32.121  14.374  1.00  0.00     0.034 C 
ENDBRANCH  39  40
ENDBRANCH  31  39
ENDBRANCH  28  30
ENDBRANCH   1  28
BRANCH  10  42
HETATM   42  C26 UNL     1      21.956  35.148  18.209  1.00  0.00    -0.061 C 
HETATM   43  C27 UNL     1      22.170  36.088  18.930  1.00  0.00    -0.097 C 
BRANCH  43  44
HETATM   44  C28 UNL     1      22.467  37.236  19.809  1.00  0.00     0.057 C 
HETATM   45  C29 UNL     1      21.204  37.622  20.587  1.00  0.00     0.023 C 
HETATM   46  C30 UNL     1      22.871  38.381  18.943  1.00  0.00     0.023 C 
ENDBRANCH  43  44
ENDBRANCH  10  42
TORSDOF 15
ENDMDL
MODEL 2
REMARK VINA RESULT: -8.281302968      1.727      2.880
REMARK  15 active torsions:
REMARK  status: ('A' for Active; 'I' for Inactive)
REMARK    1  A    between atoms: C2_2  and  O1_3 
REMARK    2  A    between atoms: O1_3  and  C3_4 
REMARK    3  A    between atoms: C9_12  and  N2_13 
REMARK    4  A    between atoms: N2_13  and  C10_15 
REMARK    5  A    between atoms: N4_19  and  C12_21 
REMARK    6  A    between atoms: C12_21  and  C13_22 
REMARK    7  A    between atoms: C13_22  and  C14_23 
REMARK    8  A    between atoms: C14_23  and  O2_24 
REMARK    9  A    between atoms: C14_23  and  C15_26 
REMARK   10  A    between atoms: C15_26  and  N5_27 
REMARK   11  A    between atoms: N6_30  and  C18_31 
REMARK   12  A    between atoms: C18_31  and  C19_32 
REMARK   13  A    between atoms: C19_32  and  O3_33 
REMARK   14  A    between atoms: C25_41  and  C26_42 
REMARK   15  A    between atoms: C27_43  and  C28_44 
ROOT
HETATM    1  C10 UNL     1      21.076  33.391  15.663  1.00  0.00     0.141 A 
HETATM    2  N3  UNL     1      21.233  32.208  14.989  1.00  0.00    -0.175 N 
ATOM      3  H3  UNL     1      20.436  31.827  14.480  1.00  0.00     0.186 HD
HETATM    4  C11 UNL     1      22.380  31.539  14.971  1.00  0.00     0.679 A 
HETATM    5  N4  UNL     1      22.563  30.436  14.365  1.00  0.00    -0.226 N 
ATOM      6  H4  UNL     1      23.503  30.048  14.446  1.00  0.00     0.177 HD
HETATM    7  N7  UNL     1      23.477  32.013  15.639  1.00  0.00    -0.200 N 
ATOM      8  H7  UNL     1      24.354  31.493  15.620  1.00  0.00     0.183 HD
HETATM    9  C24 UNL     1      23.390  33.153  16.310  1.00  0.00     0.130 A 
HETATM   10  C25 UNL     1      22.180  33.849  16.323  1.00  0.00     0.078 A 
ENDROOT
BRANCH   5  11
HETATM   11  C12 UNL     1      21.656  29.664  13.592  1.00  0.00     0.140 C 
BRANCH  11  12
HETATM   12  C13 UNL     1      20.819  28.842  14.584  1.00  0.00     0.053 C 
BRANCH  12  13
HETATM   13  C14 UNL     1      19.364  29.337  14.466  1.00  0.00     0.148 C 
BRANCH  13  14
HETATM   14  O2  UNL     1      19.027  29.788  15.727  1.00  0.00    -0.394 OA
ATOM     15  H2  UNL     1      18.746  30.688  15.607  1.00  0.00     0.210 HD
ENDBRANCH  13  14
BRANCH  13  16
HETATM   16  C15 UNL     1      18.544  28.229  13.913  1.00  0.00     0.304 C 
BRANCH  16  17
HETATM   17  N5  UNL     1      17.649  28.566  12.862  1.00  0.00     0.098 N 
HETATM   18  C16 UNL     1      18.463  29.130  11.782  1.00  0.00     0.303 C 
HETATM   19  C17 UNL     1      19.193  28.136  10.966  1.00  0.00     0.302 C 
HETATM   20  N6  UNL     1      18.919  26.766  11.172  1.00  0.00     0.094 N 
HETATM   21  C21 UNL     1      17.701  26.391  11.788  1.00  0.00     0.307 C 
HETATM   22  C22 UNL     1      16.849  27.491  12.329  1.00  0.00     0.247 C 
HETATM   23  C23 UNL     1      16.047  28.076  11.169  1.00  0.00     0.045 C 
BRANCH  20  24
HETATM   24  C18 UNL     1      19.080  26.032   9.937  1.00  0.00     0.298 C 
BRANCH  24  25
HETATM   25  C19 UNL     1      20.487  25.691   9.589  1.00  0.00     0.197 C 
BRANCH  25  26
HETATM   26  O3  UNL     1      21.083  24.738  10.379  1.00  0.00    -0.394 OA
HETATM   27  C20 UNL     1      22.241  25.270  10.938  1.00  0.00     0.201 C 
ENDBRANCH  25  26
ENDBRANCH  24  25
ENDBRANCH  20  24
ENDBRANCH  16  17
ENDBRANCH  13  16
ENDBRANCH  12  13
ENDBRANCH  11  12
ENDBRANCH   5  11
BRANCH   1  28
HETATM   28  N2  UNL     1      19.996  33.938  15.623  1.00  0.00    -0.337 N 
ATOM     29  H2  UNL     1      20.141  34.880  15.263  1.00  0.00     0.167 HD
BRANCH  28  30
HETATM   30  C9  UNL     1      18.658  33.791  15.872  1.00  0.00     0.091 A 
HETATM   31  C3  UNL     1      18.095  34.269  17.049  1.00  0.00     0.170 A 
HETATM   32  N1  UNL     1      16.800  34.133  17.293  1.00  0.00    -0.339 N 
HETATM   33  C4  UNL     1      15.977  33.529  16.414  1.00  0.00     0.008 A 
ATOM     34  H1  UNL     1      16.417  34.496  18.166  1.00  0.00     0.168 HD
HETATM   35  C5  UNL     1      14.518  33.350  16.654  1.00  0.00     0.068 C 
HETATM   36  C6  UNL     1      16.493  33.037  15.227  1.00  0.00     0.033 A 
HETATM   37  C7  UNL     1      17.826  33.165  14.951  1.00  0.00    -0.029 A 
HETATM   38  C8  UNL     1      18.408  32.638  13.658  1.00  0.00     0.050 C 
BRANCH  31  39
HETATM   39  O1  UNL     1      18.928  34.894  17.957  1.00  0.00    -0.334 OA
BRANCH  39  40
HETATM   40  C2  UNL     1      18.591  36.028  18.686  1.00  0.00     0.173 C 
HETATM   41  C1  UNL     1      18.586  37.289  17.885  1.00  0.00     0.034 C 
ENDBRANCH  39  40
ENDBRANCH  31  39
ENDBRANCH  28  30
ENDBRANCH   1  28
BRANCH  10  42
HETATM   42  C26 UNL     1      22.160  35.067  17.081  1.00  0.00    -0.061 C 
HETATM   43  C27 UNL     1      22.179  36.090  17.713  1.00  0.00    -0.097 C 
BRANCH  43  44
HETATM   44  C28 UNL     1      22.228  37.333  18.510  1.00  0.00     0.057 C 
HETATM   45  C29 UNL     1      23.612  37.975  18.366  1.00  0.00     0.023 C 
HETATM   46  C30 UNL     1      22.009  36.967  19.939  1.00  0.00     0.023 C 
ENDBRANCH  43  44
ENDBRANCH  10  42
TORSDOF 15
ENDMDL
MODEL 3
REMARK VINA RESULT: -8.227212882      2.646     11.338
REMARK  15 active torsions:
REMARK  status: ('A' for Active; 'I' for Inactive)
REMARK    1  A    between atoms: C2_2  and  O1_3 
REMARK    2  A    between atoms: O1_3  and  C3_4 
REMARK    3  A    between atoms: C9_12  and  N2_13 
REMARK    4  A    between atoms: N2_13  and  C10_15 
REMARK    5  A    between atoms: N4_19  and  C12_21 
REMARK    6  A    between atoms: C12_21  and  C13_22 
REMARK    7  A    between atoms: C13_22  and  C14_23 
REMARK    8  A    between atoms: C14_23  and  O2_24 
REMARK    9  A    between atoms: C14_23  and  C15_26 
REMARK   10  A    between atoms: C15_26  and  N5_27 
REMARK   11  A    between atoms: N6_30  and  C18_31 
REMARK   12  A    between atoms: C18_31  and  C19_32 
REMARK   13  A    between atoms: C19_32  and  O3_33 
REMARK   14  A    between atoms: C25_41  and  C26_42 
REMARK   15  A    between atoms: C27_43  and  C28_44 
ROOT
HETATM    1  C10 UNL     1      18.974  28.113  12.054  1.00  0.00     0.141 A 
HETATM    2  N3  UNL     1      18.755  29.119  12.959  1.00  0.00    -0.175 N 
ATOM      3  H3  UNL     1      19.402  29.222  13.741  1.00  0.00     0.186 HD
HETATM    4  C11 UNL     1      17.738  29.967  12.860  1.00  0.00     0.679 A 
HETATM    5  N4  UNL     1      17.497  30.907  13.681  1.00  0.00    -0.226 N 
ATOM      6  H4  UNL     1      16.677  31.473  13.464  1.00  0.00     0.177 HD
HETATM    7  N7  UNL     1      16.845  29.869  11.826  1.00  0.00    -0.200 N 
ATOM      8  H7  UNL     1      16.066  30.524  11.756  1.00  0.00     0.183 HD
HETATM    9  C24 UNL     1      17.000  28.917  10.917  1.00  0.00     0.130 A 
HETATM   10  C25 UNL     1      18.074  28.030  11.031  1.00  0.00     0.078 A 
ENDROOT
BRANCH   5  11
HETATM   11  C12 UNL     1      18.201  31.287  14.855  1.00  0.00     0.140 C 
BRANCH  11  12
HETATM   12  C13 UNL     1      18.949  32.587  14.520  1.00  0.00     0.053 C 
BRANCH  12  13
HETATM   13  C14 UNL     1      19.588  33.089  15.829  1.00  0.00     0.148 C 
BRANCH  13  14
HETATM   14  O2  UNL     1      19.548  32.012  16.693  1.00  0.00    -0.394 OA
ATOM     15  H2  UNL     1      20.456  31.814  16.891  1.00  0.00     0.210 HD
ENDBRANCH  13  14
BRANCH  13  16
HETATM   16  C15 UNL     1      18.864  34.314  16.255  1.00  0.00     0.304 C 
BRANCH  16  17
HETATM   17  N5  UNL     1      17.774  34.129  17.147  1.00  0.00     0.098 N 
HETATM   18  C16 UNL     1      18.080  34.905  18.351  1.00  0.00     0.303 C 
HETATM   19  C17 UNL     1      17.853  36.361  18.230  1.00  0.00     0.302 C 
HETATM   20  N6  UNL     1      17.216  36.846  17.067  1.00  0.00     0.094 N 
HETATM   21  C21 UNL     1      16.437  35.960  16.285  1.00  0.00     0.307 C 
HETATM   22  C22 UNL     1      16.472  34.516  16.662  1.00  0.00     0.247 C 
HETATM   23  C23 UNL     1      15.495  34.308  17.816  1.00  0.00     0.045 C 
BRANCH  20  24
HETATM   24  C18 UNL     1      16.438  38.025  17.378  1.00  0.00     0.298 C 
BRANCH  24  25
HETATM   25  C19 UNL     1      17.187  39.310  17.302  1.00  0.00     0.197 C 
BRANCH  25  26
HETATM   26  O3  UNL     1      17.932  39.499  16.163  1.00  0.00    -0.394 OA
HETATM   27  C20 UNL     1      19.245  39.789  16.522  1.00  0.00     0.201 C 
ENDBRANCH  25  26
ENDBRANCH  24  25
ENDBRANCH  20  24
ENDBRANCH  16  17
ENDBRANCH  13  16
ENDBRANCH  12  13
ENDBRANCH  11  12
ENDBRANCH   5  11
BRANCH   1  28
HETATM   28  N2  UNL     1      19.929  27.387  12.219  1.00  0.00    -0.337 N 
ATOM     29  H2  UNL     1      19.586  26.514  12.617  1.00  0.00     0.167 HD
BRANCH  28  30
HETATM   30  C9  UNL     1      21.286  27.276  12.083  1.00  0.00     0.091 A 
HETATM   31  C3  UNL     1      22.130  28.299  12.495  1.00  0.00     0.170 A 
HETATM   32  N1  UNL     1      23.445  28.194  12.370  1.00  0.00    -0.339 N 
HETATM   33  C4  UNL     1      24.017  27.097  11.839  1.00  0.00     0.008 A 
ATOM     34  H1  UNL     1      24.038  28.964  12.682  1.00  0.00     0.168 HD
HETATM   35  C5  UNL     1      25.489  26.944  11.674  1.00  0.00     0.068 C 
HETATM   36  C6  UNL     1      23.216  26.049  11.416  1.00  0.00     0.033 A 
HETATM   37  C7  UNL     1      21.856  26.133  11.534  1.00  0.00    -0.029 A 
HETATM   38  C8  UNL     1      20.964  24.998  11.081  1.00  0.00     0.050 C 
BRANCH  31  39
HETATM   39  O1  UNL     1      21.556  29.430  13.044  1.00  0.00    -0.334 OA
BRANCH  39  40
HETATM   40  C2  UNL     1      21.820  29.909  14.321  1.00  0.00     0.173 C 
HETATM   41  C1  UNL     1      22.484  31.248  14.344  1.00  0.00     0.034 C 
ENDBRANCH  39  40
ENDBRANCH  31  39
ENDBRANCH  28  30
ENDBRANCH   1  28
BRANCH  10  42
HETATM   42  C26 UNL     1      18.168  27.020  10.017  1.00  0.00    -0.061 C 
HETATM   43  C27 UNL     1      18.221  26.188   9.150  1.00  0.00    -0.097 C 
BRANCH  43  44
HETATM   44  C28 UNL     1      18.250  25.162   8.088  1.00  0.00     0.057 C 
HETATM   45  C29 UNL     1      19.560  25.282   7.301  1.00  0.00     0.023 C 
HETATM   46  C30 UNL     1      17.106  25.425   7.168  1.00  0.00     0.023 C 
ENDBRANCH  43  44
ENDBRANCH  10  42
TORSDOF 15
ENDMDL
MODEL 4
REMARK VINA RESULT: -8.218606427      2.246      3.323
REMARK  15 active torsions:
REMARK  status: ('A' for Active; 'I' for Inactive)
REMARK    1  A    between atoms: C2_2  and  O1_3 
REMARK    2  A    between atoms: O1_3  and  C3_4 
REMARK    3  A    between atoms: C9_12  and  N2_13 
REMARK    4  A    between atoms: N2_13  and  C10_15 
REMARK    5  A    between atoms: N4_19  and  C12_21 
REMARK    6  A    between atoms: C12_21  and  C13_22 
REMARK    7  A    between atoms: C13_22  and  C14_23 
REMARK    8  A    between atoms: C14_23  and  O2_24 
REMARK    9  A    between atoms: C14_23  and  C15_26 
REMARK   10  A    between atoms: C15_26  and  N5_27 
REMARK   11  A    between atoms: N6_30  and  C18_31 
REMARK   12  A    between atoms: C18_31  and  C19_32 
REMARK   13  A    between atoms: C19_32  and  O3_33 
REMARK   14  A    between atoms: C25_41  and  C26_42 
REMARK   15  A    between atoms: C27_43  and  C28_44 
ROOT
HETATM    1  C10 UNL     1      20.996  32.672  16.201  1.00  0.00     0.141 A 
HETATM    2  N3  UNL     1      21.082  31.818  15.133  1.00  0.00    -0.175 N 
ATOM      3  H3  UNL     1      20.254  31.285  14.866  1.00  0.00     0.186 HD
HETATM    4  C11 UNL     1      22.197  31.655  14.430  1.00  0.00     0.679 A 
HETATM    5  N4  UNL     1      22.318  30.868  13.439  1.00  0.00    -0.226 N 
ATOM      6  H4  UNL     1      23.241  30.859  13.004  1.00  0.00     0.177 HD
HETATM    7  N7  UNL     1      23.332  32.350  14.750  1.00  0.00    -0.200 N 
ATOM      8  H7  UNL     1      24.185  32.220  14.205  1.00  0.00     0.183 HD
HETATM    9  C24 UNL     1      23.316  33.193  15.773  1.00  0.00     0.130 A 
HETATM   10  C25 UNL     1      22.138  33.356  16.506  1.00  0.00     0.078 A 
ENDROOT
BRANCH   5  11
HETATM   11  C12 UNL     1      21.361  30.001  12.847  1.00  0.00     0.140 C 
BRANCH  11  12
HETATM   12  C13 UNL     1      21.542  28.626  13.508  1.00  0.00     0.053 C 
BRANCH  12  13
HETATM   13  C14 UNL     1      21.997  27.651  12.405  1.00  0.00     0.148 C 
BRANCH  13  14
HETATM   14  O2  UNL     1      23.255  28.082  12.031  1.00  0.00    -0.394 OA
ATOM     15  H2  UNL     1      23.298  27.952  11.091  1.00  0.00     0.210 HD
ENDBRANCH  13  14
BRANCH  13  16
HETATM   16  C15 UNL     1      20.955  27.635  11.346  1.00  0.00     0.304 C 
BRANCH  16  17
HETATM   17  N5  UNL     1      19.707  27.053  11.693  1.00  0.00     0.098 N 
HETATM   18  C16 UNL     1      18.669  27.955  11.190  1.00  0.00     0.303 C 
HETATM   19  C17 UNL     1      18.412  27.863   9.737  1.00  0.00     0.302 C 
HETATM   20  N6  UNL     1      19.039  26.828   9.009  1.00  0.00     0.094 N 
HETATM   21  C21 UNL     1      19.510  25.686   9.699  1.00  0.00     0.307 C 
HETATM   22  C22 UNL     1      19.454  25.726  11.191  1.00  0.00     0.247 C 
HETATM   23  C23 UNL     1      18.034  25.360  11.617  1.00  0.00     0.045 C 
BRANCH  20  24
HETATM   24  C18 UNL     1      18.200  26.412   7.907  1.00  0.00     0.298 C 
BRANCH  24  25
HETATM   25  C19 UNL     1      18.729  26.745   6.555  1.00  0.00     0.197 C 
BRANCH  25  26
HETATM   26  O3  UNL     1      18.635  28.065   6.186  1.00  0.00    -0.394 OA
HETATM   27  C20 UNL     1      18.631  28.148   4.797  1.00  0.00     0.201 C 
ENDBRANCH  25  26
ENDBRANCH  24  25
ENDBRANCH  20  24
ENDBRANCH  16  17
ENDBRANCH  13  16
ENDBRANCH  12  13
ENDBRANCH  11  12
ENDBRANCH   5  11
BRANCH   1  28
HETATM   28  N2  UNL     1      19.939  32.762  16.784  1.00  0.00    -0.337 N 
ATOM     29  H2  UNL     1      20.128  32.666  17.781  1.00  0.00     0.167 HD
BRANCH  28  30
HETATM   30  C9  UNL     1      18.590  32.940  16.634  1.00  0.00     0.091 A 
HETATM   31  C3  UNL     1      17.791  31.929  16.115  1.00  0.00     0.170 A 
HETATM   32  N1  UNL     1      16.484  32.095  15.972  1.00  0.00    -0.339 N 
HETATM   33  C4  UNL     1      15.877  33.245  16.322  1.00  0.00     0.008 A 
ATOM     34  H1  UNL     1      15.925  31.333  15.587  1.00  0.00     0.168 HD
HETATM   35  C5  UNL     1      14.413  33.473  16.170  1.00  0.00     0.068 C 
HETATM   36  C6  UNL     1      16.633  34.281  16.846  1.00  0.00     0.033 A 
HETATM   37  C7  UNL     1      17.983  34.135  17.004  1.00  0.00    -0.029 A 
HETATM   38  C8  UNL     1      18.826  35.252  17.578  1.00  0.00     0.050 C 
BRANCH  31  39
HETATM   39  O1  UNL     1      18.401  30.743  15.754  1.00  0.00    -0.334 OA
BRANCH  39  40
HETATM   40  C2  UNL     1      18.130  30.040  14.586  1.00  0.00     0.173 C 
HETATM   41  C1  UNL     1      17.964  30.905  13.379  1.00  0.00     0.034 C 
ENDBRANCH  39  40
ENDBRANCH  31  39
ENDBRANCH  28  30
ENDBRANCH   1  28
BRANCH  10  42
HETATM   42  C26 UNL     1      22.201  34.275  17.605  1.00  0.00    -0.061 C 
HETATM   43  C27 UNL     1      22.282  35.029  18.540  1.00  0.00    -0.097 C 
BRANCH  43  44
HETATM   44  C28 UNL     1      22.385  35.925  19.708  1.00  0.00     0.057 C 
HETATM   45  C29 UNL     1      21.006  36.069  20.362  1.00  0.00     0.023 C 
HETATM   46  C30 UNL     1      22.832  37.262  19.220  1.00  0.00     0.023 C 
ENDBRANCH  43  44
ENDBRANCH  10  42
TORSDOF 15
ENDMDL
MODEL 5
REMARK VINA RESULT: -8.212339838      2.274      4.822
REMARK  15 active torsions:
REMARK  status: ('A' for Active; 'I' for Inactive)
REMARK    1  A    between atoms: C2_2  and  O1_3 
REMARK    2  A    between atoms: O1_3  and  C3_4 
REMARK    3  A    between atoms: C9_12  and  N2_13 
REMARK    4  A    between atoms: N2_13  and  C10_15 
REMARK    5  A    between atoms: N4_19  and  C12_21 
REMARK    6  A    between atoms: C12_21  and  C13_22 
REMARK    7  A    between atoms: C13_22  and  C14_23 
REMARK    8  A    between atoms: C14_23  and  O2_24 
REMARK    9  A    between atoms: C14_23  and  C15_26 
REMARK   10  A    between atoms: C15_26  and  N5_27 
REMARK   11  A    between atoms: N6_30  and  C18_31 
REMARK   12  A    between atoms: C18_31  and  C19_32 
REMARK   13  A    between atoms: C19_32  and  O3_33 
REMARK   14  A    between atoms: C25_41  and  C26_42 
REMARK   15  A    between atoms: C27_43  and  C28_44 
ROOT
HETATM    1  C10 UNL     1      18.828  33.556  15.223  1.00  0.00     0.141 A 
HETATM    2  N3  UNL     1      19.501  32.823  14.282  1.00  0.00    -0.175 N 
ATOM      3  H3  UNL     1      20.477  33.051  14.090  1.00  0.00     0.186 HD
HETATM    4  C11 UNL     1      18.936  31.827  13.608  1.00  0.00     0.679 A 
HETATM    5  N4  UNL     1      19.523  31.129  12.723  1.00  0.00    -0.226 N 
ATOM      6  H4  UNL     1      18.952  30.399  12.297  1.00  0.00     0.177 HD
HETATM    7  N7  UNL     1      17.630  31.485  13.831  1.00  0.00    -0.200 N 
ATOM      8  H7  UNL     1      17.203  30.719  13.310  1.00  0.00     0.183 HD
HETATM    9  C24 UNL     1      16.923  32.156  14.730  1.00  0.00     0.130 A 
HETATM   10  C25 UNL     1      17.526  33.202  15.433  1.00  0.00     0.078 A 
ENDROOT
BRANCH   5  11
HETATM   11  C12 UNL     1      20.856  31.213  12.238  1.00  0.00     0.140 C 
BRANCH  11  12
HETATM   12  C13 UNL     1      21.588  29.959  12.741  1.00  0.00     0.053 C 
BRANCH  12  13
HETATM   13  C14 UNL     1      20.508  28.926  13.114  1.00  0.00     0.148 C 
BRANCH  13  14
HETATM   14  O2  UNL     1      20.859  28.466  14.369  1.00  0.00    -0.394 OA
ATOM     15  H2  UNL     1      21.465  29.111  14.713  1.00  0.00     0.210 HD
ENDBRANCH  13  14
BRANCH  13  16
HETATM   16  C15 UNL     1      20.442  27.915  12.028  1.00  0.00     0.304 C 
BRANCH  16  17
HETATM   17  N5  UNL     1      19.288  27.088  12.000  1.00  0.00     0.098 N 
HETATM   18  C16 UNL     1      18.179  27.931  11.548  1.00  0.00     0.303 C 
HETATM   19  C17 UNL     1      18.142  28.188  10.092  1.00  0.00     0.302 C 
HETATM   20  N6  UNL     1      19.042  27.483   9.263  1.00  0.00     0.094 N 
HETATM   21  C21 UNL     1      19.619  26.280   9.736  1.00  0.00     0.307 C 
HETATM   22  C22 UNL     1      19.354  25.917  11.160  1.00  0.00     0.247 C 
HETATM   23  C23 UNL     1      17.983  25.251  11.228  1.00  0.00     0.045 C 
BRANCH  20  24
HETATM   24  C18 UNL     1      18.452  27.255   7.963  1.00  0.00     0.298 C 
BRANCH  24  25
HETATM   25  C19 UNL     1      19.091  26.172   7.165  1.00  0.00     0.197 C 
BRANCH  25  26
HETATM   26  O3  UNL     1      19.634  26.557   5.963  1.00  0.00    -0.394 OA
HETATM   27  C20 UNL     1      18.874  27.596   5.434  1.00  0.00     0.201 C 
ENDBRANCH  25  26
ENDBRANCH  24  25
ENDBRANCH  20  24
ENDBRANCH  16  17
ENDBRANCH  13  16
ENDBRANCH  12  13
ENDBRANCH  11  12
ENDBRANCH   5  11
BRANCH   1  28
HETATM   28  N2  UNL     1      19.421  34.445  15.793  1.00  0.00    -0.337 N 
ATOM     29  H2  UNL     1      19.267  35.305  15.267  1.00  0.00     0.167 HD
BRANCH  28  30
HETATM   30  C9  UNL     1      20.216  34.752  16.864  1.00  0.00     0.091 A 
HETATM   31  C3  UNL     1      21.276  33.929  17.223  1.00  0.00     0.170 A 
HETATM   32  N1  UNL     1      22.052  34.224  18.256  1.00  0.00    -0.339 N 
HETATM   33  C4  UNL     1      21.848  35.329  18.998  1.00  0.00     0.008 A 
ATOM     34  H1  UNL     1      22.823  33.599  18.495  1.00  0.00     0.168 HD
HETATM   35  C5  UNL     1      22.692  35.691  20.171  1.00  0.00     0.068 C 
HETATM   36  C6  UNL     1      20.804  36.181  18.677  1.00  0.00     0.033 A 
HETATM   37  C7  UNL     1      19.989  35.899  17.616  1.00  0.00    -0.029 A 
HETATM   38  C8  UNL     1      18.846  36.818  17.246  1.00  0.00     0.050 C 
BRANCH  31  39
HETATM   39  O1  UNL     1      21.499  32.793  16.468  1.00  0.00    -0.334 OA
BRANCH  39  40
HETATM   40  C2  UNL     1      22.735  32.414  15.960  1.00  0.00     0.173 C 
HETATM   41  C1  UNL     1      23.090  33.072  14.666  1.00  0.00     0.034 C 
ENDBRANCH  39  40
ENDBRANCH  31  39
ENDBRANCH  28  30
ENDBRANCH   1  28
BRANCH  10  42
HETATM   42  C26 UNL     1      16.695  33.889  16.379  1.00  0.00    -0.061 C 
HETATM   43  C27 UNL     1      15.994  34.434  17.190  1.00  0.00    -0.097 C 
BRANCH  43  44
HETATM   44  C28 UNL     1      15.108  35.078  18.181  1.00  0.00     0.057 C 
HETATM   45  C29 UNL     1      13.733  35.324  17.550  1.00  0.00     0.023 C 
HETATM   46  C30 UNL     1      15.714  36.390  18.549  1.00  0.00     0.023 C 
ENDBRANCH  43  44
ENDBRANCH  10  42
TORSDOF 15
ENDMDL
