MODEL 1
REMARK VINA RESULT: -6.990272816      0.000      0.000
REMARK  9 active torsions:
REMARK  status: ('A' for Active; 'I' for Inactive)
REMARK    1  A    between atoms: N5_16  and  C7_17 
REMARK    2  A    between atoms: C7_17  and  N6_18 
REMARK       I    between atoms: N6_18  and  C8_20 
REMARK    3  A    between atoms: C8_20  and  C9_22 
REMARK    4  A    between atoms: C10_25  and  O3_26 
REMARK    5  A    between atoms: C11_28  and  N8_29 
REMARK    6  A    between atoms: N9_31  and  N10_33 
REMARK    7  A    between atoms: N11_37  and  N12_39 
REMARK    8  A    between atoms: N12_39  and  N13_41 
REMARK    9  A    between atoms: C13_44  and  C14_45 
ROOT
HETATM    1  C9  UNL     1      22.965   1.397   3.792  1.00  0.00     0.120 A 
HETATM    2  N7  UNL     1      21.932   0.686   4.337  1.00  0.00    -0.330 N 
ATOM      3  H7  UNL     1      21.739   0.794   5.333  1.00  0.00     0.168 HD
HETATM    4  C10 UNL     1      21.161  -0.146   3.624  1.00  0.00     0.172 A 
HETATM    5  C11 UNL     1      21.447  -0.272   2.275  1.00  0.00     0.129 A 
HETATM    6  C12 UNL     1      22.463   0.417   1.696  1.00  0.00     0.099 A 
HETATM    7  N11 UNL     1      22.766   0.329   0.472  1.00  0.00    -0.283 N 
ATOM      8  H11 UNL     1      23.550   0.898   0.154  1.00  0.00     0.188 HD
HETATM    9  C13 UNL     1      23.270   1.299   2.472  1.00  0.00     0.092 A 
ENDROOT
BRANCH   1  10
HETATM   10  C8  UNL     1      23.697   2.236   4.715  1.00  0.00     0.274 C 
HETATM   11  N6  UNL     1      24.709   1.691   5.575  1.00  0.00    -0.317 N 
ATOM     12  H6  UNL     1      24.897   0.690   5.514  1.00  0.00     0.170 HD
HETATM   13  O2  UNL     1      23.463   3.455   4.787  1.00  0.00    -0.266 OA
BRANCH  11  14
HETATM   14  C7  UNL     1      25.477   2.467   6.521  1.00  0.00     0.192 C 
BRANCH  14  15
HETATM   15  N5  UNL     1      26.868   2.604   6.230  1.00  0.00    -0.297 N 
HETATM   16  C4  UNL     1      27.500   3.729   5.766  1.00  0.00     0.129 A 
HETATM   17  C3  UNL     1      26.967   4.964   5.439  1.00  0.00     0.134 A 
HETATM   18  C5  UNL     1      28.848   3.490   5.642  1.00  0.00     0.143 A 
HETATM   19  N2  UNL     1      27.790   5.955   4.989  1.00  0.00    -0.293 N 
HETATM   20  N3  UNL     1      25.720   5.152   5.562  1.00  0.00    -0.383 N 
HETATM   21  C2  UNL     1      29.107   5.709   4.872  1.00  0.00     0.329 A 
ATOM     22  H2  UNL     1      27.411   6.871   4.743  1.00  0.00     0.172 HD
HETATM   23  N1  UNL     1      29.627   4.508   5.189  1.00  0.00    -0.288 N 
HETATM   24  O1  UNL     1      29.868   6.607   4.461  1.00  0.00    -0.246 OA
HETATM   25  C1  UNL     1      31.035   4.249   5.064  1.00  0.00     0.163 C 
ATOM     26  H32 UNL     1      25.327   6.062   5.320  1.00  0.00     0.157 HD
ATOM     27  H31 UNL     1      25.105   4.411   5.899  1.00  0.00     0.157 HD
HETATM   28  N4  UNL     1      29.043   2.243   6.022  1.00  0.00    -0.336 N 
HETATM   29  C6  UNL     1      27.854   1.702   6.379  1.00  0.00     0.191 A 
ATOM     30  H4  UNL     1      29.943   1.764   6.044  1.00  0.00     0.168 HD
ENDBRANCH  14  15
ENDBRANCH  11  14
ENDBRANCH   1  10
BRANCH   9  31
HETATM   31  C14 UNL     1      24.262   2.084   1.757  1.00  0.00     0.269 C 
HETATM   32  N14 UNL     1      23.791   3.221   0.999  1.00  0.00    -0.057 NA
HETATM   33  O4  UNL     1      25.455   1.853   1.749  1.00  0.00    -0.271 OA
ENDBRANCH   9  31
BRANCH   4  34
HETATM   34  O3  UNL     1      20.119  -0.865   4.170  1.00  0.00    -0.344 OA
ATOM     35  H3  UNL     1      20.188  -1.782   4.408  1.00  0.00     0.219 HD
ENDBRANCH   4  34
BRANCH   5  36
HETATM   36  N8  UNL     1      20.607  -1.170   1.517  1.00  0.00    -0.281 N 
HETATM   37  N9  UNL     1      20.698  -2.418   1.638  1.00  0.00    -0.249 N 
ATOM     38  H9  UNL     1      20.065  -2.975   1.065  1.00  0.00     0.207 HD
ATOM     39  H8  UNL     1      19.923  -0.781   0.866  1.00  0.00     0.188 HD
BRANCH  37  40
HETATM   40  N10 UNL     1      21.555  -3.119   2.459  1.00  0.00    -0.331 N 
ATOM     41 2H10 UNL     1      22.310  -2.568   2.869  1.00  0.00     0.178 HD
ATOM     42 1H10 UNL     1      21.515  -4.110   2.694  1.00  0.00     0.178 HD
ENDBRANCH  37  40
ENDBRANCH   5  36
BRANCH   7  43
HETATM   43  N12 UNL     1      22.151  -0.453  -0.473  1.00  0.00    -0.249 N 
ATOM     44  H12 UNL     1      21.150  -0.334  -0.630  1.00  0.00     0.207 HD
BRANCH  43  45
HETATM   45  N13 UNL     1      22.851  -1.421  -1.241  1.00  0.00    -0.331 N 
ATOM     46 2H13 UNL     1      23.845  -1.547  -1.051  1.00  0.00     0.178 HD
ATOM     47 1H13 UNL     1      22.399  -1.982  -1.963  1.00  0.00     0.178 HD
ENDBRANCH  43  45
ENDBRANCH   7  43
TORSDOF 9
ENDMDL
MODEL 2
REMARK VINA RESULT: -6.840361446      3.289      9.553
REMARK  9 active torsions:
REMARK  status: ('A' for Active; 'I' for Inactive)
REMARK    1  A    between atoms: N5_16  and  C7_17 
REMARK    2  A    between atoms: C7_17  and  N6_18 
REMARK       I    between atoms: N6_18  and  C8_20 
REMARK    3  A    between atoms: C8_20  and  C9_22 
REMARK    4  A    between atoms: C10_25  and  O3_26 
REMARK    5  A    between atoms: C11_28  and  N8_29 
REMARK    6  A    between atoms: N9_31  and  N10_33 
REMARK    7  A    between atoms: N11_37  and  N12_39 
REMARK    8  A    between atoms: N12_39  and  N13_41 
REMARK    9  A    between atoms: C13_44  and  C14_45 
ROOT
HETATM    1  C9  UNL     1      28.355   5.168   7.146  1.00  0.00     0.120 A 
HETATM    2  N7  UNL     1      28.581   5.040   8.488  1.00  0.00    -0.330 N 
ATOM      3  H7  UNL     1      28.104   4.292   8.993  1.00  0.00     0.168 HD
HETATM    4  C10 UNL     1      29.400   5.851   9.172  1.00  0.00     0.172 A 
HETATM    5  C11 UNL     1      30.032   6.856   8.460  1.00  0.00     0.129 A 
HETATM    6  C12 UNL     1      29.835   7.016   7.127  1.00  0.00     0.099 A 
HETATM    7  N11 UNL     1      30.384   7.922   6.437  1.00  0.00    -0.283 N 
ATOM      8  H11 UNL     1      30.158   7.939   5.443  1.00  0.00     0.188 HD
HETATM    9  C13 UNL     1      28.962   6.140   6.418  1.00  0.00     0.092 A 
ENDROOT
BRANCH   1  10
HETATM   10  C8  UNL     1      27.431   4.212   6.577  1.00  0.00     0.274 C 
HETATM   11  N6  UNL     1      27.852   3.272   5.578  1.00  0.00    -0.317 N 
ATOM     12  H6  UNL     1      28.827   3.298   5.279  1.00  0.00     0.170 HD
HETATM   13  O2  UNL     1      26.242   4.184   6.942  1.00  0.00    -0.266 OA
BRANCH  11  14
HETATM   14  C7  UNL     1      26.983   2.292   4.966  1.00  0.00     0.192 C 
BRANCH  14  15
HETATM   15  N5  UNL     1      26.261   2.730   3.815  1.00  0.00    -0.297 N 
HETATM   16  C4  UNL     1      24.957   2.438   3.507  1.00  0.00     0.129 A 
HETATM   17  C3  UNL     1      24.051   1.645   4.189  1.00  0.00     0.134 A 
HETATM   18  C5  UNL     1      24.601   3.069   2.339  1.00  0.00     0.143 A 
HETATM   19  N2  UNL     1      22.788   1.488   3.694  1.00  0.00    -0.293 N 
HETATM   20  N3  UNL     1      24.411   1.074   5.260  1.00  0.00    -0.383 N 
HETATM   21  C2  UNL     1      22.451   2.112   2.552  1.00  0.00     0.329 A 
ATOM     22  H2  UNL     1      22.109   0.906   4.186  1.00  0.00     0.172 HD
HETATM   23  N1  UNL     1      23.333   2.883   1.887  1.00  0.00    -0.288 N 
HETATM   24  O1  UNL     1      21.301   1.975   2.091  1.00  0.00    -0.246 OA
HETATM   25  C1  UNL     1      22.968   3.548   0.666  1.00  0.00     0.163 C 
ATOM     26  H32 UNL     1      23.743   0.489   5.762  1.00  0.00     0.157 HD
ATOM     27  H31 UNL     1      25.355   1.191   5.629  1.00  0.00     0.157 HD
HETATM   28  N4  UNL     1      25.663   3.737   1.936  1.00  0.00    -0.336 N 
HETATM   29  C6  UNL     1      26.669   3.539   2.821  1.00  0.00     0.191 A 
ATOM     30  H4  UNL     1      25.718   4.311   1.094  1.00  0.00     0.168 HD
ENDBRANCH  14  15
ENDBRANCH  11  14
ENDBRANCH   1  10
BRANCH   9  31
HETATM   31  C14 UNL     1      28.892   6.307   4.976  1.00  0.00     0.269 C 
HETATM   32  N14 UNL     1      29.806   5.526   4.171  1.00  0.00    -0.057 NA
HETATM   33  O4  UNL     1      28.127   7.052   4.399  1.00  0.00    -0.271 OA
ENDBRANCH   9  31
BRANCH   4  34
HETATM   34  O3  UNL     1      29.630   5.725  10.526  1.00  0.00    -0.344 OA
ATOM     35  H3  UNL     1      30.429   5.359  10.886  1.00  0.00     0.219 HD
ENDBRANCH   4  34
BRANCH   5  36
HETATM   36  N8  UNL     1      30.915   7.721   9.208  1.00  0.00    -0.281 N 
HETATM   37  N9  UNL     1      30.471   8.567  10.026  1.00  0.00    -0.249 N 
ATOM     38  H9  UNL     1      31.165   9.135  10.510  1.00  0.00     0.207 HD
ATOM     39  H8  UNL     1      31.923   7.645   9.069  1.00  0.00     0.188 HD
BRANCH  37  40
HETATM   40  N10 UNL     1      29.152   8.813  10.342  1.00  0.00    -0.331 N 
ATOM     41 2H10 UNL     1      28.737   9.618   9.873  1.00  0.00     0.178 HD
ATOM     42 1H10 UNL     1      28.560   8.286  10.984  1.00  0.00     0.178 HD
ENDBRANCH  37  40
ENDBRANCH   5  36
BRANCH   7  43
HETATM   43  N12 UNL     1      31.251   8.885   6.886  1.00  0.00    -0.249 N 
ATOM     44  H12 UNL     1      32.205   8.612   7.125  1.00  0.00     0.207 HD
BRANCH  43  45
HETATM   45  N13 UNL     1      30.876  10.247   7.034  1.00  0.00    -0.331 N 
ATOM     46 2H13 UNL     1      30.067  10.574   6.507  1.00  0.00     0.178 HD
ATOM     47 1H13 UNL     1      31.380  10.895   7.639  1.00  0.00     0.178 HD
ENDBRANCH  43  45
ENDBRANCH   7  43
TORSDOF 9
ENDMDL
MODEL 3
REMARK VINA RESULT: -6.716641369      2.794      4.663
REMARK  9 active torsions:
REMARK  status: ('A' for Active; 'I' for Inactive)
REMARK    1  A    between atoms: N5_16  and  C7_17 
REMARK    2  A    between atoms: C7_17  and  N6_18 
REMARK       I    between atoms: N6_18  and  C8_20 
REMARK    3  A    between atoms: C8_20  and  C9_22 
REMARK    4  A    between atoms: C10_25  and  O3_26 
REMARK    5  A    between atoms: C11_28  and  N8_29 
REMARK    6  A    between atoms: N9_31  and  N10_33 
REMARK    7  A    between atoms: N11_37  and  N12_39 
REMARK    8  A    between atoms: N12_39  and  N13_41 
REMARK    9  A    between atoms: C13_44  and  C14_45 
ROOT
HETATM    1  C9  UNL     1      26.048   3.765   3.117  1.00  0.00     0.120 A 
HETATM    2  N7  UNL     1      25.464   4.112   1.930  1.00  0.00    -0.330 N 
ATOM      3  H7  UNL     1      25.825   4.924   1.430  1.00  0.00     0.168 HD
HETATM    4  C10 UNL     1      24.439   3.435   1.395  1.00  0.00     0.172 A 
HETATM    5  C11 UNL     1      23.971   2.338   2.098  1.00  0.00     0.129 A 
HETATM    6  C12 UNL     1      24.524   1.960   3.278  1.00  0.00     0.099 A 
HETATM    7  N11 UNL     1      24.125   0.972   3.959  1.00  0.00    -0.283 N 
ATOM      8  H11 UNL     1      24.623   0.787   4.829  1.00  0.00     0.188 HD
HETATM    9  C13 UNL     1      25.615   2.693   3.830  1.00  0.00     0.092 A 
ENDROOT
BRANCH   1  10
HETATM   10  C8  UNL     1      27.133   4.618   3.549  1.00  0.00     0.274 C 
HETATM   11  N6  UNL     1      28.380   4.068   3.998  1.00  0.00    -0.317 N 
ATOM     12  H6  UNL     1      28.478   3.053   4.003  1.00  0.00     0.170 HD
HETATM   13  O2  UNL     1      27.008   5.856   3.542  1.00  0.00    -0.266 OA
BRANCH  11  14
HETATM   14  C7  UNL     1      29.504   4.859   4.444  1.00  0.00     0.192 C 
BRANCH  14  15
HETATM   15  N5  UNL     1      29.424   5.359   5.779  1.00  0.00    -0.297 N 
HETATM   16  C4  UNL     1      30.015   6.498   6.263  1.00  0.00     0.129 A 
HETATM   17  C3  UNL     1      30.839   7.402   5.616  1.00  0.00     0.134 A 
HETATM   18  C5  UNL     1      29.681   6.672   7.585  1.00  0.00     0.143 A 
HETATM   19  N2  UNL     1      31.324   8.480   6.299  1.00  0.00    -0.293 N 
HETATM   20  N3  UNL     1      31.131   7.212   4.398  1.00  0.00    -0.383 N 
HETATM   21  C2  UNL     1      30.989   8.640   7.591  1.00  0.00     0.329 A 
ATOM     22  H2  UNL     1      31.933   9.155   5.835  1.00  0.00     0.172 HD
HETATM   23  N1  UNL     1      30.188   7.760   8.222  1.00  0.00    -0.288 N 
HETATM   24  O1  UNL     1      31.426   9.620   8.225  1.00  0.00    -0.246 OA
HETATM   25  C1  UNL     1      29.833   7.934   9.604  1.00  0.00     0.163 C 
ATOM     26  H32 UNL     1      31.738   7.879   3.921  1.00  0.00     0.157 HD
ATOM     27  H31 UNL     1      30.769   6.407   3.888  1.00  0.00     0.157 HD
HETATM   28  N4  UNL     1      28.900   5.661   7.909  1.00  0.00    -0.336 N 
HETATM   29  C6  UNL     1      28.739   4.865   6.825  1.00  0.00     0.191 A 
ATOM     30  H4  UNL     1      28.483   5.504   8.827  1.00  0.00     0.168 HD
ENDBRANCH  14  15
ENDBRANCH  11  14
ENDBRANCH   1  10
BRANCH   9  31
HETATM   31  C14 UNL     1      26.222   2.160   5.037  1.00  0.00     0.269 C 
HETATM   32  N14 UNL     1      25.680   2.598   6.304  1.00  0.00    -0.057 NA
HETATM   33  O4  UNL     1      27.151   1.377   5.061  1.00  0.00    -0.271 OA
ENDBRANCH   9  31
BRANCH   4  34
HETATM   34  O3  UNL     1      23.848   3.782   0.198  1.00  0.00    -0.344 OA
ATOM     35  H3  UNL     1      22.914   3.929   0.103  1.00  0.00     0.219 HD
ENDBRANCH   4  34
BRANCH   5  36
HETATM   36  N8  UNL     1      22.868   1.614   1.508  1.00  0.00    -0.281 N 
HETATM   37  N9  UNL     1      21.721   2.121   1.418  1.00  0.00    -0.249 N 
ATOM     38  H9  UNL     1      21.002   1.539   0.988  1.00  0.00     0.207 HD
ATOM     39  H8  UNL     1      23.024   0.669   1.156  1.00  0.00     0.188 HD
BRANCH  37  40
HETATM   40  N10 UNL     1      21.323   3.372   1.836  1.00  0.00    -0.331 N 
ATOM     41 2H10 UNL     1      21.601   3.621   2.786  1.00  0.00     0.178 HD
ATOM     42 1H10 UNL     1      20.791   4.063   1.306  1.00  0.00     0.178 HD
ENDBRANCH  37  40
ENDBRANCH   5  36
BRANCH   7  43
HETATM   43  N12 UNL     1      23.095   0.122   3.648  1.00  0.00    -0.249 N 
ATOM     44  H12 UNL     1      23.196  -0.497   2.843  1.00  0.00     0.207 HD
BRANCH  43  45
HETATM   45  N13 UNL     1      21.892   0.068   4.400  1.00  0.00    -0.331 N 
ATOM     46 2H13 UNL     1      21.178   0.770   4.202  1.00  0.00     0.178 HD
ATOM     47 1H13 UNL     1      21.722  -0.636   5.119  1.00  0.00     0.178 HD
ENDBRANCH  43  45
ENDBRANCH   7  43
TORSDOF 9
ENDMDL
MODEL 4
REMARK VINA RESULT: -6.716040836      1.874      2.492
REMARK  9 active torsions:
REMARK  status: ('A' for Active; 'I' for Inactive)
REMARK    1  A    between atoms: N5_16  and  C7_17 
REMARK    2  A    between atoms: C7_17  and  N6_18 
REMARK       I    between atoms: N6_18  and  C8_20 
REMARK    3  A    between atoms: C8_20  and  C9_22 
REMARK    4  A    between atoms: C10_25  and  O3_26 
REMARK    5  A    between atoms: C11_28  and  N8_29 
REMARK    6  A    between atoms: N9_31  and  N10_33 
REMARK    7  A    between atoms: N11_37  and  N12_39 
REMARK    8  A    between atoms: N12_39  and  N13_41 
REMARK    9  A    between atoms: C13_44  and  C14_45 
ROOT
HETATM    1  C9  UNL     1      23.095   1.514   3.744  1.00  0.00     0.120 A 
HETATM    2  N7  UNL     1      23.156   0.698   4.840  1.00  0.00    -0.330 N 
ATOM      3  H7  UNL     1      23.888   0.865   5.530  1.00  0.00     0.168 HD
HETATM    4  C10 UNL     1      22.298  -0.310   5.050  1.00  0.00     0.172 A 
HETATM    5  C11 UNL     1      21.316  -0.512   4.095  1.00  0.00     0.129 A 
HETATM    6  C12 UNL     1      21.221   0.276   2.994  1.00  0.00     0.099 A 
HETATM    7  N11 UNL     1      20.347   0.126   2.093  1.00  0.00    -0.283 N 
ATOM      8  H11 UNL     1      20.376   0.783   1.314  1.00  0.00     0.188 HD
HETATM    9  C13 UNL     1      22.142   1.345   2.791  1.00  0.00     0.092 A 
ENDROOT
BRANCH   1  10
HETATM   10  C8  UNL     1      24.110   2.541   3.677  1.00  0.00     0.274 C 
HETATM   11  N6  UNL     1      24.278   3.494   4.737  1.00  0.00    -0.317 N 
ATOM     12  H6  UNL     1      23.657   3.423   5.543  1.00  0.00     0.170 HD
HETATM   13  O2  UNL     1      24.864   2.625   2.691  1.00  0.00    -0.266 OA
BRANCH  11  14
HETATM   14  C7  UNL     1      25.268   4.546   4.736  1.00  0.00     0.192 C 
BRANCH  14  15
HETATM   15  N5  UNL     1      26.462   4.279   5.472  1.00  0.00    -0.297 N 
HETATM   16  C4  UNL     1      27.710   4.049   4.952  1.00  0.00     0.129 A 
HETATM   17  C3  UNL     1      28.111   3.985   3.629  1.00  0.00     0.134 A 
HETATM   18  C5  UNL     1      28.615   3.868   5.971  1.00  0.00     0.143 A 
HETATM   19  N2  UNL     1      29.421   3.740   3.333  1.00  0.00    -0.293 N 
HETATM   20  N3  UNL     1      27.253   4.154   2.713  1.00  0.00    -0.383 N 
HETATM   21  C2  UNL     1      30.297   3.566   4.339  1.00  0.00     0.329 A 
ATOM     22  H2  UNL     1      29.732   3.690   2.363  1.00  0.00     0.172 HD
HETATM   23  N1  UNL     1      29.907   3.627   5.627  1.00  0.00    -0.288 N 
HETATM   24  O1  UNL     1      31.496   3.341   4.081  1.00  0.00    -0.246 OA
HETATM   25  C1  UNL     1      30.846   3.440   6.699  1.00  0.00     0.163 C 
ATOM     26  H32 UNL     1      27.549   4.106   1.738  1.00  0.00     0.157 HD
ATOM     27  H31 UNL     1      26.274   4.337   2.934  1.00  0.00     0.157 HD
HETATM   28  N4  UNL     1      27.938   3.984   7.096  1.00  0.00    -0.336 N 
HETATM   29  C6  UNL     1      26.639   4.233   6.804  1.00  0.00     0.191 A 
ATOM     30  H4  UNL     1      28.330   3.901   8.034  1.00  0.00     0.168 HD
ENDBRANCH  14  15
ENDBRANCH  11  14
ENDBRANCH   1  10
BRANCH   9  31
HETATM   31  C14 UNL     1      21.904   2.210   1.648  1.00  0.00     0.269 C 
HETATM   32  N14 UNL     1      22.502   1.826   0.388  1.00  0.00    -0.057 NA
HETATM   33  O4  UNL     1      21.245   3.230   1.674  1.00  0.00    -0.271 OA
ENDBRANCH   9  31
BRANCH   4  34
HETATM   34  O3  UNL     1      22.357  -1.134   6.153  1.00  0.00    -0.344 OA
ATOM     35  H3  UNL     1      21.958  -1.996   6.181  1.00  0.00     0.219 HD
ENDBRANCH   4  34
BRANCH   5  36
HETATM   36  N8  UNL     1      20.395  -1.599   4.334  1.00  0.00    -0.281 N 
HETATM   37  N9  UNL     1      20.745  -2.800   4.200  1.00  0.00    -0.249 N 
ATOM     38  H9  UNL     1      20.031  -3.502   4.390  1.00  0.00     0.207 HD
ATOM     39  H8  UNL     1      19.438  -1.388   4.618  1.00  0.00     0.188 HD
BRANCH  37  40
HETATM   40  N10 UNL     1      21.984  -3.274   3.826  1.00  0.00    -0.331 N 
ATOM     41 2H10 UNL     1      22.773  -2.875   4.335  1.00  0.00     0.178 HD
ATOM     42 1H10 UNL     1      22.191  -3.968   3.107  1.00  0.00     0.178 HD
ENDBRANCH  37  40
ENDBRANCH   5  36
BRANCH   7  43
HETATM   43  N12 UNL     1      19.362  -0.829   2.054  1.00  0.00    -0.249 N 
ATOM     44  H12 UNL     1      18.625  -0.800   2.759  1.00  0.00     0.207 HD
BRANCH  43  45
HETATM   45  N13 UNL     1      19.328  -1.856   1.075  1.00  0.00    -0.331 N 
ATOM     46 2H13 UNL     1      18.973  -2.769   1.359  1.00  0.00     0.178 HD
ATOM     47 1H13 UNL     1      19.641  -1.712   0.114  1.00  0.00     0.178 HD
ENDBRANCH  43  45
ENDBRANCH   7  43
TORSDOF 9
ENDMDL
MODEL 5
REMARK VINA RESULT: -6.709491601      2.106      2.488
REMARK  9 active torsions:
REMARK  status: ('A' for Active; 'I' for Inactive)
REMARK    1  A    between atoms: N5_16  and  C7_17 
REMARK    2  A    between atoms: C7_17  and  N6_18 
REMARK       I    between atoms: N6_18  and  C8_20 
REMARK    3  A    between atoms: C8_20  and  C9_22 
REMARK    4  A    between atoms: C10_25  and  O3_26 
REMARK    5  A    between atoms: C11_28  and  N8_29 
REMARK    6  A    between atoms: N9_31  and  N10_33 
REMARK    7  A    between atoms: N11_37  and  N12_39 
REMARK    8  A    between atoms: N12_39  and  N13_41 
REMARK    9  A    between atoms: C13_44  and  C14_45 
ROOT
HETATM    1  C9  UNL     1      23.501   1.265   3.164  1.00  0.00     0.120 A 
HETATM    2  N7  UNL     1      23.619   0.656   4.383  1.00  0.00    -0.330 N 
ATOM      3  H7  UNL     1      24.449   0.848   4.944  1.00  0.00     0.168 HD
HETATM    4  C10 UNL     1      22.694  -0.179   4.875  1.00  0.00     0.172 A 
HETATM    5  C11 UNL     1      21.579  -0.420   4.090  1.00  0.00     0.129 A 
HETATM    6  C12 UNL     1      21.425   0.165   2.875  1.00  0.00     0.099 A 
HETATM    7  N11 UNL     1      20.429  -0.030   2.121  1.00  0.00    -0.283 N 
ATOM      8  H11 UNL     1      20.426   0.469   1.231  1.00  0.00     0.188 HD
HETATM    9  C13 UNL     1      22.419   1.053   2.371  1.00  0.00     0.092 A 
ENDROOT
BRANCH   1  10
HETATM   10  C8  UNL     1      24.603   2.124   2.790  1.00  0.00     0.274 C 
HETATM   11  N6  UNL     1      24.950   3.273   3.575  1.00  0.00    -0.317 N 
ATOM     12  H6  UNL     1      24.396   3.466   4.409  1.00  0.00     0.170 HD
HETATM   13  O2  UNL     1      25.276   1.887   1.771  1.00  0.00    -0.266 OA
BRANCH  11  14
HETATM   14  C7  UNL     1      26.035   4.176   3.261  1.00  0.00     0.192 C 
BRANCH  14  15
HETATM   15  N5  UNL     1      27.292   3.874   3.867  1.00  0.00    -0.297 N 
HETATM   16  C4  UNL     1      28.142   4.763   4.474  1.00  0.00     0.129 A 
HETATM   17  C3  UNL     1      28.021   6.135   4.618  1.00  0.00     0.134 A 
HETATM   18  C5  UNL     1      29.236   4.097   4.973  1.00  0.00     0.143 A 
HETATM   19  N2  UNL     1      29.000   6.833   5.264  1.00  0.00    -0.293 N 
HETATM   20  N3  UNL     1      27.002   6.719   4.144  1.00  0.00    -0.383 N 
HETATM   21  C2  UNL     1      30.064   6.170   5.749  1.00  0.00     0.329 A 
ATOM     22  H2  UNL     1      28.925   7.844   5.378  1.00  0.00     0.172 HD
HETATM   23  N1  UNL     1      30.183   4.836   5.608  1.00  0.00    -0.288 N 
HETATM   24  O1  UNL     1      30.965   6.797   6.341  1.00  0.00    -0.246 OA
HETATM   25  C1  UNL     1      31.323   4.131   6.128  1.00  0.00     0.163 C 
ATOM     26  H32 UNL     1      26.914   7.730   4.250  1.00  0.00     0.157 HD
ATOM     27  H31 UNL     1      26.271   6.198   3.661  1.00  0.00     0.157 HD
HETATM   28  N4  UNL     1      29.063   2.824   4.681  1.00  0.00    -0.336 N 
HETATM   29  C6  UNL     1      27.893   2.681   4.014  1.00  0.00     0.191 A 
ATOM     30  H4  UNL     1      29.707   2.069   4.918  1.00  0.00     0.168 HD
ENDBRANCH  14  15
ENDBRANCH  11  14
ENDBRANCH   1  10
BRANCH   9  31
HETATM   31  C14 UNL     1      22.127   1.724   1.116  1.00  0.00     0.269 C 
HETATM   32  N14 UNL     1      21.355   2.946   1.178  1.00  0.00    -0.057 NA
HETATM   33  O4  UNL     1      22.481   1.334   0.021  1.00  0.00    -0.271 OA
ENDBRANCH   9  31
BRANCH   4  34
HETATM   34  O3  UNL     1      22.809  -0.795   6.104  1.00  0.00    -0.344 OA
ATOM     35  H3  UNL     1      23.481  -0.571   6.737  1.00  0.00     0.219 HD
ENDBRANCH   4  34
BRANCH   5  36
HETATM   36  N8  UNL     1      20.588  -1.320   4.633  1.00  0.00    -0.281 N 
HETATM   37  N9  UNL     1      20.783  -2.561   4.685  1.00  0.00    -0.249 N 
ATOM     38  H9  UNL     1      20.030  -3.120   5.084  1.00  0.00     0.207 HD
ATOM     39  H8  UNL     1      19.708  -0.939   4.982  1.00  0.00     0.188 HD
BRANCH  37  40
HETATM   40  N10 UNL     1      21.900  -3.251   4.265  1.00  0.00    -0.331 N 
ATOM     41 2H10 UNL     1      21.834  -4.266   4.336  1.00  0.00     0.178 HD
ATOM     42 1H10 UNL     1      22.767  -2.860   3.897  1.00  0.00     0.178 HD
ENDBRANCH  37  40
ENDBRANCH   5  36
BRANCH   7  43
HETATM   43  N12 UNL     1      19.352  -0.841   2.374  1.00  0.00    -0.249 N 
ATOM     44  H12 UNL     1      18.723  -0.594   3.138  1.00  0.00     0.207 HD
BRANCH  43  45
HETATM   45  N13 UNL     1      19.078  -2.011   1.617  1.00  0.00    -0.331 N 
ATOM     46 2H13 UNL     1      19.166  -2.910   2.088  1.00  0.00     0.178 HD
ATOM     47 1H13 UNL     1      18.801  -1.979   0.636  1.00  0.00     0.178 HD
ENDBRANCH  43  45
ENDBRANCH   7  43
TORSDOF 9
ENDMDL
