MODEL 1
REMARK VINA RESULT: -7.588402654      0.000      0.000
REMARK  5 active torsions:
REMARK  status: ('A' for Active; 'I' for Inactive)
REMARK       I    between atoms: N1_2  and  C2_4 
REMARK       I    between atoms: C2_4  and  N2_6 
REMARK    1  A    between atoms: N2_6  and  C3_8 
REMARK    2  A    between atoms: C5_10  and  C6_11 
REMARK       I    between atoms: N3_14  and  C7_15 
REMARK    3  A    between atoms: C7_15  and  C8_17 
REMARK    4  A    between atoms: C8_17  and  N4_18 
REMARK       I    between atoms: N4_18  and  C9_20 
REMARK       I    between atoms: C9_20  and  N5_22 
REMARK    5  A    between atoms: N5_22  and  C10_24 
ROOT
HETATM    1  C3  UNL     1     105.261  17.491  19.049  1.00  0.00     0.106 C 
HETATM    2  C4  UNL     1     105.303  18.179  17.704  1.00  0.00     0.063 C 
HETATM    3  C5  UNL     1     104.639  17.161  16.715  1.00  0.00     0.190 C 
HETATM    4  N3  UNL     1     103.953  16.291  17.604  1.00  0.00    -0.334 N 
HETATM    5  C7  UNL     1     102.731  15.658  17.783  1.00  0.00     0.238 C 
HETATM    6  O4  UNL     1     102.620  14.902  18.829  1.00  0.00    -0.272 OA
HETATM    7  C14 UNL     1     105.069  16.059  18.627  1.00  0.00     0.152 C 
ENDROOT
BRANCH   3   8
HETATM    8  C6  UNL     1     103.994  17.943  15.716  1.00  0.00     0.197 C 
HETATM    9  O2  UNL     1     103.928  17.734  14.516  1.00  0.00    -0.646 OA
HETATM   10  O3  UNL     1     103.335  19.128  16.154  1.00  0.00    -0.646 OA
ENDBRANCH   3   8
BRANCH   5  11
HETATM   11  C8  UNL     1     101.519  15.707  16.962  1.00  0.00     0.227 C 
BRANCH  11  12
HETATM   12  N4  UNL     1     101.631  16.643  15.826  1.00  0.00    -0.334 N 
HETATM   13  C9  UNL     1     100.540  17.451  15.445  1.00  0.00     0.317 C 
HETATM   14  O5  UNL     1      99.451  17.378  16.049  1.00  0.00    -0.247 OA
HETATM   15  N5  UNL     1     100.677  18.352  14.370  1.00  0.00    -0.335 N 
ATOM     16  H5  UNL     1     101.568  18.411  13.877  1.00  0.00     0.165 HD
ATOM     17  H4  UNL     1     102.509  16.708  15.311  1.00  0.00     0.164 HD
BRANCH  15  18
HETATM   18  C10 UNL     1      99.577  19.197  13.951  1.00  0.00     0.023 C 
HETATM   19  C11 UNL     1      98.651  19.510  15.114  1.00  0.00     0.037 C 
HETATM   20  C12 UNL     1      98.766  18.555  12.867  1.00  0.00     0.037 C 
HETATM   21  C13 UNL     1     100.087  20.517  13.430  1.00  0.00     0.037 C 
ENDBRANCH  15  18
ENDBRANCH  11  12
ENDBRANCH   5  11
BRANCH   1  22
HETATM   22  N2  UNL     1     106.439  17.704  19.820  1.00  0.00    -0.337 N 
HETATM   23  C2  UNL     1     106.410  17.582  21.230  1.00  0.00     0.316 C 
HETATM   24  N1  UNL     1     107.561  17.784  22.035  1.00  0.00    -0.347 N 
HETATM   25  O1  UNL     1     105.333  17.285  21.783  1.00  0.00    -0.247 OA
HETATM   26  C1  UNL     1     107.491  17.650  23.475  1.00  0.00     0.151 C 
ATOM     27  H1  UNL     1     108.447  18.027  21.594  1.00  0.00     0.163 HD
ATOM     28  H2  UNL     1     107.313  17.945  19.351  1.00  0.00     0.164 HD
ENDBRANCH   1  22
TORSDOF 5
ENDMDL
MODEL 2
REMARK VINA RESULT: -7.307063741      4.773      7.073
REMARK  5 active torsions:
REMARK  status: ('A' for Active; 'I' for Inactive)
REMARK       I    between atoms: N1_2  and  C2_4 
REMARK       I    between atoms: C2_4  and  N2_6 
REMARK    1  A    between atoms: N2_6  and  C3_8 
REMARK    2  A    between atoms: C5_10  and  C6_11 
REMARK       I    between atoms: N3_14  and  C7_15 
REMARK    3  A    between atoms: C7_15  and  C8_17 
REMARK    4  A    between atoms: C8_17  and  N4_18 
REMARK       I    between atoms: N4_18  and  C9_20 
REMARK       I    between atoms: C9_20  and  N5_22 
REMARK    5  A    between atoms: N5_22  and  C10_24 
ROOT
HETATM    1  C3  UNL     1     105.135  17.442  17.407  1.00  0.00     0.106 C 
HETATM    2  C4  UNL     1     104.437  16.573  16.387  1.00  0.00     0.063 C 
HETATM    3  C5  UNL     1     104.210  17.511  15.152  1.00  0.00     0.190 C 
HETATM    4  N3  UNL     1     105.121  18.569  15.415  1.00  0.00    -0.334 N 
HETATM    5  C7  UNL     1     106.085  19.355  14.799  1.00  0.00     0.238 C 
HETATM    6  O4  UNL     1     106.651  20.258  15.536  1.00  0.00    -0.272 OA
HETATM    7  C14 UNL     1     104.791  18.814  16.890  1.00  0.00     0.152 C 
ENDROOT
BRANCH   3   8
HETATM    8  C6  UNL     1     104.276  16.675  14.002  1.00  0.00     0.197 C 
HETATM    9  O2  UNL     1     104.979  16.800  13.014  1.00  0.00    -0.646 OA
HETATM   10  O3  UNL     1     103.416  15.539  13.985  1.00  0.00    -0.646 OA
ENDBRANCH   3   8
BRANCH   5  11
HETATM   11  C8  UNL     1     106.576  19.329  13.419  1.00  0.00     0.227 C 
BRANCH  11  12
HETATM   12  N4  UNL     1     107.738  18.437  13.239  1.00  0.00    -0.334 N 
HETATM   13  C9  UNL     1     108.966  18.938  12.758  1.00  0.00     0.317 C 
HETATM   14  O5  UNL     1     109.090  20.142  12.459  1.00  0.00    -0.247 OA
HETATM   15  N5  UNL     1     110.068  18.071  12.613  1.00  0.00    -0.335 N 
ATOM     16  H5  UNL     1     109.965  17.086  12.860  1.00  0.00     0.165 HD
ATOM     17  H4  UNL     1     107.653  17.446  13.466  1.00  0.00     0.164 HD
BRANCH  15  18
HETATM   18  C10 UNL     1     111.343  18.550  12.122  1.00  0.00     0.023 C 
HETATM   19  C11 UNL     1     111.723  19.867  12.777  1.00  0.00     0.037 C 
HETATM   20  C12 UNL     1     111.326  18.753  10.638  1.00  0.00     0.037 C 
HETATM   21  C13 UNL     1     112.442  17.567  12.444  1.00  0.00     0.037 C 
ENDBRANCH  15  18
ENDBRANCH  11  12
ENDBRANCH   5  11
BRANCH   1  22
HETATM   22  N2  UNL     1     104.685  17.208  18.738  1.00  0.00    -0.337 N 
HETATM   23  C2  UNL     1     105.559  17.393  19.837  1.00  0.00     0.316 C 
HETATM   24  N1  UNL     1     105.153  17.171  21.178  1.00  0.00    -0.347 N 
HETATM   25  O1  UNL     1     106.729  17.765  19.616  1.00  0.00    -0.247 OA
HETATM   26  C1  UNL     1     106.075  17.372  22.275  1.00  0.00     0.151 C 
ATOM     27  H1  UNL     1     104.199  16.867  21.371  1.00  0.00     0.163 HD
ATOM     28  H2  UNL     1     103.725  16.904  18.901  1.00  0.00     0.164 HD
ENDBRANCH   1  22
TORSDOF 5
ENDMDL
MODEL 3
REMARK VINA RESULT: -7.238195465      4.652      6.653
REMARK  5 active torsions:
REMARK  status: ('A' for Active; 'I' for Inactive)
REMARK       I    between atoms: N1_2  and  C2_4 
REMARK       I    between atoms: C2_4  and  N2_6 
REMARK    1  A    between atoms: N2_6  and  C3_8 
REMARK    2  A    between atoms: C5_10  and  C6_11 
REMARK       I    between atoms: N3_14  and  C7_15 
REMARK    3  A    between atoms: C7_15  and  C8_17 
REMARK    4  A    between atoms: C8_17  and  N4_18 
REMARK       I    between atoms: N4_18  and  C9_20 
REMARK       I    between atoms: C9_20  and  N5_22 
REMARK    5  A    between atoms: N5_22  and  C10_24 
ROOT
HETATM    1  C3  UNL     1     105.127  17.386  17.502  1.00  0.00     0.106 C 
HETATM    2  C4  UNL     1     104.461  16.441  16.528  1.00  0.00     0.063 C 
HETATM    3  C5  UNL     1     104.084  17.337  15.299  1.00  0.00     0.190 C 
HETATM    4  N3  UNL     1     104.904  18.479  15.502  1.00  0.00    -0.334 N 
HETATM    5  C7  UNL     1     105.756  19.341  14.828  1.00  0.00     0.238 C 
HETATM    6  O4  UNL     1     106.274  20.303  15.525  1.00  0.00    -0.272 OA
HETATM    7  C14 UNL     1     104.630  18.713  16.991  1.00  0.00     0.152 C 
ENDROOT
BRANCH   3   8
HETATM    8  C6  UNL     1     104.166  16.494  14.155  1.00  0.00     0.197 C 
HETATM    9  O2  UNL     1     104.983  16.525  13.249  1.00  0.00    -0.646 OA
HETATM   10  O3  UNL     1     103.177  15.476  14.034  1.00  0.00    -0.646 OA
ENDBRANCH   3   8
BRANCH   5  11
HETATM   11  C8  UNL     1     106.175  19.342  13.424  1.00  0.00     0.227 C 
BRANCH  11  12
HETATM   12  N4  UNL     1     107.380  18.525  13.184  1.00  0.00    -0.334 N 
HETATM   13  C9  UNL     1     108.139  18.686  12.006  1.00  0.00     0.317 C 
HETATM   14  O5  UNL     1     107.798  19.511  11.135  1.00  0.00    -0.247 OA
HETATM   15  N5  UNL     1     109.298  17.909  11.807  1.00  0.00    -0.335 N 
ATOM     16  H5  UNL     1     109.576  17.235  12.520  1.00  0.00     0.165 HD
ATOM     17  H4  UNL     1     107.669  17.835  13.878  1.00  0.00     0.164 HD
BRANCH  15  18
HETATM   18  C10 UNL     1     110.101  18.048  10.609  1.00  0.00     0.023 C 
HETATM   19  C11 UNL     1     110.543  19.487  10.409  1.00  0.00     0.037 C 
HETATM   20  C12 UNL     1     109.353  17.613   9.386  1.00  0.00     0.037 C 
HETATM   21  C13 UNL     1     111.354  17.214  10.708  1.00  0.00     0.037 C 
ENDBRANCH  15  18
ENDBRANCH  11  12
ENDBRANCH   5  11
BRANCH   1  22
HETATM   22  N2  UNL     1     104.773  17.130  18.857  1.00  0.00    -0.337 N 
HETATM   23  C2  UNL     1     105.674  17.430  19.907  1.00  0.00     0.316 C 
HETATM   24  N1  UNL     1     105.361  17.192  21.270  1.00  0.00    -0.347 N 
HETATM   25  O1  UNL     1     106.783  17.924  19.621  1.00  0.00    -0.247 OA
HETATM   26  C1  UNL     1     106.308  17.513  22.315  1.00  0.00     0.151 C 
ATOM     27  H1  UNL     1     104.457  16.789  21.516  1.00  0.00     0.163 HD
ATOM     28  H2  UNL     1     103.860  16.727  19.073  1.00  0.00     0.164 HD
ENDBRANCH   1  22
TORSDOF 5
ENDMDL
MODEL 4
REMARK VINA RESULT: -7.172900116      4.284      6.010
REMARK  5 active torsions:
REMARK  status: ('A' for Active; 'I' for Inactive)
REMARK       I    between atoms: N1_2  and  C2_4 
REMARK       I    between atoms: C2_4  and  N2_6 
REMARK    1  A    between atoms: N2_6  and  C3_8 
REMARK    2  A    between atoms: C5_10  and  C6_11 
REMARK       I    between atoms: N3_14  and  C7_15 
REMARK    3  A    between atoms: C7_15  and  C8_17 
REMARK    4  A    between atoms: C8_17  and  N4_18 
REMARK       I    between atoms: N4_18  and  C9_20 
REMARK       I    between atoms: C9_20  and  N5_22 
REMARK    5  A    between atoms: N5_22  and  C10_24 
ROOT
HETATM    1  C3  UNL     1     104.579  16.860  18.199  1.00  0.00     0.106 C 
HETATM    2  C4  UNL     1     103.357  16.329  17.488  1.00  0.00     0.063 C 
HETATM    3  C5  UNL     1     103.198  17.249  16.229  1.00  0.00     0.190 C 
HETATM    4  N3  UNL     1     104.483  17.848  16.136  1.00  0.00    -0.334 N 
HETATM    5  C7  UNL     1     105.477  18.156  15.219  1.00  0.00     0.238 C 
HETATM    6  O4  UNL     1     106.522  18.765  15.684  1.00  0.00    -0.272 OA
HETATM    7  C14 UNL     1     104.674  18.241  17.604  1.00  0.00     0.152 C 
ENDROOT
BRANCH   3   8
HETATM    8  C6  UNL     1     102.627  16.432  15.212  1.00  0.00     0.197 C 
HETATM    9  O2  UNL     1     103.193  15.662  14.454  1.00  0.00    -0.646 OA
HETATM   10  O3  UNL     1     101.215  16.512  15.041  1.00  0.00    -0.646 OA
ENDBRANCH   3   8
BRANCH   5  11
HETATM   11  C8  UNL     1     105.539  17.899  13.778  1.00  0.00     0.227 C 
BRANCH  11  12
HETATM   12  N4  UNL     1     106.910  17.642  13.298  1.00  0.00    -0.334 N 
HETATM   13  C9  UNL     1     107.386  18.243  12.115  1.00  0.00     0.317 C 
HETATM   14  O5  UNL     1     106.652  18.992  11.440  1.00  0.00    -0.247 OA
HETATM   15  N5  UNL     1     108.707  17.999  11.686  1.00  0.00    -0.335 N 
ATOM     16  H5  UNL     1     109.306  17.387  12.240  1.00  0.00     0.165 HD
ATOM     17  H4  UNL     1     107.522  17.022  13.829  1.00  0.00     0.164 HD
BRANCH  15  18
HETATM   18  C10 UNL     1     109.228  18.600  10.476  1.00  0.00     0.023 C 
HETATM   19  C11 UNL     1     109.258  20.114  10.583  1.00  0.00     0.037 C 
HETATM   20  C12 UNL     1     108.411  18.231   9.277  1.00  0.00     0.037 C 
HETATM   21  C13 UNL     1     110.647  18.150  10.227  1.00  0.00     0.037 C 
ENDBRANCH  15  18
ENDBRANCH  11  12
ENDBRANCH   5  11
BRANCH   1  22
HETATM   22  N2  UNL     1     104.441  16.862  19.617  1.00  0.00    -0.337 N 
HETATM   23  C2  UNL     1     105.528  17.230  20.447  1.00  0.00     0.316 C 
HETATM   24  N1  UNL     1     105.433  17.245  21.862  1.00  0.00    -0.347 N 
HETATM   25  O1  UNL     1     106.607  17.554  19.912  1.00  0.00    -0.247 OA
HETATM   26  C1  UNL     1     106.567  17.629  22.677  1.00  0.00     0.151 C 
ATOM     27  H1  UNL     1     104.557  16.983  22.311  1.00  0.00     0.163 HD
ATOM     28  H2  UNL     1     103.551  16.595  20.038  1.00  0.00     0.164 HD
ENDBRANCH   1  22
TORSDOF 5
ENDMDL
MODEL 5
REMARK VINA RESULT: -7.149875408      0.882      1.232
REMARK  5 active torsions:
REMARK  status: ('A' for Active; 'I' for Inactive)
REMARK       I    between atoms: N1_2  and  C2_4 
REMARK       I    between atoms: C2_4  and  N2_6 
REMARK    1  A    between atoms: N2_6  and  C3_8 
REMARK    2  A    between atoms: C5_10  and  C6_11 
REMARK       I    between atoms: N3_14  and  C7_15 
REMARK    3  A    between atoms: C7_15  and  C8_17 
REMARK    4  A    between atoms: C8_17  and  N4_18 
REMARK       I    between atoms: N4_18  and  C9_20 
REMARK       I    between atoms: C9_20  and  N5_22 
REMARK    5  A    between atoms: N5_22  and  C10_24 
ROOT
HETATM    1  C3  UNL     1     105.103  17.697  18.134  1.00  0.00     0.106 C 
HETATM    2  C4  UNL     1     105.315  17.913  16.654  1.00  0.00     0.063 C 
HETATM    3  C5  UNL     1     104.506  16.761  15.964  1.00  0.00     0.190 C 
HETATM    4  N3  UNL     1     103.644  16.338  17.010  1.00  0.00    -0.334 N 
HETATM    5  C7  UNL     1     102.321  16.004  17.264  1.00  0.00     0.238 C 
HETATM    6  O4  UNL     1     102.039  15.642  18.476  1.00  0.00    -0.272 OA
HETATM    7  C14 UNL     1     104.664  16.256  18.149  1.00  0.00     0.152 C 
ENDROOT
BRANCH   3   8
HETATM    8  C6  UNL     1     104.049  17.287  14.723  1.00  0.00     0.197 C 
HETATM    9  O2  UNL     1     103.962  16.720  13.646  1.00  0.00    -0.646 OA
HETATM   10  O3  UNL     1     103.635  18.651  14.716  1.00  0.00    -0.646 OA
ENDBRANCH   3   8
BRANCH   5  11
HETATM   11  C8  UNL     1     101.166  15.993  16.363  1.00  0.00     0.227 C 
BRANCH  11  12
HETATM   12  N4  UNL     1     101.271  16.990  15.280  1.00  0.00    -0.334 N 
HETATM   13  C9  UNL     1     100.241  17.927  15.058  1.00  0.00     0.317 C 
HETATM   14  O5  UNL     1      99.211  17.922  15.761  1.00  0.00    -0.247 OA
HETATM   15  N5  UNL     1     100.373  18.883  14.030  1.00  0.00    -0.335 N 
ATOM     16  H5  UNL     1     101.217  18.887  13.456  1.00  0.00     0.165 HD
ATOM     17  H4  UNL     1     102.100  17.002  14.685  1.00  0.00     0.164 HD
BRANCH  15  18
HETATM   18  C10 UNL     1      99.335  19.860  13.774  1.00  0.00     0.023 C 
HETATM   19  C11 UNL     1      98.275  19.303  12.841  1.00  0.00     0.037 C 
HETATM   20  C12 UNL     1      99.889  21.110  13.161  1.00  0.00     0.037 C 
HETATM   21  C13 UNL     1      98.635  20.242  15.055  1.00  0.00     0.037 C 
ENDBRANCH  15  18
ENDBRANCH  11  12
ENDBRANCH   5  11
BRANCH   1  22
HETATM   22  N2  UNL     1     106.275  17.942  18.905  1.00  0.00    -0.337 N 
HETATM   23  C2  UNL     1     106.281  17.711  20.302  1.00  0.00     0.316 C 
HETATM   24  N1  UNL     1     107.426  17.942  21.107  1.00  0.00    -0.347 N 
HETATM   25  O1  UNL     1     105.239  17.290  20.843  1.00  0.00    -0.247 OA
HETATM   26  C1  UNL     1     107.392  17.694  22.533  1.00  0.00     0.151 C 
ATOM     27  H1  UNL     1     108.283  18.286  20.676  1.00  0.00     0.163 HD
ATOM     28  H2  UNL     1     107.119  18.286  18.446  1.00  0.00     0.164 HD
ENDBRANCH   1  22
TORSDOF 5
ENDMDL
