MODEL 1
REMARK VINA RESULT: -6.722586238      0.000      0.000
REMARK  5 active torsions:
REMARK  status: ('A' for Active; 'I' for Inactive)
REMARK    1  A    between atoms: C2_2  and  N1_3 
REMARK    2  A    between atoms: C2_2  and  C12_22 
REMARK       I    between atoms: N1_3  and  C3_5 
REMARK       I    between atoms: C3_5  and  N2_7 
REMARK    3  A    between atoms: N2_7  and  C4_9 
REMARK    4  A    between atoms: N3_16  and  C9_17 
REMARK    5  A    between atoms: C9_17  and  O3_20 
ROOT
HETATM    1  C4  UNL     1     103.341  16.751  17.847  1.00  0.00     0.111 C 
HETATM    2  C5  UNL     1     102.243  16.118  17.006  1.00  0.00     0.102 C 
HETATM    3  S1  UNL     1     101.712  17.453  15.908  1.00  0.00    -0.141 SA
HETATM    4  C6  UNL     1     102.945  18.656  16.316  1.00  0.00     0.167 C 
HETATM    5  C7  UNL     1     103.968  17.813  17.086  1.00  0.00     0.134 C 
HETATM    6  C8  UNL     1     104.270  17.373  15.699  1.00  0.00     0.232 C 
HETATM    7  O2  UNL     1     104.601  16.342  15.056  1.00  0.00    -0.273 OA
HETATM    8  N3  UNL     1     104.012  18.725  15.320  1.00  0.00    -0.306 N 
ENDROOT
BRANCH   1   9
HETATM    9  N2  UNL     1     102.827  17.058  19.126  1.00  0.00    -0.337 N 
HETATM   10  C3  UNL     1     103.624  16.718  20.331  1.00  0.00     0.321 C 
HETATM   11  N1  UNL     1     103.023  16.875  21.546  1.00  0.00    -0.307 N 
HETATM   12  O1  UNL     1     104.769  16.301  20.145  1.00  0.00    -0.247 OA
ATOM     13  H1  UNL     1     102.049  17.179  21.524  1.00  0.00     0.170 HD
ATOM     14  H2  UNL     1     101.917  17.509  19.221  1.00  0.00     0.164 HD
BRANCH  11  15
HETATM   15  C2  UNL     1     103.582  16.669  22.848  1.00  0.00     0.086 C 
HETATM   16  C1  UNL     1     104.815  17.456  23.036  1.00  0.00     0.076 C 
BRANCH  15  17
HETATM   17  C12 UNL     1     102.600  16.544  23.930  1.00  0.00     0.222 C 
HETATM   18  O4  UNL     1     102.605  15.775  24.891  1.00  0.00    -0.643 OA
HETATM   19  O5  UNL     1     101.457  17.441  23.872  1.00  0.00    -0.643 OA
ENDBRANCH  15  17
ENDBRANCH  11  15
ENDBRANCH   1   9
BRANCH   8  20
HETATM   20  C9  UNL     1     104.675  19.607  14.449  1.00  0.00     0.129 C 
HETATM   21  C10 UNL     1     105.291  20.774  15.172  1.00  0.00     0.070 C 
HETATM   22  C11 UNL     1     103.777  20.121  13.336  1.00  0.00     0.070 C 
BRANCH  20  23
HETATM   23  O3  UNL     1     105.765  18.960  13.822  1.00  0.00    -0.371 OA
ATOM     24  H3  UNL     1     106.550  19.492  13.885  1.00  0.00     0.212 HD
ENDBRANCH  20  23
ENDBRANCH   8  20
TORSDOF 5
ENDMDL
MODEL 2
REMARK VINA RESULT: -6.474217175      3.488      4.716
REMARK  5 active torsions:
REMARK  status: ('A' for Active; 'I' for Inactive)
REMARK    1  A    between atoms: C2_2  and  N1_3 
REMARK    2  A    between atoms: C2_2  and  C12_22 
REMARK       I    between atoms: N1_3  and  C3_5 
REMARK       I    between atoms: C3_5  and  N2_7 
REMARK    3  A    between atoms: N2_7  and  C4_9 
REMARK    4  A    between atoms: N3_16  and  C9_17 
REMARK    5  A    between atoms: C9_17  and  O3_20 
ROOT
HETATM    1  C4  UNL     1     103.819  16.627  19.504  1.00  0.00     0.111 C 
HETATM    2  C5  UNL     1     102.576  16.623  20.381  1.00  0.00     0.102 C 
HETATM    3  S1  UNL     1     101.476  17.815  19.581  1.00  0.00    -0.141 SA
HETATM    4  C6  UNL     1     102.417  18.122  18.114  1.00  0.00     0.167 C 
HETATM    5  C7  UNL     1     103.441  16.982  18.150  1.00  0.00     0.134 C 
HETATM    6  C8  UNL     1     102.238  16.228  17.713  1.00  0.00     0.232 C 
HETATM    7  O2  UNL     1     101.683  15.108  17.867  1.00  0.00    -0.273 OA
HETATM    8  N3  UNL     1     101.905  17.392  16.956  1.00  0.00    -0.306 N 
ENDROOT
BRANCH   1   9
HETATM    9  N2  UNL     1     104.831  17.381  20.136  1.00  0.00    -0.337 N 
HETATM   10  C3  UNL     1     106.224  17.300  19.628  1.00  0.00     0.321 C 
HETATM   11  N1  UNL     1     107.198  17.907  20.366  1.00  0.00    -0.307 N 
HETATM   12  O1  UNL     1     106.401  16.673  18.581  1.00  0.00    -0.247 OA
ATOM     13  H1  UNL     1     106.890  18.338  21.238  1.00  0.00     0.170 HD
ATOM     14  H2  UNL     1     104.608  17.975  20.934  1.00  0.00     0.164 HD
BRANCH  11  15
HETATM   15  C2  UNL     1     108.594  18.018  20.075  1.00  0.00     0.086 C 
HETATM   16  C1  UNL     1     108.879  19.201  19.240  1.00  0.00     0.076 C 
BRANCH  15  17
HETATM   17  C12 UNL     1     109.488  17.647  21.177  1.00  0.00     0.222 C 
HETATM   18  O4  UNL     1     110.545  17.018  21.134  1.00  0.00    -0.643 OA
HETATM   19  O5  UNL     1     109.082  18.070  22.508  1.00  0.00    -0.643 OA
ENDBRANCH  15  17
ENDBRANCH  11  15
ENDBRANCH   1   9
BRANCH   8  20
HETATM   20  C9  UNL     1     101.425  17.565  15.647  1.00  0.00     0.129 C 
HETATM   21  C10 UNL     1     101.605  16.334  14.801  1.00  0.00     0.070 C 
HETATM   22  C11 UNL     1     102.054  18.755  14.942  1.00  0.00     0.070 C 
BRANCH  20  23
HETATM   23  O3  UNL     1     100.030  17.791  15.655  1.00  0.00    -0.371 OA
ATOM     24  H3  UNL     1      99.648  17.551  14.819  1.00  0.00     0.212 HD
ENDBRANCH  20  23
ENDBRANCH   8  20
TORSDOF 5
ENDMDL
MODEL 3
REMARK VINA RESULT: -6.411063297      2.985      3.533
REMARK  5 active torsions:
REMARK  status: ('A' for Active; 'I' for Inactive)
REMARK    1  A    between atoms: C2_2  and  N1_3 
REMARK    2  A    between atoms: C2_2  and  C12_22 
REMARK       I    between atoms: N1_3  and  C3_5 
REMARK       I    between atoms: C3_5  and  N2_7 
REMARK    3  A    between atoms: N2_7  and  C4_9 
REMARK    4  A    between atoms: N3_16  and  C9_17 
REMARK    5  A    between atoms: C9_17  and  O3_20 
ROOT
HETATM    1  C4  UNL     1     104.712  16.916  18.217  1.00  0.00     0.111 C 
HETATM    2  C5  UNL     1     103.967  15.590  18.241  1.00  0.00     0.102 C 
HETATM    3  S1  UNL     1     102.247  16.053  17.929  1.00  0.00    -0.141 SA
HETATM    4  C6  UNL     1     102.482  17.768  17.559  1.00  0.00     0.167 C 
HETATM    5  C7  UNL     1     104.000  17.843  17.360  1.00  0.00     0.134 C 
HETATM    6  C8  UNL     1     103.609  17.200  16.079  1.00  0.00     0.232 C 
HETATM    7  O2  UNL     1     104.015  16.330  15.264  1.00  0.00    -0.273 OA
HETATM    8  N3  UNL     1     102.456  18.040  16.124  1.00  0.00    -0.306 N 
ENDROOT
BRANCH   1   9
HETATM    9  N2  UNL     1     104.998  17.312  19.541  1.00  0.00    -0.337 N 
HETATM   10  C3  UNL     1     106.412  17.418  19.980  1.00  0.00     0.321 C 
HETATM   11  N1  UNL     1     106.643  17.638  21.306  1.00  0.00    -0.307 N 
HETATM   12  O1  UNL     1     107.278  17.281  19.113  1.00  0.00    -0.247 OA
ATOM     13  H1  UNL     1     105.815  17.672  21.902  1.00  0.00     0.170 HD
ATOM     14  H2  UNL     1     104.240  17.524  20.190  1.00  0.00     0.164 HD
BRANCH  11  15
HETATM   15  C2  UNL     1     107.896  17.828  21.971  1.00  0.00     0.086 C 
HETATM   16  C1  UNL     1     108.811  18.663  21.170  1.00  0.00     0.076 C 
BRANCH  15  17
HETATM   17  C12 UNL     1     107.806  17.998  23.425  1.00  0.00     0.222 C 
HETATM   18  O4  UNL     1     108.680  18.355  24.215  1.00  0.00    -0.643 OA
HETATM   19  O5  UNL     1     106.517  17.706  24.031  1.00  0.00    -0.643 OA
ENDBRANCH  15  17
ENDBRANCH  11  15
ENDBRANCH   1   9
BRANCH   8  20
HETATM   20  C9  UNL     1     101.804  18.806  15.142  1.00  0.00     0.129 C 
HETATM   21  C10 UNL     1     100.559  18.138  14.624  1.00  0.00     0.070 C 
HETATM   22  C11 UNL     1     102.709  19.159  13.973  1.00  0.00     0.070 C 
BRANCH  20  23
HETATM   23  O3  UNL     1     101.351  20.030  15.686  1.00  0.00    -0.371 OA
ATOM     24  H3  UNL     1     100.473  19.935  16.035  1.00  0.00     0.212 HD
ENDBRANCH  20  23
ENDBRANCH   8  20
TORSDOF 5
ENDMDL
MODEL 4
REMARK VINA RESULT: -6.325507048      3.484      4.426
REMARK  5 active torsions:
REMARK  status: ('A' for Active; 'I' for Inactive)
REMARK    1  A    between atoms: C2_2  and  N1_3 
REMARK    2  A    between atoms: C2_2  and  C12_22 
REMARK       I    between atoms: N1_3  and  C3_5 
REMARK       I    between atoms: C3_5  and  N2_7 
REMARK    3  A    between atoms: N2_7  and  C4_9 
REMARK    4  A    between atoms: N3_16  and  C9_17 
REMARK    5  A    between atoms: C9_17  and  O3_20 
ROOT
HETATM    1  C4  UNL     1     103.798  16.703  18.730  1.00  0.00     0.111 C 
HETATM    2  C5  UNL     1     102.518  16.375  19.483  1.00  0.00     0.102 C 
HETATM    3  S1  UNL     1     101.378  17.690  18.992  1.00  0.00    -0.141 SA
HETATM    4  C6  UNL     1     102.366  18.465  17.744  1.00  0.00     0.167 C 
HETATM    5  C7  UNL     1     103.463  17.420  17.516  1.00  0.00     0.134 C 
HETATM    6  C8  UNL     1     102.339  16.766  16.798  1.00  0.00     0.232 C 
HETATM    7  O2  UNL     1     101.856  15.623  16.583  1.00  0.00    -0.273 OA
HETATM    8  N3  UNL     1     101.963  18.082  16.393  1.00  0.00    -0.306 N 
ENDROOT
BRANCH   1   9
HETATM    9  N2  UNL     1     104.724  17.288  19.620  1.00  0.00    -0.337 N 
HETATM   10  C3  UNL     1     106.159  17.348  19.244  1.00  0.00     0.321 C 
HETATM   11  N1  UNL     1     107.041  17.766  20.197  1.00  0.00    -0.307 N 
HETATM   12  O1  UNL     1     106.451  16.997  18.099  1.00  0.00    -0.247 OA
ATOM     13  H1  UNL     1     106.642  17.967  21.114  1.00  0.00     0.170 HD
ATOM     14  H2  UNL     1     104.410  17.668  20.513  1.00  0.00     0.164 HD
BRANCH  11  15
HETATM   15  C2  UNL     1     108.454  17.958  20.078  1.00  0.00     0.086 C 
HETATM   16  C1  UNL     1     108.770  19.125  19.232  1.00  0.00     0.076 C 
BRANCH  15  17
HETATM   17  C12 UNL     1     109.221  17.688  21.299  1.00  0.00     0.222 C 
HETATM   18  O4  UNL     1     108.933  17.955  22.465  1.00  0.00    -0.643 OA
HETATM   19  O5  UNL     1     110.500  17.018  21.124  1.00  0.00    -0.643 OA
ENDBRANCH  15  17
ENDBRANCH  11  15
ENDBRANCH   1   9
BRANCH   8  20
HETATM   20  C9  UNL     1     101.536  18.608  15.161  1.00  0.00     0.129 C 
HETATM   21  C10 UNL     1     100.327  17.895  14.619  1.00  0.00     0.070 C 
HETATM   22  C11 UNL     1     102.633  18.608  14.109  1.00  0.00     0.070 C 
BRANCH  20  23
HETATM   23  O3  UNL     1     101.121  19.951  15.311  1.00  0.00    -0.371 OA
ATOM     24  H3  UNL     1     100.333  19.999  15.840  1.00  0.00     0.212 HD
ENDBRANCH  20  23
ENDBRANCH   8  20
TORSDOF 5
ENDMDL
MODEL 5
REMARK VINA RESULT: -6.296986154      3.438      3.986
REMARK  5 active torsions:
REMARK  status: ('A' for Active; 'I' for Inactive)
REMARK    1  A    between atoms: C2_2  and  N1_3 
REMARK    2  A    between atoms: C2_2  and  C12_22 
REMARK       I    between atoms: N1_3  and  C3_5 
REMARK       I    between atoms: C3_5  and  N2_7 
REMARK    3  A    between atoms: N2_7  and  C4_9 
REMARK    4  A    between atoms: N3_16  and  C9_17 
REMARK    5  A    between atoms: C9_17  and  O3_20 
ROOT
HETATM    1  C4  UNL     1     105.012  16.721  18.521  1.00  0.00     0.111 C 
HETATM    2  C5  UNL     1     104.294  15.383  18.437  1.00  0.00     0.102 C 
HETATM    3  S1  UNL     1     102.583  15.831  18.059  1.00  0.00    -0.141 SA
HETATM    4  C6  UNL     1     102.802  17.567  17.793  1.00  0.00     0.167 C 
HETATM    5  C7  UNL     1     104.327  17.680  17.678  1.00  0.00     0.134 C 
HETATM    6  C8  UNL     1     104.016  17.098  16.346  1.00  0.00     0.232 C 
HETATM    7  O2  UNL     1     104.481  16.281  15.509  1.00  0.00    -0.273 OA
HETATM    8  N3  UNL     1     102.845  17.915  16.374  1.00  0.00    -0.306 N 
ENDROOT
BRANCH   1   9
HETATM    9  N2  UNL     1     105.221  17.051  19.878  1.00  0.00    -0.337 N 
HETATM   10  C3  UNL     1     106.555  17.537  20.312  1.00  0.00     0.321 C 
HETATM   11  N1  UNL     1     106.764  17.684  21.652  1.00  0.00    -0.307 N 
HETATM   12  O1  UNL     1     107.384  17.757  19.427  1.00  0.00    -0.247 OA
ATOM     13  H1  UNL     1     105.990  17.405  22.256  1.00  0.00     0.170 HD
ATOM     14  H2  UNL     1     104.463  16.957  20.553  1.00  0.00     0.164 HD
BRANCH  11  15
HETATM   15  C2  UNL     1     107.929  18.177  22.321  1.00  0.00     0.086 C 
HETATM   16  C1  UNL     1     107.785  18.095  23.787  1.00  0.00     0.076 C 
BRANCH  15  17
HETATM   17  C12 UNL     1     109.203  17.845  21.674  1.00  0.00     0.222 C 
HETATM   18  O4  UNL     1     109.732  16.742  21.534  1.00  0.00    -0.643 OA
HETATM   19  O5  UNL     1     109.956  18.958  21.120  1.00  0.00    -0.643 OA
ENDBRANCH  15  17
ENDBRANCH  11  15
ENDBRANCH   1   9
BRANCH   8  20
HETATM   20  C9  UNL     1     102.229  18.720  15.400  1.00  0.00     0.129 C 
HETATM   21  C10 UNL     1     102.097  20.153  15.839  1.00  0.00     0.070 C 
HETATM   22  C11 UNL     1     100.867  18.196  14.978  1.00  0.00     0.070 C 
BRANCH  20  23
HETATM   23  O3  UNL     1     103.020  18.777  14.230  1.00  0.00    -0.371 OA
ATOM     24  H3  UNL     1     102.472  18.877  13.461  1.00  0.00     0.212 HD
ENDBRANCH  20  23
ENDBRANCH   8  20
TORSDOF 5
ENDMDL
