MODEL 1
REMARK VINA RESULT: -6.633013347      0.000      0.000
REMARK  7 active torsions:
REMARK  status: ('A' for Active; 'I' for Inactive)
REMARK    1  A    between atoms: C2_2  and  C3_3 
REMARK    2  A    between atoms: C3_3  and  C4_4 
REMARK    3  A    between atoms: C5_5  and  C6_6 
REMARK    4  A    between atoms: C6_6  and  O1_7 
REMARK    5  A    between atoms: C9_11  and  O2_12 
REMARK    6  A    between atoms: C12_16  and  N1_17 
REMARK    7  A    between atoms: C13_21  and  O3_22 
ROOT
HETATM    1  C6  UNL     1     -15.055  16.562 -17.581  1.00  0.00     0.157 C 
HETATM    2  C7  UNL     1     -15.295  17.524 -16.469  1.00  0.00     0.064 C 
HETATM    3  C8  UNL     1     -14.121  17.305 -15.536  1.00  0.00     0.050 C 
HETATM    4  C9  UNL     1     -13.273  18.551 -15.585  1.00  0.00     0.125 C 
HETATM    5  C10 UNL     1     -12.676  18.796 -16.912  1.00  0.00     0.035 C 
HETATM    6  C11 UNL     1     -13.060  17.904 -18.018  1.00  0.00     0.048 C 
HETATM    7  C12 UNL     1     -13.533  16.537 -17.649  1.00  0.00     0.191 C 
HETATM    8  C13 UNL     1     -13.274  16.212 -16.173  1.00  0.00     0.164 C 
ENDROOT
BRANCH   1   9
HETATM    9  C5  UNL     1     -15.653  16.959 -18.834  1.00  0.00    -0.065 C 
HETATM   10  C4  UNL     1     -16.170  17.290 -19.867  1.00  0.00    -0.100 C 
BRANCH  10  11
HETATM   11  C3  UNL     1     -16.830  17.697 -21.130  1.00  0.00     0.120 C 
BRANCH  11  12
HETATM   12  C2  UNL     1     -15.807  17.621 -22.191  1.00  0.00    -0.025 C 
HETATM   13  C1  UNL     1     -16.078  18.146 -23.372  1.00  0.00     0.008 C 
ENDBRANCH  11  12
ENDBRANCH  10  11
ENDBRANCH   1   9
BRANCH   1  14
HETATM   14  O1  UNL     1     -15.450  15.297 -17.154  1.00  0.00    -0.375 OA
ATOM     15  H1  UNL     1     -16.364  15.106 -17.329  1.00  0.00     0.211 HD
ENDBRANCH   1  14
BRANCH   7  16
HETATM   16  N1  UNL     1     -13.031  15.525 -18.526  1.00  0.00    -0.064 N 
ATOM     17  H13 UNL     1     -12.968  14.626 -18.047  1.00  0.00     0.275 HD
ATOM     18  H12 UNL     1     -13.720  15.286 -19.239  1.00  0.00     0.275 HD
ATOM     19  H11 UNL     1     -12.138  15.775 -18.951  1.00  0.00     0.275 HD
ENDBRANCH   7  16
BRANCH   8  20
HETATM   20  O3  UNL     1     -11.943  16.311 -15.852  1.00  0.00    -0.392 OA
ATOM     21  H3  UNL     1     -11.699  15.765 -15.113  1.00  0.00     0.210 HD
ENDBRANCH   8  20
BRANCH   4  22
HETATM   22  O2  UNL     1     -12.296  18.534 -14.561  1.00  0.00    -0.395 OA
ATOM     23  H2  UNL     1     -12.214  19.391 -14.159  1.00  0.00     0.210 HD
ENDBRANCH   4  22
TORSDOF 7
ENDMDL
MODEL 2
REMARK VINA RESULT: -6.539190709      0.608      1.099
REMARK  7 active torsions:
REMARK  status: ('A' for Active; 'I' for Inactive)
REMARK    1  A    between atoms: C2_2  and  C3_3 
REMARK    2  A    between atoms: C3_3  and  C4_4 
REMARK    3  A    between atoms: C5_5  and  C6_6 
REMARK    4  A    between atoms: C6_6  and  O1_7 
REMARK    5  A    between atoms: C9_11  and  O2_12 
REMARK    6  A    between atoms: C12_16  and  N1_17 
REMARK    7  A    between atoms: C13_21  and  O3_22 
ROOT
HETATM    1  C6  UNL     1     -15.089  16.544 -17.763  1.00  0.00     0.157 C 
HETATM    2  C7  UNL     1     -15.436  17.543 -16.713  1.00  0.00     0.064 C 
HETATM    3  C8  UNL     1     -14.348  17.373 -15.671  1.00  0.00     0.050 C 
HETATM    4  C9  UNL     1     -13.510  18.627 -15.692  1.00  0.00     0.125 C 
HETATM    5  C10 UNL     1     -12.799  18.830 -16.969  1.00  0.00     0.035 C 
HETATM    6  C11 UNL     1     -13.074  17.893 -18.070  1.00  0.00     0.048 C 
HETATM    7  C12 UNL     1     -13.567  16.535 -17.693  1.00  0.00     0.191 C 
HETATM    8  C13 UNL     1     -13.438  16.268 -16.189  1.00  0.00     0.164 C 
ENDROOT
BRANCH   1   9
HETATM    9  C5  UNL     1     -15.575  16.887 -19.078  1.00  0.00    -0.065 C 
HETATM   10  C4  UNL     1     -15.990  17.189 -20.164  1.00  0.00    -0.100 C 
BRANCH  10  11
HETATM   11  C3  UNL     1     -16.517  17.579 -21.494  1.00  0.00     0.120 C 
BRANCH  11  12
HETATM   12  C2  UNL     1     -17.705  18.422 -21.254  1.00  0.00    -0.025 C 
HETATM   13  C1  UNL     1     -18.775  17.869 -20.713  1.00  0.00     0.008 C 
ENDBRANCH  11  12
ENDBRANCH  10  11
ENDBRANCH   1   9
BRANCH   1  14
HETATM   14  O1  UNL     1     -15.509  15.291 -17.325  1.00  0.00    -0.375 OA
ATOM     15  H1  UNL     1     -15.240  15.090 -16.436  1.00  0.00     0.211 HD
ENDBRANCH   1  14
BRANCH   7  16
HETATM   16  N1  UNL     1     -12.979  15.498 -18.483  1.00  0.00    -0.064 N 
ATOM     17  H13 UNL     1     -13.670  14.790 -18.729  1.00  0.00     0.275 HD
ATOM     18  H12 UNL     1     -12.749  15.837 -19.417  1.00  0.00     0.275 HD
ATOM     19  H11 UNL     1     -12.164  15.073 -18.039  1.00  0.00     0.275 HD
ENDBRANCH   7  16
BRANCH   8  20
HETATM   20  O3  UNL     1     -12.142  16.394 -15.754  1.00  0.00    -0.392 OA
ATOM     21  H3  UNL     1     -11.551  16.694 -16.434  1.00  0.00     0.210 HD
ENDBRANCH   8  20
BRANCH   4  22
HETATM   22  O2  UNL     1     -12.629  18.659 -14.585  1.00  0.00    -0.395 OA
ATOM     23  H2  UNL     1     -12.136  19.471 -14.571  1.00  0.00     0.210 HD
ENDBRANCH   4  22
TORSDOF 7
ENDMDL
MODEL 3
REMARK VINA RESULT: -6.275565238      2.832      4.188
REMARK  7 active torsions:
REMARK  status: ('A' for Active; 'I' for Inactive)
REMARK    1  A    between atoms: C2_2  and  C3_3 
REMARK    2  A    between atoms: C3_3  and  C4_4 
REMARK    3  A    between atoms: C5_5  and  C6_6 
REMARK    4  A    between atoms: C6_6  and  O1_7 
REMARK    5  A    between atoms: C9_11  and  O2_12 
REMARK    6  A    between atoms: C12_16  and  N1_17 
REMARK    7  A    between atoms: C13_21  and  O3_22 
ROOT
HETATM    1  C6  UNL     1     -14.597  16.690 -16.464  1.00  0.00     0.157 C 
HETATM    2  C7  UNL     1     -13.602  16.320 -15.417  1.00  0.00     0.064 C 
HETATM    3  C8  UNL     1     -12.428  15.774 -16.205  1.00  0.00     0.050 C 
HETATM    4  C9  UNL     1     -11.290  16.749 -16.044  1.00  0.00     0.125 C 
HETATM    5  C10 UNL     1     -11.571  18.073 -16.632  1.00  0.00     0.035 C 
HETATM    6  C11 UNL     1     -12.918  18.317 -17.174  1.00  0.00     0.048 C 
HETATM    7  C12 UNL     1     -13.695  17.120 -17.613  1.00  0.00     0.191 C 
HETATM    8  C13 UNL     1     -12.829  15.856 -17.671  1.00  0.00     0.164 C 
ENDROOT
BRANCH   1   9
HETATM    9  C5  UNL     1     -15.507  17.735 -16.060  1.00  0.00    -0.065 C 
HETATM   10  C4  UNL     1     -16.273  18.592 -15.709  1.00  0.00    -0.100 C 
BRANCH  10  11
HETATM   11  C3  UNL     1     -17.230  19.632 -15.263  1.00  0.00     0.120 C 
BRANCH  11  12
HETATM   12  C2  UNL     1     -18.175  18.977 -14.338  1.00  0.00    -0.025 C 
HETATM   13  C1  UNL     1     -17.916  19.002 -13.043  1.00  0.00     0.008 C 
ENDBRANCH  11  12
ENDBRANCH  10  11
ENDBRANCH   1   9
BRANCH   1  14
HETATM   14  O1  UNL     1     -15.238  15.527 -16.883  1.00  0.00    -0.375 OA
ATOM     15  H1  UNL     1     -14.970  15.236 -17.746  1.00  0.00     0.211 HD
ENDBRANCH   1  14
BRANCH   7  16
HETATM   16  N1  UNL     1     -14.411  17.346 -18.830  1.00  0.00    -0.064 N 
ATOM     17  H13 UNL     1     -13.799  17.738 -19.546  1.00  0.00     0.275 HD
ATOM     18  H12 UNL     1     -14.651  16.464 -19.281  1.00  0.00     0.275 HD
ATOM     19  H11 UNL     1     -15.240  17.927 -18.702  1.00  0.00     0.275 HD
ENDBRANCH   7  16
BRANCH   8  20
HETATM   20  O3  UNL     1     -11.755  16.007 -18.512  1.00  0.00    -0.392 OA
ATOM     21  H3  UNL     1     -11.835  15.499 -19.311  1.00  0.00     0.210 HD
ENDBRANCH   8  20
BRANCH   4  22
HETATM   22  O2  UNL     1     -10.083  16.198 -16.537  1.00  0.00    -0.395 OA
ATOM     23  H2  UNL     1     -10.042  15.265 -16.360  1.00  0.00     0.210 HD
ENDBRANCH   4  22
TORSDOF 7
ENDMDL
MODEL 4
REMARK VINA RESULT: -6.272681090      2.038      2.349
REMARK  7 active torsions:
REMARK  status: ('A' for Active; 'I' for Inactive)
REMARK    1  A    between atoms: C2_2  and  C3_3 
REMARK    2  A    between atoms: C3_3  and  C4_4 
REMARK    3  A    between atoms: C5_5  and  C6_6 
REMARK    4  A    between atoms: C6_6  and  O1_7 
REMARK    5  A    between atoms: C9_11  and  O2_12 
REMARK    6  A    between atoms: C12_16  and  N1_17 
REMARK    7  A    between atoms: C13_21  and  O3_22 
ROOT
HETATM    1  C6  UNL     1     -15.155  17.705 -16.149  1.00  0.00     0.157 C 
HETATM    2  C7  UNL     1     -14.281  18.885 -15.891  1.00  0.00     0.064 C 
HETATM    3  C8  UNL     1     -12.895  18.289 -15.743  1.00  0.00     0.050 C 
HETATM    4  C9  UNL     1     -12.084  18.745 -16.930  1.00  0.00     0.125 C 
HETATM    5  C10 UNL     1     -12.595  18.230 -18.215  1.00  0.00     0.035 C 
HETATM    6  C11 UNL     1     -13.854  17.467 -18.203  1.00  0.00     0.048 C 
HETATM    7  C12 UNL     1     -14.219  16.787 -16.925  1.00  0.00     0.191 C 
HETATM    8  C13 UNL     1     -13.062  16.785 -15.919  1.00  0.00     0.164 C 
ENDROOT
BRANCH   1   9
HETATM    9  C5  UNL     1     -16.354  18.018 -16.888  1.00  0.00    -0.065 C 
HETATM   10  C4  UNL     1     -17.351  18.260 -17.513  1.00  0.00    -0.100 C 
BRANCH  10  11
HETATM   11  C3  UNL     1     -18.578  18.538 -18.297  1.00  0.00     0.120 C 
BRANCH  11  12
HETATM   12  C2  UNL     1     -18.285  18.171 -19.696  1.00  0.00    -0.025 C 
HETATM   13  C1  UNL     1     -19.291  17.869 -20.497  1.00  0.00     0.008 C 
ENDBRANCH  11  12
ENDBRANCH  10  11
ENDBRANCH   1   9
BRANCH   1  14
HETATM   14  O1  UNL     1     -15.402  17.074 -14.931  1.00  0.00    -0.375 OA
ATOM     15  H1  UNL     1     -15.518  16.134 -15.008  1.00  0.00     0.211 HD
ENDBRANCH   1  14
BRANCH   7  16
HETATM   16  N1  UNL     1     -14.763  15.481 -17.132  1.00  0.00    -0.064 N 
ATOM     17  H13 UNL     1     -15.766  15.471 -16.947  1.00  0.00     0.275 HD
ATOM     18  H12 UNL     1     -14.773  15.244 -18.123  1.00  0.00     0.275 HD
ATOM     19  H11 UNL     1     -14.285  14.761 -16.590  1.00  0.00     0.275 HD
ENDBRANCH   7  16
BRANCH   8  20
HETATM   20  O3  UNL     1     -11.940  16.179 -16.426  1.00  0.00    -0.392 OA
ATOM     21  H3  UNL     1     -12.124  15.339 -16.830  1.00  0.00     0.210 HD
ENDBRANCH   8  20
BRANCH   4  22
HETATM   22  O2  UNL     1     -10.714  18.443 -16.747  1.00  0.00    -0.395 OA
ATOM     23  H2  UNL     1     -10.277  19.138 -16.269  1.00  0.00     0.210 HD
ENDBRANCH   4  22
TORSDOF 7
ENDMDL
MODEL 5
REMARK VINA RESULT: -6.161161739      2.468      5.430
REMARK  7 active torsions:
REMARK  status: ('A' for Active; 'I' for Inactive)
REMARK    1  A    between atoms: C2_2  and  C3_3 
REMARK    2  A    between atoms: C3_3  and  C4_4 
REMARK    3  A    between atoms: C5_5  and  C6_6 
REMARK    4  A    between atoms: C6_6  and  O1_7 
REMARK    5  A    between atoms: C9_11  and  O2_12 
REMARK    6  A    between atoms: C12_16  and  N1_17 
REMARK    7  A    between atoms: C13_21  and  O3_22 
ROOT
HETATM    1  C6  UNL     1     -12.396  17.089 -17.367  1.00  0.00     0.157 C 
HETATM    2  C7  UNL     1     -13.245  18.109 -18.044  1.00  0.00     0.064 C 
HETATM    3  C8  UNL     1     -14.515  17.357 -18.389  1.00  0.00     0.050 C 
HETATM    4  C9  UNL     1     -15.619  17.928 -17.534  1.00  0.00     0.125 C 
HETATM    5  C10 UNL     1     -15.411  17.700 -16.091  1.00  0.00     0.035 C 
HETATM    6  C11 UNL     1     -14.147  17.081 -15.663  1.00  0.00     0.048 C 
HETATM    7  C12 UNL     1     -13.440  16.230 -16.665  1.00  0.00     0.191 C 
HETATM    8  C13 UNL     1     -14.311  15.933 -17.891  1.00  0.00     0.164 C 
ENDROOT
BRANCH   1   9
HETATM    9  C5  UNL     1     -11.436  17.649 -16.446  1.00  0.00    -0.065 C 
HETATM   10  C4  UNL     1     -10.622  18.110 -15.692  1.00  0.00    -0.100 C 
BRANCH  10  11
HETATM   11  C3  UNL     1      -9.599  18.670 -14.777  1.00  0.00     0.120 C 
BRANCH  11  12
HETATM   12  C2  UNL     1     -10.110  19.973 -14.309  1.00  0.00    -0.025 C 
HETATM   13  C1  UNL     1     -10.284  20.940 -15.192  1.00  0.00     0.008 C 
ENDBRANCH  11  12
ENDBRANCH  10  11
ENDBRANCH   1   9
BRANCH   1  14
HETATM   14  O1  UNL     1     -11.820  16.284 -18.348  1.00  0.00    -0.375 OA
ATOM     15  H1  UNL     1     -11.070  15.789 -18.039  1.00  0.00     0.211 HD
ENDBRANCH   1  14
BRANCH   7  16
HETATM   16  N1  UNL     1     -12.889  15.043 -16.088  1.00  0.00    -0.064 N 
ATOM     17  H13 UNL     1     -13.627  14.420 -15.761  1.00  0.00     0.275 HD
ATOM     18  H12 UNL     1     -12.474  14.448 -16.805  1.00  0.00     0.275 HD
ATOM     19  H11 UNL     1     -12.219  15.237 -15.343  1.00  0.00     0.275 HD
ENDBRANCH   7  16
BRANCH   8  20
HETATM   20  O3  UNL     1     -15.486  15.312 -17.549  1.00  0.00    -0.392 OA
ATOM     21  H3  UNL     1     -15.352  14.510 -17.058  1.00  0.00     0.210 HD
ENDBRANCH   8  20
BRANCH   4  22
HETATM   22  O2  UNL     1     -16.882  17.458 -17.967  1.00  0.00    -0.395 OA
ATOM     23  H2  UNL     1     -17.484  17.390 -17.235  1.00  0.00     0.210 HD
ENDBRANCH   4  22
TORSDOF 7
ENDMDL
