MODEL 1
REMARK VINA RESULT: -8.127712674      0.000      0.000
REMARK  9 active torsions:
REMARK  status: ('A' for Active; 'I' for Inactive)
REMARK    1  A    between atoms: C3_3  and  C4_4 
REMARK    2  A    between atoms: C5_5  and  O1_6 
REMARK    3  A    between atoms: C6_8  and  O2_9 
REMARK    4  A    between atoms: O2_9  and  C7_10 
REMARK    5  A    between atoms: C7_10  and  C8_12 
REMARK    6  A    between atoms: C9_15  and  C10_16 
REMARK    7  A    between atoms: C10_16  and  O7_18 
REMARK    8  A    between atoms: O7_18  and  C11_19 
REMARK    9  A    between atoms: C11_19  and  C12_20 
ROOT
HETATM    1  C4  UNL     1      -3.918   5.609  14.493  1.00  0.00     0.055 C 
HETATM    2  C5  UNL     1      -5.119   5.353  13.664  1.00  0.00     0.157 C 
HETATM    3  C6  UNL     1      -4.409   4.179  13.021  1.00  0.00     0.176 C 
HETATM    4  C9  UNL     1      -3.407   4.207  14.149  1.00  0.00     0.128 C 
ENDROOT
BRANCH   4   5
HETATM    5  C10 UNL     1      -3.710   3.299  15.283  1.00  0.00     0.266 C 
HETATM    6  O6  UNL     1      -2.768   2.776  15.929  1.00  0.00    -0.265 OA
BRANCH   5   7
HETATM    7  O7  UNL     1      -5.004   2.996  15.672  1.00  0.00    -0.320 OA
BRANCH   7   8
HETATM    8  C11 UNL     1      -5.311   1.798  16.399  1.00  0.00     0.187 C 
BRANCH   8   9
HETATM    9  C12 UNL     1      -6.517   2.044  17.276  1.00  0.00    -0.029 C 
HETATM   10  C13 UNL     1      -7.604   1.061  16.967  1.00  0.00     0.016 C 
HETATM   11  C14 UNL     1      -6.167   2.020  18.742  1.00  0.00     0.016 C 
HETATM   12  C15 UNL     1      -7.037   3.442  16.970  1.00  0.00     0.016 C 
ENDBRANCH   8   9
ENDBRANCH   7   8
ENDBRANCH   5   7
ENDBRANCH   4   5
BRANCH   1  13
HETATM   13  C3  UNL     1      -2.923   6.596  14.053  1.00  0.00    -0.023 C 
HETATM   14  C2  UNL     1      -2.484   7.559  14.813  1.00  0.00    -0.034 C 
HETATM   15  C1  UNL     1      -1.470   8.518  14.282  1.00  0.00     0.036 C 
ENDBRANCH   1  13
BRANCH   3  16
HETATM   16  O2  UNL     1      -5.137   2.993  12.933  1.00  0.00    -0.304 OA
BRANCH  16  17
HETATM   17  C7  UNL     1      -4.966   2.045  11.934  1.00  0.00     0.360 C 
HETATM   18  O3  UNL     1      -5.183   2.416  10.753  1.00  0.00    -0.252 OA
BRANCH  17  19
HETATM   19  C8  UNL     1      -4.548   0.665  12.245  1.00  0.00     0.277 C 
HETATM   20  O4  UNL     1      -4.103   0.334  13.352  1.00  0.00    -0.640 OA
HETATM   21  O5  UNL     1      -4.671  -0.277  11.244  1.00  0.00    -0.640 OA
ENDBRANCH  17  19
ENDBRANCH  16  17
ENDBRANCH   3  16
BRANCH   2  22
HETATM   22  O1  UNL     1      -6.256   4.996  14.393  1.00  0.00    -0.392 OA
ATOM     23  H1  UNL     1      -6.442   5.565  15.131  1.00  0.00     0.210 HD
ENDBRANCH   2  22
TORSDOF 9
ENDMDL
MODEL 2
REMARK VINA RESULT: -7.834661190      1.117      2.119
REMARK  9 active torsions:
REMARK  status: ('A' for Active; 'I' for Inactive)
REMARK    1  A    between atoms: C3_3  and  C4_4 
REMARK    2  A    between atoms: C5_5  and  O1_6 
REMARK    3  A    between atoms: C6_8  and  O2_9 
REMARK    4  A    between atoms: O2_9  and  C7_10 
REMARK    5  A    between atoms: C7_10  and  C8_12 
REMARK    6  A    between atoms: C9_15  and  C10_16 
REMARK    7  A    between atoms: C10_16  and  O7_18 
REMARK    8  A    between atoms: O7_18  and  C11_19 
REMARK    9  A    between atoms: C11_19  and  C12_20 
ROOT
HETATM    1  C4  UNL     1      -4.159   5.636  13.685  1.00  0.00     0.055 C 
HETATM    2  C5  UNL     1      -4.065   4.706  12.535  1.00  0.00     0.157 C 
HETATM    3  C6  UNL     1      -4.099   3.535  13.497  1.00  0.00     0.176 C 
HETATM    4  C9  UNL     1      -4.612   4.467  14.567  1.00  0.00     0.128 C 
ENDROOT
BRANCH   4   5
HETATM    5  C10 UNL     1      -6.088   4.519  14.702  1.00  0.00     0.266 C 
HETATM    6  O6  UNL     1      -6.730   5.455  14.162  1.00  0.00    -0.265 OA
BRANCH   5   7
HETATM    7  O7  UNL     1      -6.807   3.567  15.406  1.00  0.00    -0.320 OA
BRANCH   7   8
HETATM    8  C11 UNL     1      -6.766   3.499  16.838  1.00  0.00     0.187 C 
BRANCH   8   9
HETATM    9  C12 UNL     1      -6.424   2.089  17.260  1.00  0.00    -0.029 C 
HETATM   10  C13 UNL     1      -7.523   1.144  16.884  1.00  0.00     0.016 C 
HETATM   11  C14 UNL     1      -5.101   1.633  16.700  1.00  0.00     0.016 C 
HETATM   12  C15 UNL     1      -6.286   2.079  18.777  1.00  0.00     0.016 C 
ENDBRANCH   8   9
ENDBRANCH   7   8
ENDBRANCH   5   7
ENDBRANCH   4   5
BRANCH   1  13
HETATM   13  C3  UNL     1      -2.938   6.215  14.259  1.00  0.00    -0.023 C 
HETATM   14  C2  UNL     1      -2.787   7.489  14.488  1.00  0.00    -0.034 C 
HETATM   15  C1  UNL     1      -1.509   7.990  15.074  1.00  0.00     0.036 C 
ENDBRANCH   1  13
BRANCH   3  16
HETATM   16  O2  UNL     1      -4.976   2.500  13.174  1.00  0.00    -0.304 OA
BRANCH  16  17
HETATM   17  C7  UNL     1      -4.591   1.312  12.567  1.00  0.00     0.360 C 
HETATM   18  O3  UNL     1      -3.982   0.478  13.282  1.00  0.00    -0.252 OA
BRANCH  17  19
HETATM   19  C8  UNL     1      -4.885   1.042  11.147  1.00  0.00     0.277 C 
HETATM   20  O4  UNL     1      -5.048  -0.102  10.703  1.00  0.00    -0.640 OA
HETATM   21  O5  UNL     1      -4.979   2.128  10.300  1.00  0.00    -0.640 OA
ENDBRANCH  17  19
ENDBRANCH  16  17
ENDBRANCH   3  16
BRANCH   2  22
HETATM   22  O1  UNL     1      -5.156   4.755  11.665  1.00  0.00    -0.392 OA
ATOM     23  H1  UNL     1      -4.935   4.617  10.752  1.00  0.00     0.210 HD
ENDBRANCH   2  22
TORSDOF 9
ENDMDL
MODEL 3
REMARK VINA RESULT: -7.731623489      1.164      1.936
REMARK  9 active torsions:
REMARK  status: ('A' for Active; 'I' for Inactive)
REMARK    1  A    between atoms: C3_3  and  C4_4 
REMARK    2  A    between atoms: C5_5  and  O1_6 
REMARK    3  A    between atoms: C6_8  and  O2_9 
REMARK    4  A    between atoms: O2_9  and  C7_10 
REMARK    5  A    between atoms: C7_10  and  C8_12 
REMARK    6  A    between atoms: C9_15  and  C10_16 
REMARK    7  A    between atoms: C10_16  and  O7_18 
REMARK    8  A    between atoms: O7_18  and  C11_19 
REMARK    9  A    between atoms: C11_19  and  C12_20 
ROOT
HETATM    1  C4  UNL     1      -4.156   5.596  13.595  1.00  0.00     0.055 C 
HETATM    2  C5  UNL     1      -4.109   4.681  12.431  1.00  0.00     0.157 C 
HETATM    3  C6  UNL     1      -4.137   3.498  13.377  1.00  0.00     0.176 C 
HETATM    4  C9  UNL     1      -4.605   4.424  14.473  1.00  0.00     0.128 C 
ENDROOT
BRANCH   4   5
HETATM    5  C10 UNL     1      -6.076   4.498  14.650  1.00  0.00     0.266 C 
HETATM    6  O6  UNL     1      -6.716   5.452  14.140  1.00  0.00    -0.265 OA
BRANCH   5   7
HETATM    7  O7  UNL     1      -6.792   3.548  15.360  1.00  0.00    -0.320 OA
BRANCH   7   8
HETATM    8  C11 UNL     1      -6.804   3.531  16.794  1.00  0.00     0.187 C 
BRANCH   8   9
HETATM    9  C12 UNL     1      -6.446   2.145  17.278  1.00  0.00    -0.029 C 
HETATM   10  C13 UNL     1      -7.498   1.157  16.878  1.00  0.00     0.016 C 
HETATM   11  C14 UNL     1      -5.084   1.711  16.800  1.00  0.00     0.016 C 
HETATM   12  C15 UNL     1      -6.386   2.187  18.800  1.00  0.00     0.016 C 
ENDBRANCH   8   9
ENDBRANCH   7   8
ENDBRANCH   5   7
ENDBRANCH   4   5
BRANCH   1  13
HETATM   13  C3  UNL     1      -2.911   6.147  14.143  1.00  0.00    -0.023 C 
HETATM   14  C2  UNL     1      -2.740   7.413  14.403  1.00  0.00    -0.034 C 
HETATM   15  C1  UNL     1      -1.437   7.885  14.960  1.00  0.00     0.036 C 
ENDBRANCH   1  13
BRANCH   3  16
HETATM   16  O2  UNL     1      -5.039   2.482  13.065  1.00  0.00    -0.304 OA
BRANCH  16  17
HETATM   17  C7  UNL     1      -4.772   1.445  12.182  1.00  0.00     0.360 C 
HETATM   18  O3  UNL     1      -4.905   1.691  10.957  1.00  0.00    -0.252 OA
BRANCH  17  19
HETATM   19  C8  UNL     1      -4.352   0.115  12.660  1.00  0.00     0.277 C 
HETATM   20  O4  UNL     1      -4.036  -0.804  11.892  1.00  0.00    -0.640 OA
HETATM   21  O5  UNL     1      -4.317  -0.089  14.025  1.00  0.00    -0.640 OA
ENDBRANCH  17  19
ENDBRANCH  16  17
ENDBRANCH   3  16
BRANCH   2  22
HETATM   22  O1  UNL     1      -5.223   4.760  11.592  1.00  0.00    -0.392 OA
ATOM     23  H1  UNL     1      -5.918   4.150  11.806  1.00  0.00     0.210 HD
ENDBRANCH   2  22
TORSDOF 9
ENDMDL
MODEL 4
REMARK VINA RESULT: -7.572158450      0.414      1.141
REMARK  9 active torsions:
REMARK  status: ('A' for Active; 'I' for Inactive)
REMARK    1  A    between atoms: C3_3  and  C4_4 
REMARK    2  A    between atoms: C5_5  and  O1_6 
REMARK    3  A    between atoms: C6_8  and  O2_9 
REMARK    4  A    between atoms: O2_9  and  C7_10 
REMARK    5  A    between atoms: C7_10  and  C8_12 
REMARK    6  A    between atoms: C9_15  and  C10_16 
REMARK    7  A    between atoms: C10_16  and  O7_18 
REMARK    8  A    between atoms: O7_18  and  C11_19 
REMARK    9  A    between atoms: C11_19  and  C12_20 
ROOT
HETATM    1  C4  UNL     1      -3.985   5.541  14.504  1.00  0.00     0.055 C 
HETATM    2  C5  UNL     1      -5.170   5.203  13.682  1.00  0.00     0.157 C 
HETATM    3  C6  UNL     1      -4.411   4.031  13.094  1.00  0.00     0.176 C 
HETATM    4  C9  UNL     1      -3.417   4.146  14.224  1.00  0.00     0.128 C 
ENDROOT
BRANCH   4   5
HETATM    5  C10 UNL     1      -3.692   3.277  15.395  1.00  0.00     0.266 C 
HETATM    6  O6  UNL     1      -2.736   2.735  16.004  1.00  0.00    -0.265 OA
BRANCH   5   7
HETATM    7  O7  UNL     1      -4.974   3.031  15.858  1.00  0.00    -0.320 OA
BRANCH   7   8
HETATM    8  C11 UNL     1      -5.318   1.795  16.499  1.00  0.00     0.187 C 
BRANCH   8   9
HETATM    9  C12 UNL     1      -6.542   2.006  17.361  1.00  0.00    -0.029 C 
HETATM   10  C13 UNL     1      -7.609   1.013  17.015  1.00  0.00     0.016 C 
HETATM   11  C14 UNL     1      -6.216   1.960  18.831  1.00  0.00     0.016 C 
HETATM   12  C15 UNL     1      -7.079   3.401  17.071  1.00  0.00     0.016 C 
ENDBRANCH   8   9
ENDBRANCH   7   8
ENDBRANCH   5   7
ENDBRANCH   4   5
BRANCH   1  13
HETATM   13  C3  UNL     1      -3.026   6.546  14.027  1.00  0.00    -0.023 C 
HETATM   14  C2  UNL     1      -2.541   7.491  14.782  1.00  0.00    -0.034 C 
HETATM   15  C1  UNL     1      -1.570   8.470  14.211  1.00  0.00     0.036 C 
ENDBRANCH   1  13
BRANCH   3  16
HETATM   16  O2  UNL     1      -5.091   2.815  13.054  1.00  0.00    -0.304 OA
BRANCH  16  17
HETATM   17  C7  UNL     1      -4.631   1.684  12.394  1.00  0.00     0.360 C 
HETATM   18  O3  UNL     1      -3.999   0.842  13.079  1.00  0.00    -0.252 OA
BRANCH  17  19
HETATM   19  C8  UNL     1      -4.874   1.481  10.953  1.00  0.00     0.277 C 
HETATM   20  O4  UNL     1      -4.882   2.413  10.138  1.00  0.00    -0.640 OA
HETATM   21  O5  UNL     1      -5.096   0.189  10.522  1.00  0.00    -0.640 OA
ENDBRANCH  17  19
ENDBRANCH  16  17
ENDBRANCH   3  16
BRANCH   2  22
HETATM   22  O1  UNL     1      -6.296   4.834  14.421  1.00  0.00    -0.392 OA
ATOM     23  H1  UNL     1      -7.035   4.553  13.894  1.00  0.00     0.210 HD
ENDBRANCH   2  22
TORSDOF 9
ENDMDL
MODEL 5
REMARK VINA RESULT: -7.342674927      2.104      5.159
REMARK  9 active torsions:
REMARK  status: ('A' for Active; 'I' for Inactive)
REMARK    1  A    between atoms: C3_3  and  C4_4 
REMARK    2  A    between atoms: C5_5  and  O1_6 
REMARK    3  A    between atoms: C6_8  and  O2_9 
REMARK    4  A    between atoms: O2_9  and  C7_10 
REMARK    5  A    between atoms: C7_10  and  C8_12 
REMARK    6  A    between atoms: C9_15  and  C10_16 
REMARK    7  A    between atoms: C10_16  and  O7_18 
REMARK    8  A    between atoms: O7_18  and  C11_19 
REMARK    9  A    between atoms: C11_19  and  C12_20 
ROOT
HETATM    1  C4  UNL     1      -2.879   5.562  13.808  1.00  0.00     0.055 C 
HETATM    2  C5  UNL     1      -2.521   4.124  13.843  1.00  0.00     0.157 C 
HETATM    3  C6  UNL     1      -3.478   3.927  15.001  1.00  0.00     0.176 C 
HETATM    4  C9  UNL     1      -4.113   5.253  14.661  1.00  0.00     0.128 C 
ENDROOT
BRANCH   4   5
HETATM    5  C10 UNL     1      -5.298   5.174  13.772  1.00  0.00     0.266 C 
HETATM    6  O6  UNL     1      -6.424   4.899  14.260  1.00  0.00    -0.265 OA
BRANCH   5   7
HETATM    7  O7  UNL     1      -5.224   5.394  12.407  1.00  0.00    -0.320 OA
BRANCH   7   8
HETATM    8  C11 UNL     1      -5.693   6.614  11.814  1.00  0.00     0.187 C 
BRANCH   8   9
HETATM    9  C12 UNL     1      -4.732   7.042  10.729  1.00  0.00    -0.029 C 
HETATM   10  C13 UNL     1      -5.476   7.576   9.545  1.00  0.00     0.016 C 
HETATM   11  C14 UNL     1      -3.720   8.041  11.229  1.00  0.00     0.016 C 
HETATM   12  C15 UNL     1      -3.954   5.810  10.287  1.00  0.00     0.016 C 
ENDBRANCH   8   9
ENDBRANCH   7   8
ENDBRANCH   5   7
ENDBRANCH   4   5
BRANCH   1  13
HETATM   13  C3  UNL     1      -2.047   6.541  14.518  1.00  0.00    -0.023 C 
HETATM   14  C2  UNL     1      -2.459   7.735  14.838  1.00  0.00    -0.034 C 
HETATM   15  C1  UNL     1      -1.543   8.666  15.560  1.00  0.00     0.036 C 
ENDBRANCH   1  13
BRANCH   3  16
HETATM   16  O2  UNL     1      -4.343   2.839  14.904  1.00  0.00    -0.304 OA
BRANCH  16  17
HETATM   17  C7  UNL     1      -4.515   1.887  15.901  1.00  0.00     0.360 C 
HETATM   18  O3  UNL     1      -3.479   1.328  16.339  1.00  0.00    -0.252 OA
BRANCH  17  19
HETATM   19  C8  UNL     1      -5.853   1.550  16.420  1.00  0.00     0.277 C 
HETATM   20  O4  UNL     1      -6.646   2.406  16.836  1.00  0.00    -0.640 OA
HETATM   21  O5  UNL     1      -6.214   0.217  16.432  1.00  0.00    -0.640 OA
ENDBRANCH  17  19
ENDBRANCH  16  17
ENDBRANCH   3  16
BRANCH   2  22
HETATM   22  O1  UNL     1      -2.872   3.416  12.692  1.00  0.00    -0.392 OA
ATOM     23  H1  UNL     1      -2.217   2.791  12.402  1.00  0.00     0.210 HD
ENDBRANCH   2  22
TORSDOF 9
ENDMDL
