MODEL 1
REMARK VINA RESULT: -3.757706313      0.000      0.000
REMARK  1 active torsions:
REMARK  status: ('A' for Active; 'I' for Inactive)
REMARK    1  A    between atoms: N1_1  and  C1_5 
ROOT
HETATM    1  C1  UNL     1      18.937   2.440  11.638  1.00  0.00     0.265 A 
HETATM    2  C2  UNL     1      19.820   1.360  10.895  1.00  0.00     0.125 A 
HETATM    3  C3  UNL     1      19.003   0.230  10.932  1.00  0.00    -0.169 A 
HETATM    4  C4  UNL     1      18.228  -0.939  10.940  1.00  0.00     0.166 A 
HETATM    5  S1  UNL     1      16.722  -0.228  11.863  1.00  0.00    -0.084 SA
HETATM    6  S2  UNL     1      17.348   1.818  12.155  1.00  0.00    -0.063 SA
ENDROOT
BRANCH   1   7
HETATM    7  N1  UNL     1      19.681   2.826  12.827  1.00  0.00    -0.065 N 
ATOM      8  H13 UNL     1      20.677   2.619  12.767  1.00  0.00     0.275 HD
ATOM      9  H12 UNL     1      19.769   3.836  12.940  1.00  0.00     0.275 HD
ATOM     10  H11 UNL     1      19.218   2.370  13.614  1.00  0.00     0.275 HD
ENDBRANCH   1   7
TORSDOF 1
ENDMDL
MODEL 2
REMARK VINA RESULT: -3.700966096      1.081      1.172
REMARK  1 active torsions:
REMARK  status: ('A' for Active; 'I' for Inactive)
REMARK    1  A    between atoms: N1_1  and  C1_5 
ROOT
HETATM    1  C1  UNL     1      19.483   2.056  11.195  1.00  0.00     0.265 A 
HETATM    2  C2  UNL     1      19.551   0.490  10.999  1.00  0.00     0.125 A 
HETATM    3  C3  UNL     1      18.218   0.110  11.159  1.00  0.00    -0.169 A 
HETATM    4  C4  UNL     1      16.897  -0.333  11.312  1.00  0.00     0.166 A 
HETATM    5  S1  UNL     1      16.106   1.369  11.637  1.00  0.00    -0.084 SA
HETATM    6  S2  UNL     1      17.831   2.658  11.488  1.00  0.00    -0.063 SA
ENDROOT
BRANCH   1   7
HETATM    7  N1  UNL     1      20.289   2.355  12.368  1.00  0.00    -0.065 N 
ATOM      8  H13 UNL     1      19.899   1.982  13.233  1.00  0.00     0.275 HD
ATOM      9  H12 UNL     1      21.170   1.841  12.397  1.00  0.00     0.275 HD
ATOM     10  H11 UNL     1      20.410   3.368  12.381  1.00  0.00     0.275 HD
ENDBRANCH   1   7
TORSDOF 1
ENDMDL
MODEL 3
REMARK VINA RESULT: -3.668209856      2.247      3.116
REMARK  1 active torsions:
REMARK  status: ('A' for Active; 'I' for Inactive)
REMARK    1  A    between atoms: N1_1  and  C1_5 
ROOT
HETATM    1  C1  UNL     1      16.879   0.231  11.633  1.00  0.00     0.265 A 
HETATM    2  C2  UNL     1      18.285  -0.200  11.056  1.00  0.00     0.125 A 
HETATM    3  C3  UNL     1      19.069   0.926  11.307  1.00  0.00    -0.169 A 
HETATM    4  C4  UNL     1      19.907   2.028  11.531  1.00  0.00     0.166 A 
HETATM    5  S1  UNL     1      18.614   3.151  12.366  1.00  0.00    -0.084 SA
HETATM    6  S2  UNL     1      16.882   1.863  12.353  1.00  0.00    -0.063 SA
ENDROOT
BRANCH   1   7
HETATM    7  N1  UNL     1      15.959   0.236  10.506  1.00  0.00    -0.065 N 
ATOM      8  H13 UNL     1      14.998   0.450  10.769  1.00  0.00     0.275 HD
ATOM      9  H12 UNL     1      16.095   1.025   9.875  1.00  0.00     0.275 HD
ATOM     10  H11 UNL     1      16.063  -0.671  10.049  1.00  0.00     0.275 HD
ENDBRANCH   1   7
TORSDOF 1
ENDMDL
MODEL 4
REMARK VINA RESULT: -3.499193656      5.721      6.300
REMARK  1 active torsions:
REMARK  status: ('A' for Active; 'I' for Inactive)
REMARK    1  A    between atoms: N1_1  and  C1_5 
ROOT
HETATM    1  C1  UNL     1      14.905   1.752  17.337  1.00  0.00     0.265 A 
HETATM    2  C2  UNL     1      15.981   1.064  16.407  1.00  0.00     0.125 A 
HETATM    3  C3  UNL     1      16.093   1.974  15.355  1.00  0.00    -0.169 A 
HETATM    4  C4  UNL     1      16.247   2.849  14.271  1.00  0.00     0.166 A 
HETATM    5  S1  UNL     1      14.998   4.169  14.842  1.00  0.00    -0.084 SA
HETATM    6  S2  UNL     1      14.338   3.324  16.716  1.00  0.00    -0.063 SA
ENDROOT
BRANCH   1   7
HETATM    7  N1  UNL     1      13.767   0.846  17.383  1.00  0.00    -0.065 N 
ATOM      8  H13 UNL     1      12.919   1.281  17.745  1.00  0.00     0.275 HD
ATOM      9  H12 UNL     1      13.402   0.608  16.462  1.00  0.00     0.275 HD
ATOM     10  H11 UNL     1      14.070   0.035  17.922  1.00  0.00     0.275 HD
ENDBRANCH   1   7
TORSDOF 1
ENDMDL
MODEL 5
REMARK VINA RESULT: -3.394510154      6.055      6.478
REMARK  1 active torsions:
REMARK  status: ('A' for Active; 'I' for Inactive)
REMARK    1  A    between atoms: N1_1  and  C1_5 
ROOT
HETATM    1  C1  UNL     1      15.316   4.080  15.743  1.00  0.00     0.265 A 
HETATM    2  C2  UNL     1      14.213   3.781  16.833  1.00  0.00     0.125 A 
HETATM    3  C3  UNL     1      14.447   2.440  17.135  1.00  0.00    -0.169 A 
HETATM    4  C4  UNL     1      14.632   1.093  17.479  1.00  0.00     0.166 A 
HETATM    5  S1  UNL     1      16.098   0.743  16.314  1.00  0.00    -0.084 SA
HETATM    6  S2  UNL     1      16.361   2.678  15.394  1.00  0.00    -0.063 SA
ENDROOT
BRANCH   1   7
HETATM    7  N1  UNL     1      14.602   4.426  14.523  1.00  0.00    -0.065 N 
ATOM      8  H13 UNL     1      14.880   5.326  14.133  1.00  0.00     0.275 HD
ATOM      9  H12 UNL     1      14.867   3.854  13.722  1.00  0.00     0.275 HD
ATOM     10  H11 UNL     1      13.608   4.372  14.749  1.00  0.00     0.275 HD
ENDBRANCH   1   7
TORSDOF 1
ENDMDL
