MODEL 1
REMARK VINA RESULT: -4.937972277      0.000      0.000
REMARK  2 active torsions:
REMARK  status: ('A' for Active; 'I' for Inactive)
REMARK    1  A    between atoms: N1_1  and  C1_5 
REMARK    2  A    between atoms: C1_5  and  N2_6 
ROOT
HETATM    1  C1  UNL     1      15.706   3.203  15.198  1.00  0.00     0.318 C 
HETATM    2  C6  UNL     1      15.562   4.662  15.537  1.00  0.00     0.072 C 
HETATM    3  C7  UNL     1      15.032   4.963  14.141  1.00  0.00     0.009 C 
HETATM    4  C8  UNL     1      15.399   3.554  13.773  1.00  0.00     0.072 C 
ENDROOT
BRANCH   1   5
HETATM    5  N1  UNL     1      17.085   2.795  15.460  1.00  0.00    -0.042 N 
ATOM      6  H13 UNL     1      17.747   3.564  15.355  1.00  0.00     0.277 HD
ATOM      7  H12 UNL     1      17.254   2.598  16.446  1.00  0.00     0.277 HD
ATOM      8  H11 UNL     1      17.309   2.000  14.860  1.00  0.00     0.277 HD
ENDBRANCH   1   5
BRANCH   1   9
HETATM    9  N2  UNL     1      14.827   2.283  15.845  1.00  0.00     0.125 N 
HETATM   10  C2  UNL     1      15.509   1.084  16.238  1.00  0.00     0.276 C 
HETATM   11  C3  UNL     1      15.028   0.753  17.629  1.00  0.00     0.032 C 
HETATM   12  C4  UNL     1      14.574   2.084  18.202  1.00  0.00     0.032 C 
HETATM   13  C5  UNL     1      14.085   2.787  16.949  1.00  0.00     0.276 C 
ENDBRANCH   1   9
TORSDOF 2
ENDMDL
MODEL 2
REMARK VINA RESULT: -4.887420903      1.227      3.834
REMARK  2 active torsions:
REMARK  status: ('A' for Active; 'I' for Inactive)
REMARK    1  A    between atoms: N1_1  and  C1_5 
REMARK    2  A    between atoms: C1_5  and  N2_6 
ROOT
HETATM    1  C1  UNL     1      14.358   2.522  16.614  1.00  0.00     0.318 C 
HETATM    2  C6  UNL     1      15.302   1.784  17.525  1.00  0.00     0.072 C 
HETATM    3  C7  UNL     1      14.428   0.538  17.466  1.00  0.00     0.009 C 
HETATM    4  C8  UNL     1      13.406   1.372  16.749  1.00  0.00     0.072 C 
ENDROOT
BRANCH   1   5
HETATM    5  N1  UNL     1      13.944   3.759  17.272  1.00  0.00    -0.042 N 
ATOM      6  H13 UNL     1      14.521   3.983  18.083  1.00  0.00     0.277 HD
ATOM      7  H12 UNL     1      14.156   4.588  16.716  1.00  0.00     0.277 HD
ATOM      8  H11 UNL     1      12.953   3.689  17.504  1.00  0.00     0.277 HD
ENDBRANCH   1   5
BRANCH   1   9
HETATM    9  N2  UNL     1      14.817   2.836  15.300  1.00  0.00     0.125 N 
HETATM   10  C2  UNL     1      14.723   4.240  15.026  1.00  0.00     0.276 C 
HETATM   11  C3  UNL     1      16.003   4.628  14.326  1.00  0.00     0.032 C 
HETATM   12  C4  UNL     1      17.013   3.587  14.776  1.00  0.00     0.032 C 
HETATM   13  C5  UNL     1      16.119   2.374  14.956  1.00  0.00     0.276 C 
ENDBRANCH   1   9
TORSDOF 2
ENDMDL
MODEL 3
REMARK VINA RESULT: -4.818854819      1.021      1.609
REMARK  2 active torsions:
REMARK  status: ('A' for Active; 'I' for Inactive)
REMARK    1  A    between atoms: N1_1  and  C1_5 
REMARK    2  A    between atoms: C1_5  and  N2_6 
ROOT
HETATM    1  C1  UNL     1      15.929   2.905  14.970  1.00  0.00     0.318 C 
HETATM    2  C6  UNL     1      16.705   4.160  14.674  1.00  0.00     0.072 C 
HETATM    3  C7  UNL     1      15.416   4.933  14.429  1.00  0.00     0.009 C 
HETATM    4  C8  UNL     1      14.694   3.619  14.508  1.00  0.00     0.072 C 
ENDROOT
BRANCH   1   5
HETATM    5  N1  UNL     1      16.405   1.841  14.087  1.00  0.00    -0.042 N 
ATOM      6  H13 UNL     1      17.324   1.492  14.357  1.00  0.00     0.277 HD
ATOM      7  H12 UNL     1      15.884   0.972  14.206  1.00  0.00     0.277 HD
ATOM      8  H11 UNL     1      16.382   2.181  13.125  1.00  0.00     0.277 HD
ENDBRANCH   1   5
BRANCH   1   9
HETATM    9  N2  UNL     1      15.938   2.422  16.312  1.00  0.00     0.125 N 
HETATM   10  C2  UNL     1      14.727   2.756  17.005  1.00  0.00     0.276 C 
HETATM   11  C3  UNL     1      14.320   1.525  17.777  1.00  0.00     0.032 C 
HETATM   12  C4  UNL     1      14.957   0.372  17.020  1.00  0.00     0.032 C 
HETATM   13  C5  UNL     1      16.212   1.036  16.485  1.00  0.00     0.276 C 
ENDBRANCH   1   9
TORSDOF 2
ENDMDL
MODEL 4
REMARK VINA RESULT: -4.421452471      1.098      3.752
REMARK  2 active torsions:
REMARK  status: ('A' for Active; 'I' for Inactive)
REMARK    1  A    between atoms: N1_1  and  C1_5 
REMARK    2  A    between atoms: C1_5  and  N2_6 
ROOT
HETATM    1  C1  UNL     1      15.333   1.943  16.396  1.00  0.00     0.318 C 
HETATM    2  C6  UNL     1      14.382   0.812  16.677  1.00  0.00     0.072 C 
HETATM    3  C7  UNL     1      13.922   1.482  17.965  1.00  0.00     0.009 C 
HETATM    4  C8  UNL     1      15.034   2.471  17.766  1.00  0.00     0.072 C 
ENDROOT
BRANCH   1   5
HETATM    5  N1  UNL     1      16.675   1.393  16.215  1.00  0.00    -0.042 N 
ATOM      6  H13 UNL     1      17.376   1.879  16.775  1.00  0.00     0.277 HD
ATOM      7  H12 UNL     1      16.778   0.468  16.634  1.00  0.00     0.277 HD
ATOM      8  H11 UNL     1      16.898   1.397  15.220  1.00  0.00     0.277 HD
ENDBRANCH   1   5
BRANCH   1   9
HETATM    9  N2  UNL     1      15.039   2.797  15.291  1.00  0.00     0.125 N 
HETATM   10  C2  UNL     1      14.587   4.088  15.723  1.00  0.00     0.276 C 
HETATM   11  C3  UNL     1      15.282   5.102  14.848  1.00  0.00     0.032 C 
HETATM   12  C4  UNL     1      16.544   4.398  14.378  1.00  0.00     0.032 C 
HETATM   13  C5  UNL     1      16.068   2.958  14.322  1.00  0.00     0.276 C 
ENDBRANCH   1   9
TORSDOF 2
ENDMDL
MODEL 5
REMARK VINA RESULT: -4.400836127      5.164      6.828
REMARK  2 active torsions:
REMARK  status: ('A' for Active; 'I' for Inactive)
REMARK    1  A    between atoms: N1_1  and  C1_5 
REMARK    2  A    between atoms: C1_5  and  N2_6 
ROOT
HETATM    1  C1  UNL     1      17.342   0.632  11.214  1.00  0.00     0.318 C 
HETATM    2  C6  UNL     1      16.862  -0.321  12.274  1.00  0.00     0.072 C 
HETATM    3  C7  UNL     1      17.430  -1.507  11.506  1.00  0.00     0.009 C 
HETATM    4  C8  UNL     1      17.691  -0.558  10.372  1.00  0.00     0.072 C 
ENDROOT
BRANCH   1   5
HETATM    5  N1  UNL     1      16.204   1.420  10.743  1.00  0.00    -0.042 N 
ATOM      6  H13 UNL     1      15.672   1.834  11.509  1.00  0.00     0.277 HD
ATOM      7  H12 UNL     1      16.490   2.287  10.287  1.00  0.00     0.277 HD
ATOM      8  H11 UNL     1      15.629   0.833  10.139  1.00  0.00     0.277 HD
ENDBRANCH   1   5
BRANCH   1   9
HETATM    9  N2  UNL     1      18.403   1.522  11.555  1.00  0.00     0.125 N 
HETATM   10  C2  UNL     1      19.610   1.206  10.847  1.00  0.00     0.276 C 
HETATM   11  C3  UNL     1      20.192   2.518  10.383  1.00  0.00     0.032 C 
HETATM   12  C4  UNL     1      19.001   3.458  10.306  1.00  0.00     0.032 C 
HETATM   13  C5  UNL     1      18.130   2.912  11.424  1.00  0.00     0.276 C 
ENDBRANCH   1   9
TORSDOF 2
ENDMDL
