MODEL 1
REMARK VINA RESULT: -4.988724128      0.000      0.000
REMARK  4 active torsions:
REMARK  status: ('A' for Active; 'I' for Inactive)
REMARK    1  A    between atoms: C2_2  and  O1_3 
REMARK    2  A    between atoms: O1_3  and  C3_4 
REMARK    3  A    between atoms: C3_4  and  N2_8 
REMARK    4  A    between atoms: N3_10  and  C4_12 
ROOT
HETATM    1  N2  UNL     1      17.161   1.808  15.965  1.00  0.00    -0.264 N 
ATOM      2  H2  UNL     1      17.884   1.799  16.685  1.00  0.00     0.190 HD
HETATM    3  N3  UNL     1      17.021   2.858  15.300  1.00  0.00    -0.287 N 
ATOM      4  H3  UNL     1      17.626   3.653  15.504  1.00  0.00     0.188 HD
ENDROOT
BRANCH   1   5
HETATM    5  C3  UNL     1      16.389   0.626  15.792  1.00  0.00     0.232 C 
HETATM    6  N1  UNL     1      16.842  -0.418  15.184  1.00  0.00    -0.364 N 
ATOM      7  H12 UNL     1      16.288  -1.266  15.060  1.00  0.00     0.159 HD
ATOM      8  H11 UNL     1      17.792  -0.394  14.814  1.00  0.00     0.159 HD
BRANCH   5   9
HETATM    9  O1  UNL     1      15.114   0.593  16.288  1.00  0.00    -0.322 OA
BRANCH   9  10
HETATM   10  C2  UNL     1      14.799   0.623  17.669  1.00  0.00     0.174 C 
HETATM   11  C1  UNL     1      14.457   2.035  18.118  1.00  0.00     0.034 C 
ENDBRANCH   9  10
ENDBRANCH   5   9
ENDBRANCH   1   5
BRANCH   3  12
HETATM   12  C4  UNL     1      16.052   2.985  14.272  1.00  0.00     0.085 C 
HETATM   13  C5  UNL     1      14.764   3.648  14.561  1.00  0.00     0.090 C 
HETATM   14  N4  UNL     1      16.309   2.521  13.103  1.00  0.00    -0.388 N 
ATOM     15  H42 UNL     1      17.198   2.063  12.904  1.00  0.00     0.157 HD
ATOM     16  H41 UNL     1      15.612   2.613  12.363  1.00  0.00     0.157 HD
ENDBRANCH   3  12
TORSDOF 4
ENDMDL
MODEL 2
REMARK VINA RESULT: -4.756531170      2.173      4.063
REMARK  4 active torsions:
REMARK  status: ('A' for Active; 'I' for Inactive)
REMARK    1  A    between atoms: C2_2  and  O1_3 
REMARK    2  A    between atoms: O1_3  and  C3_4 
REMARK    3  A    between atoms: C3_4  and  N2_8 
REMARK    4  A    between atoms: N3_10  and  C4_12 
ROOT
HETATM    1  N2  UNL     1      17.211   2.786  15.009  1.00  0.00    -0.264 N 
ATOM      2  H2  UNL     1      17.799   3.619  15.057  1.00  0.00     0.190 HD
HETATM    3  N3  UNL     1      17.092   2.101  16.048  1.00  0.00    -0.287 N 
ATOM      4  H3  UNL     1      17.583   2.399  16.891  1.00  0.00     0.188 HD
ENDROOT
BRANCH   1   5
HETATM    5  C3  UNL     1      16.588   2.491  13.764  1.00  0.00     0.232 C 
HETATM    6  N1  UNL     1      15.503   3.069  13.375  1.00  0.00    -0.364 N 
ATOM      7  H12 UNL     1      15.056   2.858  12.482  1.00  0.00     0.159 HD
ATOM      8  H11 UNL     1      15.076   3.767  13.985  1.00  0.00     0.159 HD
BRANCH   5   9
HETATM    9  O1  UNL     1      17.161   1.556  12.946  1.00  0.00    -0.322 OA
BRANCH   9  10
HETATM   10  C2  UNL     1      16.457   0.831  11.954  1.00  0.00     0.174 C 
HETATM   11  C1  UNL     1      16.959  -0.602  11.866  1.00  0.00     0.034 C 
ENDBRANCH   9  10
ENDBRANCH   5   9
ENDBRANCH   1   5
BRANCH   3  12
HETATM   12  C4  UNL     1      16.299   0.926  16.100  1.00  0.00     0.085 C 
HETATM   13  C5  UNL     1      14.961   0.975  16.722  1.00  0.00     0.090 C 
HETATM   14  N4  UNL     1      16.759  -0.166  15.604  1.00  0.00    -0.388 N 
ATOM     15  H42 UNL     1      17.683  -0.199  15.175  1.00  0.00     0.157 HD
ATOM     16  H41 UNL     1      16.188  -1.011  15.641  1.00  0.00     0.157 HD
ENDBRANCH   3  12
TORSDOF 4
ENDMDL
MODEL 3
REMARK VINA RESULT: -4.740776599      2.921      4.372
REMARK  4 active torsions:
REMARK  status: ('A' for Active; 'I' for Inactive)
REMARK    1  A    between atoms: C2_2  and  O1_3 
REMARK    2  A    between atoms: O1_3  and  C3_4 
REMARK    3  A    between atoms: C3_4  and  N2_8 
REMARK    4  A    between atoms: N3_10  and  C4_12 
ROOT
HETATM    1  N2  UNL     1      17.478   2.150  12.595  1.00  0.00    -0.264 N 
ATOM      2  H2  UNL     1      18.270   2.428  12.015  1.00  0.00     0.190 HD
HETATM    3  N3  UNL     1      17.364   2.691  13.717  1.00  0.00    -0.287 N 
ATOM      4  H3  UNL     1      18.062   3.377  14.003  1.00  0.00     0.188 HD
ENDROOT
BRANCH   1   5
HETATM    5  C3  UNL     1      16.584   1.177  12.067  1.00  0.00     0.232 C 
HETATM    6  N1  UNL     1      15.723   1.450  11.147  1.00  0.00    -0.364 N 
ATOM      7  H12 UNL     1      15.082   0.752  10.768  1.00  0.00     0.159 HD
ATOM      8  H11 UNL     1      15.682   2.402  10.783  1.00  0.00     0.159 HD
BRANCH   5   9
HETATM    9  O1  UNL     1      16.638  -0.100  12.554  1.00  0.00    -0.322 OA
BRANCH   9  10
HETATM   10  C2  UNL     1      16.921  -1.241  11.763  1.00  0.00     0.174 C 
HETATM   11  C1  UNL     1      18.183  -1.034  10.940  1.00  0.00     0.034 C 
ENDBRANCH   9  10
ENDBRANCH   5   9
ENDBRANCH   1   5
BRANCH   3  12
HETATM   12  C4  UNL     1      16.304   2.385  14.607  1.00  0.00     0.085 C 
HETATM   13  C5  UNL     1      15.130   3.279  14.679  1.00  0.00     0.090 C 
HETATM   14  N4  UNL     1      16.379   1.332  15.339  1.00  0.00    -0.388 N 
ATOM     15  H42 UNL     1      17.189   0.715  15.289  1.00  0.00     0.157 HD
ATOM     16  H41 UNL     1      15.615   1.112  15.979  1.00  0.00     0.157 HD
ENDBRANCH   3  12
TORSDOF 4
ENDMDL
MODEL 4
REMARK VINA RESULT: -4.688666236      1.400      3.407
REMARK  4 active torsions:
REMARK  status: ('A' for Active; 'I' for Inactive)
REMARK    1  A    between atoms: C2_2  and  O1_3 
REMARK    2  A    between atoms: O1_3  and  C3_4 
REMARK    3  A    between atoms: C3_4  and  N2_8 
REMARK    4  A    between atoms: N3_10  and  C4_12 
ROOT
HETATM    1  N2  UNL     1      17.170   2.777  14.976  1.00  0.00    -0.264 N 
ATOM      2  H2  UNL     1      17.776   3.597  14.989  1.00  0.00     0.190 HD
HETATM    3  N3  UNL     1      17.137   2.064  16.002  1.00  0.00    -0.287 N 
ATOM      4  H3  UNL     1      17.714   2.327  16.801  1.00  0.00     0.188 HD
ENDROOT
BRANCH   1   5
HETATM    5  C3  UNL     1      16.422   2.531  13.790  1.00  0.00     0.232 C 
HETATM    6  N1  UNL     1      16.876   1.816  12.818  1.00  0.00    -0.364 N 
ATOM      7  H12 UNL     1      16.340   1.639  11.967  1.00  0.00     0.159 HD
ATOM      8  H11 UNL     1      17.808   1.410  12.903  1.00  0.00     0.159 HD
BRANCH   5   9
HETATM    9  O1  UNL     1      15.172   3.075  13.675  1.00  0.00    -0.322 OA
BRANCH   9  10
HETATM   10  C2  UNL     1      14.612   3.983  14.608  1.00  0.00     0.174 C 
HETATM   11  C1  UNL     1      14.774   5.419  14.134  1.00  0.00     0.034 C 
ENDBRANCH   9  10
ENDBRANCH   5   9
ENDBRANCH   1   5
BRANCH   3  12
HETATM   12  C4  UNL     1      16.329   0.903  16.099  1.00  0.00     0.085 C 
HETATM   13  C5  UNL     1      14.999   0.989  16.735  1.00  0.00     0.090 C 
HETATM   14  N4  UNL     1      16.766  -0.210  15.629  1.00  0.00    -0.388 N 
ATOM     15  H42 UNL     1      17.684  -0.270  15.189  1.00  0.00     0.157 HD
ATOM     16  H41 UNL     1      16.184  -1.046  15.698  1.00  0.00     0.157 HD
ENDBRANCH   3  12
TORSDOF 4
ENDMDL
MODEL 5
REMARK VINA RESULT: -4.683824603      2.587      3.687
REMARK  4 active torsions:
REMARK  status: ('A' for Active; 'I' for Inactive)
REMARK    1  A    between atoms: C2_2  and  O1_3 
REMARK    2  A    between atoms: O1_3  and  C3_4 
REMARK    3  A    between atoms: C3_4  and  N2_8 
REMARK    4  A    between atoms: N3_10  and  C4_12 
ROOT
HETATM    1  N2  UNL     1      16.642   1.107  13.963  1.00  0.00    -0.264 N 
ATOM      2  H2  UNL     1      16.541   0.732  14.906  1.00  0.00     0.190 HD
HETATM    3  N3  UNL     1      16.804   0.292  13.029  1.00  0.00    -0.287 N 
ATOM      4  H3  UNL     1      16.831  -0.704  13.247  1.00  0.00     0.188 HD
ENDROOT
BRANCH   1   5
HETATM    5  C3  UNL     1      16.586   2.521  13.808  1.00  0.00     0.232 C 
HETATM    6  N1  UNL     1      17.635   3.269  13.865  1.00  0.00    -0.364 N 
ATOM      7  H12 UNL     1      17.595   4.282  13.754  1.00  0.00     0.159 HD
ATOM      8  H11 UNL     1      18.541   2.828  14.028  1.00  0.00     0.159 HD
BRANCH   5   9
HETATM    9  O1  UNL     1      15.371   3.112  13.590  1.00  0.00    -0.322 OA
BRANCH   9  10
HETATM   10  C2  UNL     1      14.783   4.061  14.461  1.00  0.00     0.174 C 
HETATM   11  C1  UNL     1      14.612   3.485  15.858  1.00  0.00     0.034 C 
ENDBRANCH   9  10
ENDBRANCH   5   9
ENDBRANCH   1   5
BRANCH   3  12
HETATM   12  C4  UNL     1      16.953   0.698  11.678  1.00  0.00     0.085 C 
HETATM   13  C5  UNL     1      18.293   0.695  11.058  1.00  0.00     0.090 C 
HETATM   14  N4  UNL     1      15.917   1.065  11.013  1.00  0.00    -0.388 N 
ATOM     15  H42 UNL     1      14.992   1.067  11.441  1.00  0.00     0.157 HD
ATOM     16  H41 UNL     1      16.024   1.357  10.041  1.00  0.00     0.157 HD
ENDBRANCH   3  12
TORSDOF 4
ENDMDL
