MODEL 1
REMARK VINA RESULT: -4.655771044      0.000      0.000
REMARK  1 active torsions:
REMARK  status: ('A' for Active; 'I' for Inactive)
REMARK    1  A    between atoms: O1_2  and  C1_3 
ROOT
HETATM    1  C1  UNL     1      16.427   0.973  15.256  1.00  0.00     0.193 A 
HETATM    2  N1  UNL     1      16.787   0.143  14.327  1.00  0.00    -0.319 N 
ATOM      3  H1  UNL     1      17.105  -0.794  14.575  1.00  0.00     0.169 HD
HETATM    4  C2  UNL     1      16.740   0.512  13.058  1.00  0.00     0.149 A 
HETATM    5 CL2  UNL     1      17.181  -0.446  11.632  1.00  0.00    -0.056 Cl
HETATM    6  S1  UNL     1      16.161   2.114  13.163  1.00  0.00    -0.043 SA
HETATM    7  C3  UNL     1      16.009   2.222  14.860  1.00  0.00     0.130 A 
HETATM    8 CL3  UNL     1      15.465   3.554  15.888  1.00  0.00    -0.071 Cl
ENDROOT
BRANCH   1   9
HETATM    9  O1  UNL     1      16.454   0.635  16.641  1.00  0.00    -0.220 OA
HETATM   10 CL1  UNL     1      14.965   0.500  17.459  1.00  0.00     0.069 Cl
ENDBRANCH   1   9
TORSDOF 1
ENDMDL
MODEL 2
REMARK VINA RESULT: -4.554436878      1.442      1.470
REMARK  1 active torsions:
REMARK  status: ('A' for Active; 'I' for Inactive)
REMARK    1  A    between atoms: O1_2  and  C1_3 
ROOT
HETATM    1  C1  UNL     1      16.101   1.796  15.760  1.00  0.00     0.193 A 
HETATM    2  N1  UNL     1      16.708   1.472  14.661  1.00  0.00    -0.319 N 
ATOM      3  H1  UNL     1      17.360   0.687  14.649  1.00  0.00     0.169 HD
HETATM    4  C2  UNL     1      16.482   2.161  13.555  1.00  0.00     0.149 A 
HETATM    5 CL2  UNL     1      17.194   1.903  11.951  1.00  0.00    -0.056 Cl
HETATM    6  S1  UNL     1      15.355   3.332  14.075  1.00  0.00    -0.043 SA
HETATM    7  C3  UNL     1      15.236   2.864  15.712  1.00  0.00     0.130 A 
HETATM    8 CL3  UNL     1      14.274   3.533  17.038  1.00  0.00    -0.071 Cl
ENDROOT
BRANCH   1   9
HETATM    9  O1  UNL     1      16.302   1.093  16.984  1.00  0.00    -0.220 OA
HETATM   10 CL1  UNL     1      14.969   0.277  17.664  1.00  0.00     0.069 Cl
ENDBRANCH   1   9
TORSDOF 1
ENDMDL
MODEL 3
REMARK VINA RESULT: -4.454409435      2.744      4.483
REMARK  1 active torsions:
REMARK  status: ('A' for Active; 'I' for Inactive)
REMARK    1  A    between atoms: O1_2  and  C1_3 
ROOT
HETATM    1  C1  UNL     1      15.299   2.954  14.728  1.00  0.00     0.193 A 
HETATM    2  N1  UNL     1      14.851   3.037  15.941  1.00  0.00    -0.319 N 
ATOM      3  H1  UNL     1      14.215   3.792  16.201  1.00  0.00     0.169 HD
HETATM    4  C2  UNL     1      15.218   2.141  16.843  1.00  0.00     0.149 A 
HETATM    5 CL2  UNL     1      14.736   2.057  18.548  1.00  0.00    -0.056 Cl
HETATM    6  S1  UNL     1      16.252   1.121  15.947  1.00  0.00    -0.043 SA
HETATM    7  C3  UNL     1      16.154   1.916  14.439  1.00  0.00     0.130 A 
HETATM    8 CL3  UNL     1      16.921   1.548  12.888  1.00  0.00    -0.071 Cl
ENDROOT
BRANCH   1   9
HETATM    9  O1  UNL     1      14.941   3.887  13.711  1.00  0.00    -0.220 OA
HETATM   10 CL1  UNL     1      14.561   5.479  14.187  1.00  0.00     0.069 Cl
ENDBRANCH   1   9
TORSDOF 1
ENDMDL
MODEL 4
REMARK VINA RESULT: -4.425421181      2.583      3.387
REMARK  1 active torsions:
REMARK  status: ('A' for Active; 'I' for Inactive)
REMARK    1  A    between atoms: O1_2  and  C1_3 
ROOT
HETATM    1  C1  UNL     1      16.551   2.402  15.800  1.00  0.00     0.193 A 
HETATM    2  N1  UNL     1      17.213   3.304  15.146  1.00  0.00    -0.319 N 
ATOM      3  H1  UNL     1      18.201   3.162  14.937  1.00  0.00     0.169 HD
HETATM    4  C2  UNL     1      16.606   4.410  14.749  1.00  0.00     0.149 A 
HETATM    5 CL2  UNL     1      17.306   5.770  13.850  1.00  0.00    -0.056 Cl
HETATM    6  S1  UNL     1      15.015   4.182  15.322  1.00  0.00    -0.043 SA
HETATM    7  C3  UNL     1      15.222   2.653  16.053  1.00  0.00     0.130 A 
HETATM    8 CL3  UNL     1      14.074   1.619  16.915  1.00  0.00    -0.071 Cl
ENDROOT
BRANCH   1   9
HETATM    9  O1  UNL     1      17.147   1.190  16.255  1.00  0.00    -0.220 OA
HETATM   10 CL1  UNL     1      16.816  -0.238  15.386  1.00  0.00     0.069 Cl
ENDBRANCH   1   9
TORSDOF 1
ENDMDL
MODEL 5
REMARK VINA RESULT: -4.418911948      2.750      3.632
REMARK  1 active torsions:
REMARK  status: ('A' for Active; 'I' for Inactive)
REMARK    1  A    between atoms: O1_2  and  C1_3 
ROOT
HETATM    1  C1  UNL     1      15.055   2.784  16.112  1.00  0.00     0.193 A 
HETATM    2  N1  UNL     1      14.620   3.926  15.679  1.00  0.00    -0.319 N 
ATOM      3  H1  UNL     1      13.995   4.487  16.259  1.00  0.00     0.169 HD
HETATM    4  C2  UNL     1      14.986   4.362  14.486  1.00  0.00     0.149 A 
HETATM    5 CL2  UNL     1      14.517   5.879  13.694  1.00  0.00    -0.056 Cl
HETATM    6  S1  UNL     1      15.999   3.107  13.930  1.00  0.00    -0.043 SA
HETATM    7  C3  UNL     1      15.893   2.073  15.284  1.00  0.00     0.130 A 
HETATM    8 CL3  UNL     1      16.639   0.499  15.598  1.00  0.00    -0.071 Cl
ENDROOT
BRANCH   1   9
HETATM    9  O1  UNL     1      14.698   2.259  17.388  1.00  0.00    -0.220 OA
HETATM   10 CL1  UNL     1      13.680   0.892  17.432  1.00  0.00     0.069 Cl
ENDBRANCH   1   9
TORSDOF 1
ENDMDL
