MODEL 1
REMARK VINA RESULT: -6.282516713      0.000      0.000
REMARK  2 active torsions:
REMARK  status: ('A' for Active; 'I' for Inactive)
REMARK    1  A    between atoms: C2_7  and  C3_8 
REMARK    2  A    between atoms: C3_8  and  C4_9 
ROOT
HETATM    1  S1  UNL     1      -9.476  13.605 -10.637  1.00  0.00    -0.039 SA
HETATM    2  C1  UNL     1     -10.298  14.863  -9.974  1.00  0.00     0.192 A 
HETATM    3  N1  UNL     1      -9.955  16.161  -9.984  1.00  0.00    -0.275 N 
ATOM      4  H1  UNL     1      -9.114  16.539 -10.419  1.00  0.00     0.189 HD
HETATM    5  N2  UNL     1     -10.861  16.875  -9.351  1.00  0.00    -0.287 N 
ATOM      6  H2  UNL     1     -10.838  17.885  -9.215  1.00  0.00     0.188 HD
HETATM    7  C2  UNL     1     -11.838  16.030  -8.907  1.00  0.00     0.098 A 
HETATM    8  N3  UNL     1     -11.462  14.815  -9.303  1.00  0.00    -0.321 N 
ATOM      9  H3  UNL     1     -11.989  13.960  -9.121  1.00  0.00     0.169 HD
ENDROOT
BRANCH   7  10
HETATM   10  C3  UNL     1     -13.034  16.452  -8.132  1.00  0.00     0.082 C 
BRANCH  10  11
HETATM   11  C4  UNL     1     -13.736  17.573  -8.846  1.00  0.00    -0.007 C 
HETATM   12  C5  UNL     1     -14.148  18.572  -7.789  1.00  0.00     0.005 C 
HETATM   13  C6  UNL     1     -14.894  19.732  -8.395  1.00  0.00     0.000 C 
HETATM   14  C7  UNL     1     -16.314  19.709  -7.891  1.00  0.00     0.000 C 
HETATM   15  C8  UNL     1     -17.113  18.775  -8.812  1.00  0.00     0.000 C 
HETATM   16  C9  UNL     1     -17.031  17.368  -8.385  1.00  0.00     0.000 C 
HETATM   17  C10 UNL     1     -16.006  16.502  -8.974  1.00  0.00     0.000 C 
HETATM   18  C11 UNL     1     -14.871  17.123  -9.703  1.00  0.00     0.005 C 
ENDBRANCH  10  11
ENDBRANCH   7  10
TORSDOF 2
ENDMDL
MODEL 2
REMARK VINA RESULT: -5.838465413      5.357      7.123
REMARK  2 active torsions:
REMARK  status: ('A' for Active; 'I' for Inactive)
REMARK    1  A    between atoms: C2_7  and  C3_8 
REMARK    2  A    between atoms: C3_8  and  C4_9 
ROOT
HETATM    1  S1  UNL     1      -9.373  18.164 -10.172  1.00  0.00    -0.039 SA
HETATM    2  C1  UNL     1      -9.272  16.560 -10.506  1.00  0.00     0.192 A 
HETATM    3  N1  UNL     1      -8.434  15.953 -11.362  1.00  0.00    -0.275 N 
ATOM      4  H1  UNL     1      -7.733  16.429 -11.929  1.00  0.00     0.189 HD
HETATM    5  N2  UNL     1      -8.649  14.654 -11.364  1.00  0.00    -0.287 N 
ATOM      6  H2  UNL     1      -8.148  13.967 -11.926  1.00  0.00     0.188 HD
HETATM    7  C2  UNL     1      -9.657  14.387 -10.482  1.00  0.00     0.098 A 
HETATM    8  N3  UNL     1     -10.012  15.568  -9.980  1.00  0.00    -0.321 N 
ATOM      9  H3  UNL     1     -10.749  15.703  -9.288  1.00  0.00     0.169 HD
ENDROOT
BRANCH   7  10
HETATM   10  C3  UNL     1     -10.203  13.032 -10.207  1.00  0.00     0.082 C 
BRANCH  10  11
HETATM   11  C4  UNL     1      -9.967  12.667  -8.768  1.00  0.00    -0.007 C 
HETATM   12  C5  UNL     1      -8.972  11.530  -8.765  1.00  0.00     0.005 C 
HETATM   13  C6  UNL     1      -8.684  11.061  -7.362  1.00  0.00     0.000 C 
HETATM   14  C7  UNL     1      -9.196   9.652  -7.211  1.00  0.00     0.000 C 
HETATM   15  C8  UNL     1     -10.679   9.740  -6.825  1.00  0.00     0.000 C 
HETATM   16  C9  UNL     1     -11.556   9.838  -8.005  1.00  0.00     0.000 C 
HETATM   17  C10 UNL     1     -11.960  11.163  -8.486  1.00  0.00     0.000 C 
HETATM   18  C11 UNL     1     -11.216  12.358  -8.014  1.00  0.00     0.005 C 
ENDBRANCH  10  11
ENDBRANCH   7  10
TORSDOF 2
ENDMDL
MODEL 3
REMARK VINA RESULT: -5.786716722      0.678      1.240
REMARK  2 active torsions:
REMARK  status: ('A' for Active; 'I' for Inactive)
REMARK    1  A    between atoms: C2_7  and  C3_8 
REMARK    2  A    between atoms: C3_8  and  C4_9 
ROOT
HETATM    1  S1  UNL     1      -9.264  14.293 -10.914  1.00  0.00    -0.039 SA
HETATM    2  C1  UNL     1     -10.663  14.491 -10.077  1.00  0.00     0.192 A 
HETATM    3  N1  UNL     1     -11.717  13.659 -10.036  1.00  0.00    -0.275 N 
ATOM      4  H1  UNL     1     -11.780  12.772 -10.536  1.00  0.00     0.189 HD
HETATM    5  N2  UNL     1     -12.656  14.154  -9.259  1.00  0.00    -0.287 N 
ATOM      6  H2  UNL     1     -13.556  13.720  -9.059  1.00  0.00     0.188 HD
HETATM    7  C2  UNL     1     -12.216  15.349  -8.765  1.00  0.00     0.098 A 
HETATM    8  N3  UNL     1     -11.002  15.522  -9.284  1.00  0.00    -0.321 N 
ATOM      9  H3  UNL     1     -10.407  16.331  -9.104  1.00  0.00     0.169 HD
ENDROOT
BRANCH   7  10
HETATM   10  C3  UNL     1     -12.997  16.228  -7.855  1.00  0.00     0.082 C 
BRANCH  10  11
HETATM   11  C4  UNL     1     -13.533  17.406  -8.618  1.00  0.00    -0.007 C 
HETATM   12  C5  UNL     1     -14.016  18.406  -7.593  1.00  0.00     0.005 C 
HETATM   13  C6  UNL     1     -14.607  19.624  -8.255  1.00  0.00     0.000 C 
HETATM   14  C7  UNL     1     -16.078  19.680  -7.936  1.00  0.00     0.000 C 
HETATM   15  C8  UNL     1     -16.808  18.819  -8.978  1.00  0.00     0.000 C 
HETATM   16  C9  UNL     1     -16.866  17.401  -8.586  1.00  0.00     0.000 C 
HETATM   17  C10 UNL     1     -15.827  16.484  -9.065  1.00  0.00     0.000 C 
HETATM   18  C11 UNL     1     -14.574  17.048  -9.626  1.00  0.00     0.005 C 
ENDBRANCH  10  11
ENDBRANCH   7  10
TORSDOF 2
ENDMDL
MODEL 4
REMARK VINA RESULT: -5.779327127      5.987      7.663
REMARK  2 active torsions:
REMARK  status: ('A' for Active; 'I' for Inactive)
REMARK    1  A    between atoms: C2_7  and  C3_8 
REMARK    2  A    between atoms: C3_8  and  C4_9 
ROOT
HETATM    1  S1  UNL     1      -8.132  14.349 -12.229  1.00  0.00    -0.039 SA
HETATM    2  C1  UNL     1      -8.951  14.142 -10.820  1.00  0.00     0.192 A 
HETATM    3  N1  UNL     1      -9.761  15.021 -10.208  1.00  0.00    -0.275 N 
ATOM      4  H1  UNL     1      -9.975  15.957 -10.554  1.00  0.00     0.189 HD
HETATM    5  N2  UNL     1     -10.239  14.501  -9.098  1.00  0.00    -0.287 N 
ATOM      6  H2  UNL     1     -10.875  14.962  -8.448  1.00  0.00     0.188 HD
HETATM    7  C2  UNL     1      -9.735  13.239  -8.966  1.00  0.00     0.098 A 
HETATM    8  N3  UNL     1      -8.956  13.055 -10.030  1.00  0.00    -0.321 N 
ATOM      9  H3  UNL     1      -8.431  12.201 -10.221  1.00  0.00     0.169 HD
ENDROOT
BRANCH   7  10
HETATM   10  C3  UNL     1     -10.027  12.325  -7.830  1.00  0.00     0.082 C 
BRANCH  10  11
HETATM   11  C4  UNL     1     -10.334  10.948  -8.348  1.00  0.00    -0.007 C 
HETATM   12  C5  UNL     1     -11.827  10.757  -8.220  1.00  0.00     0.005 C 
HETATM   13  C6  UNL     1     -12.244   9.386  -8.685  1.00  0.00     0.000 C 
HETATM   14  C7  UNL     1     -12.777   8.617  -7.504  1.00  0.00     0.000 C 
HETATM   15  C8  UNL     1     -11.578   7.962  -6.802  1.00  0.00     0.000 C 
HETATM   16  C9  UNL     1     -10.948   8.862  -5.821  1.00  0.00     0.000 C 
HETATM   17  C10 UNL     1      -9.810   9.688  -6.237  1.00  0.00     0.000 C 
HETATM   18  C11 UNL     1      -9.544   9.868  -7.687  1.00  0.00     0.005 C 
ENDBRANCH  10  11
ENDBRANCH   7  10
TORSDOF 2
ENDMDL
MODEL 5
REMARK VINA RESULT: -5.736440534      6.827      8.382
REMARK  2 active torsions:
REMARK  status: ('A' for Active; 'I' for Inactive)
REMARK    1  A    between atoms: C2_7  and  C3_8 
REMARK    2  A    between atoms: C3_8  and  C4_9 
ROOT
HETATM    1  S1  UNL     1      -8.317  12.336 -12.343  1.00  0.00    -0.039 SA
HETATM    2  C1  UNL     1      -8.808  11.979 -10.817  1.00  0.00     0.192 A 
HETATM    3  N1  UNL     1      -8.045  11.867  -9.717  1.00  0.00    -0.275 N 
ATOM      4  H1  UNL     1      -7.033  11.994  -9.693  1.00  0.00     0.189 HD
HETATM    5  N2  UNL     1      -8.792  11.569  -8.675  1.00  0.00    -0.287 N 
ATOM      6  H2  UNL     1      -8.459  11.427  -7.722  1.00  0.00     0.188 HD
HETATM    7  C2  UNL     1     -10.090  11.481  -9.091  1.00  0.00     0.098 A 
HETATM    8  N3  UNL     1     -10.061  11.735 -10.398  1.00  0.00    -0.321 N 
ATOM      9  H3  UNL     1     -10.883  11.743 -11.002  1.00  0.00     0.169 HD
ENDROOT
BRANCH   7  10
HETATM   10  C3  UNL     1     -11.240  11.147  -8.210  1.00  0.00     0.082 C 
BRANCH  10  11
HETATM   11  C4  UNL     1     -11.598   9.695  -8.365  1.00  0.00    -0.007 C 
HETATM   12  C5  UNL     1     -13.036   9.552  -7.925  1.00  0.00     0.005 C 
HETATM   13  C6  UNL     1     -13.493   8.119  -8.010  1.00  0.00     0.000 C 
HETATM   14  C7  UNL     1     -13.777   7.620  -6.617  1.00  0.00     0.000 C 
HETATM   15  C8  UNL     1     -12.451   7.111  -6.032  1.00  0.00     0.000 C 
HETATM   16  C9  UNL     1     -11.676   8.188  -5.393  1.00  0.00     0.000 C 
HETATM   17  C10 UNL     1     -10.659   8.897  -6.176  1.00  0.00     0.000 C 
HETATM   18  C11 UNL     1     -10.670   8.768  -7.654  1.00  0.00     0.005 C 
ENDBRANCH  10  11
ENDBRANCH   7  10
TORSDOF 2
ENDMDL
