MODEL 1
REMARK VINA RESULT: -5.296529188      0.000      0.000
REMARK  6 active torsions:
REMARK  status: ('A' for Active; 'I' for Inactive)
REMARK    1  A    between atoms: C2_2  and  C3_3 
REMARK    2  A    between atoms: C3_3  and  C4_4 
REMARK    3  A    between atoms: C4_4  and  N1_5 
REMARK    4  A    between atoms: C9_13  and  O1_14 
REMARK    5  A    between atoms: C9_13  and  O2_16 
REMARK    6  A    between atoms: O2_16  and  C10_17 
ROOT
HETATM    1  C4  UNL     1      -9.742  13.591 -10.063  1.00  0.00     0.151 C 
HETATM    2  C5  UNL     1     -11.080  13.381 -10.859  1.00  0.00     0.044 C 
HETATM    3  C6  UNL     1     -12.089  13.759  -9.810  1.00  0.00     0.007 C 
HETATM    4  C7  UNL     1     -11.431  13.502  -8.474  1.00  0.00     0.042 C 
HETATM    5  C8  UNL     1     -10.090  12.853  -8.863  1.00  0.00     0.013 C 
HETATM    6  C9  UNL     1      -9.627  11.865  -8.147  1.00  0.00     0.183 C 
ENDROOT
BRANCH   1   7
HETATM    7  C3  UNL     1      -8.687  13.121 -10.964  1.00  0.00     0.043 C 
BRANCH   7   8
HETATM    8  C2  UNL     1      -8.692  13.697 -12.362  1.00  0.00    -0.002 C 
HETATM    9  C1  UNL     1      -7.315  14.286 -12.590  1.00  0.00     0.005 C 
ENDBRANCH   7   8
ENDBRANCH   1   7
BRANCH   1  10
HETATM   10  N1  UNL     1      -9.639  15.047  -9.887  1.00  0.00    -0.066 N 
ATOM     11  H13 UNL     1      -8.728  15.325  -9.522  1.00  0.00     0.275 HD
ATOM     12  H12 UNL     1      -9.598  15.539 -10.779  1.00  0.00     0.275 HD
ATOM     13  H11 UNL     1     -10.404  15.381  -9.301  1.00  0.00     0.275 HD
ENDBRANCH   1  10
BRANCH   6  14
HETATM   14  O1  UNL     1      -8.465  11.185  -8.470  1.00  0.00    -0.341 OA
ATOM     15  H1  UNL     1      -8.131  10.461  -7.952  1.00  0.00     0.220 HD
ENDBRANCH   6  14
BRANCH   6  16
HETATM   16  O2  UNL     1     -10.295  11.434  -6.993  1.00  0.00    -0.320 OA
BRANCH  16  17
HETATM   17  C10 UNL     1     -11.105  10.277  -6.985  1.00  0.00     0.059 C 
HETATM   18  C11 UNL     1     -12.419  10.504  -6.275  1.00  0.00     0.045 C 
HETATM   19  C12 UNL     1     -11.415   9.786  -8.388  1.00  0.00     0.045 C 
HETATM   20  C13 UNL     1     -10.362   9.205  -6.211  1.00  0.00     0.045 C 
ENDBRANCH  16  17
ENDBRANCH   6  16
TORSDOF 6
ENDMDL
MODEL 2
REMARK VINA RESULT: -5.224754646      2.470      5.113
REMARK  6 active torsions:
REMARK  status: ('A' for Active; 'I' for Inactive)
REMARK    1  A    between atoms: C2_2  and  C3_3 
REMARK    2  A    between atoms: C3_3  and  C4_4 
REMARK    3  A    between atoms: C4_4  and  N1_5 
REMARK    4  A    between atoms: C9_13  and  O1_14 
REMARK    5  A    between atoms: C9_13  and  O2_16 
REMARK    6  A    between atoms: O2_16  and  C10_17 
ROOT
HETATM    1  C4  UNL     1     -12.145  14.395  -8.289  1.00  0.00     0.151 C 
HETATM    2  C5  UNL     1     -13.028  13.267  -8.932  1.00  0.00     0.044 C 
HETATM    3  C6  UNL     1     -12.165  12.061  -8.681  1.00  0.00     0.007 C 
HETATM    4  C7  UNL     1     -10.745  12.569  -8.582  1.00  0.00     0.042 C 
HETATM    5  C8  UNL     1     -10.882  14.064  -8.922  1.00  0.00     0.013 C 
HETATM    6  C9  UNL     1      -9.969  14.639  -9.656  1.00  0.00     0.183 C 
ENDROOT
BRANCH   1   7
HETATM    7  C3  UNL     1     -12.844  15.646  -8.597  1.00  0.00     0.043 C 
BRANCH   7   8
HETATM    8  C2  UNL     1     -14.177  15.516  -9.295  1.00  0.00    -0.002 C 
HETATM    9  C1  UNL     1     -14.630  16.923  -9.626  1.00  0.00     0.005 C 
ENDBRANCH   7   8
ENDBRANCH   1   7
BRANCH   1  10
HETATM   10  N1  UNL     1     -12.202  14.132  -6.844  1.00  0.00    -0.066 N 
ATOM     11  H13 UNL     1     -11.854  14.921  -6.297  1.00  0.00     0.275 HD
ATOM     12  H12 UNL     1     -13.160  14.120  -6.493  1.00  0.00     0.275 HD
ATOM     13  H11 UNL     1     -11.705  13.268  -6.628  1.00  0.00     0.275 HD
ENDBRANCH   1  10
BRANCH   6  14
HETATM   14  O1  UNL     1     -10.054  15.961 -10.061  1.00  0.00    -0.341 OA
ATOM     15  H1  UNL     1     -10.817  16.315 -10.502  1.00  0.00     0.220 HD
ENDBRANCH   6  14
BRANCH   6  16
HETATM   16  O2  UNL     1      -8.834  13.935 -10.081  1.00  0.00    -0.320 OA
BRANCH  16  17
HETATM   17  C10 UNL     1      -8.634  13.586 -11.434  1.00  0.00     0.059 C 
HETATM   18  C11 UNL     1      -9.936  13.348 -12.162  1.00  0.00     0.045 C 
HETATM   19  C12 UNL     1      -7.867  14.653 -12.194  1.00  0.00     0.045 C 
HETATM   20  C13 UNL     1      -7.867  12.277 -11.459  1.00  0.00     0.045 C 
ENDBRANCH  16  17
ENDBRANCH   6  16
TORSDOF 6
ENDMDL
MODEL 3
REMARK VINA RESULT: -5.194108471      2.390      5.152
REMARK  6 active torsions:
REMARK  status: ('A' for Active; 'I' for Inactive)
REMARK    1  A    between atoms: C2_2  and  C3_3 
REMARK    2  A    between atoms: C3_3  and  C4_4 
REMARK    3  A    between atoms: C4_4  and  N1_5 
REMARK    4  A    between atoms: C9_13  and  O1_14 
REMARK    5  A    between atoms: C9_13  and  O2_16 
REMARK    6  A    between atoms: O2_16  and  C10_17 
ROOT
HETATM    1  C4  UNL     1     -11.962  14.158  -8.292  1.00  0.00     0.151 C 
HETATM    2  C5  UNL     1     -12.815  13.015  -8.949  1.00  0.00     0.044 C 
HETATM    3  C6  UNL     1     -11.891  11.842  -8.774  1.00  0.00     0.007 C 
HETATM    4  C7  UNL     1     -10.493  12.410  -8.703  1.00  0.00     0.042 C 
HETATM    5  C8  UNL     1     -10.708  13.909  -8.979  1.00  0.00     0.013 C 
HETATM    6  C9  UNL     1      -9.848  14.552  -9.720  1.00  0.00     0.183 C 
ENDROOT
BRANCH   1   7
HETATM    7  C3  UNL     1     -12.726  15.385  -8.527  1.00  0.00     0.043 C 
BRANCH   7   8
HETATM    8  C2  UNL     1     -14.037  15.230  -9.261  1.00  0.00    -0.002 C 
HETATM    9  C1  UNL     1     -14.512  16.628  -9.598  1.00  0.00     0.005 C 
ENDBRANCH   7   8
ENDBRANCH   1   7
BRANCH   1  10
HETATM   10  N1  UNL     1     -11.956  13.838  -6.857  1.00  0.00    -0.066 N 
ATOM     11  H13 UNL     1     -12.618  13.097  -6.626  1.00  0.00     0.275 HD
ATOM     12  H12 UNL     1     -11.098  13.364  -6.573  1.00  0.00     0.275 HD
ATOM     13  H11 UNL     1     -12.123  14.684  -6.311  1.00  0.00     0.275 HD
ENDBRANCH   1  10
BRANCH   6  14
HETATM   14  O1  UNL     1     -10.007  15.882 -10.071  1.00  0.00    -0.341 OA
ATOM     15  H1  UNL     1      -9.714  16.233 -10.904  1.00  0.00     0.220 HD
ENDBRANCH   6  14
BRANCH   6  16
HETATM   16  O2  UNL     1      -8.699  13.917 -10.210  1.00  0.00    -0.320 OA
BRANCH  16  17
HETATM   17  C10 UNL     1      -8.569  13.546 -11.566  1.00  0.00     0.059 C 
HETATM   18  C11 UNL     1      -7.806  12.253 -11.734  1.00  0.00     0.045 C 
HETATM   19  C12 UNL     1      -9.917  13.380 -12.246  1.00  0.00     0.045 C 
HETATM   20  C13 UNL     1      -7.766  14.628 -12.261  1.00  0.00     0.045 C 
ENDBRANCH  16  17
ENDBRANCH   6  16
TORSDOF 6
ENDMDL
MODEL 4
REMARK VINA RESULT: -5.027283094      2.003      5.321
REMARK  6 active torsions:
REMARK  status: ('A' for Active; 'I' for Inactive)
REMARK    1  A    between atoms: C2_2  and  C3_3 
REMARK    2  A    between atoms: C3_3  and  C4_4 
REMARK    3  A    between atoms: C4_4  and  N1_5 
REMARK    4  A    between atoms: C9_13  and  O1_14 
REMARK    5  A    between atoms: C9_13  and  O2_16 
REMARK    6  A    between atoms: O2_16  and  C10_17 
ROOT
HETATM    1  C4  UNL     1     -10.728  10.655  -8.357  1.00  0.00     0.151 C 
HETATM    2  C5  UNL     1     -11.452  11.506  -7.253  1.00  0.00     0.044 C 
HETATM    3  C6  UNL     1     -12.206  12.487  -8.108  1.00  0.00     0.007 C 
HETATM    4  C7  UNL     1     -11.436  12.602  -9.403  1.00  0.00     0.042 C 
HETATM    5  C8  UNL     1     -10.183  11.746  -9.143  1.00  0.00     0.013 C 
HETATM    6  C9  UNL     1      -9.027  12.155  -9.590  1.00  0.00     0.183 C 
ENDROOT
BRANCH   1   7
HETATM    7  C3  UNL     1      -9.854   9.740  -7.619  1.00  0.00     0.043 C 
BRANCH   7   8
HETATM    8  C2  UNL     1     -10.332   9.312  -6.251  1.00  0.00    -0.002 C 
HETATM    9  C1  UNL     1      -9.102   9.234  -5.370  1.00  0.00     0.005 C 
ENDBRANCH   7   8
ENDBRANCH   1   7
BRANCH   1  10
HETATM   10  N1  UNL     1     -11.807   9.900  -9.011  1.00  0.00    -0.066 N 
ATOM     11  H13 UNL     1     -12.730  10.192  -8.688  1.00  0.00     0.275 HD
ATOM     12  H12 UNL     1     -11.908  10.151  -9.995  1.00  0.00     0.275 HD
ATOM     13  H11 UNL     1     -11.657   8.899  -8.885  1.00  0.00     0.275 HD
ENDBRANCH   1  10
BRANCH   6  14
HETATM   14  O1  UNL     1      -7.844  11.479  -9.340  1.00  0.00    -0.341 OA
ATOM     15  H1  UNL     1      -7.791  10.531  -9.306  1.00  0.00     0.220 HD
ENDBRANCH   6  14
BRANCH   6  16
HETATM   16  O2  UNL     1      -8.920  13.321 -10.359  1.00  0.00    -0.320 OA
BRANCH  16  17
HETATM   17  C10 UNL     1      -8.519  13.291 -11.713  1.00  0.00     0.059 C 
HETATM   18  C11 UNL     1      -7.811  14.560 -12.127  1.00  0.00     0.045 C 
HETATM   19  C12 UNL     1      -7.592  12.126 -12.009  1.00  0.00     0.045 C 
HETATM   20  C13 UNL     1      -9.774  13.187 -12.558  1.00  0.00     0.045 C 
ENDBRANCH  16  17
ENDBRANCH   6  16
TORSDOF 6
ENDMDL
MODEL 5
REMARK VINA RESULT: -5.006235424      3.496      5.150
REMARK  6 active torsions:
REMARK  status: ('A' for Active; 'I' for Inactive)
REMARK    1  A    between atoms: C2_2  and  C3_3 
REMARK    2  A    between atoms: C3_3  and  C4_4 
REMARK    3  A    between atoms: C4_4  and  N1_5 
REMARK    4  A    between atoms: C9_13  and  O1_14 
REMARK    5  A    between atoms: C9_13  and  O2_16 
REMARK    6  A    between atoms: O2_16  and  C10_17 
ROOT
HETATM    1  C4  UNL     1     -10.758  14.313  -9.737  1.00  0.00     0.151 C 
HETATM    2  C5  UNL     1     -10.195  13.384  -8.603  1.00  0.00     0.044 C 
HETATM    3  C6  UNL     1     -11.473  12.945  -7.943  1.00  0.00     0.007 C 
HETATM    4  C7  UNL     1     -12.487  14.032  -8.215  1.00  0.00     0.042 C 
HETATM    5  C8  UNL     1     -11.658  15.115  -8.928  1.00  0.00     0.013 C 
HETATM    6  C9  UNL     1     -11.879  16.372  -8.655  1.00  0.00     0.183 C 
ENDROOT
BRANCH   1   7
HETATM    7  C3  UNL     1      -9.575  14.902 -10.368  1.00  0.00     0.043 C 
BRANCH   7   8
HETATM    8  C2  UNL     1      -8.764  13.989 -11.258  1.00  0.00    -0.002 C 
HETATM    9  C1  UNL     1      -7.903  14.885 -12.125  1.00  0.00     0.005 C 
ENDBRANCH   7   8
ENDBRANCH   1   7
BRANCH   1  10
HETATM   10  N1  UNL     1     -11.421  13.395 -10.674  1.00  0.00    -0.066 N 
ATOM     11  H13 UNL     1     -10.759  12.962 -11.319  1.00  0.00     0.275 HD
ATOM     12  H12 UNL     1     -11.752  12.548 -10.212  1.00  0.00     0.275 HD
ATOM     13  H11 UNL     1     -12.172  13.880 -11.165  1.00  0.00     0.275 HD
ENDBRANCH   1  10
BRANCH   6  14
HETATM   14  O1  UNL     1     -11.130  17.401  -9.202  1.00  0.00    -0.341 OA
ATOM     15  H1  UNL     1     -10.211  17.307  -9.425  1.00  0.00     0.220 HD
ENDBRANCH   6  14
BRANCH   6  16
HETATM   16  O2  UNL     1     -12.902  16.752  -7.777  1.00  0.00    -0.320 OA
BRANCH  16  17
HETATM   17  C10 UNL     1     -14.100  17.345  -8.236  1.00  0.00     0.059 C 
HETATM   18  C11 UNL     1     -14.027  18.854  -8.234  1.00  0.00     0.045 C 
HETATM   19  C12 UNL     1     -14.456  16.901  -9.643  1.00  0.00     0.045 C 
HETATM   20  C13 UNL     1     -15.202  16.952  -7.271  1.00  0.00     0.045 C 
ENDBRANCH  16  17
ENDBRANCH   6  16
TORSDOF 6
ENDMDL
