MODEL 1
REMARK VINA RESULT: -11.133970307      0.000      0.000
REMARK  16 active torsions:
REMARK  status: ('A' for Active; 'I' for Inactive)
REMARK    1  A    between atoms: C4_4  and  O1_5 
REMARK    2  A    between atoms: C5_7  and  C6_8 
REMARK    3  A    between atoms: C7_9  and  O2_10 
REMARK    4  A    between atoms: C7_9  and  C8_12 
REMARK       I    between atoms: C8_12  and  N1_14 
REMARK    5  A    between atoms: N1_14  and  C9_16 
REMARK    6  A    between atoms: C9_16  and  C10_17 
REMARK       I    between atoms: C10_17  and  N2_19 
REMARK    7  A    between atoms: N2_19  and  C11_21 
REMARK    8  A    between atoms: C11_21  and  C12_22 
REMARK       I    between atoms: C12_22  and  N3_24 
REMARK    9  A    between atoms: N3_24  and  C13_26 
REMARK   10  A    between atoms: C14_27  and  C15_28 
REMARK   11  A    between atoms: C20_33  and  O6_34 
REMARK   12  A    between atoms: N6_40  and  C21_41 
REMARK   13  A    between atoms: C21_41  and  C22_42 
REMARK       I    between atoms: C22_42  and  N7_44 
REMARK   14  A    between atoms: N7_44  and  N8_45 
REMARK       I    between atoms: N8_45  and  C23_47 
REMARK   15  A    between atoms: C23_47  and  C24_49 
REMARK   16  A    between atoms: C24_49  and  N9_50 
ROOT
HETATM    1  C13 UNL     1      53.388  25.599  23.898  1.00  0.00     0.156 A 
HETATM    2  C14 UNL     1      53.231  25.866  22.566  1.00  0.00     0.108 A 
HETATM    3  N4  UNL     1      54.446  26.402  22.156  1.00  0.00    -0.281 N 
ATOM      4  H4  UNL     1      54.662  26.717  21.209  1.00  0.00     0.188 HD
HETATM    5  N5  UNL     1      55.248  26.439  23.144  1.00  0.00    -0.238 N 
ATOM      6  H5  UNL     1      56.208  26.782  23.108  1.00  0.00     0.208 HD
HETATM    7  N6  UNL     1      54.636  25.954  24.246  1.00  0.00    -0.250 N 
ENDROOT
BRANCH   1   8
HETATM    8  N3  UNL     1      52.264  25.248  24.734  1.00  0.00    -0.309 N 
HETATM    9  C12 UNL     1      51.767  24.006  25.104  1.00  0.00     0.240 C 
HETATM   10  O5  UNL     1      51.993  22.959  24.450  1.00  0.00    -0.271 OA
ATOM     11  H3  UNL     1      51.753  26.044  25.115  1.00  0.00     0.170 HD
BRANCH   9  12
HETATM   12  C11 UNL     1      50.928  23.804  26.304  1.00  0.00     0.225 C 
BRANCH  12  13
HETATM   13  N2  UNL     1      49.974  22.707  26.218  1.00  0.00    -0.351 N 
HETATM   14  C10 UNL     1      50.189  21.618  27.039  1.00  0.00     0.235 C 
HETATM   15  O4  UNL     1      51.059  21.340  27.759  1.00  0.00    -0.272 OA
ATOM     16  H2  UNL     1      49.180  22.742  25.578  1.00  0.00     0.163 HD
BRANCH  14  17
HETATM   17  C9  UNL     1      48.976  20.535  27.014  1.00  0.00     0.225 C 
BRANCH  17  18
HETATM   18  N1  UNL     1      47.828  21.272  27.126  1.00  0.00    -0.346 N 
HETATM   19  C8  UNL     1      46.444  21.017  27.071  1.00  0.00     0.275 C 
HETATM   20  O3  UNL     1      45.996  19.893  26.835  1.00  0.00    -0.265 OA
ATOM     21  H1  UNL     1      48.025  22.258  27.292  1.00  0.00     0.163 HD
BRANCH  19  22
HETATM   22  C7  UNL     1      45.552  22.156  27.307  1.00  0.00     0.135 C 
HETATM   23  C6  UNL     1      44.272  22.100  27.291  1.00  0.00     0.062 C 
BRANCH  23  24
HETATM   24  C5  UNL     1      43.618  23.425  27.618  1.00  0.00     0.075 A 
HETATM   25  C4  UNL     1      43.640  24.506  26.821  1.00  0.00     0.084 A 
HETATM   26  C3  UNL     1      43.085  25.695  27.343  1.00  0.00     0.070 A 
HETATM   27  C2  UNL     1      42.559  25.721  28.606  1.00  0.00     0.056 A 
HETATM   28  C1  UNL     1      41.966  27.001  29.174  1.00  0.00     0.077 C 
HETATM   29  O10 UNL     1      42.563  24.636  29.329  1.00  0.00    -0.280 OA
HETATM   30  C26 UNL     1      43.047  23.514  28.907  1.00  0.00     0.301 A 
HETATM   31  O9  UNL     1      42.989  22.514  29.650  1.00  0.00    -0.259 OA
BRANCH  25  32
HETATM   32  O1  UNL     1      44.180  24.454  25.538  1.00  0.00    -0.360 OA
ATOM     33  H1  UNL     1      43.737  24.849  24.796  1.00  0.00     0.217 HD
ENDBRANCH  25  32
ENDBRANCH  23  24
BRANCH  22  34
HETATM   34  O2  UNL     1      46.255  23.407  27.586  1.00  0.00    -0.356 OA
ATOM     35  H2  UNL     1      47.124  23.410  27.970  1.00  0.00     0.218 HD
ENDBRANCH  22  34
ENDBRANCH  19  22
ENDBRANCH  17  18
ENDBRANCH  14  17
ENDBRANCH  12  13
ENDBRANCH   9  12
ENDBRANCH   1   8
BRANCH   2  36
HETATM   36  C15 UNL     1      52.155  25.472  21.705  1.00  0.00     0.029 A 
HETATM   37  C16 UNL     1      50.864  25.948  21.779  1.00  0.00     0.017 A 
HETATM   38  C17 UNL     1      49.923  25.611  20.824  1.00  0.00     0.001 A 
HETATM   39  C18 UNL     1      50.199  24.800  19.781  1.00  0.00     0.003 A 
HETATM   40  C19 UNL     1      51.494  24.291  19.669  1.00  0.00     0.037 A 
HETATM   41  C20 UNL     1      52.406  24.640  20.611  1.00  0.00     0.078 A 
BRANCH  41  42
HETATM   42  O6  UNL     1      53.712  24.127  20.515  1.00  0.00    -0.360 OA
ATOM     43  H6  UNL     1      54.354  24.699  20.110  1.00  0.00     0.217 HD
ENDBRANCH  41  42
ENDBRANCH   2  36
BRANCH   7  44
HETATM   44  C21 UNL     1      55.262  25.849  25.534  1.00  0.00     0.273 C 
BRANCH  44  45
HETATM   45  C22 UNL     1      56.046  24.518  25.659  1.00  0.00     0.332 C 
HETATM   46  O7  UNL     1      55.877  23.881  26.662  1.00  0.00    -0.253 OA
HETATM   47  N7  UNL     1      56.861  24.238  24.558  1.00  0.00    -0.282 NA
BRANCH  47  48
HETATM   48  N8  UNL     1      57.632  23.954  23.544  1.00  0.00    -0.198 N 
HETATM   49  C23 UNL     1      57.120  23.555  22.261  1.00  0.00     0.266 C 
HETATM   50  O8  UNL     1      55.837  23.523  22.129  1.00  0.00    -0.269 OA
ATOM     51  H8  UNL     1      58.643  24.018  23.667  1.00  0.00     0.205 HD
BRANCH  49  52
HETATM   52  C24 UNL     1      57.883  23.165  21.075  1.00  0.00     0.256 C 
BRANCH  52  53
HETATM   53  N9  UNL     1      57.021  23.566  19.921  1.00  0.00    -0.262 N 
HETATM   54  C25 UNL     1      56.569  22.713  18.948  1.00  0.00     0.220 A 
HETATM   55  N10 UNL     1      55.816  23.425  18.111  1.00  0.00    -0.279 N 
HETATM   56  N11 UNL     1      55.789  24.685  18.531  1.00  0.00    -0.227 N 
ATOM     57  H10 UNL     1      55.340  23.063  17.285  1.00  0.00     0.189 HD
HETATM   58  N12 UNL     1      56.523  24.708  19.615  1.00  0.00    -0.225 N 
ATOM     59  H11 UNL     1      55.298  25.469  18.100  1.00  0.00     0.210 HD
ATOM     60  H12 UNL     1      56.684  25.553  20.162  1.00  0.00     0.210 HD
ENDBRANCH  52  53
ENDBRANCH  49  52
ENDBRANCH  47  48
ENDBRANCH  44  45
ENDBRANCH   7  44
TORSDOF 16
ENDMDL
MODEL 2
REMARK VINA RESULT: -11.028509938      1.158      1.267
REMARK  16 active torsions:
REMARK  status: ('A' for Active; 'I' for Inactive)
REMARK    1  A    between atoms: C4_4  and  O1_5 
REMARK    2  A    between atoms: C5_7  and  C6_8 
REMARK    3  A    between atoms: C7_9  and  O2_10 
REMARK    4  A    between atoms: C7_9  and  C8_12 
REMARK       I    between atoms: C8_12  and  N1_14 
REMARK    5  A    between atoms: N1_14  and  C9_16 
REMARK    6  A    between atoms: C9_16  and  C10_17 
REMARK       I    between atoms: C10_17  and  N2_19 
REMARK    7  A    between atoms: N2_19  and  C11_21 
REMARK    8  A    between atoms: C11_21  and  C12_22 
REMARK       I    between atoms: C12_22  and  N3_24 
REMARK    9  A    between atoms: N3_24  and  C13_26 
REMARK   10  A    between atoms: C14_27  and  C15_28 
REMARK   11  A    between atoms: C20_33  and  O6_34 
REMARK   12  A    between atoms: N6_40  and  C21_41 
REMARK   13  A    between atoms: C21_41  and  C22_42 
REMARK       I    between atoms: C22_42  and  N7_44 
REMARK   14  A    between atoms: N7_44  and  N8_45 
REMARK       I    between atoms: N8_45  and  C23_47 
REMARK   15  A    between atoms: C23_47  and  C24_49 
REMARK   16  A    between atoms: C24_49  and  N9_50 
ROOT
HETATM    1  C13 UNL     1      53.391  24.655  24.020  1.00  0.00     0.156 A 
HETATM    2  C14 UNL     1      53.191  25.505  22.968  1.00  0.00     0.108 A 
HETATM    3  N4  UNL     1      54.287  26.360  22.975  1.00  0.00    -0.281 N 
ATOM      4  H4  UNL     1      54.443  27.125  22.318  1.00  0.00     0.188 HD
HETATM    5  N5  UNL     1      55.066  26.041  23.930  1.00  0.00    -0.238 N 
ATOM      6  H5  UNL     1      55.946  26.508  24.150  1.00  0.00     0.208 HD
HETATM    7  N6  UNL     1      54.552  24.992  24.607  1.00  0.00    -0.250 N 
ENDROOT
BRANCH   1   8
HETATM    8  N3  UNL     1      52.350  23.768  24.481  1.00  0.00    -0.309 N 
HETATM    9  C12 UNL     1      52.115  22.429  24.202  1.00  0.00     0.240 C 
HETATM   10  O5  UNL     1      52.567  21.856  23.181  1.00  0.00    -0.271 OA
ATOM     11  H3  UNL     1      51.677  24.196  25.117  1.00  0.00     0.170 HD
BRANCH   9  12
HETATM   12  C11 UNL     1      51.315  21.555  25.085  1.00  0.00     0.225 C 
BRANCH  12  13
HETATM   13  N2  UNL     1      50.038  21.119  24.536  1.00  0.00    -0.351 N 
HETATM   14  C10 UNL     1      49.181  20.449  25.388  1.00  0.00     0.235 C 
HETATM   15  O4  UNL     1      49.303  20.067  26.480  1.00  0.00    -0.272 OA
ATOM     16  H2  UNL     1      49.787  21.300  23.565  1.00  0.00     0.163 HD
BRANCH  14  17
HETATM   17  C9  UNL     1      47.712  20.172  24.748  1.00  0.00     0.225 C 
BRANCH  17  18
HETATM   18  N1  UNL     1      46.850  20.959  25.461  1.00  0.00    -0.346 N 
HETATM   19  C8  UNL     1      46.150  20.860  26.679  1.00  0.00     0.275 C 
HETATM   20  O3  UNL     1      46.202  19.848  27.382  1.00  0.00    -0.265 OA
ATOM     21  H1  UNL     1      46.666  21.844  24.989  1.00  0.00     0.163 HD
BRANCH  19  22
HETATM   22  C7  UNL     1      45.350  22.022  27.079  1.00  0.00     0.135 C 
HETATM   23  C6  UNL     1      44.072  22.039  27.159  1.00  0.00     0.062 C 
BRANCH  23  24
HETATM   24  C5  UNL     1      43.527  23.364  27.646  1.00  0.00     0.075 A 
HETATM   25  C4  UNL     1      43.592  24.516  26.959  1.00  0.00     0.084 A 
HETATM   26  C3  UNL     1      43.144  25.681  27.621  1.00  0.00     0.070 A 
HETATM   27  C2  UNL     1      42.675  25.613  28.904  1.00  0.00     0.056 A 
HETATM   28  C1  UNL     1      42.198  26.866  29.624  1.00  0.00     0.077 C 
HETATM   29  O10 UNL     1      42.632  24.463  29.517  1.00  0.00    -0.280 OA
HETATM   30  C26 UNL     1      43.018  23.360  28.964  1.00  0.00     0.301 A 
HETATM   31  O9  UNL     1      42.921  22.296  29.607  1.00  0.00    -0.259 OA
BRANCH  25  32
HETATM   32  O1  UNL     1      44.073  24.558  25.652  1.00  0.00    -0.360 OA
ATOM     33  H1  UNL     1      43.624  24.115  24.942  1.00  0.00     0.217 HD
ENDBRANCH  25  32
ENDBRANCH  23  24
BRANCH  22  34
HETATM   34  O2  UNL     1      46.148  23.203  27.405  1.00  0.00    -0.356 OA
ATOM     35  H2  UNL     1      46.725  23.602  26.763  1.00  0.00     0.218 HD
ENDBRANCH  22  34
ENDBRANCH  19  22
ENDBRANCH  17  18
ENDBRANCH  14  17
ENDBRANCH  12  13
ENDBRANCH   9  12
ENDBRANCH   1   8
BRANCH   2  36
HETATM   36  C15 UNL     1      52.207  25.411  21.929  1.00  0.00     0.029 A 
HETATM   37  C16 UNL     1      50.855  25.612  22.096  1.00  0.00     0.017 A 
HETATM   38  C17 UNL     1      49.997  25.631  21.011  1.00  0.00     0.001 A 
HETATM   39  C18 UNL     1      50.419  25.447  19.743  1.00  0.00     0.003 A 
HETATM   40  C19 UNL     1      51.782  25.236  19.528  1.00  0.00     0.037 A 
HETATM   41  C20 UNL     1      52.609  25.229  20.603  1.00  0.00     0.078 A 
BRANCH  41  42
HETATM   42  O6  UNL     1      53.984  25.009  20.401  1.00  0.00    -0.360 OA
ATOM     43  H6  UNL     1      54.247  24.103  20.289  1.00  0.00     0.217 HD
ENDBRANCH  41  42
ENDBRANCH   2  36
BRANCH   7  44
HETATM   44  C21 UNL     1      55.183  24.378  25.742  1.00  0.00     0.273 C 
BRANCH  44  45
HETATM   45  C22 UNL     1      56.727  24.477  25.633  1.00  0.00     0.332 C 
HETATM   46  O7  UNL     1      57.297  25.053  26.518  1.00  0.00    -0.253 OA
HETATM   47  N7  UNL     1      57.251  23.867  24.490  1.00  0.00    -0.282 NA
BRANCH  47  48
HETATM   48  N8  UNL     1      57.767  23.306  23.430  1.00  0.00    -0.198 N 
HETATM   49  C23 UNL     1      57.332  23.612  22.094  1.00  0.00     0.266 C 
HETATM   50  O8  UNL     1      56.416  24.512  21.970  1.00  0.00    -0.269 OA
ATOM     51  H8  UNL     1      58.513  22.621  23.555  1.00  0.00     0.205 HD
BRANCH  49  52
HETATM   52  C24 UNL     1      57.797  23.013  20.843  1.00  0.00     0.256 C 
BRANCH  52  53
HETATM   53  N9  UNL     1      56.557  22.825  20.029  1.00  0.00    -0.262 N 
HETATM   54  C25 UNL     1      56.423  23.178  18.712  1.00  0.00     0.220 A 
HETATM   55  N10 UNL     1      55.194  22.836  18.328  1.00  0.00    -0.279 N 
HETATM   56  N11 UNL     1      54.565  22.286  19.361  1.00  0.00    -0.227 N 
ATOM     57  H10 UNL     1      54.802  22.974  17.397  1.00  0.00     0.189 HD
HETATM   58  N12 UNL     1      55.427  22.305  20.346  1.00  0.00    -0.225 N 
ATOM     59  H11 UNL     1      53.611  21.924  19.381  1.00  0.00     0.210 HD
ATOM     60  H12 UNL     1      55.221  21.941  21.276  1.00  0.00     0.210 HD
ENDBRANCH  52  53
ENDBRANCH  49  52
ENDBRANCH  47  48
ENDBRANCH  44  45
ENDBRANCH   7  44
TORSDOF 16
ENDMDL
MODEL 3
REMARK VINA RESULT: -11.005578257      1.957      3.982
REMARK  16 active torsions:
REMARK  status: ('A' for Active; 'I' for Inactive)
REMARK    1  A    between atoms: C4_4  and  O1_5 
REMARK    2  A    between atoms: C5_7  and  C6_8 
REMARK    3  A    between atoms: C7_9  and  O2_10 
REMARK    4  A    between atoms: C7_9  and  C8_12 
REMARK       I    between atoms: C8_12  and  N1_14 
REMARK    5  A    between atoms: N1_14  and  C9_16 
REMARK    6  A    between atoms: C9_16  and  C10_17 
REMARK       I    between atoms: C10_17  and  N2_19 
REMARK    7  A    between atoms: N2_19  and  C11_21 
REMARK    8  A    between atoms: C11_21  and  C12_22 
REMARK       I    between atoms: C12_22  and  N3_24 
REMARK    9  A    between atoms: N3_24  and  C13_26 
REMARK   10  A    between atoms: C14_27  and  C15_28 
REMARK   11  A    between atoms: C20_33  and  O6_34 
REMARK   12  A    between atoms: N6_40  and  C21_41 
REMARK   13  A    between atoms: C21_41  and  C22_42 
REMARK       I    between atoms: C22_42  and  N7_44 
REMARK   14  A    between atoms: N7_44  and  N8_45 
REMARK       I    between atoms: N8_45  and  C23_47 
REMARK   15  A    between atoms: C23_47  and  C24_49 
REMARK   16  A    between atoms: C24_49  and  N9_50 
ROOT
HETATM    1  C13 UNL     1      52.622  25.395  23.077  1.00  0.00     0.156 A 
HETATM    2  C14 UNL     1      53.972  25.606  23.140  1.00  0.00     0.108 A 
HETATM    3  N4  UNL     1      54.267  26.417  22.052  1.00  0.00    -0.281 N 
ATOM      4  H4  UNL     1      55.197  26.756  21.803  1.00  0.00     0.188 HD
HETATM    5  N5  UNL     1      53.196  26.673  21.412  1.00  0.00    -0.238 N 
ATOM      6  H5  UNL     1      53.136  27.254  20.575  1.00  0.00     0.208 HD
HETATM    7  N6  UNL     1      52.151  26.059  22.008  1.00  0.00    -0.250 N 
ENDROOT
BRANCH   1   8
HETATM    8  N3  UNL     1      51.974  24.408  23.907  1.00  0.00    -0.309 N 
HETATM    9  C12 UNL     1      52.028  23.021  23.872  1.00  0.00     0.240 C 
HETATM   10  O5  UNL     1      52.365  22.379  22.848  1.00  0.00    -0.271 OA
ATOM     11  H3  UNL     1      51.377  24.793  24.640  1.00  0.00     0.170 HD
BRANCH   9  12
HETATM   12  C11 UNL     1      51.698  22.177  25.039  1.00  0.00     0.225 C 
BRANCH  12  13
HETATM   13  N2  UNL     1      50.587  21.255  24.845  1.00  0.00    -0.351 N 
HETATM   14  C10 UNL     1      50.051  20.667  25.974  1.00  0.00     0.235 C 
HETATM   15  O4  UNL     1      50.368  20.688  27.094  1.00  0.00    -0.272 OA
ATOM     16  H2  UNL     1      50.221  21.051  23.915  1.00  0.00     0.163 HD
BRANCH  14  17
HETATM   17  C9  UNL     1      48.702  19.808  25.682  1.00  0.00     0.225 C 
BRANCH  17  18
HETATM   18  N1  UNL     1      47.668  20.597  26.110  1.00  0.00    -0.346 N 
HETATM   19  C8  UNL     1      46.506  20.421  26.884  1.00  0.00     0.275 C 
HETATM   20  O3  UNL     1      46.182  19.321  27.337  1.00  0.00    -0.265 OA
ATOM     21  H1  UNL     1      47.766  21.558  25.784  1.00  0.00     0.163 HD
BRANCH  19  22
HETATM   22  C7  UNL     1      45.689  21.613  27.131  1.00  0.00     0.135 C 
HETATM   23  C6  UNL     1      44.412  21.659  27.039  1.00  0.00     0.062 C 
BRANCH  23  24
HETATM   24  C5  UNL     1      43.841  23.013  27.400  1.00  0.00     0.075 A 
HETATM   25  C4  UNL     1      44.011  24.132  26.677  1.00  0.00     0.084 A 
HETATM   26  C3  UNL     1      43.512  25.332  27.230  1.00  0.00     0.070 A 
HETATM   27  C2  UNL     1      42.892  25.330  28.450  1.00  0.00     0.056 A 
HETATM   28  C1  UNL     1      42.359  26.621  29.053  1.00  0.00     0.077 C 
HETATM   29  O10 UNL     1      42.753  24.209  29.101  1.00  0.00    -0.280 OA
HETATM   30  C26 UNL     1      43.179  23.077  28.646  1.00  0.00     0.301 A 
HETATM   31  O9  UNL     1      42.984  22.044  29.318  1.00  0.00    -0.259 OA
BRANCH  25  32
HETATM   32  O1  UNL     1      44.644  24.108  25.436  1.00  0.00    -0.360 OA
ATOM     33  H1  UNL     1      44.932  23.295  25.039  1.00  0.00     0.217 HD
ENDBRANCH  25  32
ENDBRANCH  23  24
BRANCH  22  34
HETATM   34  O2  UNL     1      46.466  22.791  27.517  1.00  0.00    -0.356 OA
ATOM     35  H2  UNL     1      46.446  23.126  28.406  1.00  0.00     0.218 HD
ENDBRANCH  22  34
ENDBRANCH  19  22
ENDBRANCH  17  18
ENDBRANCH  14  17
ENDBRANCH  12  13
ENDBRANCH   9  12
ENDBRANCH   1   8
BRANCH   2  36
HETATM   36  C15 UNL     1      54.870  25.278  24.209  1.00  0.00     0.029 A 
HETATM   37  C16 UNL     1      54.539  25.259  25.546  1.00  0.00     0.017 A 
HETATM   38  C17 UNL     1      55.433  24.802  26.497  1.00  0.00     0.001 A 
HETATM   39  C18 UNL     1      56.670  24.363  26.184  1.00  0.00     0.003 A 
HETATM   40  C19 UNL     1      57.049  24.368  24.841  1.00  0.00     0.037 A 
HETATM   41  C20 UNL     1      56.155  24.812  23.922  1.00  0.00     0.078 A 
BRANCH  41  42
HETATM   42  O6  UNL     1      56.528  24.830  22.566  1.00  0.00    -0.360 OA
ATOM     43  H6  UNL     1      57.446  24.993  22.389  1.00  0.00     0.217 HD
ENDBRANCH  41  42
ENDBRANCH   2  36
BRANCH   7  44
HETATM   44  C21 UNL     1      50.795  26.144  21.544  1.00  0.00     0.273 C 
BRANCH  44  45
HETATM   45  C22 UNL     1      50.596  25.289  20.266  1.00  0.00     0.332 C 
HETATM   46  O7  UNL     1      49.719  25.626  19.519  1.00  0.00    -0.253 OA
HETATM   47  N7  UNL     1      51.488  24.218  20.160  1.00  0.00    -0.282 NA
BRANCH  47  48
HETATM   48  N8  UNL     1      52.307  23.209  20.038  1.00  0.00    -0.198 N 
HETATM   49  C23 UNL     1      53.710  23.371  19.764  1.00  0.00     0.266 C 
HETATM   50  O8  UNL     1      54.152  24.579  19.678  1.00  0.00    -0.269 OA
ATOM     51  H8  UNL     1      51.936  22.264  20.142  1.00  0.00     0.205 HD
BRANCH  49  52
HETATM   52  C24 UNL     1      54.707  22.320  19.556  1.00  0.00     0.256 C 
BRANCH  52  53
HETATM   53  N9  UNL     1      54.776  21.600  20.864  1.00  0.00    -0.262 N 
HETATM   54  C25 UNL     1      55.708  21.837  21.840  1.00  0.00     0.220 A 
HETATM   55  N10 UNL     1      55.436  21.024  22.860  1.00  0.00    -0.279 N 
HETATM   56  N11 UNL     1      54.370  20.294  22.547  1.00  0.00    -0.227 N 
ATOM     57  H10 UNL     1      55.957  20.970  23.734  1.00  0.00     0.189 HD
HETATM   58  N12 UNL     1      54.020  20.682  21.348  1.00  0.00    -0.225 N 
ATOM     59  H11 UNL     1      53.920  19.581  23.122  1.00  0.00     0.210 HD
ATOM     60  H12 UNL     1      53.223  20.292  20.845  1.00  0.00     0.210 HD
ENDBRANCH  52  53
ENDBRANCH  49  52
ENDBRANCH  47  48
ENDBRANCH  44  45
ENDBRANCH   7  44
TORSDOF 16
ENDMDL
MODEL 4
REMARK VINA RESULT: -10.765016182      1.224      1.737
REMARK  16 active torsions:
REMARK  status: ('A' for Active; 'I' for Inactive)
REMARK    1  A    between atoms: C4_4  and  O1_5 
REMARK    2  A    between atoms: C5_7  and  C6_8 
REMARK    3  A    between atoms: C7_9  and  O2_10 
REMARK    4  A    between atoms: C7_9  and  C8_12 
REMARK       I    between atoms: C8_12  and  N1_14 
REMARK    5  A    between atoms: N1_14  and  C9_16 
REMARK    6  A    between atoms: C9_16  and  C10_17 
REMARK       I    between atoms: C10_17  and  N2_19 
REMARK    7  A    between atoms: N2_19  and  C11_21 
REMARK    8  A    between atoms: C11_21  and  C12_22 
REMARK       I    between atoms: C12_22  and  N3_24 
REMARK    9  A    between atoms: N3_24  and  C13_26 
REMARK   10  A    between atoms: C14_27  and  C15_28 
REMARK   11  A    between atoms: C20_33  and  O6_34 
REMARK   12  A    between atoms: N6_40  and  C21_41 
REMARK   13  A    between atoms: C21_41  and  C22_42 
REMARK       I    between atoms: C22_42  and  N7_44 
REMARK   14  A    between atoms: N7_44  and  N8_45 
REMARK       I    between atoms: N8_45  and  C23_47 
REMARK   15  A    between atoms: C23_47  and  C24_49 
REMARK   16  A    between atoms: C24_49  and  N9_50 
ROOT
HETATM    1  C13 UNL     1      53.286  24.530  23.877  1.00  0.00     0.156 A 
HETATM    2  C14 UNL     1      53.063  25.427  22.870  1.00  0.00     0.108 A 
HETATM    3  N4  UNL     1      54.146  26.297  22.907  1.00  0.00    -0.281 N 
ATOM      4  H4  UNL     1      54.285  27.094  22.286  1.00  0.00     0.188 HD
HETATM    5  N5  UNL     1      54.940  25.944  23.838  1.00  0.00    -0.238 N 
ATOM      6  H5  UNL     1      55.816  26.412  24.072  1.00  0.00     0.208 HD
HETATM    7  N6  UNL     1      54.448  24.855  24.468  1.00  0.00    -0.250 N 
ENDROOT
BRANCH   1   8
HETATM    8  N3  UNL     1      52.263  23.606  24.305  1.00  0.00    -0.309 N 
HETATM    9  C12 UNL     1      52.268  22.220  24.374  1.00  0.00     0.240 C 
HETATM   10  O5  UNL     1      53.055  21.508  23.703  1.00  0.00    -0.271 OA
ATOM     11  H3  UNL     1      51.392  24.045  24.606  1.00  0.00     0.170 HD
BRANCH   9  12
HETATM   12  C11 UNL     1      51.352  21.457  25.247  1.00  0.00     0.225 C 
BRANCH  12  13
HETATM   13  N2  UNL     1      50.063  21.125  24.656  1.00  0.00    -0.351 N 
HETATM   14  C10 UNL     1      49.104  20.589  25.494  1.00  0.00     0.235 C 
HETATM   15  O4  UNL     1      49.137  20.253  26.607  1.00  0.00    -0.272 OA
ATOM     16  H2  UNL     1      49.876  21.280  23.665  1.00  0.00     0.163 HD
BRANCH  14  17
HETATM   17  C9  UNL     1      47.645  20.429  24.794  1.00  0.00     0.225 C 
BRANCH  17  18
HETATM   18  N1  UNL     1      46.804  21.228  25.519  1.00  0.00    -0.346 N 
HETATM   19  C8  UNL     1      46.012  21.090  26.675  1.00  0.00     0.275 C 
HETATM   20  O3  UNL     1      45.926  20.021  27.284  1.00  0.00    -0.265 OA
ATOM     21  H1  UNL     1      46.732  22.164  25.120  1.00  0.00     0.163 HD
BRANCH  19  22
HETATM   22  C7  UNL     1      45.288  22.282  27.127  1.00  0.00     0.135 C 
HETATM   23  C6  UNL     1      44.014  22.371  27.228  1.00  0.00     0.062 C 
BRANCH  23  24
HETATM   24  C5  UNL     1      43.555  23.708  27.768  1.00  0.00     0.075 A 
HETATM   25  C4  UNL     1      43.083  23.910  29.009  1.00  0.00     0.084 A 
HETATM   26  C3  UNL     1      42.583  25.198  29.301  1.00  0.00     0.070 A 
HETATM   27  C2  UNL     1      42.587  26.177  28.345  1.00  0.00     0.056 A 
HETATM   28  C1  UNL     1      42.043  27.565  28.652  1.00  0.00     0.077 C 
HETATM   29  O10 UNL     1      43.063  25.921  27.159  1.00  0.00    -0.280 OA
HETATM   30  C26 UNL     1      43.543  24.766  26.832  1.00  0.00     0.301 A 
HETATM   31  O9  UNL     1      44.006  24.607  25.684  1.00  0.00    -0.259 OA
BRANCH  25  32
HETATM   32  O1  UNL     1      43.092  22.897  29.965  1.00  0.00    -0.360 OA
ATOM     33  H1  UNL     1      43.451  22.038  29.777  1.00  0.00     0.217 HD
ENDBRANCH  25  32
ENDBRANCH  23  24
BRANCH  22  34
HETATM   34  O2  UNL     1      46.159  23.402  27.481  1.00  0.00    -0.356 OA
ATOM     35  H2  UNL     1      47.052  23.453  27.162  1.00  0.00     0.218 HD
ENDBRANCH  22  34
ENDBRANCH  19  22
ENDBRANCH  17  18
ENDBRANCH  14  17
ENDBRANCH  12  13
ENDBRANCH   9  12
ENDBRANCH   1   8
BRANCH   2  36
HETATM   36  C15 UNL     1      52.070  25.368  21.836  1.00  0.00     0.029 A 
HETATM   37  C16 UNL     1      50.721  25.580  22.019  1.00  0.00     0.017 A 
HETATM   38  C17 UNL     1      49.855  25.634  20.942  1.00  0.00     0.001 A 
HETATM   39  C18 UNL     1      50.265  25.475  19.667  1.00  0.00     0.003 A 
HETATM   40  C19 UNL     1      51.624  25.255  19.435  1.00  0.00     0.037 A 
HETATM   41  C20 UNL     1      52.459  25.214  20.503  1.00  0.00     0.078 A 
BRANCH  41  42
HETATM   42  O6  UNL     1      53.830  24.984  20.285  1.00  0.00    -0.360 OA
ATOM     43  H6  UNL     1      54.057  24.590  19.451  1.00  0.00     0.217 HD
ENDBRANCH  41  42
ENDBRANCH   2  36
BRANCH   7  44
HETATM   44  C21 UNL     1      55.100  24.197  25.566  1.00  0.00     0.273 C 
BRANCH  44  45
HETATM   45  C22 UNL     1      56.640  24.337  25.455  1.00  0.00     0.332 C 
HETATM   46  O7  UNL     1      57.200  24.894  26.359  1.00  0.00    -0.253 OA
HETATM   47  N7  UNL     1      57.174  23.782  24.289  1.00  0.00    -0.282 NA
BRANCH  47  48
HETATM   48  N8  UNL     1      57.699  23.273  23.207  1.00  0.00    -0.198 N 
HETATM   49  C23 UNL     1      57.259  23.627  21.885  1.00  0.00     0.266 C 
HETATM   50  O8  UNL     1      56.330  24.517  21.797  1.00  0.00    -0.269 OA
ATOM     51  H8  UNL     1      58.455  22.595  23.305  1.00  0.00     0.205 HD
BRANCH  49  52
HETATM   52  C24 UNL     1      57.734  23.087  20.611  1.00  0.00     0.256 C 
BRANCH  52  53
HETATM   53  N9  UNL     1      56.496  22.906  19.791  1.00  0.00    -0.262 N 
HETATM   54  C25 UNL     1      56.348  23.323  18.494  1.00  0.00     0.220 A 
HETATM   55  N10 UNL     1      55.127  22.967  18.096  1.00  0.00    -0.279 N 
HETATM   56  N11 UNL     1      54.518  22.347  19.101  1.00  0.00    -0.227 N 
ATOM     57  H10 UNL     1      54.728  23.141  17.175  1.00  0.00     0.189 HD
HETATM   58  N12 UNL     1      55.383  22.339  20.084  1.00  0.00    -0.225 N 
ATOM     59  H11 UNL     1      53.575  21.958  19.105  1.00  0.00     0.210 HD
ATOM     60  H12 UNL     1      55.190  21.922  20.994  1.00  0.00     0.210 HD
ENDBRANCH  52  53
ENDBRANCH  49  52
ENDBRANCH  47  48
ENDBRANCH  44  45
ENDBRANCH   7  44
TORSDOF 16
ENDMDL
MODEL 5
REMARK VINA RESULT: -10.763029071      1.627      1.902
REMARK  16 active torsions:
REMARK  status: ('A' for Active; 'I' for Inactive)
REMARK    1  A    between atoms: C4_4  and  O1_5 
REMARK    2  A    between atoms: C5_7  and  C6_8 
REMARK    3  A    between atoms: C7_9  and  O2_10 
REMARK    4  A    between atoms: C7_9  and  C8_12 
REMARK       I    between atoms: C8_12  and  N1_14 
REMARK    5  A    between atoms: N1_14  and  C9_16 
REMARK    6  A    between atoms: C9_16  and  C10_17 
REMARK       I    between atoms: C10_17  and  N2_19 
REMARK    7  A    between atoms: N2_19  and  C11_21 
REMARK    8  A    between atoms: C11_21  and  C12_22 
REMARK       I    between atoms: C12_22  and  N3_24 
REMARK    9  A    between atoms: N3_24  and  C13_26 
REMARK   10  A    between atoms: C14_27  and  C15_28 
REMARK   11  A    between atoms: C20_33  and  O6_34 
REMARK   12  A    between atoms: N6_40  and  C21_41 
REMARK   13  A    between atoms: C21_41  and  C22_42 
REMARK       I    between atoms: C22_42  and  N7_44 
REMARK   14  A    between atoms: N7_44  and  N8_45 
REMARK       I    between atoms: N8_45  and  C23_47 
REMARK   15  A    between atoms: C23_47  and  C24_49 
REMARK   16  A    between atoms: C24_49  and  N9_50 
ROOT
HETATM    1  C13 UNL     1      53.361  24.625  23.994  1.00  0.00     0.156 A 
HETATM    2  C14 UNL     1      53.173  25.505  22.964  1.00  0.00     0.108 A 
HETATM    3  N4  UNL     1      54.263  26.365  23.014  1.00  0.00    -0.281 N 
ATOM      4  H4  UNL     1      54.425  27.149  22.381  1.00  0.00     0.188 HD
HETATM    5  N5  UNL     1      55.030  26.022  23.971  1.00  0.00    -0.238 N 
ATOM      6  H5  UNL     1      55.904  26.486  24.218  1.00  0.00     0.208 HD
HETATM    7  N6  UNL     1      54.511  24.950  24.608  1.00  0.00    -0.250 N 
ENDROOT
BRANCH   1   8
HETATM    8  N3  UNL     1      52.318  23.719  24.412  1.00  0.00    -0.309 N 
HETATM    9  C12 UNL     1      52.101  22.384  24.098  1.00  0.00     0.240 C 
HETATM   10  O5  UNL     1      52.580  21.839  23.075  1.00  0.00    -0.271 OA
ATOM     11  H3  UNL     1      51.628  24.127  25.043  1.00  0.00     0.170 HD
BRANCH   9  12
HETATM   12  C11 UNL     1      51.290  21.484  24.944  1.00  0.00     0.225 C 
BRANCH  12  13
HETATM   13  N2  UNL     1      50.009  21.086  24.377  1.00  0.00    -0.351 N 
HETATM   14  C10 UNL     1      48.888  21.265  25.164  1.00  0.00     0.235 C 
HETATM   15  O4  UNL     1      48.752  21.605  26.268  1.00  0.00    -0.272 OA
ATOM     16  H2  UNL     1      49.942  20.691  23.439  1.00  0.00     0.163 HD
BRANCH  14  17
HETATM   17  C9  UNL     1      47.491  20.974  24.382  1.00  0.00     0.225 C 
BRANCH  17  18
HETATM   18  N1  UNL     1      46.651  21.990  24.747  1.00  0.00    -0.346 N 
HETATM   19  C8  UNL     1      45.995  23.053  24.097  1.00  0.00     0.275 C 
HETATM   20  O3  UNL     1      46.146  23.275  22.893  1.00  0.00    -0.265 OA
ATOM     21  H1  UNL     1      46.448  21.973  25.746  1.00  0.00     0.163 HD
BRANCH  19  22
HETATM   22  C7  UNL     1      45.120  23.892  24.920  1.00  0.00     0.135 C 
HETATM   23  C6  UNL     1      43.945  23.564  25.311  1.00  0.00     0.062 C 
BRANCH  23  24
HETATM   24  C5  UNL     1      43.298  24.613  26.189  1.00  0.00     0.075 A 
HETATM   25  C4  UNL     1      42.795  25.777  25.746  1.00  0.00     0.084 A 
HETATM   26  C3  UNL     1      42.343  26.690  26.724  1.00  0.00     0.070 A 
HETATM   27  C2  UNL     1      42.429  26.383  28.055  1.00  0.00     0.056 A 
HETATM   28  C1  UNL     1      41.950  27.367  29.112  1.00  0.00     0.077 C 
HETATM   29  O10 UNL     1      42.923  25.234  28.421  1.00  0.00    -0.280 OA
HETATM   30  C26 UNL     1      43.346  24.351  27.576  1.00  0.00     0.301 A 
HETATM   31  O9  UNL     1      43.781  23.264  28.006  1.00  0.00    -0.259 OA
BRANCH  25  32
HETATM   32  O1  UNL     1      42.716  26.066  24.386  1.00  0.00    -0.360 OA
ATOM     33  H1  UNL     1      41.981  25.778  23.858  1.00  0.00     0.217 HD
ENDBRANCH  25  32
ENDBRANCH  23  24
BRANCH  22  34
HETATM   34  O2  UNL     1      45.712  25.178  25.289  1.00  0.00    -0.356 OA
ATOM     35  H2  UNL     1      46.038  25.337  26.167  1.00  0.00     0.218 HD
ENDBRANCH  22  34
ENDBRANCH  19  22
ENDBRANCH  17  18
ENDBRANCH  14  17
ENDBRANCH  12  13
ENDBRANCH   9  12
ENDBRANCH   1   8
BRANCH   2  36
HETATM   36  C15 UNL     1      52.206  25.436  21.907  1.00  0.00     0.029 A 
HETATM   37  C16 UNL     1      50.849  25.615  22.060  1.00  0.00     0.017 A 
HETATM   38  C17 UNL     1      50.007  25.662  20.965  1.00  0.00     0.001 A 
HETATM   39  C18 UNL     1      50.450  25.528  19.697  1.00  0.00     0.003 A 
HETATM   40  C19 UNL     1      51.819  25.341  19.495  1.00  0.00     0.037 A 
HETATM   41  C20 UNL     1      52.629  25.306  20.582  1.00  0.00     0.078 A 
BRANCH  41  42
HETATM   42  O6  UNL     1      54.010  25.109  20.394  1.00  0.00    -0.360 OA
ATOM     43  H6  UNL     1      54.253  24.513  19.696  1.00  0.00     0.217 HD
ENDBRANCH  41  42
ENDBRANCH   2  36
BRANCH   7  44
HETATM   44  C21 UNL     1      55.129  24.306  25.734  1.00  0.00     0.273 C 
BRANCH  44  45
HETATM   45  C22 UNL     1      56.674  24.378  25.630  1.00  0.00     0.332 C 
HETATM   46  O7  UNL     1      57.253  24.923  26.529  1.00  0.00    -0.253 OA
HETATM   47  N7  UNL     1      57.189  23.785  24.474  1.00  0.00    -0.282 NA
BRANCH  47  48
HETATM   48  N8  UNL     1      57.695  23.239  23.402  1.00  0.00    -0.198 N 
HETATM   49  C23 UNL     1      57.300  23.615  22.072  1.00  0.00     0.266 C 
HETATM   50  O8  UNL     1      56.432  24.562  21.968  1.00  0.00    -0.269 OA
ATOM     51  H8  UNL     1      58.404  22.513  23.513  1.00  0.00     0.205 HD
BRANCH  49  52
HETATM   52  C24 UNL     1      57.758  23.040  20.807  1.00  0.00     0.256 C 
BRANCH  52  53
HETATM   53  N9  UNL     1      56.514  22.874  19.994  1.00  0.00    -0.262 N 
HETATM   54  C25 UNL     1      56.373  23.264  18.688  1.00  0.00     0.220 A 
HETATM   55  N10 UNL     1      55.143  22.932  18.301  1.00  0.00    -0.279 N 
HETATM   56  N11 UNL     1      54.519  22.352  19.321  1.00  0.00    -0.227 N 
ATOM     57  H10 UNL     1      54.746  23.095  17.376  1.00  0.00     0.189 HD
HETATM   58  N12 UNL     1      55.386  22.344  20.301  1.00  0.00    -0.225 N 
ATOM     59  H11 UNL     1      53.566  21.989  19.336  1.00  0.00     0.210 HD
ATOM     60  H12 UNL     1      55.185  21.954  21.222  1.00  0.00     0.210 HD
ENDBRANCH  52  53
ENDBRANCH  49  52
ENDBRANCH  47  48
ENDBRANCH  44  45
ENDBRANCH   7  44
TORSDOF 16
ENDMDL
