MODEL 1
REMARK VINA RESULT: -9.787503401      0.000      0.000
REMARK  18 active torsions:
REMARK  status: ('A' for Active; 'I' for Inactive)
REMARK    1  A    between atoms: C2_2  and  O2_4 
REMARK    2  A    between atoms: O2_4  and  C3_5 
REMARK    3  A    between atoms: C3_5  and  C4_6 
REMARK    4  A    between atoms: C4_6  and  O3_7 
REMARK    5  A    between atoms: C6_10  and  O4_11 
REMARK    6  A    between atoms: O4_11  and  C7_12 
REMARK    7  A    between atoms: C10_15  and  C11_16 
REMARK    8  A    between atoms: C14_21  and  O7_22 
REMARK    9  A    between atoms: O7_22  and  N1_23 
REMARK   10  A    between atoms: C20_32  and  N2_33 
REMARK   11  A    between atoms: C20_32  and  C22_37 
REMARK   12  A    between atoms: N4_41  and  O10_43 
REMARK   13  A    between atoms: C24_45  and  O11_46 
REMARK   14  A    between atoms: C24_45  and  C25_48 
REMARK   15  A    between atoms: C25_48  and  O12_49 
REMARK   16  A    between atoms: C25_48  and  C26_51 
REMARK   17  A    between atoms: C26_51  and  O13_52 
REMARK   18  A    between atoms: C26_51  and  O14_54 
ROOT
HETATM    1  N2  UNL     1      50.272  22.776  27.154  1.00  0.00    -0.303 N 
ATOM      2  H2  UNL     1      49.677  23.511  27.536  1.00  0.00     0.173 HD
HETATM    3  C21 UNL     1      50.255  21.478  27.663  1.00  0.00     0.178 C 
HETATM    4  N3  UNL     1      50.250  20.400  28.075  1.00  0.00    -0.172 NA
ENDROOT
BRANCH   1   5
HETATM    5  C20 UNL     1      51.193  23.029  26.035  1.00  0.00     0.179 C 
HETATM    6  C15 UNL     1      50.523  23.614  24.870  1.00  0.00     0.069 C 
HETATM    7  N1  UNL     1      49.289  23.416  24.559  1.00  0.00    -0.269 N 
HETATM    8  C16 UNL     1      51.241  24.486  23.884  1.00  0.00     0.055 C 
ATOM      9  H1  UNL     1      48.988  23.879  23.701  1.00  0.00     0.194 HD
HETATM   10  C17 UNL     1      51.530  25.845  24.420  1.00  0.00     0.034 C 
HETATM   11  C18 UNL     1      50.343  24.711  22.637  1.00  0.00     0.034 C 
HETATM   12  S1  UNL     1      52.682  23.591  23.245  1.00  0.00    -0.082 SA
HETATM   13  S2  UNL     1      52.801  21.714  24.213  1.00  0.00    -0.093 SA
HETATM   14  C19 UNL     1      51.774  21.647  25.675  1.00  0.00     0.135 C 
BRANCH   7  15
HETATM   15  O7  UNL     1      48.356  22.719  25.159  1.00  0.00    -0.262 OA
BRANCH  15  16
HETATM   16  C14 UNL     1      47.365  21.904  24.560  1.00  0.00     0.259 C 
HETATM   17  C6  UNL     1      46.073  22.596  24.813  1.00  0.00     0.090 C 
HETATM   18  C5  UNL     1      45.051  22.076  25.425  1.00  0.00     0.052 C 
HETATM   19  C4  UNL     1      45.119  20.692  25.932  1.00  0.00     0.139 C 
HETATM   20  C24 UNL     1      46.538  20.423  26.381  1.00  0.00     0.168 C 
HETATM   21  C23 UNL     1      47.430  20.597  25.268  1.00  0.00     0.088 C 
HETATM   22  N4  UNL     1      48.277  19.776  24.799  1.00  0.00    -0.271 N 
ATOM     23  H4  UNL     1      48.339  18.874  25.270  1.00  0.00     0.193 HD
BRANCH  17  24
HETATM   24  O4  UNL     1      46.010  23.887  24.338  1.00  0.00    -0.312 OA
BRANCH  24  25
HETATM   25  C7  UNL     1      44.963  24.755  24.410  1.00  0.00     0.075 A 
HETATM   26  C8  UNL     1      43.979  24.835  23.465  1.00  0.00     0.038 A 
HETATM   27  C9  UNL     1      42.936  25.716  23.559  1.00  0.00     0.021 A 
HETATM   28  C10 UNL     1      42.868  26.561  24.648  1.00  0.00     0.041 A 
HETATM   29  C12 UNL     1      43.846  26.509  25.624  1.00  0.00     0.021 A 
HETATM   30  C13 UNL     1      44.876  25.618  25.502  1.00  0.00     0.038 A 
BRANCH  28  31
HETATM   31  C11 UNL     1      41.764  27.502  24.758  1.00  0.00     0.209 C 
HETATM   32  O5  UNL     1      41.256  27.772  25.888  1.00  0.00    -0.644 OA
HETATM   33  O6  UNL     1      41.251  28.118  23.627  1.00  0.00    -0.644 OA
ENDBRANCH  28  31
ENDBRANCH  24  25
ENDBRANCH  17  24
BRANCH  19  34
HETATM   34  C3  UNL     1      44.593  19.804  24.862  1.00  0.00     0.224 C 
BRANCH  34  35
HETATM   35  O2  UNL     1      43.470  19.062  25.177  1.00  0.00    -0.318 OA
BRANCH  35  36
HETATM   36  C2  UNL     1      42.314  19.258  24.433  1.00  0.00     0.254 C 
HETATM   37  C1  UNL     1      41.841  20.611  24.048  1.00  0.00     0.126 C 
HETATM   38  O1  UNL     1      41.626  18.271  24.060  1.00  0.00    -0.266 OA
ENDBRANCH  35  36
ENDBRANCH  34  35
ENDBRANCH  19  34
BRANCH  19  39
HETATM   39  O3  UNL     1      44.259  20.609  27.056  1.00  0.00    -0.380 OA
ATOM     40  H3  UNL     1      43.938  21.480  27.258  1.00  0.00     0.211 HD
ENDBRANCH  19  39
BRANCH  20  41
HETATM   41  O11 UNL     1      46.803  21.515  27.269  1.00  0.00    -0.377 OA
ATOM     42  H11 UNL     1      45.982  21.611  27.737  1.00  0.00     0.211 HD
ENDBRANCH  20  41
BRANCH  20  43
HETATM   43  C25 UNL     1      46.569  19.210  27.190  1.00  0.00     0.216 C 
BRANCH  43  44
HETATM   44  O12 UNL     1      45.973  18.130  26.549  1.00  0.00    -0.387 OA
ATOM     45  H12 UNL     1      46.596  17.619  26.045  1.00  0.00     0.210 HD
ENDBRANCH  43  44
BRANCH  43  46
HETATM   46  C26 UNL     1      47.853  18.754  27.773  1.00  0.00     0.285 C 
BRANCH  46  47
HETATM   47  O13 UNL     1      47.900  19.271  29.096  1.00  0.00    -0.369 OA
ATOM     48  H13 UNL     1      48.732  19.723  29.180  1.00  0.00     0.212 HD
ENDBRANCH  46  47
BRANCH  46  49
HETATM   49  O14 UNL     1      47.955  17.372  27.958  1.00  0.00    -0.369 OA
ATOM     50  H14 UNL     1      48.388  17.108  28.761  1.00  0.00     0.212 HD
ENDBRANCH  46  49
ENDBRANCH  43  46
ENDBRANCH  20  43
BRANCH  22  51
HETATM   51  O10 UNL     1      49.101  19.961  23.753  1.00  0.00    -0.290 OA
ATOM     52  H10 UNL     1      48.870  19.976  22.832  1.00  0.00     0.244 HD
ENDBRANCH  22  51
ENDBRANCH  15  16
ENDBRANCH   7  15
BRANCH   5  53
HETATM   53  C22 UNL     1      52.305  23.799  26.630  1.00  0.00     0.210 C 
HETATM   54  O8  UNL     1      52.039  24.707  27.508  1.00  0.00    -0.646 OA
HETATM   55  O9  UNL     1      53.647  23.677  26.372  1.00  0.00    -0.646 OA
ENDBRANCH   5  53
ENDBRANCH   1   5
TORSDOF 18
ENDMDL
MODEL 2
REMARK VINA RESULT: -9.456085794      1.481      2.791
REMARK  18 active torsions:
REMARK  status: ('A' for Active; 'I' for Inactive)
REMARK    1  A    between atoms: C2_2  and  O2_4 
REMARK    2  A    between atoms: O2_4  and  C3_5 
REMARK    3  A    between atoms: C3_5  and  C4_6 
REMARK    4  A    between atoms: C4_6  and  O3_7 
REMARK    5  A    between atoms: C6_10  and  O4_11 
REMARK    6  A    between atoms: O4_11  and  C7_12 
REMARK    7  A    between atoms: C10_15  and  C11_16 
REMARK    8  A    between atoms: C14_21  and  O7_22 
REMARK    9  A    between atoms: O7_22  and  N1_23 
REMARK   10  A    between atoms: C20_32  and  N2_33 
REMARK   11  A    between atoms: C20_32  and  C22_37 
REMARK   12  A    between atoms: N4_41  and  O10_43 
REMARK   13  A    between atoms: C24_45  and  O11_46 
REMARK   14  A    between atoms: C24_45  and  C25_48 
REMARK   15  A    between atoms: C25_48  and  O12_49 
REMARK   16  A    between atoms: C25_48  and  C26_51 
REMARK   17  A    between atoms: C26_51  and  O13_52 
REMARK   18  A    between atoms: C26_51  and  O14_54 
ROOT
HETATM    1  N2  UNL     1      49.956  24.370  23.068  1.00  0.00    -0.303 N 
ATOM      2  H2  UNL     1      49.143  23.753  23.067  1.00  0.00     0.173 HD
HETATM    3  C21 UNL     1      50.103  25.391  22.129  1.00  0.00     0.178 C 
HETATM    4  N3  UNL     1      50.237  26.240  21.359  1.00  0.00    -0.172 NA
ENDROOT
BRANCH   1   5
HETATM    5  C20 UNL     1      51.034  24.230  24.059  1.00  0.00     0.179 C 
HETATM    6  C15 UNL     1      50.909  23.012  24.864  1.00  0.00     0.069 C 
HETATM    7  N1  UNL     1      49.794  22.433  25.149  1.00  0.00    -0.269 N 
HETATM    8  C16 UNL     1      52.095  22.331  25.482  1.00  0.00     0.055 C 
ATOM      9  H1  UNL     1      49.884  21.608  25.742  1.00  0.00     0.194 HD
HETATM   10  C17 UNL     1      52.927  21.605  24.485  1.00  0.00     0.034 C 
HETATM   11  C18 UNL     1      51.609  21.251  26.487  1.00  0.00     0.034 C 
HETATM   12  S1  UNL     1      52.993  23.527  26.506  1.00  0.00    -0.082 SA
HETATM   13  S2  UNL     1      52.043  25.411  26.344  1.00  0.00    -0.093 SA
HETATM   14  C19 UNL     1      50.915  25.476  24.959  1.00  0.00     0.135 C 
BRANCH   7  15
HETATM   15  O7  UNL     1      48.564  22.728  24.805  1.00  0.00    -0.262 OA
BRANCH  15  16
HETATM   16  C14 UNL     1      47.491  21.831  24.585  1.00  0.00     0.259 C 
HETATM   17  C6  UNL     1      46.263  22.575  24.977  1.00  0.00     0.090 C 
HETATM   18  C5  UNL     1      45.407  22.189  25.874  1.00  0.00     0.052 C 
HETATM   19  C4  UNL     1      45.615  20.918  26.595  1.00  0.00     0.139 C 
HETATM   20  C24 UNL     1      47.103  20.715  26.775  1.00  0.00     0.168 C 
HETATM   21  C23 UNL     1      47.736  20.673  25.486  1.00  0.00     0.088 C 
HETATM   22  N4  UNL     1      48.485  19.769  25.004  1.00  0.00    -0.271 N 
ATOM     23  H4  UNL     1      48.668  18.966  25.605  1.00  0.00     0.193 HD
BRANCH  17  24
HETATM   24  O4  UNL     1      46.070  23.760  24.303  1.00  0.00    -0.312 OA
BRANCH  24  25
HETATM   25  C7  UNL     1      45.054  24.653  24.455  1.00  0.00     0.075 A 
HETATM   26  C8  UNL     1      44.972  25.540  25.492  1.00  0.00     0.038 A 
HETATM   27  C9  UNL     1      43.939  26.429  25.624  1.00  0.00     0.021 A 
HETATM   28  C10 UNL     1      42.937  26.437  24.676  1.00  0.00     0.041 A 
HETATM   29  C12 UNL     1      42.986  25.555  23.612  1.00  0.00     0.021 A 
HETATM   30  C13 UNL     1      44.030  24.678  23.508  1.00  0.00     0.038 A 
BRANCH  28  31
HETATM   31  C11 UNL     1      41.835  27.377  24.805  1.00  0.00     0.209 C 
HETATM   32  O5  UNL     1      41.331  27.927  23.780  1.00  0.00    -0.644 OA
HETATM   33  O6  UNL     1      41.319  27.686  26.054  1.00  0.00    -0.644 OA
ENDBRANCH  28  31
ENDBRANCH  24  25
ENDBRANCH  17  24
BRANCH  19  34
HETATM   34  C3  UNL     1      44.897  19.858  25.838  1.00  0.00     0.224 C 
BRANCH  34  35
HETATM   35  O2  UNL     1      43.523  19.829  25.975  1.00  0.00    -0.318 OA
BRANCH  35  36
HETATM   36  C2  UNL     1      42.741  19.827  24.828  1.00  0.00     0.254 C 
HETATM   37  C1  UNL     1      42.145  21.068  24.272  1.00  0.00     0.126 C 
HETATM   38  O1  UNL     1      42.513  18.748  24.219  1.00  0.00    -0.266 OA
ENDBRANCH  35  36
ENDBRANCH  34  35
ENDBRANCH  19  34
BRANCH  19  39
HETATM   39  O3  UNL     1      45.012  21.051  27.872  1.00  0.00    -0.380 OA
ATOM     40  H3  UNL     1      45.402  20.414  28.460  1.00  0.00     0.211 HD
ENDBRANCH  19  39
BRANCH  20  41
HETATM   41  O11 UNL     1      47.521  21.946  27.376  1.00  0.00    -0.377 OA
ATOM     42  H11 UNL     1      48.422  22.026  27.087  1.00  0.00     0.211 HD
ENDBRANCH  20  41
BRANCH  20  43
HETATM   43  C25 UNL     1      47.333  19.668  27.763  1.00  0.00     0.216 C 
BRANCH  43  44
HETATM   44  O12 UNL     1      46.720  18.469  27.419  1.00  0.00    -0.387 OA
ATOM     45  H12 UNL     1      47.208  17.712  27.721  1.00  0.00     0.210 HD
ENDBRANCH  43  44
BRANCH  43  46
HETATM   46  C26 UNL     1      48.717  19.372  28.205  1.00  0.00     0.285 C 
BRANCH  46  47
HETATM   47  O13 UNL     1      49.240  20.584  28.731  1.00  0.00    -0.369 OA
ATOM     48  H13 UNL     1      48.843  20.700  29.587  1.00  0.00     0.212 HD
ENDBRANCH  46  47
BRANCH  46  49
HETATM   49  O14 UNL     1      48.813  18.481  29.278  1.00  0.00    -0.369 OA
ATOM     50  H14 UNL     1      49.698  18.308  29.575  1.00  0.00     0.212 HD
ENDBRANCH  46  49
ENDBRANCH  43  46
ENDBRANCH  20  43
BRANCH  22  51
HETATM   51  O10 UNL     1      49.066  19.751  23.792  1.00  0.00    -0.290 OA
ATOM     52  H10 UNL     1      49.897  19.354  23.555  1.00  0.00     0.244 HD
ENDBRANCH  22  51
ENDBRANCH  15  16
ENDBRANCH   7  15
BRANCH   5  53
HETATM   53  C22 UNL     1      52.282  24.400  23.285  1.00  0.00     0.210 C 
HETATM   54  O8  UNL     1      52.525  23.598  22.304  1.00  0.00    -0.646 OA
HETATM   55  O9  UNL     1      53.264  25.341  23.467  1.00  0.00    -0.646 OA
ENDBRANCH   5  53
ENDBRANCH   1   5
TORSDOF 18
ENDMDL
MODEL 3
REMARK VINA RESULT: -9.226679975      1.161      1.568
REMARK  18 active torsions:
REMARK  status: ('A' for Active; 'I' for Inactive)
REMARK    1  A    between atoms: C2_2  and  O2_4 
REMARK    2  A    between atoms: O2_4  and  C3_5 
REMARK    3  A    between atoms: C3_5  and  C4_6 
REMARK    4  A    between atoms: C4_6  and  O3_7 
REMARK    5  A    between atoms: C6_10  and  O4_11 
REMARK    6  A    between atoms: O4_11  and  C7_12 
REMARK    7  A    between atoms: C10_15  and  C11_16 
REMARK    8  A    between atoms: C14_21  and  O7_22 
REMARK    9  A    between atoms: O7_22  and  N1_23 
REMARK   10  A    between atoms: C20_32  and  N2_33 
REMARK   11  A    between atoms: C20_32  and  C22_37 
REMARK   12  A    between atoms: N4_41  and  O10_43 
REMARK   13  A    between atoms: C24_45  and  O11_46 
REMARK   14  A    between atoms: C24_45  and  C25_48 
REMARK   15  A    between atoms: C25_48  and  O12_49 
REMARK   16  A    between atoms: C25_48  and  C26_51 
REMARK   17  A    between atoms: C26_51  and  O13_52 
REMARK   18  A    between atoms: C26_51  and  O14_54 
ROOT
HETATM    1  N2  UNL     1      50.873  23.373  26.838  1.00  0.00    -0.303 N 
ATOM      2  H2  UNL     1      50.375  24.171  27.235  1.00  0.00     0.173 HD
HETATM    3  C21 UNL     1      50.864  22.123  27.456  1.00  0.00     0.178 C 
HETATM    4  N3  UNL     1      50.864  21.083  27.955  1.00  0.00    -0.172 NA
ENDROOT
BRANCH   1   5
HETATM    5  C20 UNL     1      51.638  23.482  25.587  1.00  0.00     0.179 C 
HETATM    6  C15 UNL     1      50.856  24.066  24.493  1.00  0.00     0.069 C 
HETATM    7  N1  UNL     1      49.578  23.969  24.373  1.00  0.00    -0.269 N 
HETATM    8  C16 UNL     1      51.493  24.816  23.361  1.00  0.00     0.055 C 
ATOM      9  H1  UNL     1      49.195  24.414  23.539  1.00  0.00     0.194 HD
HETATM   10  C17 UNL     1      51.972  26.167  23.762  1.00  0.00     0.034 C 
HETATM   11  C18 UNL     1      50.444  25.060  22.243  1.00  0.00     0.034 C 
HETATM   12  S1  UNL     1      52.743  23.759  22.583  1.00  0.00    -0.082 SA
HETATM   13  S2  UNL     1      52.843  21.930  23.643  1.00  0.00    -0.093 SA
HETATM   14  C19 UNL     1      52.040  22.035  25.237  1.00  0.00     0.135 C 
BRANCH   7  15
HETATM   15  O7  UNL     1      48.687  23.394  25.144  1.00  0.00    -0.262 OA
BRANCH  15  16
HETATM   16  C14 UNL     1      47.694  22.457  24.767  1.00  0.00     0.259 C 
HETATM   17  C6  UNL     1      46.430  22.949  25.376  1.00  0.00     0.090 C 
HETATM   18  C5  UNL     1      45.679  22.274  26.195  1.00  0.00     0.052 C 
HETATM   19  C4  UNL     1      46.061  20.904  26.588  1.00  0.00     0.139 C 
HETATM   20  C24 UNL     1      47.571  20.833  26.649  1.00  0.00     0.168 C 
HETATM   21  C23 UNL     1      48.114  21.158  25.360  1.00  0.00     0.088 C 
HETATM   22  N4  UNL     1      48.914  20.479  24.646  1.00  0.00    -0.271 N 
ATOM     23  H4  UNL     1      49.217  19.585  25.033  1.00  0.00     0.193 HD
BRANCH  17  24
HETATM   24  O4  UNL     1      46.074  24.227  25.008  1.00  0.00    -0.312 OA
BRANCH  24  25
HETATM   25  C7  UNL     1      45.049  24.983  25.492  1.00  0.00     0.075 A 
HETATM   26  C8  UNL     1      44.547  24.860  26.757  1.00  0.00     0.038 A 
HETATM   27  C9  UNL     1      43.517  25.631  27.221  1.00  0.00     0.021 A 
HETATM   28  C10 UNL     1      42.956  26.573  26.383  1.00  0.00     0.041 A 
HETATM   29  C12 UNL     1      43.437  26.727  25.096  1.00  0.00     0.021 A 
HETATM   30  C13 UNL     1      44.467  25.941  24.662  1.00  0.00     0.038 A 
BRANCH  28  31
HETATM   31  C11 UNL     1      41.859  27.400  26.865  1.00  0.00     0.209 C 
HETATM   32  O5  UNL     1      41.590  27.458  28.102  1.00  0.00    -0.644 OA
HETATM   33  O6  UNL     1      41.093  28.137  25.976  1.00  0.00    -0.644 OA
ENDBRANCH  28  31
ENDBRANCH  24  25
ENDBRANCH  17  24
BRANCH  19  34
HETATM   34  C3  UNL     1      45.402  19.971  25.635  1.00  0.00     0.224 C 
BRANCH  34  35
HETATM   35  O2  UNL     1      44.025  20.054  25.549  1.00  0.00    -0.318 OA
BRANCH  35  36
HETATM   36  C2  UNL     1      43.448  20.244  24.300  1.00  0.00     0.254 C 
HETATM   37  C1  UNL     1      42.011  19.975  24.043  1.00  0.00     0.126 C 
HETATM   38  O1  UNL     1      44.146  20.657  23.337  1.00  0.00    -0.266 OA
ENDBRANCH  35  36
ENDBRANCH  34  35
ENDBRANCH  19  34
BRANCH  19  39
HETATM   39  O3  UNL     1      45.538  20.673  27.885  1.00  0.00    -0.380 OA
ATOM     40  H3  UNL     1      45.959  21.269  28.493  1.00  0.00     0.211 HD
ENDBRANCH  19  39
BRANCH  20  41
HETATM   41  O11 UNL     1      47.906  21.934  27.503  1.00  0.00    -0.377 OA
ATOM     42  H11 UNL     1      48.005  22.653  26.891  1.00  0.00     0.211 HD
ENDBRANCH  20  41
BRANCH  20  43
HETATM   43  C25 UNL     1      47.971  19.621  27.353  1.00  0.00     0.216 C 
BRANCH  43  44
HETATM   44  O12 UNL     1      48.019  19.798  28.730  1.00  0.00    -0.387 OA
ATOM     45  H12 UNL     1      47.259  20.259  29.063  1.00  0.00     0.210 HD
ENDBRANCH  43  44
BRANCH  43  46
HETATM   46  C26 UNL     1      47.267  18.347  27.072  1.00  0.00     0.285 C 
BRANCH  46  47
HETATM   47  O13 UNL     1      48.014  17.688  26.058  1.00  0.00    -0.369 OA
ATOM     48  H13 UNL     1      48.551  17.040  26.497  1.00  0.00     0.212 HD
ENDBRANCH  46  47
BRANCH  46  49
HETATM   49  O14 UNL     1      47.269  17.430  28.128  1.00  0.00    -0.369 OA
ATOM     50  H14 UNL     1      46.576  17.554  28.765  1.00  0.00     0.212 HD
ENDBRANCH  46  49
ENDBRANCH  43  46
ENDBRANCH  20  43
BRANCH  22  51
HETATM   51  O10 UNL     1      49.409  20.804  23.439  1.00  0.00    -0.290 OA
ATOM     52  H10 UNL     1      49.191  20.412  22.601  1.00  0.00     0.244 HD
ENDBRANCH  22  51
ENDBRANCH  15  16
ENDBRANCH   7  15
BRANCH   5  53
HETATM   53  C22 UNL     1      52.887  24.174  25.967  1.00  0.00     0.210 C 
HETATM   54  O8  UNL     1      52.820  25.209  26.735  1.00  0.00    -0.646 OA
HETATM   55  O9  UNL     1      54.171  23.854  25.606  1.00  0.00    -0.646 OA
ENDBRANCH   5  53
ENDBRANCH   1   5
TORSDOF 18
ENDMDL
MODEL 4
REMARK VINA RESULT: -9.188465608      4.007      6.477
REMARK  18 active torsions:
REMARK  status: ('A' for Active; 'I' for Inactive)
REMARK    1  A    between atoms: C2_2  and  O2_4 
REMARK    2  A    between atoms: O2_4  and  C3_5 
REMARK    3  A    between atoms: C3_5  and  C4_6 
REMARK    4  A    between atoms: C4_6  and  O3_7 
REMARK    5  A    between atoms: C6_10  and  O4_11 
REMARK    6  A    between atoms: O4_11  and  C7_12 
REMARK    7  A    between atoms: C10_15  and  C11_16 
REMARK    8  A    between atoms: C14_21  and  O7_22 
REMARK    9  A    between atoms: O7_22  and  N1_23 
REMARK   10  A    between atoms: C20_32  and  N2_33 
REMARK   11  A    between atoms: C20_32  and  C22_37 
REMARK   12  A    between atoms: N4_41  and  O10_43 
REMARK   13  A    between atoms: C24_45  and  O11_46 
REMARK   14  A    between atoms: C24_45  and  C25_48 
REMARK   15  A    between atoms: C25_48  and  O12_49 
REMARK   16  A    between atoms: C25_48  and  C26_51 
REMARK   17  A    between atoms: C26_51  and  O13_52 
REMARK   18  A    between atoms: C26_51  and  O14_54 
ROOT
HETATM    1  N2  UNL     1      44.639  23.333  21.219  1.00  0.00    -0.303 N 
ATOM      2  H2  UNL     1      44.269  23.528  22.150  1.00  0.00     0.173 HD
HETATM    3  C21 UNL     1      45.784  23.967  20.737  1.00  0.00     0.178 C 
HETATM    4  N3  UNL     1      46.730  24.484  20.326  1.00  0.00    -0.172 NA
ENDROOT
BRANCH   1   5
HETATM    5  C20 UNL     1      43.994  22.368  20.316  1.00  0.00     0.179 C 
HETATM    6  C15 UNL     1      43.104  21.440  21.020  1.00  0.00     0.069 C 
HETATM    7  N1  UNL     1      43.257  21.063  22.241  1.00  0.00    -0.269 N 
HETATM    8  C16 UNL     1      41.926  20.795  20.353  1.00  0.00     0.055 C 
ATOM      9  H1  UNL     1      42.561  20.393  22.569  1.00  0.00     0.194 HD
HETATM   10  C17 UNL     1      40.796  21.740  20.138  1.00  0.00     0.034 C 
HETATM   11  C18 UNL     1      41.363  19.671  21.265  1.00  0.00     0.034 C 
HETATM   12  S1  UNL     1      42.492  19.926  18.866  1.00  0.00    -0.082 SA
HETATM   13  S2  UNL     1      44.572  20.247  18.641  1.00  0.00    -0.093 SA
HETATM   14  C19 UNL     1      45.156  21.595  19.660  1.00  0.00     0.135 C 
BRANCH   7  15
HETATM   15  O7  UNL     1      44.158  21.395  23.134  1.00  0.00    -0.262 OA
BRANCH  15  16
HETATM   16  C14 UNL     1      43.992  21.482  24.537  1.00  0.00     0.259 C 
HETATM   17  C6  UNL     1      44.611  22.775  24.933  1.00  0.00     0.090 C 
HETATM   18  C5  UNL     1      45.570  22.915  25.798  1.00  0.00     0.052 C 
HETATM   19  C4  UNL     1      46.131  21.731  26.476  1.00  0.00     0.139 C 
HETATM   20  C24 UNL     1      46.096  20.570  25.507  1.00  0.00     0.168 C 
HETATM   21  C23 UNL     1      44.738  20.326  25.107  1.00  0.00     0.088 C 
HETATM   22  N4  UNL     1      44.077  19.245  25.175  1.00  0.00    -0.271 N 
ATOM     23  H4  UNL     1      44.567  18.440  25.562  1.00  0.00     0.193 HD
BRANCH  17  24
HETATM   24  O4  UNL     1      44.086  23.880  24.299  1.00  0.00    -0.312 OA
BRANCH  24  25
HETATM   25  C7  UNL     1      43.425  24.931  24.859  1.00  0.00     0.075 A 
HETATM   26  C8  UNL     1      43.319  25.128  26.208  1.00  0.00     0.038 A 
HETATM   27  C9  UNL     1      42.649  26.193  26.747  1.00  0.00     0.021 A 
HETATM   28  C10 UNL     1      42.055  27.108  25.903  1.00  0.00     0.041 A 
HETATM   29  C12 UNL     1      42.142  26.942  24.533  1.00  0.00     0.021 A 
HETATM   30  C13 UNL     1      42.817  25.868  24.024  1.00  0.00     0.038 A 
BRANCH  28  31
HETATM   31  C11 UNL     1      41.340  28.244  26.465  1.00  0.00     0.209 C 
HETATM   32  O5  UNL     1      40.568  28.943  25.743  1.00  0.00    -0.644 OA
HETATM   33  O6  UNL     1      41.494  28.578  27.802  1.00  0.00    -0.644 OA
ENDBRANCH  28  31
ENDBRANCH  24  25
ENDBRANCH  17  24
BRANCH  19  34
HETATM   34  C3  UNL     1      45.374  21.547  27.743  1.00  0.00     0.224 C 
BRANCH  34  35
HETATM   35  O2  UNL     1      44.466  22.539  28.064  1.00  0.00    -0.318 OA
BRANCH  35  36
HETATM   36  C2  UNL     1      43.194  22.165  28.480  1.00  0.00     0.254 C 
HETATM   37  C1  UNL     1      42.231  21.491  27.573  1.00  0.00     0.126 C 
HETATM   38  O1  UNL     1      42.822  22.394  29.661  1.00  0.00    -0.266 OA
ENDBRANCH  35  36
ENDBRANCH  34  35
ENDBRANCH  19  34
BRANCH  19  39
HETATM   39  O3  UNL     1      47.482  22.023  26.793  1.00  0.00    -0.380 OA
ATOM     40  H3  UNL     1      47.850  22.552  26.095  1.00  0.00     0.211 HD
ENDBRANCH  19  39
BRANCH  20  41
HETATM   41  O11 UNL     1      46.754  21.102  24.351  1.00  0.00    -0.377 OA
ATOM     42  H11 UNL     1      46.065  21.101  23.697  1.00  0.00     0.211 HD
ENDBRANCH  20  41
BRANCH  20  43
HETATM   43  C25 UNL     1      46.939  19.493  26.010  1.00  0.00     0.216 C 
BRANCH  43  44
HETATM   44  O12 UNL     1      46.198  18.409  26.467  1.00  0.00    -0.387 OA
ATOM     45  H12 UNL     1      45.857  18.546  27.342  1.00  0.00     0.210 HD
ENDBRANCH  43  44
BRANCH  43  46
HETATM   46  C26 UNL     1      48.046  18.978  25.169  1.00  0.00     0.285 C 
BRANCH  46  47
HETATM   47  O13 UNL     1      49.196  19.743  25.504  1.00  0.00    -0.369 OA
ATOM     48  H13 UNL     1      49.923  19.358  25.029  1.00  0.00     0.212 HD
ENDBRANCH  46  47
BRANCH  46  49
HETATM   49  O14 UNL     1      48.433  17.664  25.449  1.00  0.00    -0.369 OA
ATOM     50  H14 UNL     1      49.367  17.542  25.580  1.00  0.00     0.212 HD
ENDBRANCH  46  49
ENDBRANCH  43  46
ENDBRANCH  20  43
BRANCH  22  51
HETATM   51  O10 UNL     1      42.803  19.041  24.795  1.00  0.00    -0.290 OA
ATOM     52  H10 UNL     1      42.378  18.209  24.623  1.00  0.00     0.244 HD
ENDBRANCH  22  51
ENDBRANCH  15  16
ENDBRANCH   7  15
BRANCH   5  53
HETATM   53  C22 UNL     1      43.396  23.195  19.247  1.00  0.00     0.210 C 
HETATM   54  O8  UNL     1      42.544  24.110  19.565  1.00  0.00    -0.646 OA
HETATM   55  O9  UNL     1      43.634  23.127  17.897  1.00  0.00    -0.646 OA
ENDBRANCH   5  53
ENDBRANCH   1   5
TORSDOF 18
ENDMDL
MODEL 5
REMARK VINA RESULT: -9.076149132      3.187      7.958
REMARK  18 active torsions:
REMARK  status: ('A' for Active; 'I' for Inactive)
REMARK    1  A    between atoms: C2_2  and  O2_4 
REMARK    2  A    between atoms: O2_4  and  C3_5 
REMARK    3  A    between atoms: C3_5  and  C4_6 
REMARK    4  A    between atoms: C4_6  and  O3_7 
REMARK    5  A    between atoms: C6_10  and  O4_11 
REMARK    6  A    between atoms: O4_11  and  C7_12 
REMARK    7  A    between atoms: C10_15  and  C11_16 
REMARK    8  A    between atoms: C14_21  and  O7_22 
REMARK    9  A    between atoms: O7_22  and  N1_23 
REMARK   10  A    between atoms: C20_32  and  N2_33 
REMARK   11  A    between atoms: C20_32  and  C22_37 
REMARK   12  A    between atoms: N4_41  and  O10_43 
REMARK   13  A    between atoms: C24_45  and  O11_46 
REMARK   14  A    between atoms: C24_45  and  C25_48 
REMARK   15  A    between atoms: C25_48  and  O12_49 
REMARK   16  A    between atoms: C25_48  and  C26_51 
REMARK   17  A    between atoms: C26_51  and  O13_52 
REMARK   18  A    between atoms: C26_51  and  O14_54 
ROOT
HETATM    1  N2  UNL     1      45.602  21.447  23.574  1.00  0.00    -0.303 N 
ATOM      2  H2  UNL     1      46.338  20.934  24.059  1.00  0.00     0.173 HD
HETATM    3  C21 UNL     1      45.518  21.470  22.182  1.00  0.00     0.178 C 
HETATM    4  N3  UNL     1      45.436  21.495  21.031  1.00  0.00    -0.172 NA
ENDROOT
BRANCH   1   5
HETATM    5  C20 UNL     1      44.574  22.203  24.305  1.00  0.00     0.179 C 
HETATM    6  C15 UNL     1      44.926  23.616  24.481  1.00  0.00     0.069 C 
HETATM    7  N1  UNL     1      46.130  24.065  24.561  1.00  0.00    -0.269 N 
HETATM    8  C16 UNL     1      43.890  24.690  24.628  1.00  0.00     0.055 C 
ATOM      9  H1  UNL     1      46.197  25.073  24.708  1.00  0.00     0.194 HD
HETATM   10  C17 UNL     1      43.200  25.005  23.347  1.00  0.00     0.034 C 
HETATM   11  C18 UNL     1      44.572  26.013  25.072  1.00  0.00     0.034 C 
HETATM   12  S1  UNL     1      42.792  24.265  26.006  1.00  0.00    -0.082 SA
HETATM   13  S2  UNL     1      43.377  22.388  26.789  1.00  0.00    -0.093 SA
HETATM   14  C19 UNL     1      44.466  21.508  25.676  1.00  0.00     0.135 C 
BRANCH   7  15
HETATM   15  O7  UNL     1      47.282  23.446  24.487  1.00  0.00    -0.262 OA
BRANCH  15  16
HETATM   16  C14 UNL     1      48.298  23.390  25.471  1.00  0.00     0.259 C 
HETATM   17  C6  UNL     1      49.574  23.239  24.720  1.00  0.00     0.090 C 
HETATM   18  C5  UNL     1      50.423  22.268  24.872  1.00  0.00     0.052 C 
HETATM   19  C4  UNL     1      50.156  21.200  25.856  1.00  0.00     0.139 C 
HETATM   20  C24 UNL     1      48.663  20.966  25.905  1.00  0.00     0.168 C 
HETATM   21  C23 UNL     1      48.004  22.183  26.291  1.00  0.00     0.088 C 
HETATM   22  N4  UNL     1      47.195  22.373  27.250  1.00  0.00    -0.271 N 
ATOM     23  H4  UNL     1      46.978  21.560  27.826  1.00  0.00     0.193 HD
BRANCH  17  24
HETATM   24  O4  UNL     1      49.822  24.236  23.804  1.00  0.00    -0.312 OA
BRANCH  24  25
HETATM   25  C7  UNL     1      51.019  24.601  23.268  1.00  0.00     0.075 A 
HETATM   26  C8  UNL     1      51.852  25.527  23.831  1.00  0.00     0.038 A 
HETATM   27  C9  UNL     1      53.052  25.877  23.273  1.00  0.00     0.021 A 
HETATM   28  C10 UNL     1      53.443  25.276  22.095  1.00  0.00     0.041 A 
HETATM   29  C12 UNL     1      52.627  24.335  21.495  1.00  0.00     0.021 A 
HETATM   30  C13 UNL     1      51.434  24.007  22.076  1.00  0.00     0.038 A 
BRANCH  28  31
HETATM   31  C11 UNL     1      54.717  25.641  21.492  1.00  0.00     0.209 C 
HETATM   32  O5  UNL     1      55.453  26.526  22.023  1.00  0.00    -0.644 OA
HETATM   33  O6  UNL     1      55.144  25.023  20.327  1.00  0.00    -0.644 OA
ENDBRANCH  28  31
ENDBRANCH  24  25
ENDBRANCH  17  24
BRANCH  19  34
HETATM   34  C3  UNL     1      50.797  21.607  27.134  1.00  0.00     0.224 C 
BRANCH  34  35
HETATM   35  O2  UNL     1      52.142  21.921  27.074  1.00  0.00    -0.318 OA
BRANCH  35  36
HETATM   36  C2  UNL     1      52.506  23.255  26.940  1.00  0.00     0.254 C 
HETATM   37  C1  UNL     1      53.741  23.670  26.227  1.00  0.00     0.126 C 
HETATM   38  O1  UNL     1      51.783  24.161  27.430  1.00  0.00    -0.266 OA
ENDBRANCH  35  36
ENDBRANCH  34  35
ENDBRANCH  19  34
BRANCH  19  39
HETATM   39  O3  UNL     1      50.790  20.022  25.385  1.00  0.00    -0.380 OA
ATOM     40  H3  UNL     1      51.680  20.236  25.131  1.00  0.00     0.211 HD
ENDBRANCH  19  39
BRANCH  20  41
HETATM   41  O11 UNL     1      48.327  20.760  24.528  1.00  0.00    -0.377 OA
ATOM     42  H11 UNL     1      47.940  19.893  24.533  1.00  0.00     0.211 HD
ENDBRANCH  20  41
BRANCH  20  43
HETATM   43  C25 UNL     1      48.391  19.711  26.594  1.00  0.00     0.216 C 
BRANCH  43  44
HETATM   44  O12 UNL     1      48.112  19.895  27.943  1.00  0.00    -0.387 OA
ATOM     45  H12 UNL     1      47.271  20.313  28.086  1.00  0.00     0.210 HD
ENDBRANCH  43  44
BRANCH  43  46
HETATM   46  C26 UNL     1      47.388  18.773  26.036  1.00  0.00     0.285 C 
BRANCH  46  47
HETATM   47  O13 UNL     1      48.118  17.727  25.410  1.00  0.00    -0.369 OA
ATOM     48  H13 UNL     1      48.277  18.007  24.516  1.00  0.00     0.212 HD
ENDBRANCH  46  47
BRANCH  46  49
HETATM   49  O14 UNL     1      46.613  18.106  26.990  1.00  0.00    -0.369 OA
ATOM     50  H14 UNL     1      46.090  17.390  26.650  1.00  0.00     0.212 HD
ENDBRANCH  46  49
ENDBRANCH  43  46
ENDBRANCH  20  43
BRANCH  22  51
HETATM   51  O10 UNL     1      46.591  23.524  27.594  1.00  0.00    -0.290 OA
ATOM     52  H10 UNL     1      47.004  24.326  27.894  1.00  0.00     0.244 HD
ENDBRANCH  22  51
ENDBRANCH  15  16
ENDBRANCH   7  15
BRANCH   5  53
HETATM   53  C22 UNL     1      43.312  21.908  23.594  1.00  0.00     0.210 C 
HETATM   54  O8  UNL     1      42.576  20.930  24.005  1.00  0.00    -0.646 OA
HETATM   55  O9  UNL     1      42.783  22.561  22.510  1.00  0.00    -0.646 OA
ENDBRANCH   5  53
ENDBRANCH   1   5
TORSDOF 18
ENDMDL
