MODEL 1
REMARK VINA RESULT: -5.148873367      0.000      0.000
REMARK  0 active torsions:
REMARK  status: ('A' for Active; 'I' for Inactive)
ROOT
HETATM    1  C1  UNL     1      14.774   4.557  15.012  1.00  0.00     0.000 C 
HETATM    2  C2  UNL     1      14.782   4.550  16.504  1.00  0.00     0.000 C 
HETATM    3  C3  UNL     1      13.831   3.566  17.119  1.00  0.00     0.002 C 
HETATM    4  C4  UNL     1      14.520   2.768  18.209  1.00  0.00     0.027 C 
HETATM    5  C5  UNL     1      14.589   1.312  17.745  1.00  0.00     0.232 C 
HETATM    6  N1  UNL     1      14.803   1.304  16.324  1.00  0.00    -0.075 N 
ATOM      7  H11 UNL     1      14.118   1.877  15.833  1.00  0.00     0.277 HD
ATOM      8  H12 UNL     1      14.569   0.401  15.910  1.00  0.00     0.277 HD
HETATM    9  C6  UNL     1      16.163   1.704  16.015  1.00  0.00     0.232 C 
HETATM   10  C7  UNL     1      16.272   2.554  14.794  1.00  0.00     0.027 C 
HETATM   11  C8  UNL     1      14.994   3.215  14.382  1.00  0.00     0.002 C 
ENDROOT
TORSDOF 0
ENDMDL
MODEL 2
REMARK VINA RESULT: -4.989412798      1.253      3.657
REMARK  0 active torsions:
REMARK  status: ('A' for Active; 'I' for Inactive)
ROOT
HETATM    1  C1  UNL     1      15.020   0.957  16.962  1.00  0.00     0.000 C 
HETATM    2  C2  UNL     1      16.252   1.397  16.244  1.00  0.00     0.000 C 
HETATM    3  C3  UNL     1      16.034   1.726  14.796  1.00  0.00     0.002 C 
HETATM    4  C4  UNL     1      16.685   3.050  14.446  1.00  0.00     0.027 C 
HETATM    5  C5  UNL     1      15.571   4.035  14.089  1.00  0.00     0.232 C 
HETATM    6  N1  UNL     1      14.442   3.761  14.935  1.00  0.00    -0.075 N 
ATOM      7  H11 UNL     1      14.172   2.779  14.901  1.00  0.00     0.277 HD
ATOM      8  H12 UNL     1      13.583   4.168  14.565  1.00  0.00     0.277 HD
HETATM    9  C6  UNL     1      14.708   4.201  16.292  1.00  0.00     0.232 C 
HETATM   10  C7  UNL     1      14.160   3.286  17.335  1.00  0.00     0.027 C 
HETATM   11  C8  UNL     1      13.862   1.902  16.850  1.00  0.00     0.002 C 
ENDROOT
TORSDOF 0
ENDMDL
MODEL 3
REMARK VINA RESULT: -4.610282800      0.846      2.922
REMARK  0 active torsions:
REMARK  status: ('A' for Active; 'I' for Inactive)
ROOT
HETATM    1  C1  UNL     1      13.974   3.712  18.176  1.00  0.00     0.000 C 
HETATM    2  C2  UNL     1      13.888   4.039  16.722  1.00  0.00     0.000 C 
HETATM    3  C3  UNL     1      15.217   4.119  16.030  1.00  0.00     0.002 C 
HETATM    4  C4  UNL     1      15.189   3.338  14.731  1.00  0.00     0.027 C 
HETATM    5  C5  UNL     1      16.150   2.158  14.878  1.00  0.00     0.232 C 
HETATM    6  N1  UNL     1      16.079   1.687  16.233  1.00  0.00    -0.075 N 
ATOM      7  H11 UNL     1      16.222   2.441  16.905  1.00  0.00     0.277 HD
ATOM      8  H12 UNL     1      16.885   1.111  16.478  1.00  0.00     0.277 HD
HETATM    9  C6  UNL     1      14.828   0.990  16.462  1.00  0.00     0.232 C 
HETATM   10  C7  UNL     1      14.241   1.243  17.811  1.00  0.00     0.027 C 
HETATM   11  C8  UNL     1      14.756   2.473  18.490  1.00  0.00     0.002 C 
ENDROOT
TORSDOF 0
ENDMDL
MODEL 4
REMARK VINA RESULT: -4.574940987      5.092      6.419
REMARK  0 active torsions:
REMARK  status: ('A' for Active; 'I' for Inactive)
ROOT
HETATM    1  C1  UNL     1      19.475   2.925  11.179  1.00  0.00     0.000 C 
HETATM    2  C2  UNL     1      19.291   1.709  10.334  1.00  0.00     0.000 C 
HETATM    3  C3  UNL     1      19.209   0.427  11.111  1.00  0.00     0.002 C 
HETATM    4  C4  UNL     1      18.038  -0.410  10.636  1.00  0.00     0.027 C 
HETATM    5  C5  UNL     1      17.031  -0.494  11.783  1.00  0.00     0.232 C 
HETATM    6  N1  UNL     1      17.038   0.763  12.480  1.00  0.00    -0.075 N 
ATOM      7  H11 UNL     1      17.980   1.038  12.756  1.00  0.00     0.277 HD
ATOM      8  H12 UNL     1      16.624   0.684  13.409  1.00  0.00     0.277 HD
HETATM    9  C6  UNL     1      16.389   1.786  11.683  1.00  0.00     0.232 C 
HETATM   10  C7  UNL     1      17.045   3.123  11.778  1.00  0.00     0.027 C 
HETATM   11  C8  UNL     1      18.459   3.086  12.268  1.00  0.00     0.002 C 
ENDROOT
TORSDOF 0
ENDMDL
MODEL 5
REMARK VINA RESULT: -4.560500082      4.753      6.341
REMARK  0 active torsions:
REMARK  status: ('A' for Active; 'I' for Inactive)
ROOT
HETATM    1  C1  UNL     1      17.993  -0.572  10.750  1.00  0.00     0.000 C 
HETATM    2  C2  UNL     1      16.762   0.234  11.000  1.00  0.00     0.000 C 
HETATM    3  C3  UNL     1      16.707   0.867  12.359  1.00  0.00     0.002 C 
HETATM    4  C4  UNL     1      16.311   2.327  12.251  1.00  0.00     0.027 C 
HETATM    5  C5  UNL     1      17.506   3.167  12.703  1.00  0.00     0.232 C 
HETATM    6  N1  UNL     1      18.708   2.507  12.273  1.00  0.00    -0.075 N 
ATOM      7  H11 UNL     1      18.733   1.532  12.570  1.00  0.00     0.277 HD
ATOM      8  H12 UNL     1      19.527   2.842  12.780  1.00  0.00     0.277 HD
HETATM    9  C6  UNL     1      18.870   2.637  10.837  1.00  0.00     0.232 C 
HETATM   10  C7  UNL     1      19.421   1.414  10.185  1.00  0.00     0.027 C 
HETATM   11  C8  UNL     1      19.277   0.162  10.993  1.00  0.00     0.002 C 
ENDROOT
TORSDOF 0
ENDMDL
