MODEL 1
REMARK VINA RESULT: -7.229910855      0.000      0.000
REMARK  9 active torsions:
REMARK  status: ('A' for Active; 'I' for Inactive)
REMARK    1  A    between atoms: C2_2  and  N2_6 
REMARK    2  A    between atoms: N3_8  and  C3_10 
REMARK    3  A    between atoms: C6_14  and  C7_15 
REMARK       I    between atoms: C7_15  and  N5_17 
REMARK    4  A    between atoms: N5_17  and  C8_19 
REMARK    5  A    between atoms: C8_19  and  C9_20 
REMARK    6  A    between atoms: C11_28  and  S1_29 
REMARK    7  A    between atoms: S1_29  and  C12_30 
REMARK    8  A    between atoms: C12_30  and  C13_31 
REMARK       I    between atoms: C13_31  and  N8_33 
REMARK    9  A    between atoms: N8_33  and  N9_35 
REMARK       I    between atoms: N9_35  and  C14_37 
ROOT
HETATM    1  C3  UNL     1      -5.904  10.514   9.225  1.00  0.00     0.100 A 
HETATM    2  C4  UNL     1      -6.553  11.242   8.248  1.00  0.00     0.151 A 
HETATM    3  N4  UNL     1      -6.336  12.558   8.043  1.00  0.00    -0.251 N 
HETATM    4  C5  UNL     1      -6.853  13.409   7.124  1.00  0.00     0.140 A 
HETATM    5  C6  UNL     1      -6.223  14.626   7.367  1.00  0.00     0.120 A 
HETATM    6  C10 UNL     1      -5.373  14.430   8.422  1.00  0.00     0.299 A 
HETATM    7  O4  UNL     1      -4.634  15.292   8.934  1.00  0.00    -0.264 OA
HETATM    8  N6  UNL     1      -5.456  13.153   8.826  1.00  0.00    -0.149 N 
HETATM    9  N7  UNL     1      -4.806  12.480   9.789  1.00  0.00    -0.267 N 
ATOM     10  H7  UNL     1      -4.139  12.991  10.366  1.00  0.00     0.190 HD
HETATM   11  C11 UNL     1      -4.984  11.179  10.033  1.00  0.00     0.116 A 
ENDROOT
BRANCH  11  12
HETATM   12  S1  UNL     1      -4.067  10.272  11.287  1.00  0.00    -0.099 SA
BRANCH  12  13
HETATM   13  C12 UNL     1      -3.391  11.316  12.551  1.00  0.00     0.185 C 
BRANCH  13  14
HETATM   14  C13 UNL     1      -2.402  10.697  13.459  1.00  0.00     0.245 C 
HETATM   15  O5  UNL     1      -1.169  10.933  13.326  1.00  0.00    -0.271 OA
HETATM   16  N8  UNL     1      -2.876   9.846  14.462  1.00  0.00    -0.267 N 
ATOM     17  H8  UNL     1      -3.879   9.673  14.540  1.00  0.00     0.190 HD
BRANCH  16  18
HETATM   18  N9  UNL     1      -2.006   9.232  15.354  1.00  0.00    -0.268 N 
HETATM   19  C14 UNL     1      -2.385   9.010  16.712  1.00  0.00     0.232 C 
HETATM   20  C15 UNL     1      -1.550   8.359  17.738  1.00  0.00     0.119 C 
HETATM   21  O6  UNL     1      -3.545   9.402  17.089  1.00  0.00    -0.272 OA
ATOM     22  H9  UNL     1      -1.083   8.935  15.034  1.00  0.00     0.190 HD
ENDBRANCH  16  18
ENDBRANCH  13  14
ENDBRANCH  12  13
ENDBRANCH  11  12
BRANCH   1  23
HETATM   23  N3  UNL     1      -6.113   9.150   9.446  1.00  0.00    -0.295 N 
HETATM   24  N2  UNL     1      -7.015   8.720  10.196  1.00  0.00    -0.289 N 
ATOM     25  H2  UNL     1      -7.074   7.705  10.285  1.00  0.00     0.188 HD
ATOM     26  H3  UNL     1      -5.505   8.479   8.977  1.00  0.00     0.187 HD
BRANCH  24  27
HETATM   27  C2  UNL     1      -7.952   9.451  10.927  1.00  0.00     0.085 C 
HETATM   28  C1  UNL     1      -9.270   9.836  10.328  1.00  0.00     0.090 C 
HETATM   29  N1  UNL     1      -7.706   9.815  12.139  1.00  0.00    -0.388 N 
ATOM     30  H12 UNL     1      -8.391  10.349  12.674  1.00  0.00     0.157 HD
ATOM     31  H11 UNL     1      -6.809   9.552  12.547  1.00  0.00     0.157 HD
ENDBRANCH  24  27
ENDBRANCH   1  23
BRANCH   5  32
HETATM   32  C7  UNL     1      -6.462  15.762   6.490  1.00  0.00     0.259 C 
HETATM   33  O1  UNL     1      -7.574  15.977   6.015  1.00  0.00    -0.267 OA
HETATM   34  N5  UNL     1      -5.352  16.616   6.199  1.00  0.00    -0.347 N 
ATOM     35  H5  UNL     1      -4.430  16.424   6.590  1.00  0.00     0.163 HD
BRANCH  34  36
HETATM   36  C8  UNL     1      -5.567  17.761   5.333  1.00  0.00     0.236 C 
BRANCH  36  37
HETATM   37  C9  UNL     1      -4.591  17.712   4.207  1.00  0.00     0.191 C 
HETATM   38  O2  UNL     1      -4.018  16.644   3.910  1.00  0.00    -0.647 OA
HETATM   39  O3  UNL     1      -4.335  18.860   3.499  1.00  0.00    -0.647 OA
ENDBRANCH  36  37
ENDBRANCH  34  36
ENDBRANCH   5  32
TORSDOF 9
ENDMDL
MODEL 2
REMARK VINA RESULT: -7.146327804      3.336      9.285
REMARK  9 active torsions:
REMARK  status: ('A' for Active; 'I' for Inactive)
REMARK    1  A    between atoms: C2_2  and  N2_6 
REMARK    2  A    between atoms: N3_8  and  C3_10 
REMARK    3  A    between atoms: C6_14  and  C7_15 
REMARK       I    between atoms: C7_15  and  N5_17 
REMARK    4  A    between atoms: N5_17  and  C8_19 
REMARK    5  A    between atoms: C8_19  and  C9_20 
REMARK    6  A    between atoms: C11_28  and  S1_29 
REMARK    7  A    between atoms: S1_29  and  C12_30 
REMARK    8  A    between atoms: C12_30  and  C13_31 
REMARK       I    between atoms: C13_31  and  N8_33 
REMARK    9  A    between atoms: N8_33  and  N9_35 
REMARK       I    between atoms: N9_35  and  C14_37 
ROOT
HETATM    1  C3  UNL     1      -9.431  13.357   7.587  1.00  0.00     0.100 A 
HETATM    2  C4  UNL     1      -8.732  12.223   7.950  1.00  0.00     0.151 A 
HETATM    3  N4  UNL     1      -7.458  12.254   8.395  1.00  0.00    -0.251 N 
HETATM    4  C5  UNL     1      -6.643  11.257   8.819  1.00  0.00     0.140 A 
HETATM    5  C6  UNL     1      -5.465  11.893   9.200  1.00  0.00     0.120 A 
HETATM    6  C10 UNL     1      -5.646  13.231   8.973  1.00  0.00     0.299 A 
HETATM    7  O4  UNL     1      -4.808  14.127   9.189  1.00  0.00    -0.264 OA
HETATM    8  N6  UNL     1      -6.876  13.435   8.476  1.00  0.00    -0.149 N 
HETATM    9  N7  UNL     1      -7.521  14.560   8.130  1.00  0.00    -0.267 N 
ATOM     10  H7  UNL     1      -7.021  15.445   8.210  1.00  0.00     0.190 HD
HETATM   11  C11 UNL     1      -8.780  14.586   7.685  1.00  0.00     0.116 A 
ENDROOT
BRANCH  11  12
HETATM   12  S1  UNL     1      -9.655  16.103   7.276  1.00  0.00    -0.099 SA
BRANCH  12  13
HETATM   13  C12 UNL     1      -9.122  16.829   5.750  1.00  0.00     0.185 C 
BRANCH  13  14
HETATM   14  C13 UNL     1      -7.685  17.163   5.645  1.00  0.00     0.245 C 
HETATM   15  O5  UNL     1      -6.801  16.298   5.895  1.00  0.00    -0.271 OA
HETATM   16  N8  UNL     1      -7.342  18.464   5.261  1.00  0.00    -0.267 N 
ATOM     17  H8  UNL     1      -8.080  19.141   5.069  1.00  0.00     0.190 HD
BRANCH  16  18
HETATM   18  N9  UNL     1      -6.013  18.849   5.137  1.00  0.00    -0.268 N 
HETATM   19  C14 UNL     1      -5.607  19.760   4.116  1.00  0.00     0.232 C 
HETATM   20  C15 UNL     1      -4.231  20.246   3.901  1.00  0.00     0.119 C 
HETATM   21  O6  UNL     1      -6.499  20.205   3.310  1.00  0.00    -0.272 OA
ATOM     22  H9  UNL     1      -5.318  18.476   5.785  1.00  0.00     0.190 HD
ENDBRANCH  16  18
ENDBRANCH  13  14
ENDBRANCH  12  13
ENDBRANCH  11  12
BRANCH   1  23
HETATM   23  N3  UNL     1     -10.751  13.344   7.130  1.00  0.00    -0.295 N 
HETATM   24  N2  UNL     1     -11.731  13.269   7.903  1.00  0.00    -0.289 N 
ATOM     25  H2  UNL     1     -12.649  13.265   7.458  1.00  0.00     0.188 HD
ATOM     26  H3  UNL     1     -10.922  13.396   6.126  1.00  0.00     0.187 HD
BRANCH  24  27
HETATM   27  C2  UNL     1     -11.728  13.191   9.296  1.00  0.00     0.085 C 
HETATM   28  C1  UNL     1     -11.669  14.427  10.139  1.00  0.00     0.090 C 
HETATM   29  N1  UNL     1     -11.775  12.049   9.893  1.00  0.00    -0.388 N 
ATOM     30  H12 UNL     1     -11.772  11.991  10.912  1.00  0.00     0.157 HD
ATOM     31  H11 UNL     1     -11.815  11.207   9.319  1.00  0.00     0.157 HD
ENDBRANCH  24  27
ENDBRANCH   1  23
BRANCH   5  32
HETATM   32  C7  UNL     1      -4.388  11.132   9.812  1.00  0.00     0.259 C 
HETATM   33  O1  UNL     1      -4.361   9.905   9.753  1.00  0.00    -0.267 OA
HETATM   34  N5  UNL     1      -3.362  11.866  10.487  1.00  0.00    -0.347 N 
ATOM     35  H5  UNL     1      -3.398  12.884  10.539  1.00  0.00     0.163 HD
BRANCH  34  36
HETATM   36  C8  UNL     1      -2.271  11.129  11.098  1.00  0.00     0.236 C 
BRANCH  36  37
HETATM   37  C9  UNL     1      -2.354  11.273  12.580  1.00  0.00     0.191 C 
HETATM   38  O2  UNL     1      -3.434  11.570  13.130  1.00  0.00    -0.647 OA
HETATM   39  O3  UNL     1      -1.222  11.072  13.332  1.00  0.00    -0.647 OA
ENDBRANCH  36  37
ENDBRANCH  34  36
ENDBRANCH   5  32
TORSDOF 9
ENDMDL
MODEL 3
REMARK VINA RESULT: -7.126688134      2.411      2.877
REMARK  9 active torsions:
REMARK  status: ('A' for Active; 'I' for Inactive)
REMARK    1  A    between atoms: C2_2  and  N2_6 
REMARK    2  A    between atoms: N3_8  and  C3_10 
REMARK    3  A    between atoms: C6_14  and  C7_15 
REMARK       I    between atoms: C7_15  and  N5_17 
REMARK    4  A    between atoms: N5_17  and  C8_19 
REMARK    5  A    between atoms: C8_19  and  C9_20 
REMARK    6  A    between atoms: C11_28  and  S1_29 
REMARK    7  A    between atoms: S1_29  and  C12_30 
REMARK    8  A    between atoms: C12_30  and  C13_31 
REMARK       I    between atoms: C13_31  and  N8_33 
REMARK    9  A    between atoms: N8_33  and  N9_35 
REMARK       I    between atoms: N9_35  and  C14_37 
ROOT
HETATM    1  C3  UNL     1      -3.664   9.863  10.748  1.00  0.00     0.100 A 
HETATM    2  C4  UNL     1      -4.412  10.056   9.605  1.00  0.00     0.151 A 
HETATM    3  N4  UNL     1      -4.828  11.272   9.192  1.00  0.00    -0.251 N 
HETATM    4  C5  UNL     1      -5.532  11.643   8.095  1.00  0.00     0.140 A 
HETATM    5  C6  UNL     1      -5.619  13.029   8.175  1.00  0.00     0.120 A 
HETATM    6  C10 UNL     1      -4.967  13.402   9.320  1.00  0.00     0.299 A 
HETATM    7  O4  UNL     1      -4.834  14.569   9.737  1.00  0.00    -0.264 OA
HETATM    8  N6  UNL     1      -4.489  12.309   9.934  1.00  0.00    -0.149 N 
HETATM    9  N7  UNL     1      -3.764  12.162  11.054  1.00  0.00    -0.267 N 
ATOM     10  H7  UNL     1      -3.533  12.999  11.590  1.00  0.00     0.190 HD
HETATM   11  C11 UNL     1      -3.328  10.984  11.506  1.00  0.00     0.116 A 
ENDROOT
BRANCH  11  12
HETATM   12  S1  UNL     1      -2.309  10.802  12.977  1.00  0.00    -0.099 SA
BRANCH  12  13
HETATM   13  C12 UNL     1      -3.193  10.138  14.363  1.00  0.00     0.185 C 
BRANCH  13  14
HETATM   14  C13 UNL     1      -2.954   8.713  14.677  1.00  0.00     0.245 C 
HETATM   15  O5  UNL     1      -3.919   7.931  14.902  1.00  0.00    -0.271 OA
HETATM   16  N8  UNL     1      -1.630   8.265  14.715  1.00  0.00    -0.267 N 
ATOM     17  H8  UNL     1      -0.872   8.923  14.532  1.00  0.00     0.190 HD
BRANCH  16  18
HETATM   18  N9  UNL     1      -1.329   6.938  14.999  1.00  0.00    -0.268 N 
HETATM   19  C14 UNL     1      -1.162   5.985  13.950  1.00  0.00     0.232 C 
HETATM   20  C15 UNL     1      -0.830   4.560  14.135  1.00  0.00     0.119 C 
HETATM   21  O6  UNL     1      -1.306   6.382  12.740  1.00  0.00    -0.272 OA
ATOM     22  H9  UNL     1      -1.226   6.642  15.970  1.00  0.00     0.190 HD
ENDBRANCH  16  18
ENDBRANCH  13  14
ENDBRANCH  12  13
ENDBRANCH  11  12
BRANCH   1  23
HETATM   23  N3  UNL     1      -3.221   8.612  11.186  1.00  0.00    -0.295 N 
HETATM   24  N2  UNL     1      -4.001   7.727  11.597  1.00  0.00    -0.289 N 
ATOM     25  H2  UNL     1      -3.566   6.854  11.894  1.00  0.00     0.188 HD
ATOM     26  H3  UNL     1      -2.220   8.414  11.170  1.00  0.00     0.187 HD
BRANCH  24  27
HETATM   27  C2  UNL     1      -5.391   7.783  11.702  1.00  0.00     0.085 C 
HETATM   28  C1  UNL     1      -6.270   7.136  10.677  1.00  0.00     0.090 C 
HETATM   29  N1  UNL     1      -5.955   8.396  12.687  1.00  0.00    -0.388 N 
ATOM     30  H12 UNL     1      -6.972   8.437  12.764  1.00  0.00     0.157 HD
ATOM     31  H11 UNL     1      -5.357   8.836  13.385  1.00  0.00     0.157 HD
ENDBRANCH  24  27
ENDBRANCH   1  23
BRANCH   5  32
HETATM   32  C7  UNL     1      -6.228  13.789   7.095  1.00  0.00     0.259 C 
HETATM   33  O1  UNL     1      -6.901  13.236   6.229  1.00  0.00    -0.267 OA
HETATM   34  N5  UNL     1      -6.010  15.202   7.076  1.00  0.00    -0.347 N 
ATOM     35  H5  UNL     1      -5.442  15.652   7.794  1.00  0.00     0.163 HD
BRANCH  34  36
HETATM   36  C8  UNL     1      -6.614  15.983   6.012  1.00  0.00     0.236 C 
BRANCH  36  37
HETATM   37  C9  UNL     1      -5.623  16.978   5.513  1.00  0.00     0.191 C 
HETATM   38  O2  UNL     1      -4.506  16.608   5.097  1.00  0.00    -0.647 OA
HETATM   39  O3  UNL     1      -5.960  18.310   5.515  1.00  0.00    -0.647 OA
ENDBRANCH  36  37
ENDBRANCH  34  36
ENDBRANCH   5  32
TORSDOF 9
ENDMDL
MODEL 4
REMARK VINA RESULT: -7.113230190      1.939      1.971
REMARK  9 active torsions:
REMARK  status: ('A' for Active; 'I' for Inactive)
REMARK    1  A    between atoms: C2_2  and  N2_6 
REMARK    2  A    between atoms: N3_8  and  C3_10 
REMARK    3  A    between atoms: C6_14  and  C7_15 
REMARK       I    between atoms: C7_15  and  N5_17 
REMARK    4  A    between atoms: N5_17  and  C8_19 
REMARK    5  A    between atoms: C8_19  and  C9_20 
REMARK    6  A    between atoms: C11_28  and  S1_29 
REMARK    7  A    between atoms: S1_29  and  C12_30 
REMARK    8  A    between atoms: C12_30  and  C13_31 
REMARK       I    between atoms: C13_31  and  N8_33 
REMARK    9  A    between atoms: N8_33  and  N9_35 
REMARK       I    between atoms: N9_35  and  C14_37 
ROOT
HETATM    1  C3  UNL     1      -5.872  10.454   9.453  1.00  0.00     0.100 A 
HETATM    2  C4  UNL     1      -6.492  11.141   8.429  1.00  0.00     0.151 A 
HETATM    3  N4  UNL     1      -6.296  12.457   8.200  1.00  0.00    -0.251 N 
HETATM    4  C5  UNL     1      -6.790  13.273   7.237  1.00  0.00     0.140 A 
HETATM    5  C6  UNL     1      -6.201  14.510   7.477  1.00  0.00     0.120 A 
HETATM    6  C10 UNL     1      -5.397  14.361   8.575  1.00  0.00     0.299 A 
HETATM    7  O4  UNL     1      -4.704  15.254   9.098  1.00  0.00    -0.264 OA
HETATM    8  N6  UNL     1      -5.469  13.093   9.008  1.00  0.00    -0.149 N 
HETATM    9  N7  UNL     1      -4.849  12.461  10.017  1.00  0.00    -0.267 N 
ATOM     10  H7  UNL     1      -4.222  13.002  10.611  1.00  0.00     0.190 HD
HETATM   11  C11 UNL     1      -5.007  11.162  10.286  1.00  0.00     0.116 A 
ENDROOT
BRANCH  11  12
HETATM   12  S1  UNL     1      -4.129  10.310  11.604  1.00  0.00    -0.099 SA
BRANCH  12  13
HETATM   13  C12 UNL     1      -2.409  10.061  11.252  1.00  0.00     0.185 C 
BRANCH  13  14
HETATM   14  C13 UNL     1      -1.911   8.671  11.345  1.00  0.00     0.245 C 
HETATM   15  O5  UNL     1      -1.324   8.130  10.367  1.00  0.00    -0.271 OA
HETATM   16  N8  UNL     1      -2.113   7.983  12.545  1.00  0.00    -0.267 N 
ATOM     17  H8  UNL     1      -2.595   8.447  13.315  1.00  0.00     0.190 HD
BRANCH  16  18
HETATM   18  N9  UNL     1      -1.669   6.676  12.706  1.00  0.00    -0.268 N 
HETATM   19  C14 UNL     1      -1.244   6.199  13.983  1.00  0.00     0.232 C 
HETATM   20  C15 UNL     1      -0.768   4.834  14.271  1.00  0.00     0.119 C 
HETATM   21  O6  UNL     1      -1.273   7.012  14.974  1.00  0.00    -0.272 OA
ATOM     22  H9  UNL     1      -1.646   6.049  11.901  1.00  0.00     0.190 HD
ENDBRANCH  16  18
ENDBRANCH  13  14
ENDBRANCH  12  13
ENDBRANCH  11  12
BRANCH   1  23
HETATM   23  N3  UNL     1      -6.059   9.091   9.699  1.00  0.00    -0.295 N 
HETATM   24  N2  UNL     1      -7.036   8.650  10.341  1.00  0.00    -0.289 N 
ATOM     25  H2  UNL     1      -7.069   7.638  10.462  1.00  0.00     0.188 HD
ATOM     26  H3  UNL     1      -5.370   8.431   9.341  1.00  0.00     0.187 HD
BRANCH  24  27
HETATM   27  C2  UNL     1      -8.087   9.367  10.914  1.00  0.00     0.085 C 
HETATM   28  C1  UNL     1      -7.959   9.970  12.279  1.00  0.00     0.090 C 
HETATM   29  N1  UNL     1      -9.199   9.527  10.281  1.00  0.00    -0.388 N 
ATOM     30  H12 UNL     1      -9.969  10.052  10.699  1.00  0.00     0.157 HD
ATOM     31  H11 UNL     1      -9.287   9.117   9.351  1.00  0.00     0.157 HD
ENDBRANCH  24  27
ENDBRANCH   1  23
BRANCH   5  32
HETATM   32  C7  UNL     1      -6.425  15.617   6.561  1.00  0.00     0.259 C 
HETATM   33  O1  UNL     1      -7.521  15.799   6.037  1.00  0.00    -0.267 OA
HETATM   34  N5  UNL     1      -5.320  16.484   6.290  1.00  0.00    -0.347 N 
ATOM     35  H5  UNL     1      -4.411  16.321   6.723  1.00  0.00     0.163 HD
BRANCH  34  36
HETATM   36  C8  UNL     1      -5.521  17.602   5.386  1.00  0.00     0.236 C 
BRANCH  36  37
HETATM   37  C9  UNL     1      -4.560  17.492   4.252  1.00  0.00     0.191 C 
HETATM   38  O2  UNL     1      -4.055  16.391   3.952  1.00  0.00    -0.647 OA
HETATM   39  O3  UNL     1      -4.240  18.622   3.540  1.00  0.00    -0.647 OA
ENDBRANCH  36  37
ENDBRANCH  34  36
ENDBRANCH   5  32
TORSDOF 9
ENDMDL
MODEL 5
REMARK VINA RESULT: -7.079864638      3.517      8.871
REMARK  9 active torsions:
REMARK  status: ('A' for Active; 'I' for Inactive)
REMARK    1  A    between atoms: C2_2  and  N2_6 
REMARK    2  A    between atoms: N3_8  and  C3_10 
REMARK    3  A    between atoms: C6_14  and  C7_15 
REMARK       I    between atoms: C7_15  and  N5_17 
REMARK    4  A    between atoms: N5_17  and  C8_19 
REMARK    5  A    between atoms: C8_19  and  C9_20 
REMARK    6  A    between atoms: C11_28  and  S1_29 
REMARK    7  A    between atoms: S1_29  and  C12_30 
REMARK    8  A    between atoms: C12_30  and  C13_31 
REMARK       I    between atoms: C13_31  and  N8_33 
REMARK    9  A    between atoms: N8_33  and  N9_35 
REMARK       I    between atoms: N9_35  and  C14_37 
ROOT
HETATM    1  C3  UNL     1      -9.861  13.540   7.495  1.00  0.00     0.100 A 
HETATM    2  C4  UNL     1      -8.953  12.505   7.599  1.00  0.00     0.151 A 
HETATM    3  N4  UNL     1      -7.706  12.666   8.090  1.00  0.00    -0.251 N 
HETATM    4  C5  UNL     1      -6.710  11.769   8.291  1.00  0.00     0.140 A 
HETATM    5  C6  UNL     1      -5.675  12.502   8.863  1.00  0.00     0.120 A 
HETATM    6  C10 UNL     1      -6.114  13.796   8.962  1.00  0.00     0.299 A 
HETATM    7  O4  UNL     1      -5.463  14.753   9.425  1.00  0.00    -0.264 OA
HETATM    8  N6  UNL     1      -7.364  13.879   8.480  1.00  0.00    -0.149 N 
HETATM    9  N7  UNL     1      -8.216  14.911   8.392  1.00  0.00    -0.267 N 
ATOM     10  H7  UNL     1      -7.897  15.827   8.707  1.00  0.00     0.190 HD
HETATM   11  C11 UNL     1      -9.460  14.807   7.916  1.00  0.00     0.116 A 
ENDROOT
BRANCH  11  12
HETATM   12  S1  UNL     1     -10.616  16.183   7.854  1.00  0.00    -0.099 SA
BRANCH  12  13
HETATM   13  C12 UNL     1     -10.940  16.751   6.207  1.00  0.00     0.185 C 
BRANCH  13  14
HETATM   14  C13 UNL     1      -9.774  17.230   5.432  1.00  0.00     0.245 C 
HETATM   15  O5  UNL     1      -9.848  17.378   4.181  1.00  0.00    -0.271 OA
HETATM   16  N8  UNL     1      -8.596  17.512   6.131  1.00  0.00    -0.267 N 
ATOM     17  H8  UNL     1      -8.568  17.379   7.142  1.00  0.00     0.190 HD
BRANCH  16  18
HETATM   18  N9  UNL     1      -7.462  17.969   5.471  1.00  0.00    -0.268 N 
HETATM   19  C14 UNL     1      -6.228  17.255   5.554  1.00  0.00     0.232 C 
HETATM   20  C15 UNL     1      -4.972  17.640   4.887  1.00  0.00     0.119 C 
HETATM   21  O6  UNL     1      -6.192  16.188   6.262  1.00  0.00    -0.272 OA
ATOM     22  H9  UNL     1      -7.512  18.826   4.919  1.00  0.00     0.190 HD
ENDBRANCH  16  18
ENDBRANCH  13  14
ENDBRANCH  12  13
ENDBRANCH  11  12
BRANCH   1  23
HETATM   23  N3  UNL     1     -11.157  13.389   6.995  1.00  0.00    -0.295 N 
HETATM   24  N2  UNL     1     -12.098  12.941   7.685  1.00  0.00    -0.289 N 
ATOM     25  H2  UNL     1     -13.001  12.872   7.216  1.00  0.00     0.188 HD
ATOM     26  H3  UNL     1     -11.343  13.657   6.029  1.00  0.00     0.187 HD
BRANCH  24  27
HETATM   27  C2  UNL     1     -12.069  12.521   9.015  1.00  0.00     0.085 C 
HETATM   28  C1  UNL     1     -11.890  11.076   9.366  1.00  0.00     0.090 C 
HETATM   29  N1  UNL     1     -12.197  13.369   9.978  1.00  0.00    -0.388 N 
ATOM     30  H12 UNL     1     -12.176  13.062  10.951  1.00  0.00     0.157 HD
ATOM     31  H11 UNL     1     -12.318  14.353   9.740  1.00  0.00     0.157 HD
ENDBRANCH  24  27
ENDBRANCH   1  23
BRANCH   5  32
HETATM   32  C7  UNL     1      -4.466  11.833   9.315  1.00  0.00     0.259 C 
HETATM   33  O1  UNL     1      -3.982  10.898   8.682  1.00  0.00    -0.267 OA
HETATM   34  N5  UNL     1      -3.865  12.301  10.525  1.00  0.00    -0.347 N 
ATOM     35  H5  UNL     1      -4.279  13.071  11.049  1.00  0.00     0.163 HD
BRANCH  34  36
HETATM   36  C8  UNL     1      -2.652  11.654  10.992  1.00  0.00     0.236 C 
BRANCH  36  37
HETATM   37  C9  UNL     1      -2.687  11.566  12.479  1.00  0.00     0.191 C 
HETATM   38  O2  UNL     1      -3.755  11.739  13.101  1.00  0.00    -0.647 OA
HETATM   39  O3  UNL     1      -1.524  11.288  13.156  1.00  0.00    -0.647 OA
ENDBRANCH  36  37
ENDBRANCH  34  36
ENDBRANCH   5  32
TORSDOF 9
ENDMDL
