MODEL 1
REMARK VINA RESULT: -5.945586221      0.000      0.000
REMARK  9 active torsions:
REMARK  status: ('A' for Active; 'I' for Inactive)
REMARK    1  A    between atoms: N1_2  and  C2_5 
REMARK    2  A    between atoms: C2_5  and  C3_6 
REMARK    3  A    between atoms: C3_6  and  C4_7 
REMARK    4  A    between atoms: C4_7  and  N2_8 
REMARK    5  A    between atoms: N2_8  and  C5_10 
REMARK    6  A    between atoms: C6_13  and  N4_14 
REMARK    7  A    between atoms: N4_14  and  N5_16 
REMARK    8  A    between atoms: N5_16  and  C7_18 
REMARK    9  A    between atoms: C9_24  and  C10_25 
ROOT
HETATM    1  C5  UNL     1      19.795   7.103  15.444  1.00  0.00     0.136 A 
HETATM    2  N3  UNL     1      18.869   7.561  16.298  1.00  0.00    -0.174 N 
ATOM      3  H3  UNL     1      18.643   6.993  17.113  1.00  0.00     0.186 HD
HETATM    4  C6  UNL     1      18.211   8.745  16.137  1.00  0.00     0.699 A 
HETATM    5  N6  UNL     1      18.475   9.511  15.092  1.00  0.00    -0.176 N 
ATOM      6  H6  UNL     1      17.990  10.398  14.960  1.00  0.00     0.185 HD
HETATM    7  C8  UNL     1      19.396   9.096  14.206  1.00  0.00     0.148 A 
HETATM    8  N7  UNL     1      19.655   9.952  13.092  1.00  0.00    -0.081 NA
HETATM    9  C9  UNL     1      20.083   7.925  14.317  1.00  0.00     0.080 A 
ENDROOT
BRANCH   9  10
HETATM   10  C10 UNL     1      21.077   7.482  13.347  1.00  0.00     0.093 A 
HETATM   11  N8  UNL     1      22.371   7.827  13.328  1.00  0.00    -0.283 N 
HETATM   12  N9  UNL     1      22.932   7.234  12.322  1.00  0.00    -0.238 N 
ATOM     13  H8  UNL     1      22.834   8.450  13.990  1.00  0.00     0.188 HD
HETATM   14  N10 UNL     1      22.041   6.508  11.677  1.00  0.00    -0.254 N 
ATOM     15  H9  UNL     1      23.916   7.317  12.067  1.00  0.00     0.208 HD
HETATM   16  C11 UNL     1      20.868   6.634  12.283  1.00  0.00     0.085 A 
HETATM   17  C15 UNL     1      22.567   5.792  10.519  1.00  0.00     0.318 C 
HETATM   18  C12 UNL     1      19.488   6.083  12.056  1.00  0.00     0.229 C 
HETATM   19  O2  UNL     1      19.530   5.076  11.117  1.00  0.00    -0.383 OA
HETATM   20  C13 UNL     1      19.565   5.601   9.824  1.00  0.00     0.194 C 
HETATM   21  C14 UNL     1      20.857   5.129   9.146  1.00  0.00     0.196 C 
HETATM   22  O3  UNL     1      21.806   6.107   9.398  1.00  0.00    -0.368 OA
ENDBRANCH   9  10
BRANCH   1  23
HETATM   23  N2  UNL     1      20.420   6.035  15.549  1.00  0.00    -0.355 N 
ATOM     24  H2  UNL     1      20.139   5.433  14.774  1.00  0.00     0.166 HD
BRANCH  23  25
HETATM   25  C4  UNL     1      21.336   5.350  16.296  1.00  0.00     0.064 C 
BRANCH  25  26
HETATM   26  C3  UNL     1      22.661   4.950  15.703  1.00  0.00     0.072 C 
BRANCH  26  27
HETATM   27  C2  UNL     1      22.973   3.557  16.268  1.00  0.00     0.237 C 
BRANCH  27  28
HETATM   28  N1  UNL     1      21.908   2.630  16.022  1.00  0.00    -0.079 N 
HETATM   29  C1  UNL     1      22.213   1.290  16.479  1.00  0.00     0.267 C 
ATOM     30  H12 UNL     1      21.646   2.628  15.036  1.00  0.00     0.276 HD
ATOM     31  H11 UNL     1      21.033   2.963  16.426  1.00  0.00     0.276 HD
ENDBRANCH  27  28
ENDBRANCH  26  27
ENDBRANCH  25  26
ENDBRANCH  23  25
ENDBRANCH   1  23
BRANCH   4  32
HETATM   32  N4  UNL     1      17.325   9.121  17.008  1.00  0.00    -0.130 N 
ATOM     33  H4  UNL     1      17.611   9.614  17.853  1.00  0.00     0.205 HD
BRANCH  32  34
HETATM   34  N5  UNL     1      15.981   8.847  16.779  1.00  0.00    -0.263 N 
ATOM     35  H5  UNL     1      15.586   9.066  15.864  1.00  0.00     0.190 HD
BRANCH  34  36
HETATM   36  C7  UNL     1      15.139   8.278  17.763  1.00  0.00     0.369 C 
HETATM   37  O1  UNL     1      14.394   7.322  17.428  1.00  0.00    -0.282 OA
ENDBRANCH  34  36
ENDBRANCH  32  34
ENDBRANCH   4  32
TORSDOF 9
ENDMDL
MODEL 2
REMARK VINA RESULT: -5.702598732      1.148      1.148
REMARK  9 active torsions:
REMARK  status: ('A' for Active; 'I' for Inactive)
REMARK    1  A    between atoms: N1_2  and  C2_5 
REMARK    2  A    between atoms: C2_5  and  C3_6 
REMARK    3  A    between atoms: C3_6  and  C4_7 
REMARK    4  A    between atoms: C4_7  and  N2_8 
REMARK    5  A    between atoms: N2_8  and  C5_10 
REMARK    6  A    between atoms: C6_13  and  N4_14 
REMARK    7  A    between atoms: N4_14  and  N5_16 
REMARK    8  A    between atoms: N5_16  and  C7_18 
REMARK    9  A    between atoms: C9_24  and  C10_25 
ROOT
HETATM    1  C5  UNL     1      19.783   7.111  15.460  1.00  0.00     0.136 A 
HETATM    2  N3  UNL     1      18.858   7.572  16.313  1.00  0.00    -0.174 N 
ATOM      3  H3  UNL     1      18.634   7.005  17.130  1.00  0.00     0.186 HD
HETATM    4  C6  UNL     1      18.200   8.755  16.149  1.00  0.00     0.699 A 
HETATM    5  N6  UNL     1      18.462   9.517  15.101  1.00  0.00    -0.176 N 
ATOM      6  H6  UNL     1      17.976  10.404  14.968  1.00  0.00     0.185 HD
HETATM    7  C8  UNL     1      19.383   9.100  14.216  1.00  0.00     0.148 A 
HETATM    8  N7  UNL     1      19.640   9.953  13.099  1.00  0.00    -0.081 NA
HETATM    9  C9  UNL     1      20.070   7.930  14.329  1.00  0.00     0.080 A 
ENDROOT
BRANCH   9  10
HETATM   10  C10 UNL     1      21.064   7.485  13.360  1.00  0.00     0.093 A 
HETATM   11  N8  UNL     1      22.357   7.829  13.339  1.00  0.00    -0.283 N 
HETATM   12  N9  UNL     1      22.918   7.234  12.334  1.00  0.00    -0.238 N 
ATOM     13  H8  UNL     1      22.821   8.453  14.000  1.00  0.00     0.188 HD
HETATM   14  N10 UNL     1      22.026   6.507  11.691  1.00  0.00    -0.254 N 
ATOM     15  H9  UNL     1      23.902   7.316  12.079  1.00  0.00     0.208 HD
HETATM   16  C11 UNL     1      20.853   6.634  12.298  1.00  0.00     0.085 A 
HETATM   17  C15 UNL     1      22.552   5.788  10.535  1.00  0.00     0.318 C 
HETATM   18  C12 UNL     1      19.473   6.084  12.073  1.00  0.00     0.229 C 
HETATM   19  O2  UNL     1      19.514   5.074  11.136  1.00  0.00    -0.383 OA
HETATM   20  C13 UNL     1      19.549   5.597   9.842  1.00  0.00     0.194 C 
HETATM   21  C14 UNL     1      20.841   5.123   9.164  1.00  0.00     0.196 C 
HETATM   22  O3  UNL     1      21.790   6.102   9.413  1.00  0.00    -0.368 OA
ENDBRANCH   9  10
BRANCH   1  23
HETATM   23  N2  UNL     1      20.410   6.044  15.567  1.00  0.00    -0.355 N 
ATOM     24  H2  UNL     1      20.117   5.434  14.803  1.00  0.00     0.166 HD
BRANCH  23  25
HETATM   25  C4  UNL     1      21.336   5.367  16.308  1.00  0.00     0.064 C 
BRANCH  25  26
HETATM   26  C3  UNL     1      22.650   4.956  15.699  1.00  0.00     0.072 C 
BRANCH  26  27
HETATM   27  C2  UNL     1      22.957   3.559  16.260  1.00  0.00     0.237 C 
BRANCH  27  28
HETATM   28  N1  UNL     1      21.903   2.629  15.986  1.00  0.00    -0.079 N 
HETATM   29  C1  UNL     1      22.181   1.300  16.488  1.00  0.00     0.267 C 
ATOM     30  H12 UNL     1      21.688   2.605  14.989  1.00  0.00     0.276 HD
ATOM     31  H11 UNL     1      21.010   2.973  16.339  1.00  0.00     0.276 HD
ENDBRANCH  27  28
ENDBRANCH  26  27
ENDBRANCH  25  26
ENDBRANCH  23  25
ENDBRANCH   1  23
BRANCH   4  32
HETATM   32  N4  UNL     1      17.314   9.133  17.019  1.00  0.00    -0.130 N 
ATOM     33  H4  UNL     1      17.494   9.023  18.017  1.00  0.00     0.205 HD
BRANCH  32  34
HETATM   34  N5  UNL     1      16.117   9.688  16.581  1.00  0.00    -0.263 N 
ATOM     35  H5  UNL     1      15.392   9.067  16.222  1.00  0.00     0.190 HD
BRANCH  34  36
HETATM   36  C7  UNL     1      15.863  11.080  16.614  1.00  0.00     0.369 C 
HETATM   37  O1  UNL     1      16.229  11.774  15.632  1.00  0.00    -0.282 OA
ENDBRANCH  34  36
ENDBRANCH  32  34
ENDBRANCH   4  32
TORSDOF 9
ENDMDL
MODEL 3
REMARK VINA RESULT: -5.425718616      2.460      4.949
REMARK  9 active torsions:
REMARK  status: ('A' for Active; 'I' for Inactive)
REMARK    1  A    between atoms: N1_2  and  C2_5 
REMARK    2  A    between atoms: C2_5  and  C3_6 
REMARK    3  A    between atoms: C3_6  and  C4_7 
REMARK    4  A    between atoms: C4_7  and  N2_8 
REMARK    5  A    between atoms: N2_8  and  C5_10 
REMARK    6  A    between atoms: C6_13  and  N4_14 
REMARK    7  A    between atoms: N4_14  and  N5_16 
REMARK    8  A    between atoms: N5_16  and  C7_18 
REMARK    9  A    between atoms: C9_24  and  C10_25 
ROOT
HETATM    1  C5  UNL     1      20.607   6.102  14.767  1.00  0.00     0.136 A 
HETATM    2  N3  UNL     1      20.276   5.726  16.010  1.00  0.00    -0.174 N 
ATOM      3  H3  UNL     1      19.351   5.974  16.357  1.00  0.00     0.186 HD
HETATM    4  C6  UNL     1      21.108   5.029  16.837  1.00  0.00     0.699 A 
HETATM    5  N6  UNL     1      22.317   4.689  16.424  1.00  0.00    -0.176 N 
ATOM      6  H6  UNL     1      22.948   4.168  17.033  1.00  0.00     0.185 HD
HETATM    7  C8  UNL     1      22.697   5.042  15.185  1.00  0.00     0.148 A 
HETATM    8  N7  UNL     1      24.009   4.654  14.774  1.00  0.00    -0.081 NA
HETATM    9  C9  UNL     1      21.909   5.737  14.318  1.00  0.00     0.080 A 
ENDROOT
BRANCH   9  10
HETATM   10  C10 UNL     1      22.334   6.120  12.976  1.00  0.00     0.093 A 
HETATM   11  N8  UNL     1      23.203   7.091  12.670  1.00  0.00    -0.283 N 
HETATM   12  N9  UNL     1      23.327   7.130  11.382  1.00  0.00    -0.238 N 
ATOM     13  H8  UNL     1      23.683   7.696  13.337  1.00  0.00     0.188 HD
HETATM   14  N10 UNL     1      22.561   6.210  10.830  1.00  0.00    -0.254 N 
ATOM     15  H9  UNL     1      23.928   7.776  10.870  1.00  0.00     0.208 HD
HETATM   16  C11 UNL     1      21.922   5.555  11.791  1.00  0.00     0.085 A 
HETATM   17  C15 UNL     1      22.624   6.164   9.373  1.00  0.00     0.318 C 
HETATM   18  C12 UNL     1      20.932   4.425  11.831  1.00  0.00     0.229 C 
HETATM   19  O2  UNL     1      20.837   3.835  10.590  1.00  0.00    -0.383 OA
HETATM   20  C13 UNL     1      20.004   4.574   9.749  1.00  0.00     0.194 C 
HETATM   21  C14 UNL     1      20.822   5.025   8.533  1.00  0.00     0.196 C 
HETATM   22  O3  UNL     1      21.337   6.271   8.853  1.00  0.00    -0.368 OA
ENDBRANCH   9  10
BRANCH   1  23
HETATM   23  N2  UNL     1      19.885   6.733  13.979  1.00  0.00    -0.355 N 
ATOM     24  H2  UNL     1      19.250   6.068  13.538  1.00  0.00     0.166 HD
BRANCH  23  25
HETATM   25  C4  UNL     1      19.608   7.971  13.470  1.00  0.00     0.064 C 
BRANCH  25  26
HETATM   26  C3  UNL     1      19.630   9.185  14.358  1.00  0.00     0.072 C 
BRANCH  26  27
HETATM   27  C2  UNL     1      18.367   9.096  15.227  1.00  0.00     0.237 C 
BRANCH  27  28
HETATM   28  N1  UNL     1      18.680   8.845  16.602  1.00  0.00    -0.079 N 
HETATM   29  C1  UNL     1      17.708   9.411  17.512  1.00  0.00     0.267 C 
ATOM     30  H12 UNL     1      19.622   9.167  16.827  1.00  0.00     0.276 HD
ATOM     31  H11 UNL     1      18.802   7.846  16.773  1.00  0.00     0.276 HD
ENDBRANCH  27  28
ENDBRANCH  26  27
ENDBRANCH  25  26
ENDBRANCH  23  25
ENDBRANCH   1  23
BRANCH   4  32
HETATM   32  N4  UNL     1      20.715   4.702  18.030  1.00  0.00    -0.130 N 
ATOM     33  H4  UNL     1      20.229   5.381  18.616  1.00  0.00     0.205 HD
BRANCH  32  34
HETATM   34  N5  UNL     1      20.961   3.418  18.504  1.00  0.00    -0.263 N 
ATOM     35  H5  UNL     1      20.243   2.956  19.062  1.00  0.00     0.190 HD
BRANCH  34  36
HETATM   36  C7  UNL     1      22.167   2.726  18.244  1.00  0.00     0.369 C 
HETATM   37  O1  UNL     1      23.178   3.010  18.935  1.00  0.00    -0.282 OA
ENDBRANCH  34  36
ENDBRANCH  32  34
ENDBRANCH   4  32
TORSDOF 9
ENDMDL
MODEL 4
REMARK VINA RESULT: -4.737336461      1.345      1.590
REMARK  9 active torsions:
REMARK  status: ('A' for Active; 'I' for Inactive)
REMARK    1  A    between atoms: N1_2  and  C2_5 
REMARK    2  A    between atoms: C2_5  and  C3_6 
REMARK    3  A    between atoms: C3_6  and  C4_7 
REMARK    4  A    between atoms: C4_7  and  N2_8 
REMARK    5  A    between atoms: N2_8  and  C5_10 
REMARK    6  A    between atoms: C6_13  and  N4_14 
REMARK    7  A    between atoms: N4_14  and  N5_16 
REMARK    8  A    between atoms: N5_16  and  C7_18 
REMARK    9  A    between atoms: C9_24  and  C10_25 
ROOT
HETATM    1  C5  UNL     1      20.762   6.107  14.819  1.00  0.00     0.136 A 
HETATM    2  N3  UNL     1      20.172   6.491  15.959  1.00  0.00    -0.174 N 
ATOM      3  H3  UNL     1      20.281   5.896  16.780  1.00  0.00     0.186 HD
HETATM    4  C6  UNL     1      19.435   7.631  16.083  1.00  0.00     0.699 A 
HETATM    5  N6  UNL     1      19.270   8.428  15.041  1.00  0.00    -0.176 N 
ATOM      6  H6  UNL     1      18.720   9.284  15.121  1.00  0.00     0.185 HD
HETATM    7  C8  UNL     1      19.842   8.088  13.874  1.00  0.00     0.148 A 
HETATM    8  N7  UNL     1      19.643   8.976  12.773  1.00  0.00    -0.081 NA
HETATM    9  C9  UNL     1      20.588   6.963  13.693  1.00  0.00     0.080 A 
ENDROOT
BRANCH   9  10
HETATM   10  C10 UNL     1      21.200   6.601  12.420  1.00  0.00     0.093 A 
HETATM   11  N8  UNL     1      22.474   6.814  12.068  1.00  0.00    -0.283 N 
HETATM   12  N9  UNL     1      22.643   6.354  10.869  1.00  0.00    -0.238 N 
ATOM     13  H8  UNL     1      23.188   7.261  12.644  1.00  0.00     0.188 HD
HETATM   14  N10 UNL     1      21.513   5.845  10.422  1.00  0.00    -0.254 N 
ATOM     15  H9  UNL     1      23.520   6.382  10.348  1.00  0.00     0.208 HD
HETATM   16  C11 UNL     1      20.584   5.978  11.359  1.00  0.00     0.085 A 
HETATM   17  C15 UNL     1      21.589   5.295   9.072  1.00  0.00     0.318 C 
HETATM   18  C12 UNL     1      19.130   5.616  11.476  1.00  0.00     0.229 C 
HETATM   19  O2  UNL     1      18.764   4.790  10.436  1.00  0.00    -0.383 OA
HETATM   20  C13 UNL     1      18.517   5.529   9.277  1.00  0.00     0.194 C 
HETATM   21  C14 UNL     1      19.488   5.057   8.188  1.00  0.00     0.196 C 
HETATM   22  O3  UNL     1      20.602   5.877   8.282  1.00  0.00    -0.368 OA
ENDBRANCH   9  10
BRANCH   1  23
HETATM   23  N2  UNL     1      21.444   5.081  14.658  1.00  0.00    -0.355 N 
ATOM     24  H2  UNL     1      20.892   4.426  14.104  1.00  0.00     0.166 HD
BRANCH  23  25
HETATM   25  C4  UNL     1      22.642   4.487  14.933  1.00  0.00     0.064 C 
BRANCH  25  26
HETATM   26  C3  UNL     1      23.123   4.356  16.353  1.00  0.00     0.072 C 
BRANCH  26  27
HETATM   27  C2  UNL     1      22.130   3.413  17.050  1.00  0.00     0.237 C 
BRANCH  27  28
HETATM   28  N1  UNL     1      21.988   2.173  16.347  1.00  0.00    -0.079 N 
HETATM   29  C1  UNL     1      22.866   1.138  16.850  1.00  0.00     0.267 C 
ATOM     30  H12 UNL     1      22.116   2.305  15.344  1.00  0.00     0.276 HD
ATOM     31  H11 UNL     1      21.016   1.861  16.350  1.00  0.00     0.276 HD
ENDBRANCH  27  28
ENDBRANCH  26  27
ENDBRANCH  25  26
ENDBRANCH  23  25
ENDBRANCH   1  23
BRANCH   4  32
HETATM   32  N4  UNL     1      18.892   7.935  17.223  1.00  0.00    -0.130 N 
ATOM     33  H4  UNL     1      18.705   7.208  17.913  1.00  0.00     0.205 HD
BRANCH  32  34
HETATM   34  N5  UNL     1      18.567   9.259  17.496  1.00  0.00    -0.263 N 
ATOM     35  H5  UNL     1      19.312   9.955  17.501  1.00  0.00     0.190 HD
BRANCH  34  36
HETATM   36  C7  UNL     1      17.243   9.680  17.766  1.00  0.00     0.369 C 
HETATM   37  O1  UNL     1      16.323   8.826  17.708  1.00  0.00    -0.282 OA
ENDBRANCH  34  36
ENDBRANCH  32  34
ENDBRANCH   4  32
TORSDOF 9
ENDMDL
MODEL 5
REMARK VINA RESULT: -4.332563856      2.919      6.595
REMARK  9 active torsions:
REMARK  status: ('A' for Active; 'I' for Inactive)
REMARK    1  A    between atoms: N1_2  and  C2_5 
REMARK    2  A    between atoms: C2_5  and  C3_6 
REMARK    3  A    between atoms: C3_6  and  C4_7 
REMARK    4  A    between atoms: C4_7  and  N2_8 
REMARK    5  A    between atoms: N2_8  and  C5_10 
REMARK    6  A    between atoms: C6_13  and  N4_14 
REMARK    7  A    between atoms: N4_14  and  N5_16 
REMARK    8  A    between atoms: N5_16  and  C7_18 
REMARK    9  A    between atoms: C9_24  and  C10_25 
ROOT
HETATM    1  C5  UNL     1      20.205   6.427  13.143  1.00  0.00     0.136 A 
HETATM    2  N3  UNL     1      19.231   6.359  12.225  1.00  0.00    -0.174 N 
ATOM      3  H3  UNL     1      18.373   6.883  12.396  1.00  0.00     0.186 HD
HETATM    4  C6  UNL     1      19.322   5.630  11.076  1.00  0.00     0.699 A 
HETATM    5  N6  UNL     1      20.418   4.937  10.820  1.00  0.00    -0.176 N 
ATOM      6  H6  UNL     1      20.498   4.387   9.964  1.00  0.00     0.185 HD
HETATM    7  C8  UNL     1      21.425   4.972  11.708  1.00  0.00     0.148 A 
HETATM    8  N7  UNL     1      22.594   4.212  11.393  1.00  0.00    -0.081 NA
HETATM    9  C9  UNL     1      21.389   5.682  12.869  1.00  0.00     0.080 A 
ENDROOT
BRANCH   9  10
HETATM   10  C10 UNL     1      22.486   5.709  13.829  1.00  0.00     0.093 A 
HETATM   11  N8  UNL     1      23.613   6.423  13.721  1.00  0.00    -0.283 N 
HETATM   12  N9  UNL     1      24.342   6.189  14.766  1.00  0.00    -0.238 N 
ATOM     13  H8  UNL     1      23.856   7.045  12.949  1.00  0.00     0.188 HD
HETATM   14  N10 UNL     1      23.724   5.337  15.560  1.00  0.00    -0.254 N 
ATOM     15  H9  UNL     1      25.257   6.602  14.948  1.00  0.00     0.208 HD
HETATM   16  C11 UNL     1      22.560   5.011  15.013  1.00  0.00     0.085 A 
HETATM   17  C15 UNL     1      24.459   5.000  16.775  1.00  0.00     0.318 C 
HETATM   18  C12 UNL     1      21.418   4.113  15.398  1.00  0.00     0.229 C 
HETATM   19  O2  UNL     1      21.558   3.705  16.706  1.00  0.00    -0.383 OA
HETATM   20  C13 UNL     1      22.462   2.645  16.803  1.00  0.00     0.194 C 
HETATM   21  C14 UNL     1      23.622   3.081  17.707  1.00  0.00     0.196 C 
HETATM   22  O3  UNL     1      24.586   3.618  16.867  1.00  0.00    -0.368 OA
ENDBRANCH   9  10
BRANCH   1  23
HETATM   23  N2  UNL     1      20.170   7.078  14.200  1.00  0.00    -0.355 N 
ATOM     24  H2  UNL     1      20.998   6.833  14.743  1.00  0.00     0.166 HD
BRANCH  23  25
HETATM   25  C4  UNL     1      19.455   7.992  14.920  1.00  0.00     0.064 C 
BRANCH  25  26
HETATM   26  C3  UNL     1      19.121   9.337  14.332  1.00  0.00     0.072 C 
BRANCH  26  27
HETATM   27  C2  UNL     1      17.722   9.691  14.857  1.00  0.00     0.237 C 
BRANCH  27  28
HETATM   28  N1  UNL     1      17.163   8.633  15.646  1.00  0.00    -0.079 N 
HETATM   29  C1  UNL     1      16.289   9.116  16.694  1.00  0.00     0.267 C 
ATOM     30  H12 UNL     1      17.896   8.036  16.028  1.00  0.00     0.276 HD
ATOM     31  H11 UNL     1      16.684   7.952  15.056  1.00  0.00     0.276 HD
ENDBRANCH  27  28
ENDBRANCH  26  27
ENDBRANCH  25  26
ENDBRANCH  23  25
ENDBRANCH   1  23
BRANCH   4  32
HETATM   32  N4  UNL     1      18.333   5.613  10.236  1.00  0.00    -0.130 N 
ATOM     33  H4  UNL     1      17.378   5.758  10.563  1.00  0.00     0.205 HD
BRANCH  32  34
HETATM   34  N5  UNL     1      18.585   5.395   8.886  1.00  0.00    -0.263 N 
ATOM     35  H5  UNL     1      19.170   6.062   8.383  1.00  0.00     0.190 HD
BRANCH  34  36
HETATM   36  C7  UNL     1      18.062   4.285   8.181  1.00  0.00     0.369 C 
HETATM   37  O1  UNL     1      18.395   4.133   6.978  1.00  0.00    -0.282 OA
ENDBRANCH  34  36
ENDBRANCH  32  34
ENDBRANCH   4  32
TORSDOF 9
ENDMDL
