MODEL 1
REMARK VINA RESULT: -6.588820518      0.000      0.000
REMARK  3 active torsions:
REMARK  status: ('A' for Active; 'I' for Inactive)
REMARK    1  A    between atoms: C2_2  and  C3_6 
REMARK    2  A    between atoms: C4_8  and  N2_9 
REMARK    3  A    between atoms: C5_14  and  C6_15 
ROOT
HETATM    1  C3  UNL     1      -6.842  24.341   4.485  1.00  0.00     0.053 A 
HETATM    2  S1  UNL     1      -7.917  25.048   5.656  1.00  0.00    -0.051 SA
HETATM    3  C4  UNL     1      -7.986  23.780   6.752  1.00  0.00     0.143 A 
HETATM    4  N3  UNL     1      -7.201  22.841   6.197  1.00  0.00    -0.339 N 
ATOM      5  H3  UNL     1      -7.061  21.939   6.652  1.00  0.00     0.168 HD
HETATM    6  C5  UNL     1      -6.617  23.120   5.048  1.00  0.00     0.034 A 
ENDROOT
BRANCH   6   7
HETATM    7  C6  UNL     1      -5.698  22.094   4.373  1.00  0.00     0.037 C 
HETATM    8  C7  UNL     1      -6.238  20.734   4.984  1.00  0.00     0.011 C 
HETATM    9  C8  UNL     1      -5.504  19.646   4.248  1.00  0.00     0.001 C 
HETATM   10  C9  UNL     1      -4.077  19.643   4.798  1.00  0.00     0.000 C 
HETATM   11  C10 UNL     1      -3.451  20.993   4.681  1.00  0.00     0.001 C 
HETATM   12  C11 UNL     1      -4.338  22.165   5.018  1.00  0.00     0.011 C 
ENDBRANCH   6   7
BRANCH   1  13
HETATM   13  C2  UNL     1      -6.287  25.016   3.309  1.00  0.00     0.018 C 
HETATM   14  C1  UNL     1      -7.368  25.574   2.394  1.00  0.00     0.069 C 
HETATM   15  N1  UNL     1      -5.121  25.012   2.914  1.00  0.00    -0.402 N 
ATOM     16  H12 UNL     1      -4.734  25.482   2.095  1.00  0.00     0.156 HD
ATOM     17  H11 UNL     1      -4.396  24.638   3.527  1.00  0.00     0.156 HD
ENDBRANCH   1  13
BRANCH   3  18
HETATM   18  N2  UNL     1      -8.633  23.686   7.906  1.00  0.00    -0.380 N 
ATOM     19  H22 UNL     1      -9.593  23.368   8.038  1.00  0.00     0.158 HD
ATOM     20  H21 UNL     1      -8.316  23.894   8.853  1.00  0.00     0.158 HD
ENDBRANCH   3  18
TORSDOF 3
ENDMDL
MODEL 2
REMARK VINA RESULT: -6.465122130      1.421      3.460
REMARK  3 active torsions:
REMARK  status: ('A' for Active; 'I' for Inactive)
REMARK    1  A    between atoms: C2_2  and  C3_6 
REMARK    2  A    between atoms: C4_8  and  N2_9 
REMARK    3  A    between atoms: C5_14  and  C6_15 
ROOT
HETATM    1  C3  UNL     1      -7.404  24.220   6.297  1.00  0.00     0.053 A 
HETATM    2  S1  UNL     1      -8.131  25.670   5.669  1.00  0.00    -0.051 SA
HETATM    3  C4  UNL     1      -7.548  25.601   4.099  1.00  0.00     0.143 A 
HETATM    4  N3  UNL     1      -6.802  24.484   4.088  1.00  0.00    -0.339 N 
ATOM      5  H3  UNL     1      -6.308  24.190   3.246  1.00  0.00     0.168 HD
HETATM    6  C5  UNL     1      -6.726  23.777   5.201  1.00  0.00     0.034 A 
ENDROOT
BRANCH   6   7
HETATM    7  C6  UNL     1      -5.902  22.485   5.246  1.00  0.00     0.037 C 
HETATM    8  C7  UNL     1      -5.281  22.452   3.788  1.00  0.00     0.011 C 
HETATM    9  C8  UNL     1      -4.313  21.300   3.791  1.00  0.00     0.001 C 
HETATM   10  C9  UNL     1      -5.161  20.028   3.754  1.00  0.00     0.000 C 
HETATM   11  C10 UNL     1      -6.148  20.004   4.874  1.00  0.00     0.001 C 
HETATM   12  C11 UNL     1      -6.841  21.309   5.173  1.00  0.00     0.011 C 
ENDBRANCH   6   7
BRANCH   1  13
HETATM   13  C2  UNL     1      -7.634  23.648   7.626  1.00  0.00     0.018 C 
HETATM   14  C1  UNL     1      -9.110  23.407   7.908  1.00  0.00     0.069 C 
HETATM   15  N1  UNL     1      -6.828  23.530   8.549  1.00  0.00    -0.402 N 
ATOM     16  H12 UNL     1      -6.988  23.131   9.475  1.00  0.00     0.156 HD
ATOM     17  H11 UNL     1      -5.838  23.691   8.360  1.00  0.00     0.156 HD
ENDBRANCH   1  13
BRANCH   3  18
HETATM   18  N2  UNL     1      -7.757  26.419   3.076  1.00  0.00    -0.380 N 
ATOM     19  H22 UNL     1      -8.574  27.011   2.930  1.00  0.00     0.158 HD
ATOM     20  H21 UNL     1      -7.167  26.623   2.270  1.00  0.00     0.158 HD
ENDBRANCH   3  18
TORSDOF 3
ENDMDL
MODEL 3
REMARK VINA RESULT: -6.260959739      1.652      3.499
REMARK  3 active torsions:
REMARK  status: ('A' for Active; 'I' for Inactive)
REMARK    1  A    between atoms: C2_2  and  C3_6 
REMARK    2  A    between atoms: C4_8  and  N2_9 
REMARK    3  A    between atoms: C5_14  and  C6_15 
ROOT
HETATM    1  C3  UNL     1      -7.326  24.200   5.382  1.00  0.00     0.053 A 
HETATM    2  S1  UNL     1      -6.887  25.325   4.130  1.00  0.00    -0.051 SA
HETATM    3  C4  UNL     1      -5.761  24.387   3.315  1.00  0.00     0.143 A 
HETATM    4  N3  UNL     1      -5.733  23.244   4.020  1.00  0.00    -0.339 N 
ATOM      5  H3  UNL     1      -5.116  22.477   3.752  1.00  0.00     0.168 HD
HETATM    6  C5  UNL     1      -6.527  23.143   5.070  1.00  0.00     0.034 A 
ENDROOT
BRANCH   6   7
HETATM    7  C6  UNL     1      -6.550  21.856   5.906  1.00  0.00     0.037 C 
HETATM    8  C7  UNL     1      -5.217  22.003   6.751  1.00  0.00     0.011 C 
HETATM    9  C8  UNL     1      -5.238  20.862   7.732  1.00  0.00     0.001 C 
HETATM   10  C9  UNL     1      -4.913  19.601   6.929  1.00  0.00     0.000 C 
HETATM   11  C10 UNL     1      -5.849  19.439   5.777  1.00  0.00     0.001 C 
HETATM   12  C11 UNL     1      -6.187  20.696   5.016  1.00  0.00     0.011 C 
ENDBRANCH   6   7
BRANCH   1  13
HETATM   13  C2  UNL     1      -8.384  24.392   6.378  1.00  0.00     0.018 C 
HETATM   14  C1  UNL     1      -9.695  23.737   5.967  1.00  0.00     0.069 C 
HETATM   15  N1  UNL     1      -8.377  25.140   7.356  1.00  0.00    -0.402 N 
ATOM     16  H12 UNL     1      -9.114  25.274   8.049  1.00  0.00     0.156 HD
ATOM     17  H11 UNL     1      -7.499  25.580   7.631  1.00  0.00     0.156 HD
ENDBRANCH   1  13
BRANCH   3  18
HETATM   18  N2  UNL     1      -5.054  24.660   2.227  1.00  0.00    -0.380 N 
ATOM     19  H22 UNL     1      -5.219  25.425   1.572  1.00  0.00     0.158 HD
ATOM     20  H21 UNL     1      -4.234  24.190   1.844  1.00  0.00     0.158 HD
ENDBRANCH   3  18
TORSDOF 3
ENDMDL
MODEL 4
REMARK VINA RESULT: -6.174961657      2.212      5.179
REMARK  3 active torsions:
REMARK  status: ('A' for Active; 'I' for Inactive)
REMARK    1  A    between atoms: C2_2  and  C3_6 
REMARK    2  A    between atoms: C4_8  and  N2_9 
REMARK    3  A    between atoms: C5_14  and  C6_15 
ROOT
HETATM    1  C3  UNL     1      -5.999  21.745   4.944  1.00  0.00     0.053 A 
HETATM    2  S1  UNL     1      -5.056  22.240   3.569  1.00  0.00    -0.051 SA
HETATM    3  C4  UNL     1      -5.527  23.847   3.489  1.00  0.00     0.143 A 
HETATM    4  N3  UNL     1      -6.402  23.970   4.501  1.00  0.00    -0.339 N 
ATOM      5  H3  UNL     1      -6.865  24.858   4.690  1.00  0.00     0.168 HD
HETATM    6  C5  UNL     1      -6.644  22.906   5.245  1.00  0.00     0.034 A 
ENDROOT
BRANCH   6   7
HETATM    7  C6  UNL     1      -7.623  22.988   6.423  1.00  0.00     0.037 C 
HETATM    8  C7  UNL     1      -9.021  22.903   5.682  1.00  0.00     0.011 C 
HETATM    9  C8  UNL     1     -10.049  22.804   6.777  1.00  0.00     0.001 C 
HETATM   10  C9  UNL     1     -10.153  24.200   7.394  1.00  0.00     0.000 C 
HETATM   11  C10 UNL     1      -8.818  24.691   7.846  1.00  0.00     0.001 C 
HETATM   12  C11 UNL     1      -7.661  24.410   6.922  1.00  0.00     0.011 C 
ENDBRANCH   6   7
BRANCH   1  13
HETATM   13  C2  UNL     1      -5.939  20.437   5.603  1.00  0.00     0.018 C 
HETATM   14  C1  UNL     1      -5.038  20.445   6.830  1.00  0.00     0.069 C 
HETATM   15  N1  UNL     1      -6.360  19.358   5.185  1.00  0.00    -0.402 N 
ATOM     16  H12 UNL     1      -6.318  18.448   5.644  1.00  0.00     0.156 HD
ATOM     17  H11 UNL     1      -6.963  19.353   4.363  1.00  0.00     0.156 HD
ENDBRANCH   1  13
BRANCH   3  18
HETATM   18  N2  UNL     1      -5.146  24.806   2.656  1.00  0.00    -0.380 N 
ATOM     19  H22 UNL     1      -4.908  24.693   1.671  1.00  0.00     0.158 HD
ATOM     20  H21 UNL     1      -5.028  25.805   2.818  1.00  0.00     0.158 HD
ENDBRANCH   3  18
TORSDOF 3
ENDMDL
MODEL 5
REMARK VINA RESULT: -6.047675526      2.178      4.848
REMARK  3 active torsions:
REMARK  status: ('A' for Active; 'I' for Inactive)
REMARK    1  A    between atoms: C2_2  and  C3_6 
REMARK    2  A    between atoms: C4_8  and  N2_9 
REMARK    3  A    between atoms: C5_14  and  C6_15 
ROOT
HETATM    1  C3  UNL     1      -7.085  24.670   4.152  1.00  0.00     0.053 A 
HETATM    2  S1  UNL     1      -5.666  23.726   3.807  1.00  0.00    -0.051 SA
HETATM    3  C4  UNL     1      -5.969  22.416   4.810  1.00  0.00     0.143 A 
HETATM    4  N3  UNL     1      -7.136  22.731   5.396  1.00  0.00    -0.339 N 
ATOM      5  H3  UNL     1      -7.567  22.106   6.077  1.00  0.00     0.168 HD
HETATM    6  C5  UNL     1      -7.708  23.874   5.065  1.00  0.00     0.034 A 
ENDROOT
BRANCH   6   7
HETATM    7  C6  UNL     1      -9.049  24.281   5.690  1.00  0.00     0.037 C 
HETATM    8  C7  UNL     1      -8.577  25.269   6.837  1.00  0.00     0.011 C 
HETATM    9  C8  UNL     1      -9.841  25.858   7.403  1.00  0.00     0.001 C 
HETATM   10  C9  UNL     1     -10.488  24.756   8.243  1.00  0.00     0.000 C 
HETATM   11  C10 UNL     1     -10.694  23.515   7.439  1.00  0.00     0.001 C 
HETATM   12  C11 UNL     1      -9.568  23.131   6.513  1.00  0.00     0.011 C 
ENDBRANCH   6   7
BRANCH   1  13
HETATM   13  C2  UNL     1      -7.474  25.915   3.483  1.00  0.00     0.018 C 
HETATM   14  C1  UNL     1      -7.476  25.784   1.967  1.00  0.00     0.069 C 
HETATM   15  N1  UNL     1      -7.604  27.033   3.981  1.00  0.00    -0.402 N 
ATOM     16  H12 UNL     1      -7.875  27.900   3.515  1.00  0.00     0.156 HD
ATOM     17  H11 UNL     1      -7.603  27.121   4.997  1.00  0.00     0.156 HD
ENDBRANCH   1  13
BRANCH   3  18
HETATM   18  N2  UNL     1      -5.264  21.309   5.001  1.00  0.00    -0.380 N 
ATOM     19  H22 UNL     1      -4.587  21.143   5.745  1.00  0.00     0.158 HD
ATOM     20  H21 UNL     1      -5.261  20.436   4.474  1.00  0.00     0.158 HD
ENDBRANCH   3  18
TORSDOF 3
ENDMDL
