MODEL 1
REMARK VINA RESULT: -8.402775554      0.000      0.000
REMARK  4 active torsions:
REMARK  status: ('A' for Active; 'I' for Inactive)
REMARK    1  A    between atoms: C6_8  and  O1_9 
REMARK    2  A    between atoms: O1_9  and  C7_10 
REMARK    3  A    between atoms: C7_10  and  C8_11 
REMARK    4  A    between atoms: C8_11  and  C9_12 
ROOT
HETATM    1  C9  UNL     1      72.654  -3.812  71.753  1.00  0.00     0.131 C 
HETATM    2  O2  UNL     1      72.901  -3.860  73.107  1.00  0.00    -0.383 OA
HETATM    3  C10 UNL     1      73.759  -2.844  73.468  1.00  0.00     0.200 C 
HETATM    4  C11 UNL     1      74.190  -2.135  72.201  1.00  0.00     0.153 C 
HETATM    5  O3  UNL     1      75.497  -1.738  72.270  1.00  0.00    -0.371 OA
HETATM    6  C12 UNL     1      75.850  -0.786  71.322  1.00  0.00     0.182 C 
HETATM    7  C13 UNL     1      76.886  -1.382  70.361  1.00  0.00     0.039 C 
HETATM    8  C14 UNL     1      77.056  -2.851  70.531  1.00  0.00     0.003 C 
HETATM    9  C15 UNL     1      76.302  -3.727  69.622  1.00  0.00     0.001 C 
HETATM   10  C16 UNL     1      75.100  -3.193  68.962  1.00  0.00     0.012 C 
HETATM   11  C17 UNL     1      73.925  -2.833  69.795  1.00  0.00     0.055 C 
HETATM   12  C18 UNL     1      73.828  -1.349  69.778  1.00  0.00     0.096 A 
HETATM   13  O4  UNL     1      72.945  -0.631  69.140  1.00  0.00    -0.257 OA
HETATM   14  C19 UNL     1      73.216   0.634  69.392  1.00  0.00     0.416 A 
HETATM   15  O5  UNL     1      72.611   1.667  68.974  1.00  0.00    -0.229 OA
HETATM   16  O6  UNL     1      74.259   0.718  70.181  1.00  0.00    -0.254 OA
HETATM   17  C20 UNL     1      74.662  -0.478  70.440  1.00  0.00     0.118 A 
HETATM   18  C21 UNL     1      73.949  -3.274  71.200  1.00  0.00     0.056 C 
ENDROOT
BRANCH   1  19
HETATM   19  C8  UNL     1      71.462  -2.974  71.481  1.00  0.00     0.059 C 
BRANCH  19  20
HETATM   20  C7  UNL     1      70.682  -3.663  70.353  1.00  0.00     0.180 C 
BRANCH  20  21
HETATM   21  O1  UNL     1      69.319  -3.543  70.623  1.00  0.00    -0.335 OA
BRANCH  21  22
HETATM   22  C6  UNL     1      68.303  -4.231  70.017  1.00  0.00     0.151 A 
HETATM   23  C2  UNL     1      67.797  -5.436  70.428  1.00  0.00    -0.008 A 
HETATM   24  C1  UNL     1      68.219  -6.248  71.587  1.00  0.00     0.052 C 
HETATM   25  C3  UNL     1      66.792  -5.786  69.557  1.00  0.00     0.053 A 
HETATM   26  C4  UNL     1      66.704  -4.780  68.624  1.00  0.00     0.107 A 
HETATM   27 CL1  UNL     1      65.576  -4.704  67.258  1.00  0.00    -0.064 Cl
HETATM   28  N1  UNL     1      67.629  -3.856  68.928  1.00  0.00    -0.322 N 
HETATM   29  C5  UNL     1      67.824  -2.626  68.138  1.00  0.00     0.159 C 
ENDBRANCH  21  22
ENDBRANCH  20  21
ENDBRANCH  19  20
ENDBRANCH   1  19
TORSDOF 4
ENDMDL
MODEL 2
REMARK VINA RESULT: -7.981865570      2.249      2.754
REMARK  4 active torsions:
REMARK  status: ('A' for Active; 'I' for Inactive)
REMARK    1  A    between atoms: C6_8  and  O1_9 
REMARK    2  A    between atoms: O1_9  and  C7_10 
REMARK    3  A    between atoms: C7_10  and  C8_11 
REMARK    4  A    between atoms: C8_11  and  C9_12 
ROOT
HETATM    1  C9  UNL     1      73.754  -3.306  72.735  1.00  0.00     0.131 C 
HETATM    2  O2  UNL     1      74.440  -3.021  73.893  1.00  0.00    -0.383 OA
HETATM    3  C10 UNL     1      75.298  -1.963  73.687  1.00  0.00     0.200 C 
HETATM    4  C11 UNL     1      75.234  -1.599  72.218  1.00  0.00     0.153 C 
HETATM    5  O3  UNL     1      76.458  -1.222  71.741  1.00  0.00    -0.371 OA
HETATM    6  C12 UNL     1      76.410  -0.541  70.532  1.00  0.00     0.182 C 
HETATM    7  C13 UNL     1      77.104  -1.375  69.448  1.00  0.00     0.039 C 
HETATM    8  C14 UNL     1      77.420  -2.759  69.897  1.00  0.00     0.003 C 
HETATM    9  C15 UNL     1      76.468  -3.820  69.537  1.00  0.00     0.001 C 
HETATM   10  C16 UNL     1      75.081  -3.444  69.217  1.00  0.00     0.012 C 
HETATM   11  C17 UNL     1      74.230  -2.868  70.287  1.00  0.00     0.055 C 
HETATM   12  C18 UNL     1      74.031  -1.433  69.949  1.00  0.00     0.096 A 
HETATM   13  O4  UNL     1      72.940  -0.880  69.496  1.00  0.00    -0.257 OA
HETATM   14  C19 UNL     1      73.194   0.403  69.331  1.00  0.00     0.416 A 
HETATM   15  O5  UNL     1      72.415   1.310  68.909  1.00  0.00    -0.229 OA
HETATM   16  O6  UNL     1      74.431   0.662  69.674  1.00  0.00    -0.254 OA
HETATM   17  C20 UNL     1      74.978  -0.441  70.059  1.00  0.00     0.118 A 
HETATM   18  C21 UNL     1      74.750  -2.947  71.663  1.00  0.00     0.056 C 
ENDROOT
BRANCH   1  19
HETATM   19  C8  UNL     1      72.485  -2.541  72.691  1.00  0.00     0.059 C 
BRANCH  19  20
HETATM   20  C7  UNL     1      71.484  -3.287  73.582  1.00  0.00     0.180 C 
BRANCH  20  21
HETATM   21  O1  UNL     1      70.369  -3.618  72.812  1.00  0.00    -0.335 OA
BRANCH  21  22
HETATM   22  C6  UNL     1      70.218  -4.729  72.028  1.00  0.00     0.151 A 
HETATM   23  C2  UNL     1      70.395  -4.781  70.670  1.00  0.00    -0.008 A 
HETATM   24  C1  UNL     1      70.779  -3.681  69.764  1.00  0.00     0.052 C 
HETATM   25  C3  UNL     1      70.149  -6.073  70.266  1.00  0.00     0.053 A 
HETATM   26  C4  UNL     1      69.823  -6.788  71.394  1.00  0.00     0.107 A 
HETATM   27 CL1  UNL     1      69.410  -8.511  71.466  1.00  0.00    -0.064 Cl
HETATM   28  N1  UNL     1      69.873  -5.950  72.441  1.00  0.00    -0.322 N 
HETATM   29  C5  UNL     1      69.581  -6.376  73.823  1.00  0.00     0.159 C 
ENDBRANCH  21  22
ENDBRANCH  20  21
ENDBRANCH  19  20
ENDBRANCH   1  19
TORSDOF 4
ENDMDL
MODEL 3
REMARK VINA RESULT: -7.962061939      2.129      2.465
REMARK  4 active torsions:
REMARK  status: ('A' for Active; 'I' for Inactive)
REMARK    1  A    between atoms: C6_8  and  O1_9 
REMARK    2  A    between atoms: O1_9  and  C7_10 
REMARK    3  A    between atoms: C7_10  and  C8_11 
REMARK    4  A    between atoms: C8_11  and  C9_12 
ROOT
HETATM    1  C9  UNL     1      73.448  -3.468  72.590  1.00  0.00     0.131 C 
HETATM    2  O2  UNL     1      74.074  -3.254  73.797  1.00  0.00    -0.383 OA
HETATM    3  C10 UNL     1      74.959  -2.203  73.691  1.00  0.00     0.200 C 
HETATM    4  C11 UNL     1      74.981  -1.765  72.241  1.00  0.00     0.153 C 
HETATM    5  O3  UNL     1      76.236  -1.388  71.851  1.00  0.00    -0.371 OA
HETATM    6  C12 UNL     1      76.265  -0.647  70.677  1.00  0.00     0.182 C 
HETATM    7  C13 UNL     1      77.004  -1.439  69.591  1.00  0.00     0.039 C 
HETATM    8  C14 UNL     1      77.272  -2.849  69.985  1.00  0.00     0.003 C 
HETATM    9  C15 UNL     1      76.324  -3.872  69.521  1.00  0.00     0.001 C 
HETATM   10  C16 UNL     1      74.963  -3.455  69.146  1.00  0.00     0.012 C 
HETATM   11  C17 UNL     1      74.064  -2.917  70.197  1.00  0.00     0.055 C 
HETATM   12  C18 UNL     1      73.907  -1.464  69.922  1.00  0.00     0.096 A 
HETATM   13  O4  UNL     1      72.851  -0.868  69.440  1.00  0.00    -0.257 OA
HETATM   14  C19 UNL     1      73.135   0.416  69.354  1.00  0.00     0.416 A 
HETATM   15  O5  UNL     1      72.394   1.358  68.938  1.00  0.00    -0.229 OA
HETATM   16  O6  UNL     1      74.355   0.634  69.776  1.00  0.00    -0.254 OA
HETATM   17  C20 UNL     1      74.862  -0.496  70.133  1.00  0.00     0.118 A 
HETATM   18  C21 UNL     1      74.507  -3.074  71.593  1.00  0.00     0.056 C 
ENDROOT
BRANCH   1  19
HETATM   19  C8  UNL     1      72.196  -2.678  72.517  1.00  0.00     0.059 C 
BRANCH  19  20
HETATM   20  C7  UNL     1      71.276  -3.195  73.631  1.00  0.00     0.180 C 
BRANCH  20  21
HETATM   21  O1  UNL     1      70.161  -3.790  73.041  1.00  0.00    -0.335 OA
BRANCH  21  22
HETATM   22  C6  UNL     1      70.057  -5.084  72.610  1.00  0.00     0.151 A 
HETATM   23  C2  UNL     1      69.838  -6.178  73.407  1.00  0.00    -0.008 A 
HETATM   24  C1  UNL     1      69.666  -6.210  74.873  1.00  0.00     0.052 C 
HETATM   25  C3  UNL     1      69.799  -7.287  72.593  1.00  0.00     0.053 A 
HETATM   26  C4  UNL     1      69.999  -6.844  71.307  1.00  0.00     0.107 A 
HETATM   27 CL1  UNL     1      70.048  -7.846  69.845  1.00  0.00    -0.064 Cl
HETATM   28  N1  UNL     1      70.152  -5.512  71.350  1.00  0.00    -0.322 N 
HETATM   29  C5  UNL     1      70.386  -4.692  70.145  1.00  0.00     0.159 C 
ENDBRANCH  21  22
ENDBRANCH  20  21
ENDBRANCH  19  20
ENDBRANCH   1  19
TORSDOF 4
ENDMDL
MODEL 4
REMARK VINA RESULT: -7.831849726      2.693      5.472
REMARK  4 active torsions:
REMARK  status: ('A' for Active; 'I' for Inactive)
REMARK    1  A    between atoms: C6_8  and  O1_9 
REMARK    2  A    between atoms: O1_9  and  C7_10 
REMARK    3  A    between atoms: C7_10  and  C8_11 
REMARK    4  A    between atoms: C8_11  and  C9_12 
ROOT
HETATM    1  C9  UNL     1      71.574  -2.973  72.206  1.00  0.00     0.131 C 
HETATM    2  O2  UNL     1      72.733  -2.235  72.134  1.00  0.00    -0.383 OA
HETATM    3  C10 UNL     1      73.709  -2.809  72.920  1.00  0.00     0.200 C 
HETATM    4  C11 UNL     1      73.081  -3.976  73.653  1.00  0.00     0.153 C 
HETATM    5  O3  UNL     1      73.577  -4.096  74.921  1.00  0.00    -0.371 OA
HETATM    6  C12 UNL     1      73.327  -5.328  75.513  1.00  0.00     0.182 C 
HETATM    7  C13 UNL     1      72.402  -5.136  76.722  1.00  0.00     0.039 C 
HETATM    8  C14 UNL     1      71.829  -3.764  76.799  1.00  0.00     0.003 C 
HETATM    9  C15 UNL     1      70.482  -3.563  76.245  1.00  0.00     0.001 C 
HETATM   10  C16 UNL     1      69.981  -4.518  75.244  1.00  0.00     0.012 C 
HETATM   11  C17 UNL     1      70.653  -4.590  73.922  1.00  0.00     0.055 C 
HETATM   12  C18 UNL     1      71.375  -5.889  73.880  1.00  0.00     0.096 A 
HETATM   13  O4  UNL     1      71.044  -6.946  73.191  1.00  0.00    -0.257 OA
HETATM   14  C19 UNL     1      71.949  -7.871  73.438  1.00  0.00     0.416 A 
HETATM   15  O5  UNL     1      72.013  -9.052  72.978  1.00  0.00    -0.229 OA
HETATM   16  O6  UNL     1      72.844  -7.409  74.275  1.00  0.00    -0.254 OA
HETATM   17  C20 UNL     1      72.526  -6.195  74.569  1.00  0.00     0.118 A 
HETATM   18  C21 UNL     1      71.615  -3.520  73.609  1.00  0.00     0.056 C 
ENDROOT
BRANCH   1  19
HETATM   19  C8  UNL     1      71.555  -3.999  71.136  1.00  0.00     0.059 C 
BRANCH  19  20
HETATM   20  C7  UNL     1      70.636  -3.469  70.027  1.00  0.00     0.180 C 
BRANCH  20  21
HETATM   21  O1  UNL     1      69.319  -3.529  70.480  1.00  0.00    -0.335 OA
BRANCH  21  22
HETATM   22  C6  UNL     1      68.284  -4.206  69.895  1.00  0.00     0.151 A 
HETATM   23  C2  UNL     1      67.765  -5.400  70.323  1.00  0.00    -0.008 A 
HETATM   24  C1  UNL     1      68.191  -6.209  71.483  1.00  0.00     0.052 C 
HETATM   25  C3  UNL     1      66.742  -5.742  69.469  1.00  0.00     0.053 A 
HETATM   26  C4  UNL     1      66.657  -4.742  68.529  1.00  0.00     0.107 A 
HETATM   27 CL1  UNL     1      65.510  -4.660  67.179  1.00  0.00    -0.064 Cl
HETATM   28  N1  UNL     1      67.600  -3.830  68.813  1.00  0.00    -0.322 N 
HETATM   29  C5  UNL     1      67.802  -2.610  68.009  1.00  0.00     0.159 C 
ENDBRANCH  21  22
ENDBRANCH  20  21
ENDBRANCH  19  20
ENDBRANCH   1  19
TORSDOF 4
ENDMDL
MODEL 5
REMARK VINA RESULT: -7.696591787      2.141      2.743
REMARK  4 active torsions:
REMARK  status: ('A' for Active; 'I' for Inactive)
REMARK    1  A    between atoms: C6_8  and  O1_9 
REMARK    2  A    between atoms: O1_9  and  C7_10 
REMARK    3  A    between atoms: C7_10  and  C8_11 
REMARK    4  A    between atoms: C8_11  and  C9_12 
ROOT
HETATM    1  C9  UNL     1      72.746  -3.705  71.938  1.00  0.00     0.131 C 
HETATM    2  O2  UNL     1      73.115  -3.716  73.264  1.00  0.00    -0.383 OA
HETATM    3  C10 UNL     1      74.035  -2.718  73.507  1.00  0.00     0.200 C 
HETATM    4  C11 UNL     1      74.369  -2.068  72.180  1.00  0.00     0.153 C 
HETATM    5  O3  UNL     1      75.688  -1.716  72.114  1.00  0.00    -0.371 OA
HETATM    6  C12 UNL     1      75.982  -0.809  71.103  1.00  0.00     0.182 C 
HETATM    7  C13 UNL     1      76.905  -1.473  70.073  1.00  0.00     0.039 C 
HETATM    8  C14 UNL     1      77.043  -2.941  70.282  1.00  0.00     0.003 C 
HETATM    9  C15 UNL     1      76.180  -3.821  69.479  1.00  0.00     0.001 C 
HETATM   10  C16 UNL     1      74.940  -3.267  68.913  1.00  0.00     0.012 C 
HETATM   11  C17 UNL     1      73.860  -2.838  69.836  1.00  0.00     0.055 C 
HETATM   12  C18 UNL     1      73.808  -1.354  69.773  1.00  0.00     0.096 A 
HETATM   13  O4  UNL     1      72.893  -0.627  69.192  1.00  0.00    -0.257 OA
HETATM   14  C19 UNL     1      73.226   0.635  69.372  1.00  0.00     0.416 A 
HETATM   15  O5  UNL     1      72.618   1.674  68.973  1.00  0.00    -0.229 OA
HETATM   16  O6  UNL     1      74.340   0.710  70.057  1.00  0.00    -0.254 OA
HETATM   17  C20 UNL     1      74.727  -0.491  70.323  1.00  0.00     0.118 A 
HETATM   18  C21 UNL     1      73.999  -3.232  71.248  1.00  0.00     0.056 C 
ENDROOT
BRANCH   1  19
HETATM   19  C8  UNL     1      71.561  -2.836  71.745  1.00  0.00     0.059 C 
BRANCH  19  20
HETATM   20  C7  UNL     1      70.534  -3.652  70.949  1.00  0.00     0.180 C 
BRANCH  20  21
HETATM   21  O1  UNL     1      69.889  -4.525  71.826  1.00  0.00    -0.335 OA
BRANCH  21  22
HETATM   22  C6  UNL     1      69.706  -5.869  71.654  1.00  0.00     0.151 A 
HETATM   23  C2  UNL     1      68.846  -6.452  70.760  1.00  0.00    -0.008 A 
HETATM   24  C1  UNL     1      67.942  -5.781  69.804  1.00  0.00     0.052 C 
HETATM   25  C3  UNL     1      68.959  -7.816  70.898  1.00  0.00     0.053 A 
HETATM   26  C4  UNL     1      69.894  -8.040  71.881  1.00  0.00     0.107 A 
HETATM   27 CL1  UNL     1      70.440  -9.619  72.475  1.00  0.00    -0.064 Cl
HETATM   28  N1  UNL     1      70.326  -6.847  72.318  1.00  0.00    -0.322 N 
HETATM   29  C5  UNL     1      71.341  -6.700  73.379  1.00  0.00     0.159 C 
ENDBRANCH  21  22
ENDBRANCH  20  21
ENDBRANCH  19  20
ENDBRANCH   1  19
TORSDOF 4
ENDMDL
