MODEL 1
REMARK VINA RESULT: -8.689285154      0.000      0.000
REMARK  2 active torsions:
REMARK  status: ('A' for Active; 'I' for Inactive)
REMARK    1  A    between atoms: N1_7  and  S1_9 
REMARK    2  A    between atoms: S1_9  and  C8_12 
ROOT
HETATM    1  S1  UNL     1      22.176   9.058  -5.657  1.00  0.00     0.016 SA
HETATM    2  C7  UNL     1      20.884   9.856  -6.850  1.00  0.00     0.148 C 
HETATM    3  N2  UNL     1      20.096  10.319  -7.558  1.00  0.00    -0.183 NA
ENDROOT
BRANCH   1   4
HETATM    4  N1  UNL     1      21.740   7.466  -5.037  1.00  0.00    -0.309 N 
HETATM    5  C6  UNL     1      21.511   6.377  -5.712  1.00  0.00     0.125 A 
HETATM    6  C5  UNL     1      21.177   5.195  -5.087  1.00  0.00     0.035 A 
HETATM    7  N4  UNL     1      21.620   6.463  -7.060  1.00  0.00    -0.331 N 
HETATM    8  C4  UNL     1      21.068   5.107  -3.733  1.00  0.00     0.018 A 
HETATM    9  C17 UNL     1      20.947   4.074  -5.856  1.00  0.00     0.048 A 
HETATM   10  C3  UNL     1      20.728   3.900  -3.127  1.00  0.00     0.008 A 
HETATM   11  C2  UNL     1      20.494   2.767  -3.877  1.00  0.00    -0.060 A 
HETATM   12  C1  UNL     1      20.127   1.462  -3.231  1.00  0.00     0.048 C 
HETATM   13  C18 UNL     1      20.608   2.872  -5.247  1.00  0.00     0.037 A 
HETATM   14  N5  UNL     1      21.068   4.218  -7.185  1.00  0.00    -0.345 N 
HETATM   15  C15 UNL     1      21.392   5.361  -7.796  1.00  0.00     0.079 A 
ATOM     16  H5  UNL     1      20.900   3.398  -7.768  1.00  0.00     0.167 HD
HETATM   17  C16 UNL     1      21.502   5.414  -9.287  1.00  0.00     0.089 C 
ATOM     18  H4  UNL     1      21.870   7.345  -7.507  1.00  0.00     0.168 HD
ATOM     19  H1  UNL     1      21.656   7.388  -4.024  1.00  0.00     0.176 HD
ENDBRANCH   1   4
BRANCH   1  20
HETATM   20  C8  UNL     1      22.821  10.341  -4.394  1.00  0.00     0.024 A 
HETATM   21  C9  UNL     1      23.971  10.112  -3.668  1.00  0.00     0.022 A 
HETATM   22  C10 UNL     1      24.439  11.035  -2.757  1.00  0.00     0.024 A 
HETATM   23  C11 UNL     1      23.785  12.227  -2.525  1.00  0.00     0.044 A 
HETATM   24  C12 UNL     1      24.260  13.200  -1.579  1.00  0.00     0.099 C 
HETATM   25  C13 UNL     1      22.632  12.446  -3.258  1.00  0.00     0.024 A 
HETATM   26  N3  UNL     1      24.625  13.991  -0.814  1.00  0.00    -0.191 NA
HETATM   27  C14 UNL     1      22.159  11.528  -4.171  1.00  0.00     0.022 A 
ENDBRANCH   1  20
TORSDOF 2
ENDMDL
MODEL 2
REMARK VINA RESULT: -8.251309809      0.399      1.034
REMARK  2 active torsions:
REMARK  status: ('A' for Active; 'I' for Inactive)
REMARK    1  A    between atoms: N1_7  and  S1_9 
REMARK    2  A    between atoms: S1_9  and  C8_12 
ROOT
HETATM    1  S1  UNL     1      22.086   9.029  -5.958  1.00  0.00     0.016 SA
HETATM    2  C7  UNL     1      20.713   9.862  -7.030  1.00  0.00     0.148 C 
HETATM    3  N2  UNL     1      19.876  10.347  -7.663  1.00  0.00    -0.183 NA
ENDROOT
BRANCH   1   4
HETATM    4  N1  UNL     1      21.652   7.465  -5.268  1.00  0.00    -0.309 N 
HETATM    5  C6  UNL     1      21.452   6.341  -5.892  1.00  0.00     0.125 A 
HETATM    6  C5  UNL     1      21.115   5.188  -5.214  1.00  0.00     0.035 A 
HETATM    7  N4  UNL     1      21.593   6.359  -7.239  1.00  0.00    -0.331 N 
HETATM    8  C4  UNL     1      20.974   5.169  -3.860  1.00  0.00     0.018 A 
HETATM    9  C17 UNL     1      20.916   4.026  -5.930  1.00  0.00     0.048 A 
HETATM   10  C3  UNL     1      20.632   3.990  -3.202  1.00  0.00     0.008 A 
HETATM   11  C2  UNL     1      20.429   2.817  -3.898  1.00  0.00    -0.060 A 
HETATM   12  C1  UNL     1      20.060   1.543  -3.194  1.00  0.00     0.048 C 
HETATM   13  C18 UNL     1      20.576   2.853  -5.269  1.00  0.00     0.037 A 
HETATM   14  N5  UNL     1      21.069   4.104  -7.261  1.00  0.00    -0.345 N 
HETATM   15  C15 UNL     1      21.396   5.218  -7.922  1.00  0.00     0.079 A 
ATOM     16  H5  UNL     1      20.925   3.254  -7.805  1.00  0.00     0.167 HD
HETATM   17  C16 UNL     1      21.542   5.196  -9.411  1.00  0.00     0.089 C 
ATOM     18  H4  UNL     1      21.845   7.219  -7.724  1.00  0.00     0.168 HD
ATOM     19  H1  UNL     1      21.544   7.439  -4.254  1.00  0.00     0.176 HD
ENDBRANCH   1   4
BRANCH   1  20
HETATM   20  C8  UNL     1      22.907  10.302  -4.791  1.00  0.00     0.024 A 
HETATM   21  C9  UNL     1      22.254  11.461  -4.428  1.00  0.00     0.022 A 
HETATM   22  C10 UNL     1      22.842  12.381  -3.586  1.00  0.00     0.024 A 
HETATM   23  C11 UNL     1      24.106  12.192  -3.068  1.00  0.00     0.044 A 
HETATM   24  C12 UNL     1      24.733  13.142  -2.189  1.00  0.00     0.099 C 
HETATM   25  C13 UNL     1      24.752  11.026  -3.439  1.00  0.00     0.024 A 
HETATM   26  N3  UNL     1      25.256  13.901  -1.486  1.00  0.00    -0.191 NA
HETATM   27  C14 UNL     1      24.170  10.101  -4.279  1.00  0.00     0.022 A 
ENDBRANCH   1  20
TORSDOF 2
ENDMDL
MODEL 3
REMARK VINA RESULT: -7.805689565      2.037      4.468
REMARK  2 active torsions:
REMARK  status: ('A' for Active; 'I' for Inactive)
REMARK    1  A    between atoms: N1_7  and  S1_9 
REMARK    2  A    between atoms: S1_9  and  C8_12 
ROOT
HETATM    1  S1  UNL     1      22.079   9.426  -5.130  1.00  0.00     0.016 SA
HETATM    2  C7  UNL     1      23.889   9.891  -4.643  1.00  0.00     0.148 C 
HETATM    3  N2  UNL     1      24.977  10.148  -4.349  1.00  0.00    -0.183 NA
ENDROOT
BRANCH   1   4
HETATM    4  N1  UNL     1      21.593   7.781  -4.723  1.00  0.00    -0.309 N 
HETATM    5  C6  UNL     1      21.388   6.782  -5.531  1.00  0.00     0.125 A 
HETATM    6  C5  UNL     1      21.008   5.541  -5.065  1.00  0.00     0.035 A 
HETATM    7  N4  UNL     1      21.568   7.021  -6.852  1.00  0.00    -0.331 N 
HETATM    8  C4  UNL     1      20.828   5.299  -3.737  1.00  0.00     0.018 A 
HETATM    9  C17 UNL     1      20.806   4.520  -5.971  1.00  0.00     0.048 A 
HETATM   10  C3  UNL     1      20.444   4.036  -3.295  1.00  0.00     0.008 A 
HETATM   11  C2  UNL     1      20.236   3.001  -4.182  1.00  0.00    -0.060 A 
HETATM   12  C1  UNL     1      19.822   1.637  -3.712  1.00  0.00     0.048 C 
HETATM   13  C18 UNL     1      20.423   3.262  -5.524  1.00  0.00     0.037 A 
HETATM   14  N5  UNL     1      20.998   4.816  -7.265  1.00  0.00    -0.345 N 
HETATM   15  C15 UNL     1      21.367   6.016  -7.722  1.00  0.00     0.079 A 
ATOM     16  H5  UNL     1      20.852   4.072  -7.948  1.00  0.00     0.167 HD
HETATM   17  C16 UNL     1      21.555   6.239  -9.189  1.00  0.00     0.089 C 
ATOM     18  H4  UNL     1      21.851   7.944  -7.180  1.00  0.00     0.168 HD
ATOM     19  H1  UNL     1      21.455   7.588  -3.731  1.00  0.00     0.176 HD
ENDBRANCH   1   4
BRANCH   1  20
HETATM   20  C8  UNL     1      21.665  10.050  -6.889  1.00  0.00     0.024 A 
HETATM   21  C9  UNL     1      22.646  10.557  -7.716  1.00  0.00     0.022 A 
HETATM   22  C10 UNL     1      22.351  11.007  -8.985  1.00  0.00     0.024 A 
HETATM   23  C11 UNL     1      21.068  10.975  -9.491  1.00  0.00     0.044 A 
HETATM   24  C12 UNL     1      20.744  11.441 -10.812  1.00  0.00     0.099 C 
HETATM   25  C13 UNL     1      20.092  10.465  -8.654  1.00  0.00     0.024 A 
HETATM   26  N3  UNL     1      20.465  11.819 -11.872  1.00  0.00    -0.191 NA
HETATM   27  C14 UNL     1      20.379  10.012  -7.383  1.00  0.00     0.022 A 
ENDBRANCH   1  20
TORSDOF 2
ENDMDL
MODEL 4
REMARK VINA RESULT: -7.656391014      2.746      4.501
REMARK  2 active torsions:
REMARK  status: ('A' for Active; 'I' for Inactive)
REMARK    1  A    between atoms: N1_7  and  S1_9 
REMARK    2  A    between atoms: S1_9  and  C8_12 
ROOT
HETATM    1  S1  UNL     1      21.480   5.670  -7.830  1.00  0.00     0.016 SA
HETATM    2  C7  UNL     1      21.771   5.996  -9.711  1.00  0.00     0.148 C 
HETATM    3  N2  UNL     1      21.925   6.184 -10.842  1.00  0.00    -0.183 NA
ENDROOT
BRANCH   1   4
HETATM    4  N1  UNL     1      20.129   4.600  -7.456  1.00  0.00    -0.309 N 
HETATM    5  C6  UNL     1      19.899   3.955  -6.350  1.00  0.00     0.125 A 
HETATM    6  C5  UNL     1      18.791   3.147  -6.200  1.00  0.00     0.035 A 
HETATM    7  N4  UNL     1      20.801   4.117  -5.352  1.00  0.00    -0.331 N 
HETATM    8  C4  UNL     1      17.884   2.985  -7.202  1.00  0.00     0.018 A 
HETATM    9  C17 UNL     1      18.601   2.490  -5.003  1.00  0.00     0.048 A 
HETATM   10  C3  UNL     1      16.774   2.163  -7.023  1.00  0.00     0.008 A 
HETATM   11  C2  UNL     1      16.564   1.495  -5.835  1.00  0.00    -0.060 A 
HETATM   12  C1  UNL     1      15.369   0.608  -5.635  1.00  0.00     0.048 C 
HETATM   13  C18 UNL     1      17.492   1.671  -4.830  1.00  0.00     0.037 A 
HETATM   14  N5  UNL     1      19.527   2.687  -4.053  1.00  0.00    -0.345 N 
HETATM   15  C15 UNL     1      20.601   3.468  -4.192  1.00  0.00     0.079 A 
ATOM     16  H5  UNL     1      19.401   2.207  -3.161  1.00  0.00     0.167 HD
HETATM   17  C16 UNL     1      21.574   3.621  -3.066  1.00  0.00     0.089 C 
ATOM     18  H4  UNL     1      21.614   4.719  -5.479  1.00  0.00     0.168 HD
ATOM     19  H1  UNL     1      19.442   4.470  -8.199  1.00  0.00     0.176 HD
ENDBRANCH   1   4
BRANCH   1  20
HETATM   20  C8  UNL     1      21.614   7.293  -6.828  1.00  0.00     0.024 A 
HETATM   21  C9  UNL     1      21.293   8.509  -7.393  1.00  0.00     0.022 A 
HETATM   22  C10 UNL     1      21.388   9.681  -6.673  1.00  0.00     0.024 A 
HETATM   23  C11 UNL     1      21.807   9.698  -5.359  1.00  0.00     0.044 A 
HETATM   24  C12 UNL     1      21.911  10.912  -4.595  1.00  0.00     0.099 C 
HETATM   25  C13 UNL     1      22.126   8.473  -4.802  1.00  0.00     0.024 A 
HETATM   26  N3  UNL     1      22.008  11.881  -3.968  1.00  0.00    -0.191 NA
HETATM   27  C14 UNL     1      22.033   7.296  -5.516  1.00  0.00     0.022 A 
ENDBRANCH   1  20
TORSDOF 2
ENDMDL
MODEL 5
REMARK VINA RESULT: -7.524515707      4.390      5.576
REMARK  2 active torsions:
REMARK  status: ('A' for Active; 'I' for Inactive)
REMARK    1  A    between atoms: N1_7  and  S1_9 
REMARK    2  A    between atoms: S1_9  and  C8_12 
ROOT
HETATM    1  S1  UNL     1      22.017   5.343  -8.190  1.00  0.00     0.016 SA
HETATM    2  C7  UNL     1      22.324   4.320  -9.799  1.00  0.00     0.148 C 
HETATM    3  N2  UNL     1      22.494   3.692 -10.754  1.00  0.00    -0.183 NA
ENDROOT
BRANCH   1   4
HETATM    4  N1  UNL     1      21.355   4.427  -6.836  1.00  0.00    -0.309 N 
HETATM    5  C6  UNL     1      20.206   3.820  -6.763  1.00  0.00     0.125 A 
HETATM    6  C5  UNL     1      19.819   3.137  -5.629  1.00  0.00     0.035 A 
HETATM    7  N4  UNL     1      19.410   3.891  -7.856  1.00  0.00    -0.331 N 
HETATM    8  C4  UNL     1      20.619   3.065  -4.530  1.00  0.00     0.018 A 
HETATM    9  C17 UNL     1      18.590   2.514  -5.612  1.00  0.00     0.048 A 
HETATM   10  C3  UNL     1      20.203   2.368  -3.398  1.00  0.00     0.008 A 
HETATM   11  C2  UNL     1      18.978   1.737  -3.358  1.00  0.00    -0.060 A 
HETATM   12  C1  UNL     1      18.523   0.984  -2.141  1.00  0.00     0.048 C 
HETATM   13  C18 UNL     1      18.180   1.820  -4.480  1.00  0.00     0.037 A 
HETATM   14  N5  UNL     1      17.845   2.619  -6.722  1.00  0.00    -0.345 N 
HETATM   15  C15 UNL     1      18.214   3.278  -7.823  1.00  0.00     0.079 A 
ATOM     16  H5  UNL     1      16.932   2.163  -6.725  1.00  0.00     0.167 HD
HETATM   17  C16 UNL     1      17.306   3.333  -9.010  1.00  0.00     0.089 C 
ATOM     18  H4  UNL     1      19.712   4.399  -8.687  1.00  0.00     0.168 HD
ATOM     19  H1  UNL     1      21.946   4.365  -6.006  1.00  0.00     0.176 HD
ENDBRANCH   1   4
BRANCH   1  20
HETATM   20  C8  UNL     1      21.195   7.021  -8.595  1.00  0.00     0.024 A 
HETATM   21  C9  UNL     1      21.145   8.035  -7.661  1.00  0.00     0.022 A 
HETATM   22  C10 UNL     1      20.554   9.246  -7.950  1.00  0.00     0.024 A 
HETATM   23  C11 UNL     1      19.985   9.506  -9.179  1.00  0.00     0.044 A 
HETATM   24  C12 UNL     1      19.365  10.764  -9.496  1.00  0.00     0.099 C 
HETATM   25  C13 UNL     1      20.041   8.482 -10.108  1.00  0.00     0.024 A 
HETATM   26  N3  UNL     1      18.855  11.769  -9.765  1.00  0.00    -0.191 NA
HETATM   27  C14 UNL     1      20.631   7.269  -9.827  1.00  0.00     0.022 A 
ENDBRANCH   1  20
TORSDOF 2
ENDMDL
