MODEL 1
REMARK VINA RESULT: -6.436359626      0.000      0.000
REMARK  4 active torsions:
REMARK  status: ('A' for Active; 'I' for Inactive)
REMARK    1  A    between atoms: C3_3  and  N1_4 
REMARK    2  A    between atoms: C6_7  and  C7_8 
REMARK    3  A    between atoms: C6_7  and  S1_20 
REMARK    4  A    between atoms: C7_8  and  N2_9 
REMARK       I    between atoms: N2_9  and  C8_11 
REMARK       I    between atoms: N4_13  and  C9_15 
ROOT
HETATM    1  C1  UNL     1      64.245 -27.617 -30.949  1.00  0.00     0.013 C 
HETATM    2  C2  UNL     1      63.800 -27.631 -32.073  1.00  0.00    -0.087 C 
HETATM    3  C3  UNL     1      63.260 -27.674 -33.451  1.00  0.00     0.364 C 
ENDROOT
BRANCH   3   4
HETATM    4  N1  UNL     1      62.753 -29.012 -33.642  1.00  0.00     0.100 N 
HETATM    5  C4  UNL     1      61.549 -29.300 -32.952  1.00  0.00     0.275 C 
HETATM    6  C5  UNL     1      60.548 -29.795 -33.938  1.00  0.00     0.054 C 
HETATM    7  C6  UNL     1      61.292 -29.979 -35.228  1.00  0.00     0.051 C 
HETATM    8  C11 UNL     1      62.562 -29.225 -35.045  1.00  0.00     0.295 C 
BRANCH   7   9
HETATM    9  C7  UNL     1      61.462 -31.424 -35.570  1.00  0.00     0.144 C 
BRANCH   9  10
HETATM   10  N2  UNL     1      60.544 -32.307 -34.946  1.00  0.00    -0.363 N 
HETATM   11  C8  UNL     1      60.920 -33.639 -34.680  1.00  0.00     0.190 C 
HETATM   12  N3  UNL     1      60.002 -34.707 -34.644  1.00  0.00    -0.063 NA
HETATM   13  N4  UNL     1      62.173 -33.881 -34.459  1.00  0.00    -0.305 N 
HETATM   14  C9  UNL     1      62.637 -35.187 -34.185  1.00  0.00     0.188 C 
ATOM     15  H4  UNL     1      62.841 -33.111 -34.484  1.00  0.00     0.171 HD
HETATM   16  N5  UNL     1      62.470 -36.109 -35.056  1.00  0.00    -0.373 N 
HETATM   17  N6  UNL     1      63.278 -35.487 -32.970  1.00  0.00    -0.064 NA
ATOM     18  H52 UNL     1      62.004 -35.890 -35.937  1.00  0.00     0.158 HD
ATOM     19  H51 UNL     1      62.805 -37.051 -34.858  1.00  0.00     0.158 HD
ATOM     20  H2  UNL     1      59.613 -31.979 -34.690  1.00  0.00     0.162 HD
ENDBRANCH   9  10
ENDBRANCH   7   9
BRANCH   7  21
HETATM   21  S1  UNL     1      60.272 -29.230 -36.549  1.00  0.00    -0.160 SA
HETATM   22  C10 UNL     1      60.526 -27.457 -36.523  1.00  0.00     0.090 C 
ENDBRANCH   7  21
ENDBRANCH   3   4
TORSDOF 4
ENDMDL
MODEL 2
REMARK VINA RESULT: -6.395722457      3.718      7.520
REMARK  4 active torsions:
REMARK  status: ('A' for Active; 'I' for Inactive)
REMARK    1  A    between atoms: C3_3  and  N1_4 
REMARK    2  A    between atoms: C6_7  and  C7_8 
REMARK    3  A    between atoms: C6_7  and  S1_20 
REMARK    4  A    between atoms: C7_8  and  N2_9 
REMARK       I    between atoms: N2_9  and  C8_11 
REMARK       I    between atoms: N4_13  and  C9_15 
ROOT
HETATM    1  C1  UNL     1      60.110 -34.343 -34.637  1.00  0.00     0.013 C 
HETATM    2  C2  UNL     1      60.828 -33.412 -34.919  1.00  0.00    -0.087 C 
HETATM    3  C3  UNL     1      61.687 -32.261 -35.277  1.00  0.00     0.364 C 
ENDROOT
BRANCH   3   4
HETATM    4  N1  UNL     1      60.807 -31.120 -35.382  1.00  0.00     0.100 N 
HETATM    5  C4  UNL     1      60.067 -30.826 -34.210  1.00  0.00     0.275 C 
HETATM    6  C5  UNL     1      60.319 -29.407 -33.837  1.00  0.00     0.054 C 
HETATM    7  C6  UNL     1      61.095 -28.810 -34.975  1.00  0.00     0.051 C 
HETATM    8  C11 UNL     1      61.590 -29.979 -35.750  1.00  0.00     0.295 C 
BRANCH   7   9
HETATM    9  C7  UNL     1      60.274 -27.838 -35.758  1.00  0.00     0.144 C 
BRANCH   9  10
HETATM   10  N2  UNL     1      59.510 -26.927 -34.984  1.00  0.00    -0.363 N 
HETATM   11  C8  UNL     1      59.322 -25.606 -35.437  1.00  0.00     0.190 C 
HETATM   12  N3  UNL     1      59.138 -24.512 -34.569  1.00  0.00    -0.063 NA
HETATM   13  N4  UNL     1      59.319 -25.399 -36.716  1.00  0.00    -0.305 N 
HETATM   14  C9  UNL     1      59.137 -24.107 -37.256  1.00  0.00     0.188 C 
ATOM     15  H4  UNL     1      59.451 -26.189 -37.348  1.00  0.00     0.171 HD
HETATM   16  N5  UNL     1      59.974 -23.183 -36.969  1.00  0.00    -0.373 N 
HETATM   17  N6  UNL     1      58.051 -23.822 -38.102  1.00  0.00    -0.064 NA
ATOM     18  H52 UNL     1      60.761 -23.390 -36.354  1.00  0.00     0.158 HD
ATOM     19  H51 UNL     1      59.842 -22.250 -37.359  1.00  0.00     0.158 HD
ATOM     20  H2  UNL     1      59.097 -27.228 -34.101  1.00  0.00     0.162 HD
ENDBRANCH   9  10
ENDBRANCH   7   9
BRANCH   7  21
HETATM   21  S1  UNL     1      62.487 -27.874 -34.244  1.00  0.00    -0.160 SA
HETATM   22  C10 UNL     1      62.144 -27.614 -32.506  1.00  0.00     0.090 C 
ENDBRANCH   7  21
ENDBRANCH   3   4
TORSDOF 4
ENDMDL
MODEL 3
REMARK VINA RESULT: -6.370106010      3.563      6.481
REMARK  4 active torsions:
REMARK  status: ('A' for Active; 'I' for Inactive)
REMARK    1  A    between atoms: C3_3  and  N1_4 
REMARK    2  A    between atoms: C6_7  and  C7_8 
REMARK    3  A    between atoms: C6_7  and  S1_20 
REMARK    4  A    between atoms: C7_8  and  N2_9 
REMARK       I    between atoms: N2_9  and  C8_11 
REMARK       I    between atoms: N4_13  and  C9_15 
ROOT
HETATM    1  C1  UNL     1      66.731 -37.360 -33.221  1.00  0.00     0.013 C 
HETATM    2  C2  UNL     1      65.607 -37.278 -32.784  1.00  0.00    -0.087 C 
HETATM    3  C3  UNL     1      64.233 -37.153 -32.246  1.00  0.00     0.364 C 
ENDROOT
BRANCH   3   4
HETATM    4  N1  UNL     1      63.786 -35.824 -32.592  1.00  0.00     0.100 N 
HETATM    5  C4  UNL     1      64.593 -34.773 -32.089  1.00  0.00     0.275 C 
HETATM    6  C5  UNL     1      65.006 -33.908 -33.229  1.00  0.00     0.054 C 
HETATM    7  C6  UNL     1      64.229 -34.391 -34.419  1.00  0.00     0.051 C 
HETATM    8  C11 UNL     1      63.716 -35.729 -34.019  1.00  0.00     0.295 C 
BRANCH   7   9
HETATM    9  C7  UNL     1      63.178 -33.412 -34.831  1.00  0.00     0.144 C 
BRANCH   9  10
HETATM   10  N2  UNL     1      61.864 -33.937 -34.925  1.00  0.00    -0.363 N 
HETATM   11  C8  UNL     1      60.754 -33.081 -34.788  1.00  0.00     0.190 C 
HETATM   12  N3  UNL     1      59.510 -33.504 -34.279  1.00  0.00    -0.063 NA
HETATM   13  N4  UNL     1      60.894 -31.846 -35.152  1.00  0.00    -0.305 N 
HETATM   14  C9  UNL     1      59.833 -30.918 -35.050  1.00  0.00     0.188 C 
ATOM     15  H4  UNL     1      61.792 -31.534 -35.522  1.00  0.00     0.171 HD
HETATM   16  N5  UNL     1      59.327 -30.668 -33.901  1.00  0.00    -0.373 N 
HETATM   17  N6  UNL     1      59.325 -30.270 -36.188  1.00  0.00    -0.064 NA
ATOM     18  H52 UNL     1      59.696 -31.139 -33.075  1.00  0.00     0.158 HD
ATOM     19  H51 UNL     1      58.561 -29.998 -33.828  1.00  0.00     0.158 HD
ATOM     20  H2  UNL     1      61.723 -34.934 -35.091  1.00  0.00     0.162 HD
ENDBRANCH   9  10
ENDBRANCH   7   9
BRANCH   7  21
HETATM   21  S1  UNL     1      65.409 -34.532 -35.810  1.00  0.00    -0.160 SA
HETATM   22  C10 UNL     1      66.356 -33.016 -35.906  1.00  0.00     0.090 C 
ENDBRANCH   7  21
ENDBRANCH   3   4
TORSDOF 4
ENDMDL
MODEL 4
REMARK VINA RESULT: -6.349544064      2.626      3.630
REMARK  4 active torsions:
REMARK  status: ('A' for Active; 'I' for Inactive)
REMARK    1  A    between atoms: C3_3  and  N1_4 
REMARK    2  A    between atoms: C6_7  and  C7_8 
REMARK    3  A    between atoms: C6_7  and  S1_20 
REMARK    4  A    between atoms: C7_8  and  N2_9 
REMARK       I    between atoms: N2_9  and  C8_11 
REMARK       I    between atoms: N4_13  and  C9_15 
ROOT
HETATM    1  C1  UNL     1      63.872 -27.096 -28.286  1.00  0.00     0.013 C 
HETATM    2  C2  UNL     1      63.594 -26.739 -29.407  1.00  0.00    -0.087 C 
HETATM    3  C3  UNL     1      63.261 -26.325 -30.788  1.00  0.00     0.364 C 
ENDROOT
BRANCH   3   4
HETATM    4  N1  UNL     1      62.859 -27.527 -31.482  1.00  0.00     0.100 N 
HETATM    5  C4  UNL     1      61.958 -27.323 -32.556  1.00  0.00     0.275 C 
HETATM    6  C5  UNL     1      62.537 -27.940 -33.782  1.00  0.00     0.054 C 
HETATM    7  C6  UNL     1      63.748 -28.703 -33.329  1.00  0.00     0.051 C 
HETATM    8  C11 UNL     1      64.037 -28.183 -31.965  1.00  0.00     0.295 C 
BRANCH   7   9
HETATM    9  C7  UNL     1      63.534 -30.180 -33.406  1.00  0.00     0.144 C 
BRANCH   9  10
HETATM   10  N2  UNL     1      63.314 -30.694 -34.709  1.00  0.00    -0.363 N 
HETATM   11  C8  UNL     1      62.146 -31.434 -34.984  1.00  0.00     0.190 C 
HETATM   12  N3  UNL     1      62.086 -32.446 -35.963  1.00  0.00    -0.063 NA
HETATM   13  N4  UNL     1      61.082 -31.161 -34.299  1.00  0.00    -0.305 N 
HETATM   14  C9  UNL     1      59.868 -31.853 -34.509  1.00  0.00     0.188 C 
ATOM     15  H4  UNL     1      61.120 -30.429 -33.589  1.00  0.00     0.171 HD
HETATM   16  N5  UNL     1      59.828 -33.119 -34.328  1.00  0.00    -0.373 N 
HETATM   17  N6  UNL     1      58.707 -31.173 -34.914  1.00  0.00    -0.064 NA
ATOM     18  H52 UNL     1      60.671 -33.613 -34.035  1.00  0.00     0.158 HD
ATOM     19  H51 UNL     1      58.952 -33.619 -34.480  1.00  0.00     0.158 HD
ATOM     20  H2  UNL     1      63.999 -30.529 -35.446  1.00  0.00     0.162 HD
ENDBRANCH   9  10
ENDBRANCH   7   9
BRANCH   7  21
HETATM   21  S1  UNL     1      65.105 -28.294 -34.485  1.00  0.00    -0.160 SA
HETATM   22  C10 UNL     1      64.458 -27.213 -35.758  1.00  0.00     0.090 C 
ENDBRANCH   7  21
ENDBRANCH   3   4
TORSDOF 4
ENDMDL
MODEL 5
REMARK VINA RESULT: -6.346291276      2.702      4.207
REMARK  4 active torsions:
REMARK  status: ('A' for Active; 'I' for Inactive)
REMARK    1  A    between atoms: C3_3  and  N1_4 
REMARK    2  A    between atoms: C6_7  and  C7_8 
REMARK    3  A    between atoms: C6_7  and  S1_20 
REMARK    4  A    between atoms: C7_8  and  N2_9 
REMARK       I    between atoms: N2_9  and  C8_11 
REMARK       I    between atoms: N4_13  and  C9_15 
ROOT
HETATM    1  C1  UNL     1      58.671 -25.921 -33.974  1.00  0.00     0.013 C 
HETATM    2  C2  UNL     1      59.711 -26.156 -33.403  1.00  0.00    -0.087 C 
HETATM    3  C3  UNL     1      60.980 -26.469 -32.708  1.00  0.00     0.364 C 
ENDROOT
BRANCH   3   4
HETATM    4  N1  UNL     1      61.472 -27.690 -33.301  1.00  0.00     0.100 N 
HETATM    5  C4  UNL     1      62.051 -27.539 -34.586  1.00  0.00     0.275 C 
HETATM    6  C5  UNL     1      63.425 -28.113 -34.554  1.00  0.00     0.054 C 
HETATM    7  C6  UNL     1      63.556 -28.801 -33.226  1.00  0.00     0.051 C 
HETATM    8  C11 UNL     1      62.432 -28.269 -32.410  1.00  0.00     0.295 C 
BRANCH   7   9
HETATM    9  C7  UNL     1      63.580 -30.288 -33.370  1.00  0.00     0.144 C 
BRANCH   9  10
HETATM   10  N2  UNL     1      63.345 -30.774 -34.682  1.00  0.00    -0.363 N 
HETATM   11  C8  UNL     1      62.162 -31.482 -34.969  1.00  0.00     0.190 C 
HETATM   12  N3  UNL     1      62.077 -32.475 -35.965  1.00  0.00    -0.063 NA
HETATM   13  N4  UNL     1      61.104 -31.198 -34.276  1.00  0.00    -0.305 N 
HETATM   14  C9  UNL     1      59.875 -31.859 -34.497  1.00  0.00     0.188 C 
ATOM     15  H4  UNL     1      61.160 -30.479 -33.554  1.00  0.00     0.171 HD
HETATM   16  N5  UNL     1      59.807 -33.126 -34.339  1.00  0.00    -0.373 N 
HETATM   17  N6  UNL     1      58.729 -31.145 -34.888  1.00  0.00    -0.064 NA
ATOM     18  H52 UNL     1      60.639 -33.644 -34.056  1.00  0.00     0.158 HD
ATOM     19  H51 UNL     1      58.919 -33.603 -34.498  1.00  0.00     0.158 HD
ATOM     20  H2  UNL     1      64.033 -30.611 -35.418  1.00  0.00     0.162 HD
ENDBRANCH   9  10
ENDBRANCH   7   9
BRANCH   7  21
HETATM   21  S1  UNL     1      65.169 -28.303 -32.519  1.00  0.00    -0.160 SA
HETATM   22  C10 UNL     1      65.037 -26.612 -31.946  1.00  0.00     0.090 C 
ENDBRANCH   7  21
ENDBRANCH   3   4
TORSDOF 4
ENDMDL
