MODEL 1
REMARK VINA RESULT: -7.134692973      0.000      0.000
REMARK  16 active torsions:
REMARK  status: ('A' for Active; 'I' for Inactive)
REMARK    1  A    between atoms: C2_2  and  C4_4 
REMARK    2  A    between atoms: C4_4  and  C5_5 
REMARK    3  A    between atoms: C5_5  and  C6_6 
REMARK    4  A    between atoms: C6_6  and  C7_7 
REMARK    5  A    between atoms: C8_10  and  O1_11 
REMARK    6  A    between atoms: C9_13  and  C10_14 
REMARK    7  A    between atoms: C10_14  and  C11_15 
REMARK    8  A    between atoms: C16_23  and  C17_24 
REMARK    9  A    between atoms: C17_24  and  C18_25 
REMARK   10  A    between atoms: C22_32  and  C23_33 
REMARK   11  A    between atoms: C23_33  and  C24_34 
REMARK   12  A    between atoms: C28_41  and  C29_42 
REMARK   13  A    between atoms: N6_50  and  C34_51 
REMARK   14  A    between atoms: C34_51  and  C35_52 
REMARK   15  A    between atoms: C35_52  and  N7_53 
REMARK   16  A    between atoms: C36_57  and  O6_58 
ROOT
HETATM    1  C7  UNL     1      16.536  -7.651 -11.685  1.00  0.00     0.180 C 
HETATM    2  N1  UNL     1      17.940  -7.148 -11.765  1.00  0.00    -0.357 N 
ATOM      3  H1  UNL     1      18.218  -6.791 -12.679  1.00  0.00     0.162 HD
HETATM    4  C8  UNL     1      18.918  -7.093 -10.798  1.00  0.00     0.135 C 
HETATM    5  C9  UNL     1      19.621  -8.080  -9.980  1.00  0.00     0.159 C 
HETATM    6  N2  UNL     1      20.600  -8.792 -10.796  1.00  0.00    -0.349 N 
ATOM      7  H2  UNL     1      20.982  -8.277 -11.588  1.00  0.00     0.163 HD
HETATM    8  C14 UNL     1      21.076 -10.093 -10.623  1.00  0.00     0.220 C 
HETATM    9  O2  UNL     1      22.350 -10.189 -10.475  1.00  0.00    -0.274 OA
HETATM   10  C15 UNL     1      20.318 -11.353 -10.590  1.00  0.00     0.128 C 
HETATM   11  C16 UNL     1      21.064 -12.581 -11.000  1.00  0.00     0.093 C 
HETATM   12  N3  UNL     1      22.385 -12.433 -11.498  1.00  0.00    -0.354 N 
ATOM     13  H3  UNL     1      23.109 -12.359 -10.784  1.00  0.00     0.162 HD
HETATM   14  C21 UNL     1      22.853 -12.373 -12.826  1.00  0.00     0.240 C 
HETATM   15  O3  UNL     1      23.784 -13.178 -13.227  1.00  0.00    -0.271 OA
HETATM   16  C22 UNL     1      22.397 -11.456 -13.903  1.00  0.00     0.177 C 
HETATM   17  N4  UNL     1      21.983 -12.212 -15.073  1.00  0.00    -0.346 N 
ATOM     18  H4  UNL     1      22.606 -12.951 -15.401  1.00  0.00     0.163 HD
HETATM   19  C27 UNL     1      20.782 -12.000 -15.790  1.00  0.00     0.241 C 
HETATM   20  O4  UNL     1      20.190 -12.932 -16.388  1.00  0.00    -0.271 OA
HETATM   21  C28 UNL     1      20.127 -10.649 -15.889  1.00  0.00     0.180 C 
HETATM   22  N5  UNL     1      18.726 -10.802 -15.576  1.00  0.00    -0.346 N 
ATOM     23  H5  UNL     1      18.430 -11.743 -15.314  1.00  0.00     0.163 HD
HETATM   24  C32 UNL     1      17.724  -9.830 -15.586  1.00  0.00     0.236 C 
HETATM   25  O5  UNL     1      16.666 -10.067 -16.245  1.00  0.00    -0.272 OA
HETATM   26  C33 UNL     1      17.763  -8.504 -14.882  1.00  0.00     0.227 C 
HETATM   27  N6  UNL     1      16.476  -8.180 -14.249  1.00  0.00    -0.353 N 
HETATM   28  C36 UNL     1      16.165  -8.383 -12.887  1.00  0.00     0.141 C 
ENDROOT
BRANCH   1  29
HETATM   29  C6  UNL     1      15.663  -6.629 -11.134  1.00  0.00     0.002 C 
BRANCH  29  30
HETATM   30  C5  UNL     1      14.359  -6.913 -10.536  1.00  0.00    -0.028 C 
BRANCH  30  31
HETATM   31  C4  UNL     1      13.125  -6.986 -11.331  1.00  0.00     0.030 C 
BRANCH  31  32
HETATM   32  C2  UNL     1      12.545  -8.397 -11.115  1.00  0.00    -0.019 C 
HETATM   33  C1  UNL     1      11.035  -8.323 -11.005  1.00  0.00     0.010 C 
HETATM   34  C3  UNL     1      13.148  -8.967  -9.852  1.00  0.00     0.010 C 
ENDBRANCH  31  32
ENDBRANCH  30  31
ENDBRANCH  29  30
ENDBRANCH   1  29
BRANCH  28  35
HETATM   35  O6  UNL     1      15.404  -9.426 -12.660  1.00  0.00    -0.348 OA
ATOM     36  H6  UNL     1      14.534  -9.357 -13.035  1.00  0.00     0.219 HD
ENDBRANCH  28  35
BRANCH   4  37
HETATM   37  O1  UNL     1      19.321  -5.871 -10.544  1.00  0.00    -0.348 OA
ATOM     38  H1  UNL     1      20.008  -5.835  -9.888  1.00  0.00     0.219 HD
ENDBRANCH   4  37
BRANCH  27  39
HETATM   39  C34 UNL     1      15.467  -7.646 -15.148  1.00  0.00     0.152 C 
BRANCH  39  40
HETATM   40  C35 UNL     1      14.101  -8.273 -14.977  1.00  0.00     0.249 C 
BRANCH  40  41
HETATM   41  N7  UNL     1      14.038  -9.671 -15.224  1.00  0.00    -0.078 N 
ATOM     42  H73 UNL     1      14.041  -9.849 -16.228  1.00  0.00     0.274 HD
ATOM     43  H72 UNL     1      14.918 -10.112 -14.960  1.00  0.00     0.274 HD
ATOM     44  H71 UNL     1      13.257 -10.157 -14.784  1.00  0.00     0.274 HD
ENDBRANCH  40  41
ENDBRANCH  39  40
ENDBRANCH  27  39
BRANCH   5  45
HETATM   45  C10 UNL     1      18.824  -9.000  -9.128  1.00  0.00     0.037 C 
BRANCH  45  46
HETATM   46  C11 UNL     1      18.197  -8.302  -7.923  1.00  0.00    -0.020 C 
HETATM   47  C12 UNL     1      16.685  -8.451  -8.114  1.00  0.00     0.009 C 
HETATM   48  C13 UNL     1      18.652  -9.004  -6.664  1.00  0.00     0.009 C 
ENDBRANCH  45  46
ENDBRANCH   5  45
BRANCH  21  49
HETATM   49  C29 UNL     1      20.375 -10.234 -17.329  1.00  0.00     0.009 C 
HETATM   50  C30 UNL     1      20.576  -8.754 -17.478  1.00  0.00     0.012 C 
HETATM   51  C31 UNL     1      21.404 -11.009 -18.050  1.00  0.00     0.012 C 
ENDBRANCH  21  49
BRANCH  11  52
HETATM   52  C17 UNL     1      21.058 -13.567  -9.822  1.00  0.00     0.029 C 
BRANCH  52  53
HETATM   53  C18 UNL     1      22.299 -14.348  -9.651  1.00  0.00    -0.021 C 
HETATM   54  C19 UNL     1      21.976 -15.769 -10.162  1.00  0.00     0.009 C 
HETATM   55  C20 UNL     1      22.696 -14.536  -8.199  1.00  0.00     0.009 C 
ENDBRANCH  52  53
ENDBRANCH  11  52
BRANCH  16  56
HETATM   56  C23 UNL     1      23.400 -10.379 -14.196  1.00  0.00     0.038 C 
BRANCH  56  57
HETATM   57  C24 UNL     1      24.138 -10.466 -15.475  1.00  0.00    -0.020 C 
HETATM   58  C25 UNL     1      25.608 -10.728 -15.088  1.00  0.00     0.009 C 
HETATM   59  C26 UNL     1      24.142  -9.229 -16.307  1.00  0.00     0.009 C 
ENDBRANCH  56  57
ENDBRANCH  16  56
TORSDOF 16
ENDMDL
MODEL 2
REMARK VINA RESULT: -6.947343837      9.507     16.335
REMARK  16 active torsions:
REMARK  status: ('A' for Active; 'I' for Inactive)
REMARK    1  A    between atoms: C2_2  and  C4_4 
REMARK    2  A    between atoms: C4_4  and  C5_5 
REMARK    3  A    between atoms: C5_5  and  C6_6 
REMARK    4  A    between atoms: C6_6  and  C7_7 
REMARK    5  A    between atoms: C8_10  and  O1_11 
REMARK    6  A    between atoms: C9_13  and  C10_14 
REMARK    7  A    between atoms: C10_14  and  C11_15 
REMARK    8  A    between atoms: C16_23  and  C17_24 
REMARK    9  A    between atoms: C17_24  and  C18_25 
REMARK   10  A    between atoms: C22_32  and  C23_33 
REMARK   11  A    between atoms: C23_33  and  C24_34 
REMARK   12  A    between atoms: C28_41  and  C29_42 
REMARK   13  A    between atoms: N6_50  and  C34_51 
REMARK   14  A    between atoms: C34_51  and  C35_52 
REMARK   15  A    between atoms: C35_52  and  N7_53 
REMARK   16  A    between atoms: C36_57  and  O6_58 
ROOT
HETATM    1  C7  UNL     1      10.095  -7.364  -6.734  1.00  0.00     0.180 C 
HETATM    2  N1  UNL     1       8.735  -6.756  -6.628  1.00  0.00    -0.357 N 
ATOM      3  H1  UNL     1       8.550  -6.266  -5.753  1.00  0.00     0.162 HD
HETATM    4  C8  UNL     1       7.693  -6.755  -7.527  1.00  0.00     0.135 C 
HETATM    5  C9  UNL     1       6.870  -7.785  -8.159  1.00  0.00     0.159 C 
HETATM    6  N2  UNL     1       5.913  -8.315  -7.193  1.00  0.00    -0.349 N 
ATOM      7  H2  UNL     1       5.624  -7.677  -6.453  1.00  0.00     0.163 HD
HETATM    8  C14 UNL     1       5.344  -9.590  -7.161  1.00  0.00     0.220 C 
HETATM    9  O2  UNL     1       4.060  -9.612  -7.211  1.00  0.00    -0.274 OA
HETATM   10  C15 UNL     1       6.018 -10.895  -7.078  1.00  0.00     0.128 C 
HETATM   11  C16 UNL     1       5.229 -12.004  -6.460  1.00  0.00     0.093 C 
HETATM   12  N3  UNL     1       3.961 -11.700  -5.900  1.00  0.00    -0.354 N 
ATOM     13  H3  UNL     1       3.191 -11.665  -6.568  1.00  0.00     0.162 HD
HETATM   14  C21 UNL     1       3.599 -11.438  -4.564  1.00  0.00     0.240 C 
HETATM   15  O3  UNL     1       2.653 -12.116  -3.999  1.00  0.00    -0.271 OA
HETATM   16  C22 UNL     1       4.191 -10.426  -3.650  1.00  0.00     0.177 C 
HETATM   17  N4  UNL     1       4.643 -11.055  -2.421  1.00  0.00    -0.346 N 
ATOM     18  H4  UNL     1       4.002 -11.699  -1.957  1.00  0.00     0.163 HD
HETATM   19  C27 UNL     1       5.906 -10.841  -1.819  1.00  0.00     0.241 C 
HETATM   20  O4  UNL     1       6.481 -11.729  -1.143  1.00  0.00    -0.271 OA
HETATM   21  C28 UNL     1       6.649  -9.538  -1.943  1.00  0.00     0.180 C 
HETATM   22  N5  UNL     1       8.011  -9.830  -2.325  1.00  0.00    -0.346 N 
ATOM     23  H5  UNL     1       8.227 -10.815  -2.479  1.00  0.00     0.163 HD
HETATM   24  C32 UNL     1       9.070  -8.939  -2.510  1.00  0.00     0.236 C 
HETATM   25  O5  UNL     1      10.158  -9.165  -1.896  1.00  0.00    -0.272 OA
HETATM   26  C33 UNL     1       9.061  -7.714  -3.378  1.00  0.00     0.227 C 
HETATM   27  N6  UNL     1      10.315  -7.566  -4.132  1.00  0.00    -0.353 N 
HETATM   28  C36 UNL     1      10.509  -7.963  -5.473  1.00  0.00     0.141 C 
ENDROOT
BRANCH   1  29
HETATM   29  C6  UNL     1      10.986  -6.486  -7.472  1.00  0.00     0.002 C 
BRANCH  29  30
HETATM   30  C5  UNL     1      12.236  -6.931  -8.087  1.00  0.00    -0.028 C 
BRANCH  30  31
HETATM   31  C4  UNL     1      13.520  -6.912  -7.372  1.00  0.00     0.030 C 
BRANCH  31  32
HETATM   32  C2  UNL     1      14.122  -8.322  -7.510  1.00  0.00    -0.019 C 
HETATM   33  C1  UNL     1      15.566  -8.226  -7.960  1.00  0.00     0.010 C 
HETATM   34  C3  UNL     1      13.297  -9.091  -8.514  1.00  0.00     0.010 C 
ENDBRANCH  31  32
ENDBRANCH  30  31
ENDBRANCH  29  30
ENDBRANCH   1  29
BRANCH  28  35
HETATM   35  O6  UNL     1      11.184  -9.077  -5.611  1.00  0.00    -0.348 OA
ATOM     36  H6  UNL     1      11.519  -9.219  -6.489  1.00  0.00     0.219 HD
ENDBRANCH  28  35
BRANCH   4  37
HETATM   37  O1  UNL     1       7.349  -5.549  -7.912  1.00  0.00    -0.348 OA
ATOM     38  H1  UNL     1       6.643  -5.181  -7.394  1.00  0.00     0.219 HD
ENDBRANCH   4  37
BRANCH  27  39
HETATM   39  C34 UNL     1      11.419  -6.995  -3.380  1.00  0.00     0.152 C 
BRANCH  39  40
HETATM   40  C35 UNL     1      12.766  -7.595  -3.722  1.00  0.00     0.249 C 
BRANCH  40  41
HETATM   41  N7  UNL     1      13.001  -8.897  -3.203  1.00  0.00    -0.078 N 
ATOM     42  H73 UNL     1      13.490  -9.466  -3.895  1.00  0.00     0.274 HD
ATOM     43  H72 UNL     1      13.708  -8.858  -2.470  1.00  0.00     0.274 HD
ATOM     44  H71 UNL     1      12.174  -9.388  -2.867  1.00  0.00     0.274 HD
ENDBRANCH  40  41
ENDBRANCH  39  40
ENDBRANCH  27  39
BRANCH   5  45
HETATM   45  C10 UNL     1       7.542  -8.860  -8.933  1.00  0.00     0.037 C 
BRANCH  45  46
HETATM   46  C11 UNL     1       8.375  -8.325 -10.096  1.00  0.00    -0.020 C 
HETATM   47  C12 UNL     1       9.773  -8.917  -9.894  1.00  0.00     0.009 C 
HETATM   48  C13 UNL     1       7.768  -8.810 -11.392  1.00  0.00     0.009 C 
ENDBRANCH  45  46
ENDBRANCH   5  45
BRANCH  21  49
HETATM   49  C29 UNL     1       6.536  -8.927  -0.557  1.00  0.00     0.009 C 
HETATM   50  C30 UNL     1       6.224  -7.459  -0.596  1.00  0.00     0.012 C 
HETATM   51  C31 UNL     1       5.672  -9.653   0.395  1.00  0.00     0.012 C 
ENDBRANCH  21  49
BRANCH  11  52
HETATM   52  C17 UNL     1       5.086 -13.130  -7.496  1.00  0.00     0.029 C 
BRANCH  52  53
HETATM   53  C18 UNL     1       4.308 -14.302  -7.045  1.00  0.00    -0.021 C 
HETATM   54  C19 UNL     1       5.256 -15.514  -7.186  1.00  0.00     0.009 C 
HETATM   55  C20 UNL     1       3.127 -14.621  -7.941  1.00  0.00     0.009 C 
ENDBRANCH  52  53
ENDBRANCH  11  52
BRANCH  16  56
HETATM   56  C23 UNL     1       3.283  -9.252  -3.436  1.00  0.00     0.038 C 
BRANCH  56  57
HETATM   57  C24 UNL     1       2.884  -8.944  -2.045  1.00  0.00    -0.020 C 
HETATM   58  C25 UNL     1       1.539  -9.668  -1.829  1.00  0.00     0.009 C 
HETATM   59  C26 UNL     1       2.633  -7.505  -1.745  1.00  0.00     0.009 C 
ENDBRANCH  56  57
ENDBRANCH  16  56
TORSDOF 16
ENDMDL
MODEL 3
REMARK VINA RESULT: -6.816914403      2.452      4.152
REMARK  16 active torsions:
REMARK  status: ('A' for Active; 'I' for Inactive)
REMARK    1  A    between atoms: C2_2  and  C4_4 
REMARK    2  A    between atoms: C4_4  and  C5_5 
REMARK    3  A    between atoms: C5_5  and  C6_6 
REMARK    4  A    between atoms: C6_6  and  C7_7 
REMARK    5  A    between atoms: C8_10  and  O1_11 
REMARK    6  A    between atoms: C9_13  and  C10_14 
REMARK    7  A    between atoms: C10_14  and  C11_15 
REMARK    8  A    between atoms: C16_23  and  C17_24 
REMARK    9  A    between atoms: C17_24  and  C18_25 
REMARK   10  A    between atoms: C22_32  and  C23_33 
REMARK   11  A    between atoms: C23_33  and  C24_34 
REMARK   12  A    between atoms: C28_41  and  C29_42 
REMARK   13  A    between atoms: N6_50  and  C34_51 
REMARK   14  A    between atoms: C34_51  and  C35_52 
REMARK   15  A    between atoms: C35_52  and  N7_53 
REMARK   16  A    between atoms: C36_57  and  O6_58 
ROOT
HETATM    1  C7  UNL     1      19.231  -9.359 -14.606  1.00  0.00     0.180 C 
HETATM    2  N1  UNL     1      20.570  -8.906 -14.126  1.00  0.00    -0.357 N 
ATOM      3  H1  UNL     1      21.296  -8.873 -14.842  1.00  0.00     0.162 HD
HETATM    4  C8  UNL     1      20.978  -8.525 -12.867  1.00  0.00     0.135 C 
HETATM    5  C9  UNL     1      21.048  -9.178 -11.561  1.00  0.00     0.159 C 
HETATM    6  N2  UNL     1      22.165 -10.118 -11.537  1.00  0.00    -0.349 N 
ATOM      7  H2  UNL     1      22.950  -9.895 -12.148  1.00  0.00     0.163 HD
HETATM    8  C14 UNL     1      22.289 -11.284 -10.778  1.00  0.00     0.220 C 
HETATM    9  O2  UNL     1      23.312 -11.318 -10.000  1.00  0.00    -0.274 OA
HETATM   10  C15 UNL     1      21.411 -12.463 -10.757  1.00  0.00     0.128 C 
HETATM   11  C16 UNL     1      22.053 -13.754 -10.364  1.00  0.00     0.093 C 
HETATM   12  N3  UNL     1      23.458 -13.775 -10.162  1.00  0.00    -0.354 N 
ATOM     13  H3  UNL     1      23.766 -13.463  -9.242  1.00  0.00     0.162 HD
HETATM   14  C21 UNL     1      24.493 -14.161 -11.036  1.00  0.00     0.240 C 
HETATM   15  O3  UNL     1      25.360 -15.049 -10.669  1.00  0.00    -0.271 OA
HETATM   16  C22 UNL     1      24.748 -13.659 -12.411  1.00  0.00     0.177 C 
HETATM   17  N4  UNL     1      24.812 -14.765 -13.352  1.00  0.00    -0.346 N 
ATOM     18  H4  UNL     1      25.387 -15.568 -13.097  1.00  0.00     0.163 HD
HETATM   19  C27 UNL     1      24.136 -14.811 -14.594  1.00  0.00     0.241 C 
HETATM   20  O4  UNL     1      23.750 -15.893 -15.103  1.00  0.00    -0.271 OA
HETATM   21  C28 UNL     1      23.831 -13.574 -15.395  1.00  0.00     0.180 C 
HETATM   22  N5  UNL     1      22.441 -13.621 -15.786  1.00  0.00    -0.346 N 
ATOM     23  H5  UNL     1      21.910 -14.421 -15.442  1.00  0.00     0.163 HD
HETATM   24  C32 UNL     1      21.732 -12.713 -16.574  1.00  0.00     0.236 C 
HETATM   25  O5  UNL     1      21.081 -13.162 -17.567  1.00  0.00    -0.272 OA
HETATM   26  C33 UNL     1      21.651 -11.227 -16.367  1.00  0.00     0.227 C 
HETATM   27  N6  UNL     1      20.289 -10.716 -16.580  1.00  0.00    -0.353 N 
HETATM   28  C36 UNL     1      19.350 -10.453 -15.559  1.00  0.00     0.141 C 
ENDROOT
BRANCH   1  29
HETATM   29  C6  UNL     1      18.379  -8.216 -14.886  1.00  0.00     0.002 C 
BRANCH  29  30
HETATM   30  C5  UNL     1      16.921  -8.290 -14.959  1.00  0.00    -0.028 C 
BRANCH  30  31
HETATM   31  C4  UNL     1      16.046  -7.665 -13.956  1.00  0.00     0.030 C 
BRANCH  31  32
HETATM   32  C2  UNL     1      14.684  -8.376 -14.055  1.00  0.00    -0.019 C 
HETATM   33  C1  UNL     1      14.289  -8.924 -12.698  1.00  0.00     0.010 C 
HETATM   34  C3  UNL     1      14.805  -9.489 -15.069  1.00  0.00     0.010 C 
ENDBRANCH  31  32
ENDBRANCH  30  31
ENDBRANCH  29  30
ENDBRANCH   1  29
BRANCH  28  35
HETATM   35  O6  UNL     1      18.415 -11.363 -15.442  1.00  0.00    -0.348 OA
ATOM     36  H6  UNL     1      17.534 -11.028 -15.569  1.00  0.00     0.219 HD
ENDBRANCH  28  35
BRANCH   4  37
HETATM   37  O1  UNL     1      21.407  -7.287 -12.819  1.00  0.00    -0.348 OA
ATOM     38  H1  UNL     1      20.817  -6.707 -12.351  1.00  0.00     0.219 HD
ENDBRANCH   4  37
BRANCH  27  39
HETATM   39  C34 UNL     1      19.918 -10.519 -17.971  1.00  0.00     0.152 C 
BRANCH  39  40
HETATM   40  C35 UNL     1      20.664  -9.389 -18.648  1.00  0.00     0.249 C 
BRANCH  40  41
HETATM   41  N7  UNL     1      20.390  -8.090 -18.142  1.00  0.00    -0.078 N 
ATOM     42  H73 UNL     1      21.109  -7.817 -17.472  1.00  0.00     0.274 HD
ATOM     43  H72 UNL     1      20.547  -7.392 -18.868  1.00  0.00     0.274 HD
ATOM     44  H71 UNL     1      19.465  -7.967 -17.733  1.00  0.00     0.274 HD
ENDBRANCH  40  41
ENDBRANCH  39  40
ENDBRANCH  27  39
BRANCH   5  45
HETATM   45  C10 UNL     1      19.809  -9.763 -10.988  1.00  0.00     0.037 C 
BRANCH  45  46
HETATM   46  C11 UNL     1      19.099  -8.821 -10.018  1.00  0.00    -0.020 C 
HETATM   47  C12 UNL     1      20.204  -7.937  -9.434  1.00  0.00     0.009 C 
HETATM   48  C13 UNL     1      18.099  -7.992 -10.792  1.00  0.00     0.009 C 
ENDBRANCH  45  46
ENDBRANCH   5  45
BRANCH  21  49
HETATM   49  C29 UNL     1      24.786 -13.664 -16.573  1.00  0.00     0.009 C 
HETATM   50  C30 UNL     1      24.908 -12.368 -17.319  1.00  0.00     0.012 C 
HETATM   51  C31 UNL     1      26.103 -14.265 -16.285  1.00  0.00     0.012 C 
ENDBRANCH  21  49
BRANCH  11  52
HETATM   52  C17 UNL     1      21.338 -14.289  -9.113  1.00  0.00     0.029 C 
BRANCH  52  53
HETATM   53  C18 UNL     1      22.163 -15.144  -8.237  1.00  0.00    -0.021 C 
HETATM   54  C19 UNL     1      21.520 -16.548  -8.293  1.00  0.00     0.009 C 
HETATM   55  C20 UNL     1      22.101 -14.744  -6.775  1.00  0.00     0.009 C 
ENDBRANCH  52  53
ENDBRANCH  11  52
BRANCH  16  56
HETATM   56  C23 UNL     1      25.930 -12.738 -12.472  1.00  0.00     0.038 C 
BRANCH  56  57
HETATM   57  C24 UNL     1      25.695 -11.359 -12.955  1.00  0.00    -0.020 C 
HETATM   58  C25 UNL     1      26.634 -11.179 -14.166  1.00  0.00     0.009 C 
HETATM   59  C26 UNL     1      26.038 -10.269 -11.998  1.00  0.00     0.009 C 
ENDBRANCH  56  57
ENDBRANCH  16  56
TORSDOF 16
ENDMDL
MODEL 4
REMARK VINA RESULT: -6.681436961      8.748     15.632
REMARK  16 active torsions:
REMARK  status: ('A' for Active; 'I' for Inactive)
REMARK    1  A    between atoms: C2_2  and  C4_4 
REMARK    2  A    between atoms: C4_4  and  C5_5 
REMARK    3  A    between atoms: C5_5  and  C6_6 
REMARK    4  A    between atoms: C6_6  and  C7_7 
REMARK    5  A    between atoms: C8_10  and  O1_11 
REMARK    6  A    between atoms: C9_13  and  C10_14 
REMARK    7  A    between atoms: C10_14  and  C11_15 
REMARK    8  A    between atoms: C16_23  and  C17_24 
REMARK    9  A    between atoms: C17_24  and  C18_25 
REMARK   10  A    between atoms: C22_32  and  C23_33 
REMARK   11  A    between atoms: C23_33  and  C24_34 
REMARK   12  A    between atoms: C28_41  and  C29_42 
REMARK   13  A    between atoms: N6_50  and  C34_51 
REMARK   14  A    between atoms: C34_51  and  C35_52 
REMARK   15  A    between atoms: C35_52  and  N7_53 
REMARK   16  A    between atoms: C36_57  and  O6_58 
ROOT
HETATM    1  C7  UNL     1      10.959  -7.696  -6.688  1.00  0.00     0.180 C 
HETATM    2  N1  UNL     1       9.643  -7.067  -7.009  1.00  0.00    -0.357 N 
ATOM      3  H1  UNL     1       9.267  -6.460  -6.281  1.00  0.00     0.162 HD
HETATM    4  C8  UNL     1       8.859  -7.179  -8.135  1.00  0.00     0.135 C 
HETATM    5  C9  UNL     1       8.176  -8.278  -8.814  1.00  0.00     0.159 C 
HETATM    6  N2  UNL     1       6.986  -8.663  -8.062  1.00  0.00    -0.349 N 
ATOM      7  H2  UNL     1       6.550  -7.927  -7.507  1.00  0.00     0.163 HD
HETATM    8  C14 UNL     1       6.373  -9.916  -8.008  1.00  0.00     0.220 C 
HETATM    9  O2  UNL     1       5.141  -9.933  -8.377  1.00  0.00    -0.274 OA
HETATM   10  C15 UNL     1       6.947 -11.203  -7.588  1.00  0.00     0.128 C 
HETATM   11  C16 UNL     1       5.982 -12.210  -7.051  1.00  0.00     0.093 C 
HETATM   12  N3  UNL     1       4.629 -11.820  -6.874  1.00  0.00    -0.354 N 
ATOM     13  H3  UNL     1       4.052 -11.871  -7.713  1.00  0.00     0.162 HD
HETATM   14  C21 UNL     1       3.958 -11.375  -5.718  1.00  0.00     0.240 C 
HETATM   15  O3  UNL     1       2.872 -11.961  -5.327  1.00  0.00    -0.271 OA
HETATM   16  C22 UNL     1       4.346 -10.253  -4.824  1.00  0.00     0.177 C 
HETATM   17  N4  UNL     1       4.451 -10.712  -3.450  1.00  0.00    -0.346 N 
ATOM     18  H4  UNL     1       3.687 -11.281  -3.083  1.00  0.00     0.163 HD
HETATM   19  C27 UNL     1       5.532 -10.429  -2.582  1.00  0.00     0.241 C 
HETATM   20  O4  UNL     1       5.882 -11.222  -1.673  1.00  0.00    -0.271 OA
HETATM   21  C28 UNL     1       6.338  -9.162  -2.682  1.00  0.00     0.180 C 
HETATM   22  N5  UNL     1       7.738  -9.516  -2.666  1.00  0.00    -0.346 N 
ATOM     23  H5  UNL     1       7.943 -10.515  -2.632  1.00  0.00     0.163 HD
HETATM   24  C32 UNL     1       8.847  -8.669  -2.692  1.00  0.00     0.236 C 
HETATM   25  O5  UNL     1       9.737  -8.819  -1.800  1.00  0.00    -0.272 OA
HETATM   26  C33 UNL     1       9.108  -7.574  -3.687  1.00  0.00     0.227 C 
HETATM   27  N6  UNL     1      10.515  -7.542  -4.112  1.00  0.00    -0.353 N 
HETATM   28  C36 UNL     1      11.020  -8.120  -5.297  1.00  0.00     0.141 C 
ENDROOT
BRANCH   1  29
HETATM   29  C6  UNL     1      12.043  -6.935  -7.285  1.00  0.00     0.002 C 
BRANCH  29  30
HETATM   30  C5  UNL     1      12.857  -7.420  -8.398  1.00  0.00    -0.028 C 
BRANCH  30  31
HETATM   31  C4  UNL     1      13.108  -8.850  -8.630  1.00  0.00     0.030 C 
BRANCH  31  32
HETATM   32  C2  UNL     1      14.352  -8.939  -9.533  1.00  0.00    -0.019 C 
HETATM   33  C1  UNL     1      15.513  -8.209  -8.886  1.00  0.00     0.010 C 
HETATM   34  C3  UNL     1      14.010  -8.325 -10.870  1.00  0.00     0.010 C 
ENDBRANCH  31  32
ENDBRANCH  30  31
ENDBRANCH  29  30
ENDBRANCH   1  29
BRANCH  28  35
HETATM   35  O6  UNL     1      11.659  -9.249  -5.114  1.00  0.00    -0.348 OA
ATOM     36  H6  UNL     1      11.863  -9.711  -5.918  1.00  0.00     0.219 HD
ENDBRANCH  28  35
BRANCH   4  37
HETATM   37  O1  UNL     1       8.675  -6.034  -8.748  1.00  0.00    -0.348 OA
ATOM     38  H1  UNL     1       9.171  -5.322  -8.362  1.00  0.00     0.219 HD
ENDBRANCH   4  37
BRANCH  27  39
HETATM   39  C34 UNL     1      11.421  -6.884  -3.186  1.00  0.00     0.152 C 
BRANCH  39  40
HETATM   40  C35 UNL     1      12.774  -7.553  -3.075  1.00  0.00     0.249 C 
BRANCH  40  41
HETATM   41  N7  UNL     1      13.785  -7.027  -3.924  1.00  0.00    -0.078 N 
ATOM     42  H73 UNL     1      13.600  -7.288  -4.892  1.00  0.00     0.274 HD
ATOM     43  H72 UNL     1      13.693  -6.014  -3.990  1.00  0.00     0.274 HD
ATOM     44  H71 UNL     1      14.741  -7.276  -3.670  1.00  0.00     0.274 HD
ENDBRANCH  40  41
ENDBRANCH  39  40
ENDBRANCH  27  39
BRANCH   5  45
HETATM   45  C10 UNL     1       8.972  -9.455  -9.247  1.00  0.00     0.037 C 
BRANCH  45  46
HETATM   46  C11 UNL     1       9.230  -9.479 -10.752  1.00  0.00    -0.020 C 
HETATM   47  C12 UNL     1       7.891  -9.110 -11.396  1.00  0.00     0.009 C 
HETATM   48  C13 UNL     1      10.287  -8.450 -11.080  1.00  0.00     0.009 C 
ENDBRANCH  45  46
ENDBRANCH   5  45
BRANCH  21  49
HETATM   49  C29 UNL     1       5.910  -8.366  -1.461  1.00  0.00     0.009 C 
HETATM   50  C30 UNL     1       4.451  -8.017  -1.481  1.00  0.00     0.012 C 
HETATM   51  C31 UNL     1       6.332  -8.917  -0.158  1.00  0.00     0.012 C 
ENDBRANCH  21  49
BRANCH  11  52
HETATM   52  C17 UNL     1       6.052 -13.466  -7.934  1.00  0.00     0.029 C 
BRANCH  52  53
HETATM   53  C18 UNL     1       5.290 -14.627  -7.434  1.00  0.00    -0.021 C 
HETATM   54  C19 UNL     1       6.011 -15.875  -7.991  1.00  0.00     0.009 C 
HETATM   55  C20 UNL     1       3.882 -14.708  -7.993  1.00  0.00     0.009 C 
ENDBRANCH  52  53
ENDBRANCH  11  52
BRANCH  16  56
HETATM   56  C23 UNL     1       3.465  -9.052  -5.001  1.00  0.00     0.038 C 
BRANCH  56  57
HETATM   57  C24 UNL     1       2.965  -8.769  -6.364  1.00  0.00    -0.020 C 
HETATM   58  C25 UNL     1       3.802  -7.578  -6.874  1.00  0.00     0.009 C 
HETATM   59  C26 UNL     1       1.539  -8.344  -6.457  1.00  0.00     0.009 C 
ENDBRANCH  56  57
ENDBRANCH  16  56
TORSDOF 16
ENDMDL
MODEL 5
REMARK VINA RESULT: -6.125419056      2.401      7.269
REMARK  16 active torsions:
REMARK  status: ('A' for Active; 'I' for Inactive)
REMARK    1  A    between atoms: C2_2  and  C4_4 
REMARK    2  A    between atoms: C4_4  and  C5_5 
REMARK    3  A    between atoms: C5_5  and  C6_6 
REMARK    4  A    between atoms: C6_6  and  C7_7 
REMARK    5  A    between atoms: C8_10  and  O1_11 
REMARK    6  A    between atoms: C9_13  and  C10_14 
REMARK    7  A    between atoms: C10_14  and  C11_15 
REMARK    8  A    between atoms: C16_23  and  C17_24 
REMARK    9  A    between atoms: C17_24  and  C18_25 
REMARK   10  A    between atoms: C22_32  and  C23_33 
REMARK   11  A    between atoms: C23_33  and  C24_34 
REMARK   12  A    between atoms: C28_41  and  C29_42 
REMARK   13  A    between atoms: N6_50  and  C34_51 
REMARK   14  A    between atoms: C34_51  and  C35_52 
REMARK   15  A    between atoms: C35_52  and  N7_53 
REMARK   16  A    between atoms: C36_57  and  O6_58 
ROOT
HETATM    1  C7  UNL     1      19.599  -8.514 -13.742  1.00  0.00     0.180 C 
HETATM    2  N1  UNL     1      19.575  -9.969 -14.074  1.00  0.00    -0.357 N 
ATOM      3  H1  UNL     1      19.541 -10.594 -13.269  1.00  0.00     0.162 HD
HETATM    4  C8  UNL     1      19.592 -10.599 -15.299  1.00  0.00     0.135 C 
HETATM    5  C9  UNL     1      20.525 -10.650 -16.422  1.00  0.00     0.159 C 
HETATM    6  N2  UNL     1      21.668 -11.490 -16.080  1.00  0.00    -0.349 N 
ATOM      7  H2  UNL     1      21.491 -12.232 -15.403  1.00  0.00     0.163 HD
HETATM    8  C14 UNL     1      22.974 -11.401 -16.566  1.00  0.00     0.220 C 
HETATM    9  O2  UNL     1      23.410 -12.464 -17.143  1.00  0.00    -0.274 OA
HETATM   10  C15 UNL     1      23.903 -10.263 -16.502  1.00  0.00     0.128 C 
HETATM   11  C16 UNL     1      25.359 -10.600 -16.525  1.00  0.00     0.093 C 
HETATM   12  N3  UNL     1      25.736 -11.968 -16.484  1.00  0.00    -0.354 N 
ATOM     13  H3  UNL     1      25.718 -12.447 -17.385  1.00  0.00     0.162 HD
HETATM   14  C21 UNL     1      26.131 -12.768 -15.394  1.00  0.00     0.240 C 
HETATM   15  O3  UNL     1      27.248 -13.420 -15.434  1.00  0.00    -0.271 OA
HETATM   16  C22 UNL     1      25.397 -12.984 -14.120  1.00  0.00     0.177 C 
HETATM   17  N4  UNL     1      26.245 -12.661 -12.985  1.00  0.00    -0.346 N 
ATOM     18  H4  UNL     1      27.192 -13.041 -12.980  1.00  0.00     0.163 HD
HETATM   19  C27 UNL     1      25.856 -11.859 -11.886  1.00  0.00     0.241 C 
HETATM   20  O4  UNL     1      26.679 -11.159 -11.247  1.00  0.00    -0.271 OA
HETATM   21  C28 UNL     1      24.432 -11.787 -11.402  1.00  0.00     0.180 C 
HETATM   22  N5  UNL     1      24.080 -10.395 -11.244  1.00  0.00    -0.346 N 
ATOM     23  H5  UNL     1      24.799  -9.722 -11.508  1.00  0.00     0.163 HD
HETATM   24  C32 UNL     1      22.882  -9.852 -10.775  1.00  0.00     0.236 C 
HETATM   25  O5  UNL     1      22.937  -9.002  -9.835  1.00  0.00    -0.272 OA
HETATM   26  C33 UNL     1      21.503 -10.172 -11.277  1.00  0.00     0.227 C 
HETATM   27  N6  UNL     1      20.668  -8.967 -11.395  1.00  0.00    -0.353 N 
HETATM   28  C36 UNL     1      20.445  -8.246 -12.588  1.00  0.00     0.141 C 
ENDROOT
BRANCH   1  29
HETATM   29  C6  UNL     1      18.262  -7.951 -13.834  1.00  0.00     0.002 C 
BRANCH  29  30
HETATM   30  C5  UNL     1      17.450  -7.987 -15.049  1.00  0.00    -0.028 C 
BRANCH  30  31
HETATM   31  C4  UNL     1      16.022  -7.638 -15.055  1.00  0.00     0.030 C 
BRANCH  31  32
HETATM   32  C2  UNL     1      15.308  -8.684 -14.179  1.00  0.00    -0.019 C 
HETATM   33  C1  UNL     1      14.313  -9.465 -15.014  1.00  0.00     0.010 C 
HETATM   34  C3  UNL     1      14.611  -7.960 -13.052  1.00  0.00     0.010 C 
ENDBRANCH  31  32
ENDBRANCH  30  31
ENDBRANCH  29  30
ENDBRANCH   1  29
BRANCH  28  35
HETATM   35  O6  UNL     1      21.127  -7.131 -12.677  1.00  0.00    -0.348 OA
ATOM     36  H6  UNL     1      21.751  -7.003 -11.972  1.00  0.00     0.219 HD
ENDBRANCH  28  35
BRANCH   4  37
HETATM   37  O1  UNL     1      18.524 -11.328 -15.515  1.00  0.00    -0.348 OA
ATOM     38  H1  UNL     1      18.488 -12.106 -14.971  1.00  0.00     0.219 HD
ENDBRANCH   4  37
BRANCH  27  39
HETATM   39  C34 UNL     1      20.081  -8.503 -10.150  1.00  0.00     0.152 C 
BRANCH  39  40
HETATM   40  C35 UNL     1      18.585  -8.285 -10.223  1.00  0.00     0.249 C 
BRANCH  40  41
HETATM   41  N7  UNL     1      18.162  -6.933 -10.117  1.00  0.00    -0.078 N 
ATOM     42  H73 UNL     1      17.493  -6.834  -9.354  1.00  0.00     0.274 HD
ATOM     43  H72 UNL     1      18.924  -6.354  -9.764  1.00  0.00     0.274 HD
ATOM     44  H71 UNL     1      17.781  -6.527 -10.972  1.00  0.00     0.274 HD
ENDBRANCH  40  41
ENDBRANCH  39  40
ENDBRANCH  27  39
BRANCH   5  45
HETATM   45  C10 UNL     1      20.937  -9.377 -17.067  1.00  0.00     0.037 C 
BRANCH  45  46
HETATM   46  C11 UNL     1      20.511  -9.284 -18.531  1.00  0.00    -0.020 C 
HETATM   47  C12 UNL     1      21.339  -8.139 -19.119  1.00  0.00     0.009 C 
HETATM   48  C13 UNL     1      20.838 -10.592 -19.215  1.00  0.00     0.009 C 
ENDBRANCH  45  46
ENDBRANCH   5  45
BRANCH  21  49
HETATM   49  C29 UNL     1      24.460 -12.549 -10.089  1.00  0.00     0.009 C 
HETATM   50  C30 UNL     1      23.134 -13.166  -9.750  1.00  0.00     0.012 C 
HETATM   51  C31 UNL     1      25.574 -13.503  -9.925  1.00  0.00     0.012 C 
ENDBRANCH  21  49
BRANCH  11  52
HETATM   52  C17 UNL     1      25.993  -9.920 -17.747  1.00  0.00     0.029 C 
BRANCH  52  53
HETATM   53  C18 UNL     1      25.044  -9.232 -18.646  1.00  0.00    -0.021 C 
HETATM   54  C19 UNL     1      25.031 -10.056 -19.953  1.00  0.00     0.009 C 
HETATM   55  C20 UNL     1      25.503  -7.847 -19.060  1.00  0.00     0.009 C 
ENDBRANCH  52  53
ENDBRANCH  11  52
BRANCH  16  56
HETATM   56  C23 UNL     1      24.771 -14.345 -14.046  1.00  0.00     0.038 C 
BRANCH  56  57
HETATM   57  C24 UNL     1      23.297 -14.412 -13.943  1.00  0.00    -0.020 C 
HETATM   58  C25 UNL     1      23.007 -15.290 -12.709  1.00  0.00     0.009 C 
HETATM   59  C26 UNL     1      22.596 -15.060 -15.088  1.00  0.00     0.009 C 
ENDBRANCH  56  57
ENDBRANCH  16  56
TORSDOF 16
ENDMDL
