MODEL 1
REMARK VINA RESULT: -6.714447840      0.000      0.000
REMARK  13 active torsions:
REMARK  status: ('A' for Active; 'I' for Inactive)
REMARK    1  A    between atoms: C2_2  and  C3_3 
REMARK    2  A    between atoms: C5_8  and  C6_9 
REMARK    3  A    between atoms: C6_9  and  C7_10 
REMARK    4  A    between atoms: C11_17  and  C12_18 
REMARK    5  A    between atoms: C12_18  and  C13_19 
REMARK    6  A    between atoms: C17_26  and  C18_27 
REMARK    7  A    between atoms: C18_27  and  C19_28 
REMARK    8  A    between atoms: C23_35  and  C24_36 
REMARK    9  A    between atoms: C24_36  and  C25_37 
REMARK   10  A    between atoms: C29_44  and  C30_45 
REMARK   11  A    between atoms: C30_45  and  C31_46 
REMARK   12  A    between atoms: C31_46  and  C32_47 
REMARK   13  A    between atoms: C32_47  and  C34_49 
ROOT
HETATM    1  C3  UNL     1      20.454 -10.413 -11.231  1.00  0.00     0.176 C 
HETATM    2  N1  UNL     1      20.536  -8.982 -11.491  1.00  0.00    -0.346 N 
ATOM      3  H1  UNL     1      20.624  -8.395 -10.661  1.00  0.00     0.163 HD
HETATM    4  C4  UNL     1      20.511  -8.298 -12.704  1.00  0.00     0.241 C 
HETATM    5  O1  UNL     1      21.540  -7.641 -13.031  1.00  0.00    -0.271 OA
HETATM    6  C5  UNL     1      19.399  -8.231 -13.706  1.00  0.00     0.177 C 
HETATM    7  N2  UNL     1      19.012  -9.517 -14.180  1.00  0.00    -0.346 N 
ATOM      8  H2  UNL     1      18.356 -10.000 -13.567  1.00  0.00     0.163 HD
HETATM    9  C10 UNL     1      19.354 -10.242 -15.314  1.00  0.00     0.241 C 
HETATM   10  O2  UNL     1      18.407 -10.950 -15.835  1.00  0.00    -0.271 OA
HETATM   11  C11 UNL     1      20.640 -10.346 -16.032  1.00  0.00     0.177 C 
HETATM   12  N3  UNL     1      21.713 -10.747 -15.142  1.00  0.00    -0.346 N 
ATOM     13  H3  UNL     1      21.422 -10.923 -14.180  1.00  0.00     0.163 HD
HETATM   14  C16 UNL     1      23.062 -10.929 -15.377  1.00  0.00     0.241 C 
HETATM   15  O3  UNL     1      23.854 -10.233 -14.619  1.00  0.00    -0.271 OA
HETATM   16  C17 UNL     1      23.786 -11.773 -16.331  1.00  0.00     0.177 C 
HETATM   17  N4  UNL     1      24.544 -12.836 -15.699  1.00  0.00    -0.346 N 
ATOM     18  H4  UNL     1      25.304 -13.207 -16.270  1.00  0.00     0.163 HD
HETATM   19  C22 UNL     1      24.421 -13.430 -14.467  1.00  0.00     0.241 C 
HETATM   20  O4  UNL     1      25.447 -13.380 -13.685  1.00  0.00    -0.271 OA
HETATM   21  C23 UNL     1      23.255 -14.147 -13.873  1.00  0.00     0.177 C 
HETATM   22  N5  UNL     1      23.477 -14.575 -12.517  1.00  0.00    -0.346 N 
ATOM     23  H5  UNL     1      24.420 -14.902 -12.308  1.00  0.00     0.163 HD
HETATM   24  C28 UNL     1      22.585 -14.605 -11.451  1.00  0.00     0.241 C 
HETATM   25  O5  UNL     1      22.382 -15.744 -10.878  1.00  0.00    -0.271 OA
HETATM   26  C29 UNL     1      21.807 -13.495 -10.853  1.00  0.00     0.176 C 
HETATM   27  N7  UNL     1      22.330 -12.205 -11.219  1.00  0.00    -0.346 N 
ATOM     28  H7  UNL     1      23.193 -12.224 -11.763  1.00  0.00     0.163 HD
HETATM   29  C35 UNL     1      21.839 -10.943 -10.943  1.00  0.00     0.241 C 
HETATM   30  O7  UNL     1      22.601 -10.075 -10.378  1.00  0.00    -0.271 OA
ENDROOT
BRANCH  26  31
HETATM   31  C30 UNL     1      21.973 -13.683  -9.331  1.00  0.00     0.035 C 
BRANCH  31  32
HETATM   32  C31 UNL     1      20.583 -13.880  -8.779  1.00  0.00     0.015 C 
BRANCH  32  33
HETATM   33  C32 UNL     1      20.589 -14.757  -7.545  1.00  0.00     0.071 C 
HETATM   34  C33 UNL     1      21.963 -15.238  -7.173  1.00  0.00     0.019 C 
BRANCH  33  35
HETATM   35  C34 UNL     1      19.699 -15.921  -7.795  1.00  0.00     0.234 C 
HETATM   36  N6  UNL     1      18.434 -15.994  -7.193  1.00  0.00    -0.062 NA
HETATM   37  O6  UNL     1      20.053 -16.876  -8.556  1.00  0.00    -0.277 OA
ENDBRANCH  33  35
ENDBRANCH  32  33
ENDBRANCH  31  32
ENDBRANCH  26  31
BRANCH  21  38
HETATM   38  C24 UNL     1      22.706 -15.204 -14.762  1.00  0.00     0.038 C 
BRANCH  38  39
HETATM   39  C25 UNL     1      23.671 -15.972 -15.594  1.00  0.00    -0.020 C 
HETATM   40  C26 UNL     1      22.987 -16.436 -16.899  1.00  0.00     0.009 C 
HETATM   41  C27 UNL     1      24.070 -17.245 -14.894  1.00  0.00     0.009 C 
ENDBRANCH  38  39
ENDBRANCH  21  38
BRANCH   1  42
HETATM   42  C2  UNL     1      19.654 -10.648  -9.946  1.00  0.00     0.030 C 
HETATM   43  C1  UNL     1      19.150  -9.374  -9.331  1.00  0.00     0.007 C 
ENDBRANCH   1  42
BRANCH  16  44
HETATM   44  C18 UNL     1      23.014 -12.329 -17.466  1.00  0.00     0.038 C 
BRANCH  44  45
HETATM   45  C19 UNL     1      23.990 -12.921 -18.494  1.00  0.00    -0.020 C 
HETATM   46  C20 UNL     1      23.085 -13.674 -19.485  1.00  0.00     0.009 C 
HETATM   47  C21 UNL     1      24.701 -11.872 -19.280  1.00  0.00     0.009 C 
ENDBRANCH  44  45
ENDBRANCH  16  44
BRANCH   6  48
HETATM   48  C6  UNL     1      18.246  -7.447 -13.156  1.00  0.00     0.038 C 
BRANCH  48  49
HETATM   49  C7  UNL     1      16.978  -8.150 -12.862  1.00  0.00    -0.020 C 
HETATM   50  C8  UNL     1      16.429  -8.120 -11.489  1.00  0.00     0.009 C 
HETATM   51  C9  UNL     1      15.886  -7.778 -13.875  1.00  0.00     0.009 C 
ENDBRANCH  48  49
ENDBRANCH   6  48
BRANCH  11  52
HETATM   52  C12 UNL     1      20.990  -9.227 -16.945  1.00  0.00     0.038 C 
BRANCH  52  53
HETATM   53  C13 UNL     1      20.827  -9.469 -18.405  1.00  0.00    -0.020 C 
HETATM   54  C14 UNL     1      22.072  -9.200 -19.214  1.00  0.00     0.009 C 
HETATM   55  C15 UNL     1      20.239 -10.766 -18.817  1.00  0.00     0.009 C 
ENDBRANCH  52  53
ENDBRANCH  11  52
TORSDOF 13
ENDMDL
MODEL 2
REMARK VINA RESULT: -6.692264722      3.556      8.316
REMARK  13 active torsions:
REMARK  status: ('A' for Active; 'I' for Inactive)
REMARK    1  A    between atoms: C2_2  and  C3_3 
REMARK    2  A    between atoms: C5_8  and  C6_9 
REMARK    3  A    between atoms: C6_9  and  C7_10 
REMARK    4  A    between atoms: C11_17  and  C12_18 
REMARK    5  A    between atoms: C12_18  and  C13_19 
REMARK    6  A    between atoms: C17_26  and  C18_27 
REMARK    7  A    between atoms: C18_27  and  C19_28 
REMARK    8  A    between atoms: C23_35  and  C24_36 
REMARK    9  A    between atoms: C24_36  and  C25_37 
REMARK   10  A    between atoms: C29_44  and  C30_45 
REMARK   11  A    between atoms: C30_45  and  C31_46 
REMARK   12  A    between atoms: C31_46  and  C32_47 
REMARK   13  A    between atoms: C32_47  and  C34_49 
ROOT
HETATM    1  C3  UNL     1      17.294  -9.219 -13.978  1.00  0.00     0.176 C 
HETATM    2  N1  UNL     1      18.035  -9.260 -15.231  1.00  0.00    -0.346 N 
ATOM      3  H1  UNL     1      17.501  -8.996 -16.059  1.00  0.00     0.163 HD
HETATM    4  C4  UNL     1      19.364  -9.607 -15.465  1.00  0.00     0.241 C 
HETATM    5  O1  UNL     1      20.133  -8.717 -15.925  1.00  0.00    -0.271 OA
HETATM    6  C5  UNL     1      20.027 -10.932 -15.241  1.00  0.00     0.177 C 
HETATM    7  N2  UNL     1      19.929 -11.371 -13.890  1.00  0.00    -0.346 N 
ATOM      8  H2  UNL     1      19.048 -11.839 -13.674  1.00  0.00     0.163 HD
HETATM    9  C10 UNL     1      20.796 -11.288 -12.809  1.00  0.00     0.241 C 
HETATM   10  O2  UNL     1      20.800 -12.304 -12.011  1.00  0.00    -0.271 OA
HETATM   11  C11 UNL     1      21.726 -10.212 -12.409  1.00  0.00     0.177 C 
HETATM   12  N3  UNL     1      21.042  -8.940 -12.284  1.00  0.00    -0.346 N 
ATOM     13  H3  UNL     1      20.037  -8.980 -12.456  1.00  0.00     0.163 HD
HETATM   14  C16 UNL     1      21.521  -7.682 -11.971  1.00  0.00     0.241 C 
HETATM   15  O3  UNL     1      21.260  -6.758 -12.844  1.00  0.00    -0.271 OA
HETATM   16  C17 UNL     1      22.278  -7.179 -10.821  1.00  0.00     0.177 C 
HETATM   17  N4  UNL     1      21.527  -6.248 -10.001  1.00  0.00    -0.346 N 
ATOM     18  H4  UNL     1      22.105  -5.637  -9.423  1.00  0.00     0.163 HD
HETATM   19  C22 UNL     1      20.176  -6.043  -9.864  1.00  0.00     0.241 C 
HETATM   20  O4  UNL     1      19.731  -4.860 -10.128  1.00  0.00    -0.271 OA
HETATM   21  C23 UNL     1      19.110  -6.999  -9.445  1.00  0.00     0.177 C 
HETATM   22  N5  UNL     1      17.787  -6.437  -9.491  1.00  0.00    -0.346 N 
ATOM     23  H5  UNL     1      17.715  -5.459  -9.211  1.00  0.00     0.163 HD
HETATM   24  C28 UNL     1      16.591  -7.041  -9.865  1.00  0.00     0.241 C 
HETATM   25  O5  UNL     1      15.635  -7.051  -8.996  1.00  0.00    -0.271 OA
HETATM   26  C29 UNL     1      16.235  -7.692 -11.146  1.00  0.00     0.176 C 
HETATM   27  N7  UNL     1      17.131  -7.326 -12.211  1.00  0.00    -0.346 N 
ATOM     28  H7  UNL     1      17.828  -6.622 -11.969  1.00  0.00     0.163 HD
HETATM   29  C35 UNL     1      17.188  -7.786 -13.513  1.00  0.00     0.241 C 
HETATM   30  O7  UNL     1      17.154  -6.944 -14.485  1.00  0.00    -0.271 OA
ENDROOT
BRANCH  26  31
HETATM   31  C30 UNL     1      14.827  -7.153 -11.476  1.00  0.00     0.035 C 
BRANCH  31  32
HETATM   32  C31 UNL     1      13.911  -8.351 -11.483  1.00  0.00     0.015 C 
BRANCH  32  33
HETATM   33  C32 UNL     1      12.605  -8.063 -10.773  1.00  0.00     0.071 C 
HETATM   34  C33 UNL     1      12.504  -6.645 -10.285  1.00  0.00     0.019 C 
BRANCH  33  35
HETATM   35  C34 UNL     1      12.481  -9.000  -9.626  1.00  0.00     0.234 C 
HETATM   36  N6  UNL     1      13.562  -9.812  -9.250  1.00  0.00    -0.062 NA
HETATM   37  O6  UNL     1      11.404  -9.093  -8.957  1.00  0.00    -0.277 OA
ENDBRANCH  33  35
ENDBRANCH  32  33
ENDBRANCH  31  32
ENDBRANCH  26  31
BRANCH  21  38
HETATM   38  C24 UNL     1      19.427  -7.706  -8.177  1.00  0.00     0.038 C 
BRANCH  38  39
HETATM   39  C25 UNL     1      19.177  -9.172  -8.127  1.00  0.00    -0.020 C 
HETATM   40  C26 UNL     1      19.066  -9.736  -9.561  1.00  0.00     0.009 C 
HETATM   41  C27 UNL     1      17.839  -9.456  -7.498  1.00  0.00     0.009 C 
ENDBRANCH  38  39
ENDBRANCH  21  38
BRANCH   1  42
HETATM   42  C2  UNL     1      15.852  -9.672 -14.228  1.00  0.00     0.030 C 
HETATM   43  C1  UNL     1      15.422  -9.488 -15.655  1.00  0.00     0.007 C 
ENDBRANCH   1  42
BRANCH  16  44
HETATM   44  C18 UNL     1      22.934  -8.182  -9.950  1.00  0.00     0.038 C 
BRANCH  44  45
HETATM   45  C19 UNL     1      24.147  -7.535  -9.266  1.00  0.00    -0.020 C 
HETATM   46  C20 UNL     1      25.028  -8.726  -8.852  1.00  0.00     0.009 C 
HETATM   47  C21 UNL     1      24.960  -6.708 -10.204  1.00  0.00     0.009 C 
ENDBRANCH  44  45
ENDBRANCH  16  44
BRANCH   6  48
HETATM   48  C6  UNL     1      19.513 -11.947 -16.217  1.00  0.00     0.038 C 
BRANCH  48  49
HETATM   49  C7  UNL     1      20.483 -12.756 -16.986  1.00  0.00    -0.020 C 
HETATM   50  C8  UNL     1      20.691 -14.176 -16.631  1.00  0.00     0.009 C 
HETATM   51  C9  UNL     1      20.251 -12.617 -18.497  1.00  0.00     0.009 C 
ENDBRANCH  48  49
ENDBRANCH   6  48
BRANCH  11  52
HETATM   52  C12 UNL     1      23.020 -10.140 -13.137  1.00  0.00     0.038 C 
BRANCH  52  53
HETATM   53  C13 UNL     1      24.208 -10.733 -12.463  1.00  0.00    -0.020 C 
HETATM   54  C14 UNL     1      25.386  -9.796 -12.362  1.00  0.00     0.009 C 
HETATM   55  C15 UNL     1      23.987 -11.393 -11.154  1.00  0.00     0.009 C 
ENDBRANCH  52  53
ENDBRANCH  11  52
TORSDOF 13
ENDMDL
MODEL 3
REMARK VINA RESULT: -6.133145873      2.958      8.300
REMARK  13 active torsions:
REMARK  status: ('A' for Active; 'I' for Inactive)
REMARK    1  A    between atoms: C2_2  and  C3_3 
REMARK    2  A    between atoms: C5_8  and  C6_9 
REMARK    3  A    between atoms: C6_9  and  C7_10 
REMARK    4  A    between atoms: C11_17  and  C12_18 
REMARK    5  A    between atoms: C12_18  and  C13_19 
REMARK    6  A    between atoms: C17_26  and  C18_27 
REMARK    7  A    between atoms: C18_27  and  C19_28 
REMARK    8  A    between atoms: C23_35  and  C24_36 
REMARK    9  A    between atoms: C24_36  and  C25_37 
REMARK   10  A    between atoms: C29_44  and  C30_45 
REMARK   11  A    between atoms: C30_45  and  C31_46 
REMARK   12  A    between atoms: C31_46  and  C32_47 
REMARK   13  A    between atoms: C32_47  and  C34_49 
ROOT
HETATM    1  C3  UNL     1      20.609 -11.095 -16.398  1.00  0.00     0.176 C 
HETATM    2  N1  UNL     1      21.808 -11.389 -17.170  1.00  0.00    -0.346 N 
ATOM      3  H1  UNL     1      21.762 -11.137 -18.157  1.00  0.00     0.163 HD
HETATM    4  C4  UNL     1      23.008 -11.965 -16.758  1.00  0.00     0.241 C 
HETATM    5  O1  UNL     1      24.056 -11.263 -16.836  1.00  0.00    -0.271 OA
HETATM    6  C5  UNL     1      23.236 -13.346 -16.222  1.00  0.00     0.177 C 
HETATM    7  N2  UNL     1      22.462 -13.613 -15.056  1.00  0.00    -0.346 N 
ATOM      8  H2  UNL     1      21.507 -13.910 -15.257  1.00  0.00     0.163 HD
HETATM    9  C10 UNL     1      22.754 -13.550 -13.700  1.00  0.00     0.241 C 
HETATM   10  O2  UNL     1      22.208 -14.461 -12.964  1.00  0.00    -0.271 OA
HETATM   11  C11 UNL     1      23.593 -12.598 -12.944  1.00  0.00     0.177 C 
HETATM   12  N3  UNL     1      23.181 -11.227 -13.180  1.00  0.00    -0.346 N 
ATOM     13  H3  UNL     1      22.372 -11.127 -13.793  1.00  0.00     0.163 HD
HETATM   14  C16 UNL     1      23.699 -10.035 -12.713  1.00  0.00     0.241 C 
HETATM   15  O3  UNL     1      24.038  -9.182 -13.632  1.00  0.00    -0.271 OA
HETATM   16  C17 UNL     1      23.943  -9.535 -11.357  1.00  0.00     0.177 C 
HETATM   17  N4  UNL     1      23.098  -8.413 -10.997  1.00  0.00    -0.346 N 
ATOM     18  H4  UNL     1      23.461  -7.841 -10.234  1.00  0.00     0.163 HD
HETATM   19  C22 UNL     1      21.895  -7.983 -11.501  1.00  0.00     0.241 C 
HETATM   20  O4  UNL     1      21.849  -6.781 -11.970  1.00  0.00    -0.271 OA
HETATM   21  C23 UNL     1      20.593  -8.708 -11.595  1.00  0.00     0.177 C 
HETATM   22  N5  UNL     1      19.564  -7.952 -12.258  1.00  0.00    -0.346 N 
ATOM     23  H5  UNL     1      19.562  -6.950 -12.066  1.00  0.00     0.163 HD
HETATM   24  C28 UNL     1      18.571  -8.397 -13.124  1.00  0.00     0.241 C 
HETATM   25  O5  UNL     1      17.345  -8.161 -12.791  1.00  0.00    -0.271 OA
HETATM   26  C29 UNL     1      18.708  -9.120 -14.409  1.00  0.00     0.176 C 
HETATM   27  N7  UNL     1      20.037  -9.019 -14.952  1.00  0.00    -0.346 N 
ATOM     28  H7  UNL     1      20.672  -8.411 -14.434  1.00  0.00     0.163 HD
HETATM   29  C35 UNL     1      20.582  -9.621 -16.070  1.00  0.00     0.241 C 
HETATM   30  O7  UNL     1      21.146  -8.896 -16.970  1.00  0.00    -0.271 OA
ENDROOT
BRANCH  26  31
HETATM   31  C30 UNL     1      17.728  -8.404 -15.362  1.00  0.00     0.035 C 
BRANCH  31  32
HETATM   32  C31 UNL     1      16.733  -9.449 -15.801  1.00  0.00     0.015 C 
BRANCH  32  33
HETATM   33  C32 UNL     1      15.308  -8.947 -15.695  1.00  0.00     0.071 C 
HETATM   34  C33 UNL     1      15.224  -7.456 -15.523  1.00  0.00     0.019 C 
BRANCH  33  35
HETATM   35  C34 UNL     1      14.658  -9.624 -14.543  1.00  0.00     0.234 C 
HETATM   36  N6  UNL     1      14.079  -8.874 -13.509  1.00  0.00    -0.062 NA
HETATM   37  O6  UNL     1      14.607 -10.892 -14.461  1.00  0.00    -0.277 OA
ENDBRANCH  33  35
ENDBRANCH  32  33
ENDBRANCH  31  32
ENDBRANCH  26  31
BRANCH  21  38
HETATM   38  C24 UNL     1      20.169  -9.313 -10.306  1.00  0.00     0.038 C 
BRANCH  38  39
HETATM   39  C25 UNL     1      19.053  -8.655  -9.572  1.00  0.00    -0.020 C 
HETATM   40  C26 UNL     1      19.530  -7.305  -8.992  1.00  0.00     0.009 C 
HETATM   41  C27 UNL     1      18.660  -9.474  -8.371  1.00  0.00     0.009 C 
ENDBRANCH  38  39
ENDBRANCH  21  38
BRANCH   1  42
HETATM   42  C2  UNL     1      19.374 -11.339 -17.271  1.00  0.00     0.030 C 
HETATM   43  C1  UNL     1      19.722 -11.740 -18.676  1.00  0.00     0.007 C 
ENDBRANCH   1  42
BRANCH  16  44
HETATM   44  C18 UNL     1      23.936 -10.528 -10.258  1.00  0.00     0.038 C 
BRANCH  44  45
HETATM   45  C19 UNL     1      25.352 -10.635  -9.671  1.00  0.00    -0.020 C 
HETATM   46  C20 UNL     1      25.568 -12.146  -9.478  1.00  0.00     0.009 C 
HETATM   47  C21 UNL     1      26.403 -10.171 -10.622  1.00  0.00     0.009 C 
ENDBRANCH  44  45
ENDBRANCH  16  44
BRANCH   6  48
HETATM   48  C6  UNL     1      23.029 -14.367 -17.299  1.00  0.00     0.038 C 
BRANCH  48  49
HETATM   49  C7  UNL     1      22.554 -15.717 -16.925  1.00  0.00    -0.020 C 
HETATM   50  C8  UNL     1      21.775 -16.511 -17.898  1.00  0.00     0.009 C 
HETATM   51  C9  UNL     1      23.691 -16.566 -16.339  1.00  0.00     0.009 C 
ENDBRANCH  48  49
ENDBRANCH   6  48
BRANCH  11  52
HETATM   52  C12 UNL     1      25.063 -12.811 -12.998  1.00  0.00     0.038 C 
BRANCH  52  53
HETATM   53  C13 UNL     1      25.537 -14.213 -13.161  1.00  0.00    -0.020 C 
HETATM   54  C14 UNL     1      26.322 -14.451 -14.427  1.00  0.00     0.009 C 
HETATM   55  C15 UNL     1      26.248 -14.827 -12.014  1.00  0.00     0.009 C 
ENDBRANCH  52  53
ENDBRANCH  11  52
TORSDOF 13
ENDMDL
MODEL 4
REMARK VINA RESULT: -5.957854746      1.144      1.428
REMARK  13 active torsions:
REMARK  status: ('A' for Active; 'I' for Inactive)
REMARK    1  A    between atoms: C2_2  and  C3_3 
REMARK    2  A    between atoms: C5_8  and  C6_9 
REMARK    3  A    between atoms: C6_9  and  C7_10 
REMARK    4  A    between atoms: C11_17  and  C12_18 
REMARK    5  A    between atoms: C12_18  and  C13_19 
REMARK    6  A    between atoms: C17_26  and  C18_27 
REMARK    7  A    between atoms: C18_27  and  C19_28 
REMARK    8  A    between atoms: C23_35  and  C24_36 
REMARK    9  A    between atoms: C24_36  and  C25_37 
REMARK   10  A    between atoms: C29_44  and  C30_45 
REMARK   11  A    between atoms: C30_45  and  C31_46 
REMARK   12  A    between atoms: C31_46  and  C32_47 
REMARK   13  A    between atoms: C32_47  and  C34_49 
ROOT
HETATM    1  C3  UNL     1      20.509 -10.382 -11.446  1.00  0.00     0.176 C 
HETATM    2  N1  UNL     1      20.300  -8.951 -11.612  1.00  0.00    -0.346 N 
ATOM      3  H1  UNL     1      20.265  -8.414 -10.745  1.00  0.00     0.163 HD
HETATM    4  C4  UNL     1      20.142  -8.206 -12.779  1.00  0.00     0.241 C 
HETATM    5  O1  UNL     1      21.017  -7.335 -13.046  1.00  0.00    -0.271 OA
HETATM    6  C5  UNL     1      19.042  -8.299 -13.793  1.00  0.00     0.177 C 
HETATM    7  N2  UNL     1      18.926  -9.602 -14.355  1.00  0.00    -0.346 N 
ATOM      8  H2  UNL     1      18.378 -10.247 -13.785  1.00  0.00     0.163 HD
HETATM    9  C10 UNL     1      19.411 -10.167 -15.528  1.00  0.00     0.241 C 
HETATM   10  O2  UNL     1      18.630 -11.015 -16.109  1.00  0.00    -0.271 OA
HETATM   11  C11 UNL     1      20.694  -9.961 -16.229  1.00  0.00     0.177 C 
HETATM   12  N3  UNL     1      21.823 -10.195 -15.348  1.00  0.00    -0.346 N 
ATOM     13  H3  UNL     1      21.571 -10.490 -14.405  1.00  0.00     0.163 HD
HETATM   14  C16 UNL     1      23.182 -10.085 -15.572  1.00  0.00     0.241 C 
HETATM   15  O3  UNL     1      23.813  -9.295 -14.758  1.00  0.00    -0.271 OA
HETATM   16  C17 UNL     1      24.066 -10.700 -16.566  1.00  0.00     0.177 C 
HETATM   17  N4  UNL     1      25.021 -11.627 -15.991  1.00  0.00    -0.346 N 
ATOM     18  H4  UNL     1      25.842 -11.800 -16.571  1.00  0.00     0.163 HD
HETATM   19  C22 UNL     1      25.017 -12.315 -14.802  1.00  0.00     0.241 C 
HETATM   20  O4  UNL     1      26.009 -12.111 -14.001  1.00  0.00    -0.271 OA
HETATM   21  C23 UNL     1      24.018 -13.290 -14.274  1.00  0.00     0.177 C 
HETATM   22  N5  UNL     1      24.317 -13.753 -12.945  1.00  0.00    -0.346 N 
ATOM     23  H5  UNL     1      25.306 -13.896 -12.742  1.00  0.00     0.163 HD
HETATM   24  C28 UNL     1      23.445 -14.033 -11.899  1.00  0.00     0.241 C 
HETATM   25  O5  UNL     1      23.476 -15.226 -11.404  1.00  0.00    -0.271 OA
HETATM   26  C29 UNL     1      22.457 -13.145 -11.243  1.00  0.00     0.176 C 
HETATM   27  N7  UNL     1      22.709 -11.755 -11.517  1.00  0.00    -0.346 N 
ATOM     28  H7  UNL     1      23.560 -11.564 -12.047  1.00  0.00     0.163 HD
HETATM   29  C35 UNL     1      21.971 -10.639 -11.169  1.00  0.00     0.241 C 
HETATM   30  O7  UNL     1      22.540  -9.675 -10.536  1.00  0.00    -0.271 OA
ENDROOT
BRANCH  26  31
HETATM   31  C30 UNL     1      22.653 -13.397  -9.734  1.00  0.00     0.035 C 
BRANCH  31  32
HETATM   32  C31 UNL     1      21.356 -13.986  -9.237  1.00  0.00     0.015 C 
BRANCH  32  33
HETATM   33  C32 UNL     1      21.592 -15.190  -8.349  1.00  0.00     0.071 C 
HETATM   34  C33 UNL     1      20.976 -16.448  -8.892  1.00  0.00     0.019 C 
BRANCH  33  35
HETATM   35  C34 UNL     1      21.031 -14.895  -7.004  1.00  0.00     0.234 C 
HETATM   36  N6  UNL     1      19.644 -14.801  -6.816  1.00  0.00    -0.062 NA
HETATM   37  O6  UNL     1      21.783 -14.721  -5.994  1.00  0.00    -0.277 OA
ENDBRANCH  33  35
ENDBRANCH  32  33
ENDBRANCH  31  32
ENDBRANCH  26  31
BRANCH  21  38
HETATM   38  C24 UNL     1      23.697 -14.375 -15.238  1.00  0.00     0.038 C 
BRANCH  38  39
HETATM   39  C25 UNL     1      22.264 -14.734 -15.416  1.00  0.00    -0.020 C 
HETATM   40  C26 UNL     1      22.084 -15.551 -16.715  1.00  0.00     0.009 C 
HETATM   41  C27 UNL     1      21.433 -13.495 -15.622  1.00  0.00     0.009 C 
ENDBRANCH  38  39
ENDBRANCH  21  38
BRANCH   1  42
HETATM   42  C2  UNL     1      19.769 -10.859 -10.193  1.00  0.00     0.030 C 
HETATM   43  C1  UNL     1      19.141  -9.733  -9.421  1.00  0.00     0.007 C 
ENDBRANCH   1  42
BRANCH  16  44
HETATM   44  C18 UNL     1      23.425 -11.325 -17.747  1.00  0.00     0.038 C 
BRANCH  44  45
HETATM   45  C19 UNL     1      24.477 -12.142 -18.513  1.00  0.00    -0.020 C 
HETATM   46  C20 UNL     1      23.684 -13.323 -19.099  1.00  0.00     0.009 C 
HETATM   47  C21 UNL     1      25.050 -11.397 -19.671  1.00  0.00     0.009 C 
ENDBRANCH  44  45
ENDBRANCH  16  44
BRANCH   6  48
HETATM   48  C6  UNL     1      17.753  -7.802 -13.213  1.00  0.00     0.038 C 
BRANCH  48  49
HETATM   49  C7  UNL     1      16.477  -8.319 -13.757  1.00  0.00    -0.020 C 
HETATM   50  C8  UNL     1      15.284  -8.377 -12.886  1.00  0.00     0.009 C 
HETATM   51  C9  UNL     1      16.126  -7.644 -15.091  1.00  0.00     0.009 C 
ENDBRANCH  48  49
ENDBRANCH   6  48
BRANCH  11  52
HETATM   52  C12 UNL     1      20.813  -8.736 -17.062  1.00  0.00     0.038 C 
BRANCH  52  53
HETATM   53  C13 UNL     1      21.175  -8.925 -18.494  1.00  0.00    -0.020 C 
HETATM   54  C14 UNL     1      20.443 -10.060 -19.166  1.00  0.00     0.009 C 
HETATM   55  C15 UNL     1      21.140  -7.727 -19.367  1.00  0.00     0.009 C 
ENDBRANCH  52  53
ENDBRANCH  11  52
TORSDOF 13
ENDMDL
MODEL 5
REMARK VINA RESULT: -5.858323967     13.153     17.309
REMARK  13 active torsions:
REMARK  status: ('A' for Active; 'I' for Inactive)
REMARK    1  A    between atoms: C2_2  and  C3_3 
REMARK    2  A    between atoms: C5_8  and  C6_9 
REMARK    3  A    between atoms: C6_9  and  C7_10 
REMARK    4  A    between atoms: C11_17  and  C12_18 
REMARK    5  A    between atoms: C12_18  and  C13_19 
REMARK    6  A    between atoms: C17_26  and  C18_27 
REMARK    7  A    between atoms: C18_27  and  C19_28 
REMARK    8  A    between atoms: C23_35  and  C24_36 
REMARK    9  A    between atoms: C24_36  and  C25_37 
REMARK   10  A    between atoms: C29_44  and  C30_45 
REMARK   11  A    between atoms: C30_45  and  C31_46 
REMARK   12  A    between atoms: C31_46  and  C32_47 
REMARK   13  A    between atoms: C32_47  and  C34_49 
ROOT
HETATM    1  C3  UNL     1       4.866 -10.327  -4.066  1.00  0.00     0.176 C 
HETATM    2  N1  UNL     1       3.737 -10.083  -4.952  1.00  0.00    -0.346 N 
ATOM      3  H1  UNL     1       2.846  -9.913  -4.484  1.00  0.00     0.163 HD
HETATM    4  C4  UNL     1       3.693 -10.047  -6.345  1.00  0.00     0.241 C 
HETATM    5  O1  UNL     1       3.380  -8.954  -6.897  1.00  0.00    -0.271 OA
HETATM    6  C5  UNL     1       3.974 -11.160  -7.308  1.00  0.00     0.177 C 
HETATM    7  N2  UNL     1       5.281 -11.702  -7.151  1.00  0.00    -0.346 N 
ATOM      8  H2  UNL     1       5.349 -12.401  -6.410  1.00  0.00     0.163 HD
HETATM    9  C10 UNL     1       6.482 -11.467  -7.808  1.00  0.00     0.241 C 
HETATM   10  O2  UNL     1       7.240 -12.498  -7.981  1.00  0.00    -0.271 OA
HETATM   11  C11 UNL     1       7.048 -10.213  -8.346  1.00  0.00     0.177 C 
HETATM   12  N3  UNL     1       7.108  -9.180  -7.329  1.00  0.00    -0.346 N 
ATOM     13  H3  UNL     1       6.786  -9.474  -6.407  1.00  0.00     0.163 HD
HETATM   14  C16 UNL     1       7.527  -7.865  -7.400  1.00  0.00     0.241 C 
HETATM   15  O3  UNL     1       6.652  -6.986  -7.018  1.00  0.00    -0.271 OA
HETATM   16  C17 UNL     1       8.791  -7.260  -7.828  1.00  0.00     0.177 C 
HETATM   17  N4  UNL     1       9.518  -6.621  -6.747  1.00  0.00    -0.346 N 
ATOM     18  H4  UNL     1      10.193  -5.921  -7.052  1.00  0.00     0.163 HD
HETATM   19  C22 UNL     1       9.457  -6.793  -5.386  1.00  0.00     0.241 C 
HETATM   20  O4  UNL     1       9.166  -5.756  -4.675  1.00  0.00    -0.271 OA
HETATM   21  C23 UNL     1       9.684  -8.025  -4.575  1.00  0.00     0.177 C 
HETATM   22  N5  UNL     1       9.457  -7.833  -3.167  1.00  0.00    -0.346 N 
ATOM     23  H5  UNL     1       9.753  -6.931  -2.794  1.00  0.00     0.163 HD
HETATM   24  C28 UNL     1       8.892  -8.705  -2.244  1.00  0.00     0.241 C 
HETATM   25  O5  UNL     1       9.607  -9.030  -1.219  1.00  0.00    -0.271 OA
HETATM   26  C29 UNL     1       7.552  -9.337  -2.256  1.00  0.00     0.176 C 
HETATM   27  N7  UNL     1       6.645  -8.673  -3.154  1.00  0.00    -0.346 N 
ATOM     28  H7  UNL     1       7.009  -7.828  -3.593  1.00  0.00     0.163 HD
HETATM   29  C35 UNL     1       5.352  -9.009  -3.511  1.00  0.00     0.241 C 
HETATM   30  O7  UNL     1       4.413  -8.142  -3.380  1.00  0.00    -0.271 OA
ENDROOT
BRANCH  26  31
HETATM   31  C30 UNL     1       7.032  -9.170  -0.813  1.00  0.00     0.035 C 
BRANCH  31  32
HETATM   32  C31 UNL     1       6.628 -10.547  -0.351  1.00  0.00     0.015 C 
BRANCH  32  33
HETATM   33  C32 UNL     1       5.384 -10.507   0.511  1.00  0.00     0.071 C 
HETATM   34  C33 UNL     1       4.524  -9.305   0.243  1.00  0.00     0.019 C 
BRANCH  33  35
HETATM   35  C34 UNL     1       5.804 -10.518   1.937  1.00  0.00     0.234 C 
HETATM   36  N6  UNL     1       5.707 -11.691   2.700  1.00  0.00    -0.062 NA
HETATM   37  O6  UNL     1       6.260  -9.475   2.503  1.00  0.00    -0.277 OA
ENDBRANCH  33  35
ENDBRANCH  32  33
ENDBRANCH  31  32
ENDBRANCH  26  31
BRANCH  21  38
HETATM   38  C24 UNL     1      10.963  -8.709  -4.898  1.00  0.00     0.038 C 
BRANCH  38  39
HETATM   39  C25 UNL     1      12.178  -8.281  -4.152  1.00  0.00    -0.020 C 
HETATM   40  C26 UNL     1      13.264  -7.808  -5.143  1.00  0.00     0.009 C 
HETATM   41  C27 UNL     1      12.794  -9.454  -3.436  1.00  0.00     0.009 C 
ENDBRANCH  38  39
ENDBRANCH  21  38
BRANCH   1  42
HETATM   42  C2  UNL     1       4.390 -11.128  -2.850  1.00  0.00     0.030 C 
HETATM   43  C1  UNL     1       2.905 -11.355  -2.846  1.00  0.00     0.007 C 
ENDBRANCH   1  42
BRANCH  16  44
HETATM   44  C18 UNL     1       9.719  -8.111  -8.608  1.00  0.00     0.038 C 
BRANCH  44  45
HETATM   45  C19 UNL     1      11.124  -7.490  -8.565  1.00  0.00    -0.020 C 
HETATM   46  C20 UNL     1      12.071  -8.701  -8.502  1.00  0.00     0.009 C 
HETATM   47  C21 UNL     1      11.461  -6.750  -9.816  1.00  0.00     0.009 C 
ENDBRANCH  44  45
ENDBRANCH  16  44
BRANCH   6  48
HETATM   48  C6  UNL     1       2.902 -12.205  -7.227  1.00  0.00     0.038 C 
BRANCH  48  49
HETATM   49  C7  UNL     1       3.257 -13.560  -6.753  1.00  0.00    -0.020 C 
HETATM   50  C8  UNL     1       2.630 -14.089  -5.522  1.00  0.00     0.009 C 
HETATM   51  C9  UNL     1       3.152 -14.592  -7.884  1.00  0.00     0.009 C 
ENDBRANCH  48  49
ENDBRANCH   6  48
BRANCH  11  52
HETATM   52  C12 UNL     1       6.524  -9.750  -9.657  1.00  0.00     0.038 C 
BRANCH  52  53
HETATM   53  C13 UNL     1       7.472  -9.761 -10.806  1.00  0.00    -0.020 C 
HETATM   54  C14 UNL     1       7.812  -8.389 -11.333  1.00  0.00     0.009 C 
HETATM   55  C15 UNL     1       8.715 -10.554 -10.652  1.00  0.00     0.009 C 
ENDBRANCH  52  53
ENDBRANCH  11  52
TORSDOF 13
ENDMDL
