MODEL 1
REMARK VINA RESULT: -7.988525846      0.000      0.000
REMARK  9 active torsions:
REMARK  status: ('A' for Active; 'I' for Inactive)
REMARK    1  A    between atoms: O1_2  and  C2_3 
REMARK    2  A    between atoms: C2_3  and  C3_4 
REMARK    3  A    between atoms: C3_4  and  C4_5 
REMARK    4  A    between atoms: C5_9  and  O2_10 
REMARK    5  A    between atoms: C5_9  and  N1_12 
REMARK    6  A    between atoms: N1_12  and  C6_14 
REMARK    7  A    between atoms: C9_17  and  N2_18 
REMARK       I    between atoms: N2_18  and  C10_20 
REMARK    8  A    between atoms: C10_20  and  C11_22 
REMARK    9  A    between atoms: C11_22  and  C12_23 
ROOT
HETATM    1  C6  UNL     1      -1.321  18.000  -4.691  1.00  0.00     0.083 C 
HETATM    2  C7  UNL     1      -2.260  19.146  -4.215  1.00  0.00     0.027 C 
HETATM    3  C8  UNL     1      -1.452  20.421  -4.106  1.00  0.00     0.027 C 
HETATM    4  C9  UNL     1      -0.511  20.312  -2.936  1.00  0.00     0.084 C 
HETATM    5  C16 UNL     1      -0.355  18.834  -2.569  1.00  0.00     0.027 C 
HETATM    6  C17 UNL     1      -0.072  18.047  -3.810  1.00  0.00     0.027 C 
ENDROOT
BRANCH   1   7
HETATM    7  N1  UNL     1      -2.133  16.836  -4.486  1.00  0.00    -0.364 N 
ATOM      8  H1  UNL     1      -1.720  16.056  -3.976  1.00  0.00     0.162 HD
BRANCH   7   9
HETATM    9  C5  UNL     1      -3.451  16.691  -4.934  1.00  0.00     0.166 C 
HETATM   10  C2  UNL     1      -4.712  16.624  -5.416  1.00  0.00     0.104 C 
BRANCH  10  11
HETATM   11  O1  UNL     1      -5.095  15.320  -5.890  1.00  0.00    -0.356 OA
HETATM   12  C1  UNL     1      -5.034  15.206  -7.275  1.00  0.00     0.209 C 
ENDBRANCH  10  11
BRANCH  10  13
HETATM   13  C3  UNL     1      -5.572  17.596  -6.121  1.00  0.00     0.186 C 
BRANCH  13  14
HETATM   14  C4  UNL     1      -5.731  18.982  -5.641  1.00  0.00     0.393 C 
HETATM   15  F1  UNL     1      -5.575  19.211  -4.314  1.00  0.00    -0.171 F 
HETATM   16  F2  UNL     1      -4.990  19.921  -6.342  1.00  0.00    -0.171 F 
HETATM   17  F3  UNL     1      -7.093  19.330  -5.899  1.00  0.00    -0.171 F 
ENDBRANCH  13  14
ENDBRANCH  10  13
BRANCH   9  18
HETATM   18  O2  UNL     1      -3.683  15.368  -4.024  1.00  0.00    -0.344 OA
ATOM     19  H2  UNL     1      -4.257  14.988  -4.678  1.00  0.00     0.219 HD
ENDBRANCH   9  18
ENDBRANCH   7   9
ENDBRANCH   1   7
BRANCH   4  20
HETATM   20  N2  UNL     1      -0.873  21.058  -1.775  1.00  0.00    -0.353 N 
HETATM   21  C10 UNL     1      -1.955  20.764  -0.912  1.00  0.00     0.265 C 
HETATM   22  O3  UNL     1      -2.699  19.746  -1.186  1.00  0.00    -0.269 OA
ATOM     23  H2  UNL     1      -0.303  21.873  -1.548  1.00  0.00     0.163 HD
BRANCH  21  24
HETATM   24  C11 UNL     1      -2.294  21.544   0.260  1.00  0.00     0.221 C 
HETATM   25  N3  UNL     1      -2.850  20.861   1.387  1.00  0.00    -0.370 N 
HETATM   26  C14 UNL     1      -3.764  21.521   2.150  1.00  0.00     0.068 C 
ATOM     27  H3  UNL     1      -2.570  19.906   1.613  1.00  0.00     0.161 HD
HETATM   28  C15 UNL     1      -4.280  22.775   1.595  1.00  0.00     0.121 C 
HETATM   29  S1  UNL     1      -3.706  22.692  -0.136  1.00  0.00    -0.115 SA
BRANCH  24  30
HETATM   30  C12 UNL     1      -1.212  22.396   0.792  1.00  0.00     0.171 C 
HETATM   31  C13 UNL     1      -1.019  23.834   0.585  1.00  0.00     0.095 C 
HETATM   32  O4  UNL     1      -0.355  21.781   1.498  1.00  0.00    -0.294 OA
ENDBRANCH  24  30
ENDBRANCH  21  24
ENDBRANCH   4  20
TORSDOF 9
ENDMDL
MODEL 2
REMARK VINA RESULT: -7.982984940      1.454      1.862
REMARK  9 active torsions:
REMARK  status: ('A' for Active; 'I' for Inactive)
REMARK    1  A    between atoms: O1_2  and  C2_3 
REMARK    2  A    between atoms: C2_3  and  C3_4 
REMARK    3  A    between atoms: C3_4  and  C4_5 
REMARK    4  A    between atoms: C5_9  and  O2_10 
REMARK    5  A    between atoms: C5_9  and  N1_12 
REMARK    6  A    between atoms: N1_12  and  C6_14 
REMARK    7  A    between atoms: C9_17  and  N2_18 
REMARK       I    between atoms: N2_18  and  C10_20 
REMARK    8  A    between atoms: C10_20  and  C11_22 
REMARK    9  A    between atoms: C11_22  and  C12_23 
ROOT
HETATM    1  C6  UNL     1      -1.400  18.118  -4.672  1.00  0.00     0.083 C 
HETATM    2  C7  UNL     1      -2.348  19.181  -4.044  1.00  0.00     0.027 C 
HETATM    3  C8  UNL     1      -1.587  20.480  -3.894  1.00  0.00     0.027 C 
HETATM    4  C9  UNL     1      -0.560  20.328  -2.804  1.00  0.00     0.084 C 
HETATM    5  C16 UNL     1      -0.317  18.835  -2.564  1.00  0.00     0.027 C 
HETATM    6  C17 UNL     1      -0.093  18.157  -3.879  1.00  0.00     0.027 C 
ENDROOT
BRANCH   1   7
HETATM    7  N1  UNL     1      -2.147  16.906  -4.501  1.00  0.00    -0.364 N 
ATOM      8  H1  UNL     1      -1.686  16.131  -4.025  1.00  0.00     0.162 HD
BRANCH   7   9
HETATM    9  C5  UNL     1      -3.461  16.707  -4.939  1.00  0.00     0.166 C 
HETATM   10  C2  UNL     1      -4.723  16.590  -5.411  1.00  0.00     0.104 C 
BRANCH  10  11
HETATM   11  O1  UNL     1      -5.047  15.280  -5.912  1.00  0.00    -0.356 OA
HETATM   12  C1  UNL     1      -4.993  15.202  -7.300  1.00  0.00     0.209 C 
ENDBRANCH  10  11
BRANCH  10  13
HETATM   13  C3  UNL     1      -5.637  17.535  -6.083  1.00  0.00     0.186 C 
BRANCH  13  14
HETATM   14  C4  UNL     1      -5.767  18.936  -5.641  1.00  0.00     0.393 C 
HETATM   15  F1  UNL     1      -5.623  19.195  -4.319  1.00  0.00    -0.171 F 
HETATM   16  F2  UNL     1      -4.992  19.838  -6.355  1.00  0.00    -0.171 F 
HETATM   17  F3  UNL     1      -7.115  19.311  -5.927  1.00  0.00    -0.171 F 
ENDBRANCH  13  14
ENDBRANCH  10  13
BRANCH   9  18
HETATM   18  O2  UNL     1      -3.618  15.353  -4.059  1.00  0.00    -0.344 OA
ATOM     19  H2  UNL     1      -4.289  15.753  -3.518  1.00  0.00     0.219 HD
ENDBRANCH   9  18
ENDBRANCH   7   9
ENDBRANCH   1   7
BRANCH   4  20
HETATM   20  N2  UNL     1      -0.866  20.968  -1.566  1.00  0.00    -0.353 N 
HETATM   21  C10 UNL     1      -0.893  22.365  -1.345  1.00  0.00     0.265 C 
HETATM   22  O3  UNL     1      -0.607  23.147  -2.332  1.00  0.00    -0.269 OA
ATOM     23  H2  UNL     1      -1.083  20.366  -0.771  1.00  0.00     0.163 HD
BRANCH  21  24
HETATM   24  C11 UNL     1      -1.208  22.981  -0.074  1.00  0.00     0.221 C 
HETATM   25  N3  UNL     1      -2.275  23.934  -0.032  1.00  0.00    -0.370 N 
HETATM   26  C14 UNL     1      -2.172  24.973   0.841  1.00  0.00     0.068 C 
ATOM     27  H3  UNL     1      -3.089  23.837  -0.639  1.00  0.00     0.161 HD
HETATM   28  C15 UNL     1      -0.862  25.156   1.472  1.00  0.00     0.121 C 
HETATM   29  S1  UNL     1       0.204  24.071   0.463  1.00  0.00    -0.115 SA
BRANCH  24  30
HETATM   30  C12 UNL     1      -1.450  22.047   1.043  1.00  0.00     0.171 C 
HETATM   31  C13 UNL     1      -2.733  21.512   1.503  1.00  0.00     0.095 C 
HETATM   32  O4  UNL     1      -0.403  21.692   1.668  1.00  0.00    -0.294 OA
ENDBRANCH  24  30
ENDBRANCH  21  24
ENDBRANCH   4  20
TORSDOF 9
ENDMDL
MODEL 3
REMARK VINA RESULT: -7.910867148      1.219      1.329
REMARK  9 active torsions:
REMARK  status: ('A' for Active; 'I' for Inactive)
REMARK    1  A    between atoms: O1_2  and  C2_3 
REMARK    2  A    between atoms: C2_3  and  C3_4 
REMARK    3  A    between atoms: C3_4  and  C4_5 
REMARK    4  A    between atoms: C5_9  and  O2_10 
REMARK    5  A    between atoms: C5_9  and  N1_12 
REMARK    6  A    between atoms: N1_12  and  C6_14 
REMARK    7  A    between atoms: C9_17  and  N2_18 
REMARK       I    between atoms: N2_18  and  C10_20 
REMARK    8  A    between atoms: C10_20  and  C11_22 
REMARK    9  A    between atoms: C11_22  and  C12_23 
ROOT
HETATM    1  C6  UNL     1      -1.418  18.240  -4.577  1.00  0.00     0.083 C 
HETATM    2  C7  UNL     1      -2.495  19.243  -4.069  1.00  0.00     0.027 C 
HETATM    3  C8  UNL     1      -1.842  20.594  -3.874  1.00  0.00     0.027 C 
HETATM    4  C9  UNL     1      -0.921  20.532  -2.685  1.00  0.00     0.084 C 
HETATM    5  C16 UNL     1      -0.602  19.064  -2.389  1.00  0.00     0.027 C 
HETATM    6  C17 UNL     1      -0.203  18.382  -3.660  1.00  0.00     0.027 C 
ENDROOT
BRANCH   1   7
HETATM    7  N1  UNL     1      -2.094  16.981  -4.454  1.00  0.00    -0.364 N 
ATOM      8  H1  UNL     1      -1.604  16.228  -3.971  1.00  0.00     0.162 HD
BRANCH   7   9
HETATM    9  C5  UNL     1      -3.376  16.709  -4.945  1.00  0.00     0.166 C 
HETATM   10  C2  UNL     1      -4.609  16.523  -5.466  1.00  0.00     0.104 C 
BRANCH  10  11
HETATM   11  O1  UNL     1      -4.823  15.216  -6.029  1.00  0.00    -0.356 OA
HETATM   12  C1  UNL     1      -5.049  15.247  -7.401  1.00  0.00     0.209 C 
ENDBRANCH  10  11
BRANCH  10  13
HETATM   13  C3  UNL     1      -5.566  17.429  -6.133  1.00  0.00     0.186 C 
BRANCH  13  14
HETATM   14  C4  UNL     1      -5.756  18.822  -5.686  1.00  0.00     0.393 C 
HETATM   15  F1  UNL     1      -5.717  19.068  -4.354  1.00  0.00    -0.171 F 
HETATM   16  F2  UNL     1      -4.947  19.747  -6.330  1.00  0.00    -0.171 F 
HETATM   17  F3  UNL     1      -7.086  19.176  -6.070  1.00  0.00    -0.171 F 
ENDBRANCH  13  14
ENDBRANCH  10  13
BRANCH   9  18
HETATM   18  O2  UNL     1      -3.464  15.312  -4.125  1.00  0.00    -0.344 OA
ATOM     19  H2  UNL     1      -2.631  15.479  -3.701  1.00  0.00     0.219 HD
ENDBRANCH   9  18
ENDBRANCH   7   9
ENDBRANCH   1   7
BRANCH   4  20
HETATM   20  N2  UNL     1      -1.392  21.168  -1.498  1.00  0.00    -0.353 N 
HETATM   21  C10 UNL     1      -0.748  22.231  -0.822  1.00  0.00     0.265 C 
HETATM   22  O3  UNL     1       0.369  22.671  -1.296  1.00  0.00    -0.269 OA
ATOM     23  H2  UNL     1      -2.267  20.826  -1.102  1.00  0.00     0.163 HD
BRANCH  21  24
HETATM   24  C11 UNL     1      -1.255  22.854   0.382  1.00  0.00     0.221 C 
HETATM   25  N3  UNL     1      -2.418  22.290   0.996  1.00  0.00    -0.370 N 
HETATM   26  C14 UNL     1      -3.285  23.132   1.621  1.00  0.00     0.068 C 
ATOM     27  H3  UNL     1      -2.592  21.285   0.965  1.00  0.00     0.161 HD
HETATM   28  C15 UNL     1      -3.075  24.564   1.386  1.00  0.00     0.121 C 
HETATM   29  S1  UNL     1      -1.906  24.554  -0.016  1.00  0.00    -0.115 SA
BRANCH  24  30
HETATM   30  C12 UNL     1      -0.269  23.039   1.466  1.00  0.00     0.171 C 
HETATM   31  C13 UNL     1       0.567  24.212   1.726  1.00  0.00     0.095 C 
HETATM   32  O4  UNL     1      -0.145  22.040   2.240  1.00  0.00    -0.294 OA
ENDBRANCH  24  30
ENDBRANCH  21  24
ENDBRANCH   4  20
TORSDOF 9
ENDMDL
MODEL 4
REMARK VINA RESULT: -7.709691898      1.477      1.690
REMARK  9 active torsions:
REMARK  status: ('A' for Active; 'I' for Inactive)
REMARK    1  A    between atoms: O1_2  and  C2_3 
REMARK    2  A    between atoms: C2_3  and  C3_4 
REMARK    3  A    between atoms: C3_4  and  C4_5 
REMARK    4  A    between atoms: C5_9  and  O2_10 
REMARK    5  A    between atoms: C5_9  and  N1_12 
REMARK    6  A    between atoms: N1_12  and  C6_14 
REMARK    7  A    between atoms: C9_17  and  N2_18 
REMARK       I    between atoms: N2_18  and  C10_20 
REMARK    8  A    between atoms: C10_20  and  C11_22 
REMARK    9  A    between atoms: C11_22  and  C12_23 
ROOT
HETATM    1  C6  UNL     1      -1.497  18.261  -4.571  1.00  0.00     0.083 C 
HETATM    2  C7  UNL     1      -2.555  19.263  -4.024  1.00  0.00     0.027 C 
HETATM    3  C8  UNL     1      -1.889  20.606  -3.820  1.00  0.00     0.027 C 
HETATM    4  C9  UNL     1      -0.944  20.518  -2.652  1.00  0.00     0.084 C 
HETATM    5  C16 UNL     1      -0.630  19.043  -2.387  1.00  0.00     0.027 C 
HETATM    6  C17 UNL     1      -0.262  18.379  -3.676  1.00  0.00     0.027 C 
ENDROOT
BRANCH   1   7
HETATM    7  N1  UNL     1      -2.180  17.005  -4.454  1.00  0.00    -0.364 N 
ATOM      8  H1  UNL     1      -1.691  16.244  -3.982  1.00  0.00     0.162 HD
BRANCH   7   9
HETATM    9  C5  UNL     1      -3.467  16.746  -4.939  1.00  0.00     0.166 C 
HETATM   10  C2  UNL     1      -4.704  16.571  -5.454  1.00  0.00     0.104 C 
BRANCH  10  11
HETATM   11  O1  UNL     1      -4.942  15.255  -5.986  1.00  0.00    -0.356 OA
HETATM   12  C1  UNL     1      -5.054  15.243  -7.373  1.00  0.00     0.209 C 
ENDBRANCH  10  11
BRANCH  10  13
HETATM   13  C3  UNL     1      -5.644  17.479  -6.141  1.00  0.00     0.186 C 
BRANCH  13  14
HETATM   14  C4  UNL     1      -5.819  18.880  -5.717  1.00  0.00     0.393 C 
HETATM   15  F1  UNL     1      -5.699  19.159  -4.396  1.00  0.00    -0.171 F 
HETATM   16  F2  UNL     1      -5.062  19.796  -6.432  1.00  0.00    -0.171 F 
HETATM   17  F3  UNL     1      -7.174  19.214  -6.023  1.00  0.00    -0.171 F 
ENDBRANCH  13  14
ENDBRANCH  10  13
BRANCH   9  18
HETATM   18  O2  UNL     1      -3.580  15.370  -4.086  1.00  0.00    -0.344 OA
ATOM     19  H2  UNL     1      -4.192  15.768  -3.478  1.00  0.00     0.219 HD
ENDBRANCH   9  18
ENDBRANCH   7   9
ENDBRANCH   1   7
BRANCH   4  20
HETATM   20  N2  UNL     1      -1.386  21.137  -1.445  1.00  0.00    -0.353 N 
HETATM   21  C10 UNL     1      -0.742  22.211  -0.787  1.00  0.00     0.265 C 
HETATM   22  O3  UNL     1       0.347  22.679  -1.298  1.00  0.00    -0.269 OA
ATOM     23  H2  UNL     1      -2.239  20.774  -1.020  1.00  0.00     0.163 HD
BRANCH  21  24
HETATM   24  C11 UNL     1      -1.219  22.817   0.438  1.00  0.00     0.221 C 
HETATM   25  N3  UNL     1      -0.303  22.944   1.530  1.00  0.00    -0.370 N 
HETATM   26  C14 UNL     1      -0.793  22.836   2.794  1.00  0.00     0.068 C 
ATOM     27  H3  UNL     1       0.689  23.112   1.364  1.00  0.00     0.161 HD
HETATM   28  C15 UNL     1      -2.169  22.344   2.912  1.00  0.00     0.121 C 
HETATM   29  S1  UNL     1      -2.495  21.713   1.230  1.00  0.00    -0.115 SA
BRANCH  24  30
HETATM   30  C12 UNL     1      -1.862  24.138   0.287  1.00  0.00     0.171 C 
HETATM   31  C13 UNL     1      -1.231  25.457   0.375  1.00  0.00     0.095 C 
HETATM   32  O4  UNL     1      -3.111  24.093   0.067  1.00  0.00    -0.294 OA
ENDBRANCH  24  30
ENDBRANCH  21  24
ENDBRANCH   4  20
TORSDOF 9
ENDMDL
MODEL 5
REMARK VINA RESULT: -7.671226260      4.271      5.622
REMARK  9 active torsions:
REMARK  status: ('A' for Active; 'I' for Inactive)
REMARK    1  A    between atoms: O1_2  and  C2_3 
REMARK    2  A    between atoms: C2_3  and  C3_4 
REMARK    3  A    between atoms: C3_4  and  C4_5 
REMARK    4  A    between atoms: C5_9  and  O2_10 
REMARK    5  A    between atoms: C5_9  and  N1_12 
REMARK    6  A    between atoms: N1_12  and  C6_14 
REMARK    7  A    between atoms: C9_17  and  N2_18 
REMARK       I    between atoms: N2_18  and  C10_20 
REMARK    8  A    between atoms: C10_20  and  C11_22 
REMARK    9  A    between atoms: C11_22  and  C12_23 
ROOT
HETATM    1  C6  UNL     1      -5.706  20.277  -6.022  1.00  0.00     0.083 C 
HETATM    2  C7  UNL     1      -6.538  19.744  -4.819  1.00  0.00     0.027 C 
HETATM    3  C8  UNL     1      -7.825  20.535  -4.733  1.00  0.00     0.027 C 
HETATM    4  C9  UNL     1      -7.516  21.935  -4.274  1.00  0.00     0.084 C 
HETATM    5  C16 UNL     1      -6.028  22.210  -4.507  1.00  0.00     0.027 C 
HETATM    6  C17 UNL     1      -5.666  21.801  -5.900  1.00  0.00     0.027 C 
ENDROOT
BRANCH   1   7
HETATM    7  N1  UNL     1      -4.435  19.645  -5.816  1.00  0.00    -0.364 N 
ATOM      8  H1  UNL     1      -3.597  20.196  -6.005  1.00  0.00     0.162 HD
BRANCH   7   9
HETATM    9  C5  UNL     1      -4.257  18.329  -5.376  1.00  0.00     0.166 C 
HETATM   10  C2  UNL     1      -4.139  17.031  -5.018  1.00  0.00     0.104 C 
BRANCH  10  11
HETATM   11  O1  UNL     1      -2.785  16.609  -4.768  1.00  0.00    -0.356 OA
HETATM   12  C1  UNL     1      -2.651  15.225  -4.711  1.00  0.00     0.209 C 
ENDBRANCH  10  11
BRANCH  10  13
HETATM   13  C3  UNL     1      -4.899  15.816  -5.373  1.00  0.00     0.186 C 
BRANCH  13  14
HETATM   14  C4  UNL     1      -5.656  15.716  -6.635  1.00  0.00     0.393 C 
HETATM   15  F1  UNL     1      -6.419  16.775  -6.998  1.00  0.00    -0.171 F 
HETATM   16  F2  UNL     1      -4.899  15.321  -7.728  1.00  0.00    -0.171 F 
HETATM   17  F3  UNL     1      -6.595  14.657  -6.443  1.00  0.00    -0.171 F 
ENDBRANCH  13  14
ENDBRANCH  10  13
BRANCH   9  18
HETATM   18  O2  UNL     1      -3.315  18.801  -4.142  1.00  0.00    -0.344 OA
ATOM     19  H2  UNL     1      -2.832  19.394  -4.705  1.00  0.00     0.219 HD
ENDBRANCH   9  18
ENDBRANCH   7   9
ENDBRANCH   1   7
BRANCH   4  20
HETATM   20  N2  UNL     1      -7.850  22.233  -2.919  1.00  0.00    -0.353 N 
HETATM   21  C10 UNL     1      -8.076  23.527  -2.393  1.00  0.00     0.265 C 
HETATM   22  O3  UNL     1      -7.963  24.540  -3.185  1.00  0.00    -0.269 OA
ATOM     23  H2  UNL     1      -7.934  21.447  -2.275  1.00  0.00     0.163 HD
BRANCH  21  24
HETATM   24  C11 UNL     1      -8.415  23.794  -1.011  1.00  0.00     0.221 C 
HETATM   25  N3  UNL     1      -9.778  24.093  -0.696  1.00  0.00    -0.370 N 
HETATM   26  C14 UNL     1     -10.025  24.967   0.318  1.00  0.00     0.068 C 
ATOM     27  H3  UNL     1     -10.543  23.663  -1.216  1.00  0.00     0.161 HD
HETATM   28  C15 UNL     1      -8.868  25.714   0.820  1.00  0.00     0.121 C 
HETATM   29  S1  UNL     1      -7.613  25.385  -0.464  1.00  0.00    -0.115 SA
BRANCH  24  30
HETATM   30  C12 UNL     1      -7.986  22.767  -0.041  1.00  0.00     0.171 C 
HETATM   31  C13 UNL     1      -6.805  22.789   0.825  1.00  0.00     0.095 C 
HETATM   32  O4  UNL     1      -8.744  21.750   0.019  1.00  0.00    -0.294 OA
ENDBRANCH  24  30
ENDBRANCH  21  24
ENDBRANCH   4  20
TORSDOF 9
ENDMDL
