MODEL 1
REMARK VINA RESULT: -7.671558298      0.000      0.000
REMARK  8 active torsions:
REMARK  status: ('A' for Active; 'I' for Inactive)
REMARK    1  A    between atoms: C2_2  and  C3_3 
REMARK    2  A    between atoms: C5_6  and  S1_7 
REMARK    3  A    between atoms: S1_7  and  C6_8 
REMARK    4  A    between atoms: C6_8  and  C7_9 
REMARK    5  A    between atoms: C6_8  and  C16_27 
REMARK    6  A    between atoms: C7_9  and  C8_10 
REMARK    7  A    between atoms: C8_10  and  N1_12 
REMARK    8  A    between atoms: C8_10  and  C15_23 
REMARK       I    between atoms: N2_15  and  C12_16 
ROOT
HETATM    1  C8  UNL     1      21.797  -3.437   1.190  1.00  0.00     0.127 C 
HETATM    2  C9  UNL     1      23.129  -3.132   1.996  1.00  0.00     0.048 C 
ENDROOT
BRANCH   1   3
HETATM    3  C7  UNL     1      20.859  -3.867   2.208  1.00  0.00     0.065 C 
BRANCH   3   4
HETATM    4  C6  UNL     1      21.174  -4.731   3.339  1.00  0.00     0.147 C 
BRANCH   4   5
HETATM    5  S1  UNL     1      20.377  -4.021   4.883  1.00  0.00    -0.072 SA
BRANCH   5   6
HETATM    6  C5  UNL     1      21.520  -2.859   5.621  1.00  0.00     0.188 A 
HETATM    7  O1  UNL     1      21.900  -2.829   6.857  1.00  0.00    -0.298 OA
HETATM    8  C4  UNL     1      22.746  -1.861   7.103  1.00  0.00     0.174 A 
HETATM    9  C3  UNL     1      22.926  -1.205   5.909  1.00  0.00     0.056 A 
HETATM   10  N6  UNL     1      22.164  -1.829   5.001  1.00  0.00    -0.329 N 
ATOM     11  H6  UNL     1      22.081  -1.578   4.016  1.00  0.00     0.168 HD
BRANCH   9  12
HETATM   12  C2  UNL     1      23.793  -0.053   5.721  1.00  0.00     0.021 C 
HETATM   13  C1  UNL     1      23.795   0.634   4.608  1.00  0.00     0.013 C 
ENDBRANCH   9  12
ENDBRANCH   5   6
ENDBRANCH   4   5
BRANCH   4  14
HETATM   14  C16 UNL     1      20.496  -6.082   3.303  1.00  0.00     0.245 C 
HETATM   15  N5  UNL     1      20.063  -6.696   4.534  1.00  0.00    -0.061 NA
HETATM   16  O2  UNL     1      20.307  -6.657   2.213  1.00  0.00    -0.276 OA
ENDBRANCH   4  14
ENDBRANCH   3   4
ENDBRANCH   1   3
BRANCH   1  17
HETATM   17  N1  UNL     1      21.399  -2.123   0.727  1.00  0.00    -0.373 N 
HETATM   18  C10 UNL     1      22.432  -1.193   0.509  1.00  0.00     0.079 C 
HETATM   19  C11 UNL     1      22.420   0.053   1.356  1.00  0.00     0.169 C 
HETATM   20  N2  UNL     1      21.105   0.611   1.324  1.00  0.00    -0.350 N 
HETATM   21  C12 UNL     1      20.831   1.858   1.919  1.00  0.00     0.184 C 
HETATM   22  C13 UNL     1      20.072  -0.139   0.666  1.00  0.00     0.145 C 
HETATM   23  N3  UNL     1      20.667   2.924   1.200  1.00  0.00    -0.374 N 
HETATM   24  N4  UNL     1      20.724   1.979   3.344  1.00  0.00    -0.064 NA
ATOM     25  H32 UNL     1      20.743   2.838   0.187  1.00  0.00     0.158 HD
ATOM     26  H31 UNL     1      20.468   3.828   1.631  1.00  0.00     0.158 HD
HETATM   27  C14 UNL     1      20.191  -1.589   1.180  1.00  0.00     0.143 C 
ENDBRANCH   1  17
BRANCH   1  28
HETATM   28  C15 UNL     1      22.298  -4.260   0.091  1.00  0.00     0.412 C 
HETATM   29  F1  UNL     1      22.214  -5.645   0.281  1.00  0.00    -0.168 F 
HETATM   30  F2  UNL     1      23.710  -4.091   0.080  1.00  0.00    -0.168 F 
HETATM   31  F3  UNL     1      21.915  -3.951  -1.183  1.00  0.00    -0.168 F 
ENDBRANCH   1  28
TORSDOF 8
ENDMDL
MODEL 2
REMARK VINA RESULT: -7.262756700      3.087      5.485
REMARK  8 active torsions:
REMARK  status: ('A' for Active; 'I' for Inactive)
REMARK    1  A    between atoms: C2_2  and  C3_3 
REMARK    2  A    between atoms: C5_6  and  S1_7 
REMARK    3  A    between atoms: S1_7  and  C6_8 
REMARK    4  A    between atoms: C6_8  and  C7_9 
REMARK    5  A    between atoms: C6_8  and  C16_27 
REMARK    6  A    between atoms: C7_9  and  C8_10 
REMARK    7  A    between atoms: C8_10  and  N1_12 
REMARK    8  A    between atoms: C8_10  and  C15_23 
REMARK       I    between atoms: N2_15  and  C12_16 
ROOT
HETATM    1  C8  UNL     1      22.408  -0.312   0.857  1.00  0.00     0.127 C 
HETATM    2  C9  UNL     1      20.904   0.196   0.858  1.00  0.00     0.048 C 
ENDROOT
BRANCH   1   3
HETATM    3  C7  UNL     1      22.954   0.202   2.097  1.00  0.00     0.065 C 
BRANCH   3   4
HETATM    4  C6  UNL     1      23.376   1.578   2.332  1.00  0.00     0.147 C 
BRANCH   4   5
HETATM    5  S1  UNL     1      22.743   2.127   4.011  1.00  0.00    -0.072 SA
BRANCH   5   6
HETATM    6  C5  UNL     1      23.058   0.815   5.187  1.00  0.00     0.188 A 
HETATM    7  O1  UNL     1      24.212   0.448   5.642  1.00  0.00    -0.298 OA
HETATM    8  C4  UNL     1      24.128  -0.544   6.493  1.00  0.00     0.174 A 
HETATM    9  C3  UNL     1      22.790  -0.842   6.592  1.00  0.00     0.056 A 
HETATM   10  N6  UNL     1      22.139   0.002   5.782  1.00  0.00    -0.329 N 
ATOM     11  H6  UNL     1      21.130   0.032   5.635  1.00  0.00     0.168 HD
BRANCH   9  12
HETATM   12  C2  UNL     1      22.238  -1.890   7.435  1.00  0.00     0.021 C 
HETATM   13  C1  UNL     1      21.627  -1.620   8.560  1.00  0.00     0.013 C 
ENDBRANCH   9  12
ENDBRANCH   5   6
ENDBRANCH   4   5
BRANCH   4  14
HETATM   14  C16 UNL     1      24.862   1.747   2.554  1.00  0.00     0.245 C 
HETATM   15  N5  UNL     1      25.386   3.041   2.917  1.00  0.00    -0.061 NA
HETATM   16  O2  UNL     1      25.628   0.771   2.431  1.00  0.00    -0.276 OA
ENDBRANCH   4  14
ENDBRANCH   3   4
ENDBRANCH   1   3
BRANCH   1  17
HETATM   17  N1  UNL     1      22.257  -1.747   0.984  1.00  0.00    -0.373 N 
HETATM   18  C10 UNL     1      20.959  -2.261   0.807  1.00  0.00     0.079 C 
HETATM   19  C11 UNL     1      20.336  -2.964   1.985  1.00  0.00     0.169 C 
HETATM   20  N2  UNL     1      21.279  -3.902   2.505  1.00  0.00    -0.350 N 
HETATM   21  C12 UNL     1      20.920  -4.801   3.529  1.00  0.00     0.184 C 
HETATM   22  C13 UNL     1      22.604  -3.903   1.951  1.00  0.00     0.145 C 
HETATM   23  N3  UNL     1      20.695  -6.052   3.278  1.00  0.00    -0.374 N 
HETATM   24  N4  UNL     1      20.793  -4.349   4.885  1.00  0.00    -0.064 NA
ATOM     25  H32 UNL     1      20.785  -6.374   2.314  1.00  0.00     0.158 HD
ATOM     26  H31 UNL     1      20.435  -6.703   4.020  1.00  0.00     0.158 HD
HETATM   27  C14 UNL     1      23.056  -2.428   1.904  1.00  0.00     0.143 C 
ENDBRANCH   1  17
BRANCH   1  28
HETATM   28  C15 UNL     1      22.846   0.063  -0.486  1.00  0.00     0.412 C 
HETATM   29  F1  UNL     1      22.353  -0.730  -1.530  1.00  0.00    -0.168 F 
HETATM   30  F2  UNL     1      24.230  -0.259  -0.556  1.00  0.00    -0.168 F 
HETATM   31  F3  UNL     1      22.790   1.379  -0.847  1.00  0.00    -0.168 F 
ENDBRANCH   1  28
TORSDOF 8
ENDMDL
MODEL 3
REMARK VINA RESULT: -7.224750217      3.502      5.738
REMARK  8 active torsions:
REMARK  status: ('A' for Active; 'I' for Inactive)
REMARK    1  A    between atoms: C2_2  and  C3_3 
REMARK    2  A    between atoms: C5_6  and  S1_7 
REMARK    3  A    between atoms: S1_7  and  C6_8 
REMARK    4  A    between atoms: C6_8  and  C7_9 
REMARK    5  A    between atoms: C6_8  and  C16_27 
REMARK    6  A    between atoms: C7_9  and  C8_10 
REMARK    7  A    between atoms: C8_10  and  N1_12 
REMARK    8  A    between atoms: C8_10  and  C15_23 
REMARK       I    between atoms: N2_15  and  C12_16 
ROOT
HETATM    1  C8  UNL     1      22.436   1.696   2.826  1.00  0.00     0.127 C 
HETATM    2  C9  UNL     1      21.220   1.584   3.840  1.00  0.00     0.048 C 
ENDROOT
BRANCH   1   3
HETATM    3  C7  UNL     1      23.066   0.392   2.884  1.00  0.00     0.065 C 
BRANCH   3   4
HETATM    4  C6  UNL     1      22.477  -0.808   3.465  1.00  0.00     0.147 C 
BRANCH   4   5
HETATM    5  S1  UNL     1      22.566  -2.197   2.206  1.00  0.00    -0.072 SA
BRANCH   5   6
HETATM    6  C5  UNL     1      21.657  -3.597   2.849  1.00  0.00     0.188 A 
HETATM    7  O1  UNL     1      20.950  -3.627   3.932  1.00  0.00    -0.298 OA
HETATM    8  C4  UNL     1      20.399  -4.796   4.145  1.00  0.00     0.174 A 
HETATM    9  C3  UNL     1      20.792  -5.594   3.098  1.00  0.00     0.056 A 
HETATM   10  N6  UNL     1      21.568  -4.844   2.304  1.00  0.00    -0.329 N 
ATOM     11  H6  UNL     1      22.016  -5.153   1.441  1.00  0.00     0.168 HD
BRANCH   9  12
HETATM   12  C2  UNL     1      20.408  -6.986   2.931  1.00  0.00     0.021 C 
HETATM   13  C1  UNL     1      20.023  -7.461   1.775  1.00  0.00     0.013 C 
ENDBRANCH   9  12
ENDBRANCH   5   6
ENDBRANCH   4   5
BRANCH   4  14
HETATM   14  C16 UNL     1      23.288  -1.426   4.581  1.00  0.00     0.245 C 
HETATM   15  N5  UNL     1      22.709  -1.559   5.895  1.00  0.00    -0.061 NA
HETATM   16  O2  UNL     1      24.450  -1.825   4.362  1.00  0.00    -0.276 OA
ENDBRANCH   4  14
ENDBRANCH   3   4
ENDBRANCH   1   3
BRANCH   1  17
HETATM   17  N1  UNL     1      21.769   1.825   1.545  1.00  0.00    -0.373 N 
HETATM   18  C10 UNL     1      20.433   1.388   1.486  1.00  0.00     0.079 C 
HETATM   19  C11 UNL     1      20.128   0.246   0.551  1.00  0.00     0.169 C 
HETATM   20  N2  UNL     1      20.717   0.530  -0.719  1.00  0.00    -0.350 N 
HETATM   21  C12 UNL     1      20.479  -0.303  -1.831  1.00  0.00     0.184 C 
HETATM   22  C13 UNL     1      21.555   1.690  -0.829  1.00  0.00     0.145 C 
HETATM   23  N3  UNL     1      19.672   0.055  -2.779  1.00  0.00    -0.374 N 
HETATM   24  N4  UNL     1      21.131  -1.576  -1.941  1.00  0.00    -0.064 NA
ATOM     25  H32 UNL     1      19.209   0.961  -2.701  1.00  0.00     0.158 HD
ATOM     26  H31 UNL     1      19.501  -0.547  -3.584  1.00  0.00     0.158 HD
HETATM   27  C14 UNL     1      22.515   1.649   0.379  1.00  0.00     0.143 C 
ENDBRANCH   1  17
BRANCH   1  28
HETATM   28  C15 UNL     1      23.050   2.957   3.237  1.00  0.00     0.412 C 
HETATM   29  F1  UNL     1      24.413   3.094   2.948  1.00  0.00    -0.168 F 
HETATM   30  F2  UNL     1      23.093   2.932   4.659  1.00  0.00    -0.168 F 
HETATM   31  F3  UNL     1      22.402   4.124   2.945  1.00  0.00    -0.168 F 
ENDBRANCH   1  28
TORSDOF 8
ENDMDL
MODEL 4
REMARK VINA RESULT: -7.170702253      3.730      6.464
REMARK  8 active torsions:
REMARK  status: ('A' for Active; 'I' for Inactive)
REMARK    1  A    between atoms: C2_2  and  C3_3 
REMARK    2  A    between atoms: C5_6  and  S1_7 
REMARK    3  A    between atoms: S1_7  and  C6_8 
REMARK    4  A    between atoms: C6_8  and  C7_9 
REMARK    5  A    between atoms: C6_8  and  C16_27 
REMARK    6  A    between atoms: C7_9  and  C8_10 
REMARK    7  A    between atoms: C8_10  and  N1_12 
REMARK    8  A    between atoms: C8_10  and  C15_23 
REMARK       I    between atoms: N2_15  and  C12_16 
ROOT
HETATM    1  C8  UNL     1      23.061   1.999   2.649  1.00  0.00     0.127 C 
HETATM    2  C9  UNL     1      24.577   1.644   2.338  1.00  0.00     0.048 C 
ENDROOT
BRANCH   1   3
HETATM    3  C7  UNL     1      22.308   1.147   1.752  1.00  0.00     0.065 C 
BRANCH   3   4
HETATM    4  C6  UNL     1      22.615  -0.246   1.447  1.00  0.00     0.147 C 
BRANCH   4   5
HETATM    5  S1  UNL     1      21.009  -1.173   1.163  1.00  0.00    -0.072 SA
BRANCH   5   6
HETATM    6  C5  UNL     1      21.296  -2.907   1.496  1.00  0.00     0.188 A 
HETATM    7  O1  UNL     1      22.126  -3.685   0.880  1.00  0.00    -0.298 OA
HETATM    8  C4  UNL     1      22.116  -4.908   1.347  1.00  0.00     0.174 A 
HETATM    9  C3  UNL     1      21.188  -4.917   2.361  1.00  0.00     0.056 A 
HETATM   10  N6  UNL     1      20.688  -3.677   2.444  1.00  0.00    -0.329 N 
ATOM     11  H6  UNL     1      19.976  -3.363   3.103  1.00  0.00     0.168 HD
BRANCH   9  12
HETATM   12  C2  UNL     1      20.851  -6.082   3.161  1.00  0.00     0.021 C 
HETATM   13  C1  UNL     1      21.612  -7.145   3.187  1.00  0.00     0.013 C 
ENDBRANCH   9  12
ENDBRANCH   5   6
ENDBRANCH   4   5
BRANCH   4  14
HETATM   14  C16 UNL     1      23.274  -0.462   0.103  1.00  0.00     0.245 C 
HETATM   15  N5  UNL     1      22.650   0.059  -1.089  1.00  0.00    -0.061 NA
HETATM   16  O2  UNL     1      24.353  -1.082   0.029  1.00  0.00    -0.276 OA
ENDBRANCH   4  14
ENDBRANCH   3   4
ENDBRANCH   1   3
BRANCH   1  17
HETATM   17  N1  UNL     1      22.891   1.505   4.000  1.00  0.00    -0.373 N 
HETATM   18  C10 UNL     1      23.980   0.807   4.555  1.00  0.00     0.079 C 
HETATM   19  C11 UNL     1      23.750  -0.636   4.925  1.00  0.00     0.169 C 
HETATM   20  N2  UNL     1      22.542  -0.724   5.681  1.00  0.00    -0.350 N 
HETATM   21  C12 UNL     1      22.145  -1.937   6.278  1.00  0.00     0.184 C 
HETATM   22  C13 UNL     1      21.744   0.462   5.816  1.00  0.00     0.145 C 
HETATM   23  N3  UNL     1      22.270  -2.132   7.553  1.00  0.00    -0.374 N 
HETATM   24  N4  UNL     1      21.591  -2.995   5.482  1.00  0.00    -0.064 NA
ATOM     25  H32 UNL     1      22.663  -1.380   8.119  1.00  0.00     0.158 HD
ATOM     26  H31 UNL     1      21.982  -3.011   7.985  1.00  0.00     0.158 HD
HETATM   27  C14 UNL     1      21.627   1.071   4.403  1.00  0.00     0.143 C 
ENDBRANCH   1  17
BRANCH   1  28
HETATM   28  C15 UNL     1      23.087   3.460   2.614  1.00  0.00     0.412 C 
HETATM   29  F1  UNL     1      23.342   4.093   3.837  1.00  0.00    -0.168 F 
HETATM   30  F2  UNL     1      21.745   3.875   2.389  1.00  0.00    -0.168 F 
HETATM   31  F3  UNL     1      23.797   4.078   1.624  1.00  0.00    -0.168 F 
ENDBRANCH   1  28
TORSDOF 8
ENDMDL
MODEL 5
REMARK VINA RESULT: -7.133571674      2.736      5.701
REMARK  8 active torsions:
REMARK  status: ('A' for Active; 'I' for Inactive)
REMARK    1  A    between atoms: C2_2  and  C3_3 
REMARK    2  A    between atoms: C5_6  and  S1_7 
REMARK    3  A    between atoms: S1_7  and  C6_8 
REMARK    4  A    between atoms: C6_8  and  C7_9 
REMARK    5  A    between atoms: C6_8  and  C16_27 
REMARK    6  A    between atoms: C7_9  and  C8_10 
REMARK    7  A    between atoms: C8_10  and  N1_12 
REMARK    8  A    between atoms: C8_10  and  C15_23 
REMARK       I    between atoms: N2_15  and  C12_16 
ROOT
HETATM    1  C8  UNL     1      22.387  -0.872   1.732  1.00  0.00     0.127 C 
HETATM    2  C9  UNL     1      21.080  -0.130   1.223  1.00  0.00     0.048 C 
ENDROOT
BRANCH   1   3
HETATM    3  C7  UNL     1      22.329  -0.743   3.174  1.00  0.00     0.065 C 
BRANCH   3   4
HETATM    4  C6  UNL     1      23.478  -0.599   4.059  1.00  0.00     0.147 C 
BRANCH   4   5
HETATM    5  S1  UNL     1      23.459   1.125   4.801  1.00  0.00    -0.072 SA
BRANCH   5   6
HETATM    6  C5  UNL     1      22.548   2.200   3.699  1.00  0.00     0.188 A 
HETATM    7  O1  UNL     1      23.018   2.826   2.669  1.00  0.00    -0.298 OA
HETATM    8  C4  UNL     1      22.110   3.541   2.053  1.00  0.00     0.174 A 
HETATM    9  C3  UNL     1      20.944   3.356   2.758  1.00  0.00     0.056 A 
HETATM   10  N6  UNL     1      21.226   2.527   3.771  1.00  0.00    -0.329 N 
ATOM     11  H6  UNL     1      20.566   2.198   4.475  1.00  0.00     0.168 HD
BRANCH   9  12
HETATM   12  C2  UNL     1      19.670   3.971   2.422  1.00  0.00     0.021 C 
HETATM   13  C1  UNL     1      19.122   3.821   1.244  1.00  0.00     0.013 C 
ENDBRANCH   9  12
ENDBRANCH   5   6
ENDBRANCH   4   5
BRANCH   4  14
HETATM   14  C16 UNL     1      23.399  -1.420   5.326  1.00  0.00     0.245 C 
HETATM   15  N5  UNL     1      22.331  -2.376   5.491  1.00  0.00    -0.061 NA
HETATM   16  O2  UNL     1      24.257  -1.276   6.219  1.00  0.00    -0.276 OA
ENDBRANCH   4  14
ENDBRANCH   3   4
ENDBRANCH   1   3
BRANCH   1  17
HETATM   17  N1  UNL     1      22.121  -2.254   1.385  1.00  0.00    -0.373 N 
HETATM   18  C10 UNL     1      20.769  -2.620   1.258  1.00  0.00     0.079 C 
HETATM   19  C11 UNL     1      20.252  -3.667   2.212  1.00  0.00     0.169 C 
HETATM   20  N2  UNL     1      21.166  -4.764   2.221  1.00  0.00    -0.350 N 
HETATM   21  C12 UNL     1      20.870  -5.950   2.922  1.00  0.00     0.184 C 
HETATM   22  C13 UNL     1      22.395  -4.623   1.492  1.00  0.00     0.145 C 
HETATM   23  N3  UNL     1      20.496  -7.024   2.301  1.00  0.00    -0.374 N 
HETATM   24  N4  UNL     1      20.977  -5.998   4.352  1.00  0.00    -0.064 NA
ATOM     25  H32 UNL     1      20.421  -6.990   1.284  1.00  0.00     0.158 HD
ATOM     26  H31 UNL     1      20.282  -7.882   2.809  1.00  0.00     0.158 HD
HETATM   27  C14 UNL     1      22.973  -3.245   1.875  1.00  0.00     0.143 C 
ENDBRANCH   1  17
BRANCH   1  28
HETATM   28  C15 UNL     1      23.413  -0.292   0.866  1.00  0.00     0.412 C 
HETATM   29  F1  UNL     1      24.448   0.387   1.519  1.00  0.00    -0.168 F 
HETATM   30  F2  UNL     1      22.790   0.789   0.184  1.00  0.00    -0.168 F 
HETATM   31  F3  UNL     1      23.933  -1.063  -0.135  1.00  0.00    -0.168 F 
ENDBRANCH   1  28
TORSDOF 8
ENDMDL
