MODEL 1
REMARK VINA RESULT: -3.759369795      0.000      0.000
REMARK  0 active torsions:
REMARK  status: ('A' for Active; 'I' for Inactive)
ROOT
HETATM    1  N1  UNL     1     -17.406 -32.964 -27.961  1.00  0.00    -0.388 N 
ATOM      2  H11 UNL     1     -17.227 -32.218 -27.289  1.00  0.00     0.157 HD
ATOM      3  H12 UNL     1     -17.791 -32.730 -28.877  1.00  0.00     0.157 HD
HETATM    4  C1  UNL     1     -17.143 -34.171 -27.641  1.00  0.00     0.101 C 
HETATM    5  S1  UNL     1     -17.456 -35.475 -28.816  1.00  0.00    -0.104 SA
HETATM    6  C2  UNL     1     -16.857 -37.016 -28.019  1.00  0.00     0.102 C 
HETATM    7  C3  UNL     1     -17.327 -37.151 -26.619  1.00  0.00     0.101 C 
HETATM    8 CL1  UNL     1     -17.067 -38.864 -26.135  1.00  0.00    -0.123 Cl
HETATM    9  C4  UNL     1     -16.608 -36.302 -25.621  1.00  0.00     0.102 C 
HETATM   10  S2  UNL     1     -16.481 -34.574 -26.063  1.00  0.00    -0.104 SA
ENDROOT
TORSDOF 0
ENDMDL
MODEL 2
REMARK VINA RESULT: -3.623703641      2.971      3.456
REMARK  0 active torsions:
REMARK  status: ('A' for Active; 'I' for Inactive)
ROOT
HETATM    1  N1  UNL     1     -15.059 -37.056 -30.197  1.00  0.00    -0.388 N 
ATOM      2  H11 UNL     1     -15.487 -36.194 -30.533  1.00  0.00     0.157 HD
ATOM      3  H12 UNL     1     -14.305 -37.484 -30.736  1.00  0.00     0.157 HD
HETATM    4  C1  UNL     1     -15.474 -37.579 -29.109  1.00  0.00     0.101 C 
HETATM    5  S1  UNL     1     -14.725 -39.086 -28.521  1.00  0.00    -0.104 SA
HETATM    6  C2  UNL     1     -15.523 -39.440 -26.906  1.00  0.00     0.102 C 
HETATM    7  C3  UNL     1     -17.000 -39.320 -26.964  1.00  0.00     0.101 C 
HETATM    8 CL1  UNL     1     -17.656 -40.123 -25.494  1.00  0.00    -0.123 Cl
HETATM    9  C4  UNL     1     -17.525 -37.920 -26.968  1.00  0.00     0.102 C 
HETATM   10  S2  UNL     1     -16.773 -36.842 -28.180  1.00  0.00    -0.104 SA
ENDROOT
TORSDOF 0
ENDMDL
MODEL 3
REMARK VINA RESULT: -3.571644546      1.033      2.166
REMARK  0 active torsions:
REMARK  status: ('A' for Active; 'I' for Inactive)
ROOT
HETATM    1  N1  UNL     1     -17.528 -33.030 -28.002  1.00  0.00    -0.388 N 
ATOM      2  H11 UNL     1     -17.572 -32.783 -28.991  1.00  0.00     0.157 HD
ATOM      3  H12 UNL     1     -17.739 -32.321 -27.299  1.00  0.00     0.157 HD
HETATM    4  C1  UNL     1     -17.210 -34.221 -27.668  1.00  0.00     0.101 C 
HETATM    5  S1  UNL     1     -17.133 -34.652 -25.940  1.00  0.00    -0.104 SA
HETATM    6  C2  UNL     1     -16.751 -36.447 -25.893  1.00  0.00     0.102 C 
HETATM    7  C3  UNL     1     -15.636 -36.814 -26.800  1.00  0.00     0.101 C 
HETATM    8 CL1  UNL     1     -15.080 -38.456 -26.319  1.00  0.00    -0.123 Cl
HETATM    9  C4  UNL     1     -15.991 -36.881 -28.251  1.00  0.00     0.102 C 
HETATM   10  S2  UNL     1     -16.846 -35.442 -28.879  1.00  0.00    -0.104 SA
ENDROOT
TORSDOF 0
ENDMDL
MODEL 4
REMARK VINA RESULT: -3.564681991      3.133      3.601
REMARK  0 active torsions:
REMARK  status: ('A' for Active; 'I' for Inactive)
ROOT
HETATM    1  N1  UNL     1     -15.461 -38.174 -30.146  1.00  0.00    -0.388 N 
ATOM      2  H11 UNL     1     -15.959 -37.724 -30.913  1.00  0.00     0.157 HD
ATOM      3  H12 UNL     1     -14.980 -39.058 -30.313  1.00  0.00     0.157 HD
HETATM    4  C1  UNL     1     -15.449 -37.619 -28.996  1.00  0.00     0.101 C 
HETATM    5  S1  UNL     1     -14.578 -38.406 -27.655  1.00  0.00    -0.104 SA
HETATM    6  C2  UNL     1     -14.716 -37.257 -26.230  1.00  0.00     0.102 C 
HETATM    7  C3  UNL     1     -16.102 -36.767 -26.029  1.00  0.00     0.101 C 
HETATM    8 CL1  UNL     1     -16.176 -36.051 -24.380  1.00  0.00    -0.123 Cl
HETATM    9  C4  UNL     1     -16.548 -35.708 -26.985  1.00  0.00     0.102 C 
HETATM   10  S2  UNL     1     -16.278 -36.096 -28.709  1.00  0.00    -0.104 SA
ENDROOT
TORSDOF 0
ENDMDL
MODEL 5
REMARK VINA RESULT: -3.547967994      2.981      3.373
REMARK  0 active torsions:
REMARK  status: ('A' for Active; 'I' for Inactive)
ROOT
HETATM    1  N1  UNL     1     -15.225 -37.622 -30.182  1.00  0.00    -0.388 N 
ATOM      2  H11 UNL     1     -14.659 -38.434 -30.427  1.00  0.00     0.157 HD
ATOM      3  H12 UNL     1     -15.522 -36.979 -30.918  1.00  0.00     0.157 HD
HETATM    4  C1  UNL     1     -15.550 -37.430 -28.963  1.00  0.00     0.101 C 
HETATM    5  S1  UNL     1     -16.541 -36.011 -28.535  1.00  0.00    -0.104 SA
HETATM    6  C2  UNL     1     -16.867 -36.158 -26.735  1.00  0.00     0.102 C 
HETATM    7  C3  UNL     1     -15.641 -36.468 -25.959  1.00  0.00     0.101 C 
HETATM    8 CL1  UNL     1     -16.008 -36.129 -24.231  1.00  0.00    -0.123 Cl
HETATM    9  C4  UNL     1     -15.181 -37.888 -26.037  1.00  0.00     0.102 C 
HETATM   10  S2  UNL     1     -15.039 -38.538 -27.697  1.00  0.00    -0.104 SA
ENDROOT
TORSDOF 0
ENDMDL
