MODEL 1
REMARK VINA RESULT: -4.033559026      0.000      0.000
REMARK  1 active torsions:
REMARK  status: ('A' for Active; 'I' for Inactive)
REMARK    1  A    between atoms: O1_1  and  C1_3 
ROOT
HETATM    1  C1  UNL     1      19.815  45.672 -10.246  1.00  0.00     0.150 C 
HETATM    2  C2  UNL     1      19.853  46.653  -9.081  1.00  0.00     0.304 C 
HETATM    3  N1  UNL     1      20.732  46.057  -8.083  1.00  0.00     0.090 N 
HETATM    4  C3  UNL     1      21.960  45.699  -8.798  1.00  0.00     0.273 C 
HETATM    5  C4  UNL     1      21.733  44.369  -9.471  1.00  0.00     0.037 C 
HETATM    6  C5  UNL     1      20.240  44.307  -9.809  1.00  0.00     0.019 C 
HETATM    7  C6  UNL     1      19.592  43.910  -8.475  1.00  0.00     0.037 C 
HETATM    8  C7  UNL     1      20.124  44.889  -7.464  1.00  0.00     0.273 C 
ENDROOT
BRANCH   1   9
HETATM    9  O1  UNL     1      18.541  45.716 -10.769  1.00  0.00    -0.393 OA
ATOM     10  H1  UNL     1      17.954  45.937 -10.055  1.00  0.00     0.210 HD
ENDBRANCH   1   9
TORSDOF 1
ENDMDL
MODEL 2
REMARK VINA RESULT: -4.006941997      6.515      7.639
REMARK  1 active torsions:
REMARK  status: ('A' for Active; 'I' for Inactive)
REMARK    1  A    between atoms: O1_1  and  C1_3 
ROOT
HETATM    1  C1  UNL     1      24.138  49.443  -4.650  1.00  0.00     0.150 C 
HETATM    2  C2  UNL     1      25.491  48.782  -4.417  1.00  0.00     0.304 C 
HETATM    3  N1  UNL     1      26.367  49.279  -5.469  1.00  0.00     0.090 N 
HETATM    4  C3  UNL     1      26.235  50.738  -5.441  1.00  0.00     0.273 C 
HETATM    5  C4  UNL     1      24.999  51.106  -6.223  1.00  0.00     0.037 C 
HETATM    6  C5  UNL     1      24.021  49.938  -6.056  1.00  0.00     0.019 C 
HETATM    7  C6  UNL     1      24.532  48.902  -7.067  1.00  0.00     0.037 C 
HETATM    8  C7  UNL     1      25.998  48.742  -6.771  1.00  0.00     0.273 C 
ENDROOT
BRANCH   1   9
HETATM    9  O1  UNL     1      23.173  48.523  -4.303  1.00  0.00    -0.393 OA
ATOM     10  H1  UNL     1      22.700  48.302  -5.097  1.00  0.00     0.210 HD
ENDBRANCH   1   9
TORSDOF 1
ENDMDL
MODEL 3
REMARK VINA RESULT: -3.907485521      7.206      8.290
REMARK  1 active torsions:
REMARK  status: ('A' for Active; 'I' for Inactive)
REMARK    1  A    between atoms: O1_1  and  C1_3 
ROOT
HETATM    1  C1  UNL     1      24.365  48.985  -4.769  1.00  0.00     0.150 C 
HETATM    2  C2  UNL     1      24.098  49.867  -5.982  1.00  0.00     0.304 C 
HETATM    3  N1  UNL     1      25.135  50.890  -5.971  1.00  0.00     0.090 N 
HETATM    4  C3  UNL     1      26.404  50.169  -5.837  1.00  0.00     0.273 C 
HETATM    5  C4  UNL     1      26.611  49.866  -4.374  1.00  0.00     0.037 C 
HETATM    6  C5  UNL     1      25.215  49.699  -3.767  1.00  0.00     0.019 C 
HETATM    7  C6  UNL     1      24.748  51.145  -3.553  1.00  0.00     0.037 C 
HETATM    8  C7  UNL     1      24.946  51.832  -4.877  1.00  0.00     0.273 C 
ENDROOT
BRANCH   1   9
HETATM    9  O1  UNL     1      23.139  48.593  -4.277  1.00  0.00    -0.393 OA
ATOM     10  H1  UNL     1      22.579  48.425  -5.026  1.00  0.00     0.210 HD
ENDBRANCH   1   9
TORSDOF 1
ENDMDL
MODEL 4
REMARK VINA RESULT: -3.692157232      5.471      6.580
REMARK  1 active torsions:
REMARK  status: ('A' for Active; 'I' for Inactive)
REMARK    1  A    between atoms: O1_1  and  C1_3 
ROOT
HETATM    1  C1  UNL     1      26.644  44.000 -11.412  1.00  0.00     0.150 C 
HETATM    2  C2  UNL     1      27.027  44.984 -10.314  1.00  0.00     0.304 C 
HETATM    3  N1  UNL     1      25.874  45.858 -10.140  1.00  0.00     0.090 N 
HETATM    4  C3  UNL     1      24.721  44.969  -9.976  1.00  0.00     0.273 C 
HETATM    5  C4  UNL     1      24.262  44.549 -11.350  1.00  0.00     0.037 C 
HETATM    6  C5  UNL     1      25.512  44.530 -12.234  1.00  0.00     0.019 C 
HETATM    7  C6  UNL     1      25.715  46.008 -12.592  1.00  0.00     0.037 C 
HETATM    8  C7  UNL     1      25.697  46.745 -11.281  1.00  0.00     0.273 C 
ENDROOT
BRANCH   1   9
HETATM    9  O1  UNL     1      27.785  43.742 -12.140  1.00  0.00    -0.393 OA
ATOM     10  H1  UNL     1      28.091  42.880 -11.883  1.00  0.00     0.210 HD
ENDBRANCH   1   9
TORSDOF 1
ENDMDL
MODEL 5
REMARK VINA RESULT: -3.662558937      5.014      6.053
REMARK  1 active torsions:
REMARK  status: ('A' for Active; 'I' for Inactive)
REMARK    1  A    between atoms: O1_1  and  C1_3 
ROOT
HETATM    1  C1  UNL     1      24.514  44.318 -11.568  1.00  0.00     0.150 C 
HETATM    2  C2  UNL     1      24.652  44.852 -10.148  1.00  0.00     0.304 C 
HETATM    3  N1  UNL     1      25.828  45.711 -10.155  1.00  0.00     0.090 N 
HETATM    4  C3  UNL     1      25.644  46.628 -11.283  1.00  0.00     0.273 C 
HETATM    5  C4  UNL     1      26.091  45.917 -12.535  1.00  0.00     0.037 C 
HETATM    6  C5  UNL     1      25.808  44.429 -12.308  1.00  0.00     0.019 C 
HETATM    7  C6  UNL     1      26.995  43.971 -11.448  1.00  0.00     0.037 C 
HETATM    8  C7  UNL     1      27.054  44.939 -10.298  1.00  0.00     0.273 C 
ENDROOT
BRANCH   1   9
HETATM    9  O1  UNL     1      24.039  43.028 -11.470  1.00  0.00    -0.393 OA
ATOM     10  H1  UNL     1      24.081  42.784 -10.552  1.00  0.00     0.210 HD
ENDBRANCH   1   9
TORSDOF 1
ENDMDL
