MODEL 1
REMARK VINA RESULT: -6.313254672      0.000      0.000
REMARK  6 active torsions:
REMARK  status: ('A' for Active; 'I' for Inactive)
REMARK       I    between atoms: C1_2  and  N1_3 
REMARK    1  A    between atoms: C1_2  and  C6_17 
REMARK    2  A    between atoms: N1_3  and  N2_5 
REMARK    3  A    between atoms: C2_7  and  C3_8 
REMARK    4  A    between atoms: C2_7  and  C5_12 
REMARK    5  A    between atoms: C5_12  and  O3_13 
REMARK    6  A    between atoms: C5_12  and  O4_15 
ROOT
HETATM    1  C3  UNL     1      20.782  45.408  -9.570  1.00  0.00    -0.017 C 
HETATM    2  C4  UNL     1      20.197  46.473  -9.519  1.00  0.00     0.058 C 
HETATM    3  O2  UNL     1      19.531  47.674  -9.460  1.00  0.00    -0.314 OA
ATOM      4  H2  UNL     1      19.074  48.506  -9.419  1.00  0.00     0.230 HD
ENDROOT
BRANCH   1   5
HETATM    5  C2  UNL     1      21.451  44.142  -9.629  1.00  0.00     0.136 C 
HETATM    6  N2  UNL     1      22.729  44.056  -9.523  1.00  0.00    -0.289 N 
ATOM      7  H2  UNL     1      23.198  43.152  -9.565  1.00  0.00     0.187 HD
BRANCH   6   8
HETATM    8  N1  UNL     1      23.468  45.254  -9.345  1.00  0.00    -0.265 N 
HETATM    9  C1  UNL     1      24.542  45.529 -10.205  1.00  0.00     0.277 C 
HETATM   10  O1  UNL     1      24.896  44.769 -11.137  1.00  0.00    -0.265 OA
ATOM     11  H1  UNL     1      23.221  45.906  -8.600  1.00  0.00     0.190 HD
BRANCH   9  12
HETATM   12  C6  UNL     1      25.294  46.785  -9.993  1.00  0.00     0.074 A 
HETATM   13  C7  UNL     1      26.388  47.241 -10.666  1.00  0.00     0.025 A 
HETATM   14  C8  UNL     1      26.902  48.431 -10.283  1.00  0.00     0.009 A 
HETATM   15  C9  UNL     1      26.281  49.074  -9.253  1.00  0.00     0.050 A 
HETATM   16  S1  UNL     1      25.010  48.026  -8.843  1.00  0.00    -0.097 SA
ENDBRANCH   9  12
ENDBRANCH   6   8
BRANCH   5  17
HETATM   17  C5  UNL     1      20.683  42.888  -9.815  1.00  0.00     0.315 C 
BRANCH  17  18
HETATM   18  O3  UNL     1      19.317  43.116  -9.579  1.00  0.00    -0.365 OA
ATOM     19  H3  UNL     1      18.789  42.557 -10.137  1.00  0.00     0.213 HD
ENDBRANCH  17  18
BRANCH  17  20
HETATM   20  O4  UNL     1      20.780  42.488 -11.169  1.00  0.00    -0.365 OA
ATOM     21  H4  UNL     1      20.164  42.995 -11.684  1.00  0.00     0.213 HD
ENDBRANCH  17  20
ENDBRANCH   5  17
ENDBRANCH   1   5
TORSDOF 6
ENDMDL
MODEL 2
REMARK VINA RESULT: -6.210283302      1.203      1.397
REMARK  6 active torsions:
REMARK  status: ('A' for Active; 'I' for Inactive)
REMARK       I    between atoms: C1_2  and  N1_3 
REMARK    1  A    between atoms: C1_2  and  C6_17 
REMARK    2  A    between atoms: N1_3  and  N2_5 
REMARK    3  A    between atoms: C2_7  and  C3_8 
REMARK    4  A    between atoms: C2_7  and  C5_12 
REMARK    5  A    between atoms: C5_12  and  O3_13 
REMARK    6  A    between atoms: C5_12  and  O4_15 
ROOT
HETATM    1  C3  UNL     1      21.039  45.127  -9.630  1.00  0.00    -0.017 C 
HETATM    2  C4  UNL     1      20.671  46.264  -9.403  1.00  0.00     0.058 C 
HETATM    3  O2  UNL     1      20.251  47.547  -9.144  1.00  0.00    -0.314 OA
ATOM      4  H2  UNL     1      19.963  48.435  -8.967  1.00  0.00     0.230 HD
ENDROOT
BRANCH   1   5
HETATM    5  C2  UNL     1      21.453  43.780  -9.889  1.00  0.00     0.136 C 
HETATM    6  N2  UNL     1      22.666  43.503 -10.209  1.00  0.00    -0.289 N 
ATOM      7  H2  UNL     1      22.954  42.542 -10.392  1.00  0.00     0.187 HD
BRANCH   6   8
HETATM    8  N1  UNL     1      23.595  44.571 -10.299  1.00  0.00    -0.265 N 
HETATM    9  C1  UNL     1      24.591  44.530 -11.287  1.00  0.00     0.277 C 
HETATM   10  O1  UNL     1      24.713  43.591 -12.110  1.00  0.00    -0.265 OA
ATOM     11  H1  UNL     1      23.540  45.359  -9.653  1.00  0.00     0.190 HD
BRANCH   9  12
HETATM   12  C6  UNL     1      25.545  45.658 -11.355  1.00  0.00     0.074 A 
HETATM   13  C7  UNL     1      26.359  46.018 -12.388  1.00  0.00     0.025 A 
HETATM   14  C8  UNL     1      27.151  47.098 -12.208  1.00  0.00     0.009 A 
HETATM   15  C9  UNL     1      27.067  47.737 -11.005  1.00  0.00     0.050 A 
HETATM   16  S1  UNL     1      25.904  46.835 -10.160  1.00  0.00    -0.097 SA
ENDBRANCH   9  12
ENDBRANCH   6   8
BRANCH   5  17
HETATM   17  C5  UNL     1      20.486  42.660  -9.797  1.00  0.00     0.315 C 
BRANCH  17  18
HETATM   18  O3  UNL     1      19.270  43.113  -9.257  1.00  0.00    -0.365 OA
ATOM     19  H3  UNL     1      18.598  43.127  -9.928  1.00  0.00     0.213 HD
ENDBRANCH  17  18
BRANCH  17  20
HETATM   20  O4  UNL     1      20.184  42.206 -11.102  1.00  0.00    -0.365 OA
ATOM     21  H4  UNL     1      20.268  41.260 -11.126  1.00  0.00     0.213 HD
ENDBRANCH  17  20
ENDBRANCH   5  17
ENDBRANCH   1   5
TORSDOF 6
ENDMDL
MODEL 3
REMARK VINA RESULT: -6.031415562      1.918      2.099
REMARK  6 active torsions:
REMARK  status: ('A' for Active; 'I' for Inactive)
REMARK       I    between atoms: C1_2  and  N1_3 
REMARK    1  A    between atoms: C1_2  and  C6_17 
REMARK    2  A    between atoms: N1_3  and  N2_5 
REMARK    3  A    between atoms: C2_7  and  C3_8 
REMARK    4  A    between atoms: C2_7  and  C5_12 
REMARK    5  A    between atoms: C5_12  and  O3_13 
REMARK    6  A    between atoms: C5_12  and  O4_15 
ROOT
HETATM    1  C3  UNL     1      20.569  45.331  -9.873  1.00  0.00    -0.017 C 
HETATM    2  C4  UNL     1      20.408  46.503  -9.593  1.00  0.00     0.058 C 
HETATM    3  O2  UNL     1      20.223  47.829  -9.280  1.00  0.00    -0.314 OA
ATOM      4  H2  UNL     1      20.096  48.745  -9.062  1.00  0.00     0.230 HD
ENDROOT
BRANCH   1   5
HETATM    5  C2  UNL     1      20.746  43.952 -10.222  1.00  0.00     0.136 C 
HETATM    6  N2  UNL     1      21.864  43.517 -10.680  1.00  0.00    -0.289 N 
ATOM      7  H2  UNL     1      21.983  42.534 -10.926  1.00  0.00     0.187 HD
BRANCH   6   8
HETATM    8  N1  UNL     1      22.930  44.440 -10.835  1.00  0.00    -0.265 N 
HETATM    9  C1  UNL     1      24.043  44.077 -11.609  1.00  0.00     0.277 C 
HETATM   10  O1  UNL     1      24.158  42.967 -12.181  1.00  0.00    -0.265 OA
ATOM     11  H1  UNL     1      22.887  45.357 -10.389  1.00  0.00     0.190 HD
BRANCH   9  12
HETATM   12  C6  UNL     1      25.138  45.062 -11.750  1.00  0.00     0.074 A 
HETATM   13  C7  UNL     1      25.411  45.879 -12.807  1.00  0.00     0.025 A 
HETATM   14  C8  UNL     1      26.479  46.699 -12.697  1.00  0.00     0.009 A 
HETATM   15  C9  UNL     1      27.194  46.639 -11.537  1.00  0.00     0.050 A 
HETATM   16  S1  UNL     1      26.377  45.458 -10.632  1.00  0.00    -0.097 SA
ENDBRANCH   9  12
ENDBRANCH   6   8
BRANCH   5  17
HETATM   17  C5  UNL     1      19.636  42.983 -10.063  1.00  0.00     0.315 C 
BRANCH  17  18
HETATM   18  O3  UNL     1      19.201  42.959  -8.726  1.00  0.00    -0.365 OA
ATOM     19  H3  UNL     1      18.978  43.836  -8.438  1.00  0.00     0.213 HD
ENDBRANCH  17  18
BRANCH  17  20
HETATM   20  O4  UNL     1      18.528  43.426 -10.822  1.00  0.00    -0.365 OA
ATOM     21  H4  UNL     1      18.390  42.825 -11.544  1.00  0.00     0.213 HD
ENDBRANCH  17  20
ENDBRANCH   5  17
ENDBRANCH   1   5
TORSDOF 6
ENDMDL
MODEL 4
REMARK VINA RESULT: -5.832821826      3.090      6.463
REMARK  6 active torsions:
REMARK  status: ('A' for Active; 'I' for Inactive)
REMARK       I    between atoms: C1_2  and  N1_3 
REMARK    1  A    between atoms: C1_2  and  C6_17 
REMARK    2  A    between atoms: N1_3  and  N2_5 
REMARK    3  A    between atoms: C2_7  and  C3_8 
REMARK    4  A    between atoms: C2_7  and  C5_12 
REMARK    5  A    between atoms: C5_12  and  O3_13 
REMARK    6  A    between atoms: C5_12  and  O4_15 
ROOT
HETATM    1  C3  UNL     1      25.576  47.991  -9.515  1.00  0.00    -0.017 C 
HETATM    2  C4  UNL     1      26.388  47.544 -10.303  1.00  0.00     0.058 C 
HETATM    3  O2  UNL     1      27.307  47.042 -11.193  1.00  0.00    -0.314 OA
ATOM      4  H2  UNL     1      27.941  46.693 -11.809  1.00  0.00     0.230 HD
ENDROOT
BRANCH   1   5
HETATM    5  C2  UNL     1      24.631  48.539  -8.588  1.00  0.00     0.136 C 
HETATM    6  N2  UNL     1      23.548  47.915  -8.292  1.00  0.00    -0.289 N 
ATOM      7  H2  UNL     1      22.879  48.311  -7.631  1.00  0.00     0.187 HD
BRANCH   6   8
HETATM    8  N1  UNL     1      23.307  46.661  -8.908  1.00  0.00    -0.265 N 
HETATM    9  C1  UNL     1      22.001  46.146  -8.925  1.00  0.00     0.277 C 
HETATM   10  O1  UNL     1      21.017  46.735  -8.418  1.00  0.00    -0.265 OA
ATOM     11  H1  UNL     1      24.074  46.140  -9.335  1.00  0.00     0.190 HD
BRANCH   9  12
HETATM   12  C6  UNL     1      21.783  44.835  -9.574  1.00  0.00     0.074 A 
HETATM   13  C7  UNL     1      22.653  44.111 -10.334  1.00  0.00     0.025 A 
HETATM   14  C8  UNL     1      22.215  42.930 -10.824  1.00  0.00     0.009 A 
HETATM   15  C9  UNL     1      20.938  42.563 -10.515  1.00  0.00     0.050 A 
HETATM   16  S1  UNL     1      20.378  43.851  -9.562  1.00  0.00    -0.097 SA
ENDBRANCH   9  12
ENDBRANCH   6   8
BRANCH   5  17
HETATM   17  C5  UNL     1      24.877  49.850  -7.941  1.00  0.00     0.315 C 
BRANCH  17  18
HETATM   18  O3  UNL     1      24.874  50.874  -8.904  1.00  0.00    -0.365 OA
ATOM     19  H3  UNL     1      25.385  51.614  -8.597  1.00  0.00     0.213 HD
ENDBRANCH  17  18
BRANCH  17  20
HETATM   20  O4  UNL     1      23.804  50.138  -7.066  1.00  0.00    -0.365 OA
ATOM     21  H4  UNL     1      23.659  51.077  -7.056  1.00  0.00     0.213 HD
ENDBRANCH  17  20
ENDBRANCH   5  17
ENDBRANCH   1   5
TORSDOF 6
ENDMDL
MODEL 5
REMARK VINA RESULT: -5.830250244      1.943      2.967
REMARK  6 active torsions:
REMARK  status: ('A' for Active; 'I' for Inactive)
REMARK       I    between atoms: C1_2  and  N1_3 
REMARK    1  A    between atoms: C1_2  and  C6_17 
REMARK    2  A    between atoms: N1_3  and  N2_5 
REMARK    3  A    between atoms: C2_7  and  C3_8 
REMARK    4  A    between atoms: C2_7  and  C5_12 
REMARK    5  A    between atoms: C5_12  and  O3_13 
REMARK    6  A    between atoms: C5_12  and  O4_15 
ROOT
HETATM    1  C3  UNL     1      22.613  44.104 -10.427  1.00  0.00    -0.017 C 
HETATM    2  C4  UNL     1      23.129  43.436 -11.303  1.00  0.00     0.058 C 
HETATM    3  O2  UNL     1      23.708  42.679 -12.294  1.00  0.00    -0.314 OA
ATOM      4  H2  UNL     1      24.110  42.158 -12.979  1.00  0.00     0.230 HD
ENDROOT
BRANCH   1   5
HETATM    5  C2  UNL     1      21.985  44.879  -9.399  1.00  0.00     0.136 C 
HETATM    6  N2  UNL     1      22.596  45.859  -8.834  1.00  0.00    -0.289 N 
ATOM      7  H2  UNL     1      22.143  46.407  -8.103  1.00  0.00     0.187 HD
BRANCH   6   8
HETATM    8  N1  UNL     1      23.917  46.157  -9.255  1.00  0.00    -0.265 N 
HETATM    9  C1  UNL     1      24.429  47.446  -9.040  1.00  0.00     0.277 C 
HETATM   10  O1  UNL     1      23.780  48.367  -8.490  1.00  0.00    -0.265 OA
ATOM     11  H1  UNL     1      24.488  45.443  -9.709  1.00  0.00     0.190 HD
BRANCH   9  12
HETATM   12  C6  UNL     1      25.809  47.726  -9.491  1.00  0.00     0.074 A 
HETATM   13  C7  UNL     1      26.380  47.444 -10.697  1.00  0.00     0.025 A 
HETATM   14  C8  UNL     1      27.671  47.802 -10.871  1.00  0.00     0.009 A 
HETATM   15  C9  UNL     1      28.295  48.414  -9.824  1.00  0.00     0.050 A 
HETATM   16  S1  UNL     1      27.088  48.481  -8.632  1.00  0.00    -0.097 SA
ENDBRANCH   9  12
ENDBRANCH   6   8
BRANCH   5  17
HETATM   17  C5  UNL     1      20.605  44.572  -8.954  1.00  0.00     0.315 C 
BRANCH  17  18
HETATM   18  O3  UNL     1      20.162  45.544  -8.041  1.00  0.00    -0.365 OA
ATOM     19  H3  UNL     1      20.854  45.756  -7.426  1.00  0.00     0.213 HD
ENDBRANCH  17  18
BRANCH  17  20
HETATM   20  O4  UNL     1      19.735  44.662 -10.066  1.00  0.00    -0.365 OA
ATOM     21  H4  UNL     1      19.939  43.961 -10.674  1.00  0.00     0.213 HD
ENDBRANCH  17  20
ENDBRANCH   5  17
ENDBRANCH   1   5
TORSDOF 6
ENDMDL
