MODEL 1
REMARK VINA RESULT: -6.639473956      0.000      0.000
REMARK  10 active torsions:
REMARK  status: ('A' for Active; 'I' for Inactive)
REMARK    1  A    between atoms: C2_2  and  C3_3 
REMARK    2  A    between atoms: C3_3  and  C4_5 
REMARK    3  A    between atoms: C4_5  and  C5_7 
REMARK    4  A    between atoms: C6_8  and  O2_9 
REMARK    5  A    between atoms: C8_12  and  O3_13 
REMARK    6  A    between atoms: C13_19  and  O4_20 
REMARK    7  A    between atoms: C13_19  and  C14_22 
REMARK    8  A    between atoms: C14_22  and  C15_23 
REMARK    9  A    between atoms: C18_27  and  O6_28 
REMARK   10  A    between atoms: O6_28  and  C19_29 
ROOT
HETATM    1  C5  UNL     1      -3.572   2.302  12.407  1.00  0.00     0.122 C 
HETATM    2  C6  UNL     1      -4.227   2.859  13.634  1.00  0.00     0.142 C 
HETATM    3  C7  UNL     1      -3.186   3.963  13.544  1.00  0.00     0.081 C 
HETATM    4  C8  UNL     1      -3.689   5.331  13.795  1.00  0.00     0.136 C 
HETATM    5  C9  UNL     1      -4.458   5.658  12.535  1.00  0.00     0.048 C 
HETATM    6  C10 UNL     1      -4.097   6.955  11.985  1.00  0.00    -0.013 C 
HETATM    7  C11 UNL     1      -3.721   6.835  10.731  1.00  0.00    -0.052 C 
HETATM    8  C12 UNL     1      -3.281   8.041   9.905  1.00  0.00     0.046 C 
HETATM    9  C13 UNL     1      -3.808   5.441  10.318  1.00  0.00     0.094 C 
HETATM   10  C17 UNL     1      -4.056   4.643  11.498  1.00  0.00     0.071 C 
HETATM   11  C18 UNL     1      -3.100   3.695  12.068  1.00  0.00     0.095 C 
ENDROOT
BRANCH   1  12
HETATM   12  C4  UNL     1      -4.388   1.642  11.420  1.00  0.00     0.154 C 
HETATM   13  O1  UNL     1      -5.467   2.074  11.119  1.00  0.00    -0.296 OA
BRANCH  12  14
HETATM   14  C3  UNL     1      -3.965   0.384  10.694  1.00  0.00     0.152 C 
HETATM   15 CL1  UNL     1      -2.232   0.446  10.328  1.00  0.00    -0.117 Cl
BRANCH  14  16
HETATM   16  C2  UNL     1      -4.205  -0.800  11.602  1.00  0.00     0.023 C 
HETATM   17  C1  UNL     1      -3.062  -1.776  11.349  1.00  0.00     0.007 C 
ENDBRANCH  14  16
ENDBRANCH  12  14
ENDBRANCH   1  12
BRANCH   2  18
HETATM   18  O2  UNL     1      -5.542   3.210  13.563  1.00  0.00    -0.394 OA
ATOM     19  H2  UNL     1      -5.930   3.656  14.306  1.00  0.00     0.210 HD
ENDBRANCH   2  18
BRANCH  11  20
HETATM   20  O6  UNL     1      -1.879   3.596  11.490  1.00  0.00    -0.319 OA
BRANCH  20  21
HETATM   21  C19 UNL     1      -0.784   4.099  12.040  1.00  0.00     0.501 C 
HETATM   22  F1  UNL     1       0.411   3.717  11.405  1.00  0.00    -0.184 F 
HETATM   23  F2  UNL     1      -0.811   5.495  11.859  1.00  0.00    -0.184 F 
ENDBRANCH  20  21
ENDBRANCH  11  20
BRANCH   4  24
HETATM   24  O3  UNL     1      -4.428   5.474  14.943  1.00  0.00    -0.394 OA
ATOM     25  H3  UNL     1      -5.332   5.191  14.874  1.00  0.00     0.210 HD
ENDBRANCH   4  24
BRANCH   9  26
HETATM   26  O4  UNL     1      -5.088   5.474   9.585  1.00  0.00    -0.384 OA
ATOM     27  H4  UNL     1      -5.690   5.563  10.315  1.00  0.00     0.211 HD
ENDBRANCH   9  26
BRANCH   9  28
HETATM   28  C14 UNL     1      -2.833   5.067   9.308  1.00  0.00     0.120 C 
BRANCH  28  29
HETATM   29  C15 UNL     1      -3.298   5.139   7.902  1.00  0.00     0.126 C 
HETATM   30  C16 UNL     1      -2.805   6.239   6.983  1.00  0.00     0.091 C 
HETATM   31  O5  UNL     1      -4.079   4.373   7.365  1.00  0.00    -0.298 OA
ENDBRANCH  28  29
ENDBRANCH   9  28
TORSDOF 10
ENDMDL
MODEL 2
REMARK VINA RESULT: -6.581464678      2.370      4.686
REMARK  10 active torsions:
REMARK  status: ('A' for Active; 'I' for Inactive)
REMARK    1  A    between atoms: C2_2  and  C3_3 
REMARK    2  A    between atoms: C3_3  and  C4_5 
REMARK    3  A    between atoms: C4_5  and  C5_7 
REMARK    4  A    between atoms: C6_8  and  O2_9 
REMARK    5  A    between atoms: C8_12  and  O3_13 
REMARK    6  A    between atoms: C13_19  and  O4_20 
REMARK    7  A    between atoms: C13_19  and  C14_22 
REMARK    8  A    between atoms: C14_22  and  C15_23 
REMARK    9  A    between atoms: C18_27  and  O6_28 
REMARK   10  A    between atoms: O6_28  and  C19_29 
ROOT
HETATM    1  C5  UNL     1      -2.524   3.202  10.574  1.00  0.00     0.122 C 
HETATM    2  C6  UNL     1      -1.238   3.574   9.901  1.00  0.00     0.142 C 
HETATM    3  C7  UNL     1      -1.703   5.011  10.072  1.00  0.00     0.081 C 
HETATM    4  C8  UNL     1      -0.662   5.966  10.510  1.00  0.00     0.136 C 
HETATM    5  C9  UNL     1      -0.469   5.629  11.971  1.00  0.00     0.048 C 
HETATM    6  C10 UNL     1      -0.510   6.806  12.823  1.00  0.00    -0.013 C 
HETATM    7  C11 UNL     1      -1.414   6.660  13.766  1.00  0.00    -0.052 C 
HETATM    8  C12 UNL     1      -1.676   7.749  14.803  1.00  0.00     0.046 C 
HETATM    9  C13 UNL     1      -2.058   5.360  13.640  1.00  0.00     0.094 C 
HETATM   10  C17 UNL     1      -1.640   4.777  12.384  1.00  0.00     0.071 C 
HETATM   11  C18 UNL     1      -2.526   4.556  11.243  1.00  0.00     0.095 C 
ENDROOT
BRANCH   1  12
HETATM   12  C4  UNL     1      -2.549   2.055  11.445  1.00  0.00     0.154 C 
HETATM   13  O1  UNL     1      -1.547   1.437  11.684  1.00  0.00    -0.296 OA
BRANCH  12  14
HETATM   14  C3  UNL     1      -3.805   1.545  12.118  1.00  0.00     0.152 C 
HETATM   15 CL1  UNL     1      -5.234   2.034  11.190  1.00  0.00    -0.117 Cl
BRANCH  14  16
HETATM   16  C2  UNL     1      -3.760   0.035  12.140  1.00  0.00     0.023 C 
HETATM   17  C1  UNL     1      -4.307  -0.433  10.796  1.00  0.00     0.007 C 
ENDBRANCH  14  16
ENDBRANCH  12  14
ENDBRANCH   1  12
BRANCH   2  18
HETATM   18  O2  UNL     1      -0.068   3.204  10.493  1.00  0.00    -0.394 OA
ATOM     19  H2  UNL     1       0.266   3.738  11.203  1.00  0.00     0.210 HD
ENDBRANCH   2  18
BRANCH  11  20
HETATM   20  O6  UNL     1      -3.811   4.973  11.343  1.00  0.00    -0.319 OA
BRANCH  20  21
HETATM   21  C19 UNL     1      -4.262   6.053  10.725  1.00  0.00     0.501 C 
HETATM   22  F1  UNL     1      -5.661   6.195  10.752  1.00  0.00    -0.184 F 
HETATM   23  F2  UNL     1      -3.813   7.180  11.440  1.00  0.00    -0.184 F 
ENDBRANCH  20  21
ENDBRANCH  11  20
BRANCH   4  24
HETATM   24  O3  UNL     1       0.499   5.931   9.779  1.00  0.00    -0.394 OA
ATOM     25  H3  UNL     1       0.952   6.763   9.707  1.00  0.00     0.210 HD
ENDBRANCH   4  24
BRANCH   9  26
HETATM   26  O4  UNL     1      -1.329   4.615  14.684  1.00  0.00    -0.384 OA
ATOM     27  H4  UNL     1      -1.534   3.725  14.422  1.00  0.00     0.211 HD
ENDBRANCH   9  26
BRANCH   9  28
HETATM   28  C14 UNL     1      -3.438   5.342  14.093  1.00  0.00     0.120 C 
BRANCH  28  29
HETATM   29  C15 UNL     1      -3.908   4.066  14.685  1.00  0.00     0.126 C 
HETATM   30  C16 UNL     1      -5.381   3.711  14.680  1.00  0.00     0.091 C 
HETATM   31  O5  UNL     1      -3.207   3.218  15.209  1.00  0.00    -0.298 OA
ENDBRANCH  28  29
ENDBRANCH   9  28
TORSDOF 10
ENDMDL
MODEL 3
REMARK VINA RESULT: -6.495312014      2.434      5.859
REMARK  10 active torsions:
REMARK  status: ('A' for Active; 'I' for Inactive)
REMARK    1  A    between atoms: C2_2  and  C3_3 
REMARK    2  A    between atoms: C3_3  and  C4_5 
REMARK    3  A    between atoms: C4_5  and  C5_7 
REMARK    4  A    between atoms: C6_8  and  O2_9 
REMARK    5  A    between atoms: C8_12  and  O3_13 
REMARK    6  A    between atoms: C13_19  and  O4_20 
REMARK    7  A    between atoms: C13_19  and  C14_22 
REMARK    8  A    between atoms: C14_22  and  C15_23 
REMARK    9  A    between atoms: C18_27  and  O6_28 
REMARK   10  A    between atoms: O6_28  and  C19_29 
ROOT
HETATM    1  C5  UNL     1      -3.261   5.089  10.969  1.00  0.00     0.122 C 
HETATM    2  C6  UNL     1      -2.941   4.010   9.980  1.00  0.00     0.142 C 
HETATM    3  C7  UNL     1      -2.169   3.362  11.118  1.00  0.00     0.081 C 
HETATM    4  C8  UNL     1      -2.338   1.898  11.247  1.00  0.00     0.136 C 
HETATM    5  C9  UNL     1      -3.728   1.755  11.823  1.00  0.00     0.048 C 
HETATM    6  C10 UNL     1      -3.764   0.867  12.973  1.00  0.00    -0.013 C 
HETATM    7  C11 UNL     1      -4.297   1.475  14.009  1.00  0.00    -0.052 C 
HETATM    8  C12 UNL     1      -4.456   0.777  15.357  1.00  0.00     0.046 C 
HETATM    9  C13 UNL     1      -4.683   2.832  13.644  1.00  0.00     0.094 C 
HETATM   10  C17 UNL     1      -4.134   3.112  12.336  1.00  0.00     0.071 C 
HETATM   11  C18 UNL     1      -3.072   4.083  12.079  1.00  0.00     0.095 C 
ENDROOT
BRANCH   1  12
HETATM   12  C4  UNL     1      -4.546   5.737  10.902  1.00  0.00     0.154 C 
HETATM   13  O1  UNL     1      -5.436   5.282  10.237  1.00  0.00    -0.296 OA
BRANCH  12  14
HETATM   14  C3  UNL     1      -4.877   7.012  11.648  1.00  0.00     0.152 C 
HETATM   15 CL1  UNL     1      -3.822   8.328  11.103  1.00  0.00    -0.117 Cl
BRANCH  14  16
HETATM   16  C2  UNL     1      -6.303   7.399  11.330  1.00  0.00     0.023 C 
HETATM   17  C1  UNL     1      -6.238   8.754  10.635  1.00  0.00     0.007 C 
ENDBRANCH  14  16
ENDBRANCH  12  14
ENDBRANCH   1  12
BRANCH   2  18
HETATM   18  O2  UNL     1      -3.973   3.313   9.428  1.00  0.00    -0.394 OA
ATOM     19  H2  UNL     1      -3.787   2.469   9.034  1.00  0.00     0.210 HD
ENDBRANCH   2  18
BRANCH  11  20
HETATM   20  O6  UNL     1      -2.523   4.724  13.138  1.00  0.00    -0.319 OA
BRANCH  20  21
HETATM   21  C19 UNL     1      -1.236   4.641  13.436  1.00  0.00     0.501 C 
HETATM   22  F1  UNL     1      -0.509   5.821  13.198  1.00  0.00    -0.184 F 
HETATM   23  F2  UNL     1      -1.124   4.473  14.830  1.00  0.00    -0.184 F 
ENDBRANCH  20  21
ENDBRANCH  11  20
BRANCH   4  24
HETATM   24  O3  UNL     1      -2.148   1.190  10.086  1.00  0.00    -0.394 OA
ATOM     25  H3  UNL     1      -1.243   0.973   9.893  1.00  0.00     0.210 HD
ENDBRANCH   4  24
BRANCH   9  26
HETATM   26  O4  UNL     1      -6.129   2.635  13.433  1.00  0.00    -0.384 OA
ATOM     27  H4  UNL     1      -6.472   3.271  14.051  1.00  0.00     0.211 HD
ENDBRANCH   9  26
BRANCH   9  28
HETATM   28  C14 UNL     1      -4.612   3.777  14.744  1.00  0.00     0.120 C 
BRANCH  28  29
HETATM   29  C15 UNL     1      -5.893   4.417  15.130  1.00  0.00     0.126 C 
HETATM   30  C16 UNL     1      -6.529   4.118  16.473  1.00  0.00     0.091 C 
HETATM   31  O5  UNL     1      -6.535   5.202  14.454  1.00  0.00    -0.298 OA
ENDBRANCH  28  29
ENDBRANCH   9  28
TORSDOF 10
ENDMDL
MODEL 4
REMARK VINA RESULT: -6.359674181      2.121      4.385
REMARK  10 active torsions:
REMARK  status: ('A' for Active; 'I' for Inactive)
REMARK    1  A    between atoms: C2_2  and  C3_3 
REMARK    2  A    between atoms: C3_3  and  C4_5 
REMARK    3  A    between atoms: C4_5  and  C5_7 
REMARK    4  A    between atoms: C6_8  and  O2_9 
REMARK    5  A    between atoms: C8_12  and  O3_13 
REMARK    6  A    between atoms: C13_19  and  O4_20 
REMARK    7  A    between atoms: C13_19  and  C14_22 
REMARK    8  A    between atoms: C14_22  and  C15_23 
REMARK    9  A    between atoms: C18_27  and  O6_28 
REMARK   10  A    between atoms: O6_28  and  C19_29 
ROOT
HETATM    1  C5  UNL     1      -3.630   2.583  10.705  1.00  0.00     0.122 C 
HETATM    2  C6  UNL     1      -2.163   2.411  10.454  1.00  0.00     0.142 C 
HETATM    3  C7  UNL     1      -2.108   3.930  10.449  1.00  0.00     0.081 C 
HETATM    4  C8  UNL     1      -0.962   4.526  11.169  1.00  0.00     0.136 C 
HETATM    5  C9  UNL     1      -1.322   4.330  12.624  1.00  0.00     0.048 C 
HETATM    6  C10 UNL     1      -1.176   5.550  13.401  1.00  0.00    -0.013 C 
HETATM    7  C11 UNL     1      -2.298   5.838  14.022  1.00  0.00    -0.052 C 
HETATM    8  C12 UNL     1      -2.431   7.073  14.909  1.00  0.00     0.046 C 
HETATM    9  C13 UNL     1      -3.303   4.826  13.727  1.00  0.00     0.094 C 
HETATM   10  C17 UNL     1      -2.787   3.982  12.672  1.00  0.00     0.071 C 
HETATM   11  C18 UNL     1      -3.334   3.931  11.317  1.00  0.00     0.095 C 
ENDROOT
BRANCH   1  12
HETATM   12  C4  UNL     1      -4.310   1.631  11.546  1.00  0.00     0.154 C 
HETATM   13  O1  UNL     1      -5.487   1.729  11.767  1.00  0.00    -0.296 OA
BRANCH  12  14
HETATM   14  C3  UNL     1      -3.620   0.455  12.202  1.00  0.00     0.152 C 
HETATM   15 CL1  UNL     1      -4.114   0.329  13.899  1.00  0.00    -0.117 Cl
BRANCH  14  16
HETATM   16  C2  UNL     1      -4.052  -0.811  11.498  1.00  0.00     0.023 C 
HETATM   17  C1  UNL     1      -2.775  -1.528  11.076  1.00  0.00     0.007 C 
ENDBRANCH  14  16
ENDBRANCH  12  14
ENDBRANCH   1  12
BRANCH   2  18
HETATM   18  O2  UNL     1      -1.422   1.746  11.384  1.00  0.00    -0.394 OA
ATOM     19  H2  UNL     1      -1.134   0.864  11.184  1.00  0.00     0.210 HD
ENDBRANCH   2  18
BRANCH  11  20
HETATM   20  O6  UNL     1      -4.355   4.766  11.009  1.00  0.00    -0.319 OA
BRANCH  20  21
HETATM   21  C19 UNL     1      -4.198   5.836  10.246  1.00  0.00     0.501 C 
HETATM   22  F1  UNL     1      -5.402   6.419   9.810  1.00  0.00    -0.184 F 
HETATM   23  F2  UNL     1      -3.620   6.849  11.035  1.00  0.00    -0.184 F 
ENDBRANCH  20  21
ENDBRANCH  11  20
BRANCH   4  24
HETATM   24  O3  UNL     1       0.264   4.009  10.832  1.00  0.00    -0.394 OA
ATOM     25  H3  UNL     1       0.505   3.215  11.295  1.00  0.00     0.210 HD
ENDBRANCH   4  24
BRANCH   9  26
HETATM   26  O4  UNL     1      -3.215   4.017  14.958  1.00  0.00    -0.384 OA
ATOM     27  H4  UNL     1      -2.305   4.167  15.187  1.00  0.00     0.211 HD
ENDBRANCH   9  26
BRANCH   9  28
HETATM   28  C14 UNL     1      -4.664   5.332  13.733  1.00  0.00     0.120 C 
BRANCH  28  29
HETATM   29  C15 UNL     1      -5.642   4.546  14.524  1.00  0.00     0.126 C 
HETATM   30  C16 UNL     1      -6.320   5.156  15.735  1.00  0.00     0.091 C 
HETATM   31  O5  UNL     1      -5.987   3.398  14.302  1.00  0.00    -0.298 OA
ENDBRANCH  28  29
ENDBRANCH   9  28
TORSDOF 10
ENDMDL
MODEL 5
REMARK VINA RESULT: -6.305060283      2.718      4.905
REMARK  10 active torsions:
REMARK  status: ('A' for Active; 'I' for Inactive)
REMARK    1  A    between atoms: C2_2  and  C3_3 
REMARK    2  A    between atoms: C3_3  and  C4_5 
REMARK    3  A    between atoms: C4_5  and  C5_7 
REMARK    4  A    between atoms: C6_8  and  O2_9 
REMARK    5  A    between atoms: C8_12  and  O3_13 
REMARK    6  A    between atoms: C13_19  and  O4_20 
REMARK    7  A    between atoms: C13_19  and  C14_22 
REMARK    8  A    between atoms: C14_22  and  C15_23 
REMARK    9  A    between atoms: C18_27  and  O6_28 
REMARK   10  A    between atoms: O6_28  and  C19_29 
ROOT
HETATM    1  C5  UNL     1      -4.952   3.073  12.928  1.00  0.00     0.122 C 
HETATM    2  C6  UNL     1      -4.351   1.817  12.375  1.00  0.00     0.142 C 
HETATM    3  C7  UNL     1      -3.896   2.688  11.215  1.00  0.00     0.081 C 
HETATM    4  C8  UNL     1      -2.517   2.443  10.741  1.00  0.00     0.136 C 
HETATM    5  C9  UNL     1      -1.660   3.063  11.822  1.00  0.00     0.048 C 
HETATM    6  C10 UNL     1      -0.635   3.942  11.282  1.00  0.00    -0.013 C 
HETATM    7  C11 UNL     1      -0.721   5.136  11.824  1.00  0.00    -0.052 C 
HETATM    8  C12 UNL     1       0.232   6.264  11.437  1.00  0.00     0.046 C 
HETATM    9  C13 UNL     1      -1.809   5.165  12.791  1.00  0.00     0.094 C 
HETATM   10  C17 UNL     1      -2.562   3.938  12.650  1.00  0.00     0.071 C 
HETATM   11  C18 UNL     1      -3.932   3.866  12.147  1.00  0.00     0.095 C 
ENDROOT
BRANCH   1  12
HETATM   12  C4  UNL     1      -4.963   3.271  14.355  1.00  0.00     0.154 C 
HETATM   13  O1  UNL     1      -4.659   4.329  14.837  1.00  0.00    -0.296 OA
BRANCH  12  14
HETATM   14  C3  UNL     1      -5.351   2.194  15.344  1.00  0.00     0.152 C 
HETATM   15 CL1  UNL     1      -3.948   1.733  16.324  1.00  0.00    -0.117 Cl
BRANCH  14  16
HETATM   16  C2  UNL     1      -6.403   2.751  16.275  1.00  0.00     0.023 C 
HETATM   17  C1  UNL     1      -6.960   1.566  17.056  1.00  0.00     0.007 C 
ENDBRANCH  14  16
ENDBRANCH  12  14
ENDBRANCH   1  12
BRANCH   2  18
HETATM   18  O2  UNL     1      -3.397   1.179  13.110  1.00  0.00    -0.394 OA
ATOM     19  H2  UNL     1      -2.804   1.705  13.632  1.00  0.00     0.210 HD
ENDBRANCH   2  18
BRANCH  11  20
HETATM   20  O6  UNL     1      -4.520   5.013  11.731  1.00  0.00    -0.319 OA
BRANCH  20  21
HETATM   21  C19 UNL     1      -4.669   5.317  10.451  1.00  0.00     0.501 C 
HETATM   22  F1  UNL     1      -5.513   6.416  10.211  1.00  0.00    -0.184 F 
HETATM   23  F2  UNL     1      -3.425   5.758   9.963  1.00  0.00    -0.184 F 
ENDBRANCH  20  21
ENDBRANCH  11  20
BRANCH   4  24
HETATM   24  O3  UNL     1      -2.217   1.128  10.488  1.00  0.00    -0.394 OA
ATOM     25  H3  UNL     1      -1.290   0.920  10.498  1.00  0.00     0.210 HD
ENDBRANCH   4  24
BRANCH   9  26
HETATM   26  O4  UNL     1      -1.039   5.017  14.041  1.00  0.00    -0.384 OA
ATOM     27  H4  UNL     1      -0.528   4.244  13.826  1.00  0.00     0.211 HD
ENDBRANCH   9  26
BRANCH   9  28
HETATM   28  C14 UNL     1      -2.444   6.466  12.920  1.00  0.00     0.120 C 
BRANCH  28  29
HETATM   29  C15 UNL     1      -2.205   7.177  14.199  1.00  0.00     0.126 C 
HETATM   30  C16 UNL     1      -1.183   8.294  14.279  1.00  0.00     0.091 C 
HETATM   31  O5  UNL     1      -2.767   6.957  15.258  1.00  0.00    -0.298 OA
ENDBRANCH  28  29
ENDBRANCH   9  28
TORSDOF 10
ENDMDL
