MODEL 1
REMARK VINA RESULT: -9.685203815      0.000      0.000
REMARK  12 active torsions:
REMARK  status: ('A' for Active; 'I' for Inactive)
REMARK    1  A    between atoms: C2_2  and  C3_3 
REMARK    2  A    between atoms: C3_3  and  C5_5 
REMARK    3  A    between atoms: C5_5  and  N1_6 
REMARK    4  A    between atoms: C6_7  and  C7_8 
REMARK    5  A    between atoms: C12_17  and  N4_18 
REMARK    6  A    between atoms: N4_18  and  C13_19 
REMARK    7  A    between atoms: C15_21  and  C16_22 
REMARK    8  A    between atoms: N6_26  and  C18_27 
REMARK    9  A    between atoms: N7_30  and  C21_31 
REMARK   10  A    between atoms: C21_31  and  C22_32 
REMARK   11  A    between atoms: C29_39  and  N8_40 
REMARK   12  A    between atoms: N8_40  and  S1_42 
ROOT
HETATM    1  C13 UNL     1     -19.022   0.125   4.747  1.00  0.00     0.136 A 
HETATM    2  C14 UNL     1     -19.740   0.396   5.923  1.00  0.00     0.059 A 
HETATM    3  C15 UNL     1     -20.515  -0.527   6.510  1.00  0.00    -0.018 A 
HETATM    4  C28 UNL     1     -20.608  -1.793   5.930  1.00  0.00     0.044 A 
HETATM    5  C29 UNL     1     -19.940  -2.128   4.790  1.00  0.00     0.068 A 
HETATM    6  C31 UNL     1     -19.162  -1.186   4.209  1.00  0.00     0.102 A 
HETATM    7 CL1  UNL     1     -18.288  -1.560   2.754  1.00  0.00    -0.078 Cl
ENDROOT
BRANCH   1   8
HETATM    8  N4  UNL     1     -18.220   0.998   4.168  1.00  0.00    -0.369 NA
BRANCH   8   9
HETATM    9  C12 UNL     1     -17.516   1.784   3.657  1.00  0.00     0.264 A 
HETATM   10  N3  UNL     1     -16.631   1.549   2.643  1.00  0.00    -0.299 N 
HETATM   11  C11 UNL     1     -16.003   2.705   2.359  1.00  0.00     0.156 A 
ATOM     12  H3  UNL     1     -16.474   0.654   2.180  1.00  0.00     0.171 HD
HETATM   13  N2  UNL     1     -15.073   3.276   1.595  1.00  0.00    -0.328 N 
HETATM   14  C33 UNL     1     -16.491   3.687   3.189  1.00  0.00     0.163 A 
HETATM   15  C6  UNL     1     -14.937   4.583   1.893  1.00  0.00     0.098 A 
ATOM     16  H2  UNL     1     -14.534   2.789   0.878  1.00  0.00     0.169 HD
HETATM   17  N1  UNL     1     -15.811   4.839   2.871  1.00  0.00    -0.297 N 
HETATM   18  N9  UNL     1     -17.411   3.125   3.982  1.00  0.00    -0.294 N 
HETATM   19  C32 UNL     1     -18.191   3.697   5.018  1.00  0.00     0.162 C 
BRANCH  15  20
HETATM   20  C7  UNL     1     -13.942   5.482   1.246  1.00  0.00     0.008 C 
HETATM   21  C8  UNL     1     -12.871   5.914   2.236  1.00  0.00     0.022 C 
HETATM   22  C9  UNL     1     -13.162   4.603   0.241  1.00  0.00     0.022 C 
HETATM   23  C10 UNL     1     -14.475   6.601   0.443  1.00  0.00     0.022 C 
ENDBRANCH  15  20
BRANCH  17  24
HETATM   24  C5  UNL     1     -16.049   6.046   3.569  1.00  0.00     0.077 C 
BRANCH  24  25
HETATM   25  C3  UNL     1     -17.281   6.830   3.417  1.00  0.00     0.020 C 
HETATM   26  C4  UNL     1     -16.769   8.250   2.833  1.00  0.00     0.015 C 
BRANCH  25  27
HETATM   27  C2  UNL     1     -18.052   7.272   4.613  1.00  0.00     0.005 C 
HETATM   28  C1  UNL     1     -17.233   7.839   5.742  1.00  0.00     0.006 C 
ENDBRANCH  25  27
ENDBRANCH  24  25
ENDBRANCH  17  24
ENDBRANCH   8   9
ENDBRANCH   1   8
BRANCH   3  29
HETATM   29  C16 UNL     1     -21.236  -0.350   7.761  1.00  0.00     0.008 A 
HETATM   30  C17 UNL     1     -20.829  -0.177   9.057  1.00  0.00     0.121 A 
HETATM   31  N5  UNL     1     -21.946  -0.021   9.822  1.00  0.00    -0.309 N 
HETATM   32  N6  UNL     1     -23.039  -0.080   9.115  1.00  0.00    -0.298 N 
ATOM     33  H5  UNL     1     -21.928   0.126  10.831  1.00  0.00     0.186 HD
HETATM   34  C27 UNL     1     -22.649  -0.282   7.843  1.00  0.00     0.124 A 
BRANCH  32  35
HETATM   35  C18 UNL     1     -24.416   0.079   9.503  1.00  0.00     0.111 C 
HETATM   36  C19 UNL     1     -24.578   1.053  10.666  1.00  0.00     0.057 C 
HETATM   37  C20 UNL     1     -25.930   0.739  11.250  1.00  0.00     0.274 C 
HETATM   38  N7  UNL     1     -26.976   0.981  10.237  1.00  0.00     0.088 N 
HETATM   39  C25 UNL     1     -26.756   0.334   9.010  1.00  0.00     0.274 C 
HETATM   40  C26 UNL     1     -25.319   0.579   8.442  1.00  0.00     0.057 C 
BRANCH  38  41
HETATM   41  C21 UNL     1     -28.173   0.624  10.909  1.00  0.00     0.276 C 
BRANCH  41  42
HETATM   42  C22 UNL     1     -29.104   1.595  11.455  1.00  0.00     0.006 C 
HETATM   43  C23 UNL     1     -29.669   1.253  12.792  1.00  0.00     0.011 C 
HETATM   44  C24 UNL     1     -30.207   1.956  10.462  1.00  0.00     0.011 C 
ENDBRANCH  41  42
ENDBRANCH  38  41
ENDBRANCH  32  35
ENDBRANCH   3  29
BRANCH   5  45
HETATM   45  N8  UNL     1     -20.009  -3.462   4.236  1.00  0.00    -0.283 N 
ATOM     46  H8  UNL     1     -19.403  -4.203   4.589  1.00  0.00     0.178 HD
BRANCH  45  47
HETATM   47  S1  UNL     1     -21.133  -3.775   2.970  1.00  0.00     0.227 S 
HETATM   48  C30 UNL     1     -21.712  -5.469   3.125  1.00  0.00     0.186 C 
HETATM   49  O1  UNL     1     -20.367  -3.744   1.652  1.00  0.00    -0.206 OA
HETATM   50  O2  UNL     1     -22.223  -2.795   2.850  1.00  0.00    -0.206 OA
ENDBRANCH  45  47
ENDBRANCH   5  45
TORSDOF 12
ENDMDL
MODEL 2
REMARK VINA RESULT: -9.295505880      6.034     11.705
REMARK  12 active torsions:
REMARK  status: ('A' for Active; 'I' for Inactive)
REMARK    1  A    between atoms: C2_2  and  C3_3 
REMARK    2  A    between atoms: C3_3  and  C5_5 
REMARK    3  A    between atoms: C5_5  and  N1_6 
REMARK    4  A    between atoms: C6_7  and  C7_8 
REMARK    5  A    between atoms: C12_17  and  N4_18 
REMARK    6  A    between atoms: N4_18  and  C13_19 
REMARK    7  A    between atoms: C15_21  and  C16_22 
REMARK    8  A    between atoms: N6_26  and  C18_27 
REMARK    9  A    between atoms: N7_30  and  C21_31 
REMARK   10  A    between atoms: C21_31  and  C22_32 
REMARK   11  A    between atoms: C29_39  and  N8_40 
REMARK   12  A    between atoms: N8_40  and  S1_42 
ROOT
HETATM    1  C13 UNL     1     -16.099   5.411   2.934  1.00  0.00     0.136 A 
HETATM    2  C14 UNL     1     -16.685   6.277   3.871  1.00  0.00     0.059 A 
HETATM    3  C15 UNL     1     -16.388   7.584   3.914  1.00  0.00    -0.018 A 
HETATM    4  C28 UNL     1     -15.467   8.093   2.997  1.00  0.00     0.044 A 
HETATM    5  C29 UNL     1     -14.860   7.314   2.059  1.00  0.00     0.068 A 
HETATM    6  C31 UNL     1     -15.169   5.997   2.028  1.00  0.00     0.102 A 
HETATM    7 CL1  UNL     1     -14.423   4.958   0.852  1.00  0.00    -0.078 Cl
ENDROOT
BRANCH   1   8
HETATM    8  N4  UNL     1     -16.400   4.130   2.841  1.00  0.00    -0.369 NA
BRANCH   8   9
HETATM    9  C12 UNL     1     -16.659   2.990   2.769  1.00  0.00     0.264 A 
HETATM   10  N3  UNL     1     -16.434   2.167   1.701  1.00  0.00    -0.299 N 
HETATM   11  C11 UNL     1     -16.896   0.942   2.012  1.00  0.00     0.156 A 
ATOM     12  H3  UNL     1     -15.991   2.435   0.822  1.00  0.00     0.171 HD
HETATM   13  N2  UNL     1     -17.067  -0.301   1.561  1.00  0.00    -0.328 N 
HETATM   14  C33 UNL     1     -17.413   0.976   3.285  1.00  0.00     0.163 A 
HETATM   15  C6  UNL     1     -17.672  -1.071   2.485  1.00  0.00     0.098 A 
ATOM     16  H2  UNL     1     -16.778  -0.626   0.638  1.00  0.00     0.169 HD
HETATM   17  N1  UNL     1     -17.883  -0.290   3.548  1.00  0.00    -0.297 N 
HETATM   18  N9  UNL     1     -17.272   2.225   3.746  1.00  0.00    -0.294 N 
HETATM   19  C32 UNL     1     -17.659   2.785   4.988  1.00  0.00     0.162 C 
BRANCH  15  20
HETATM   20  C7  UNL     1     -18.045  -2.495   2.261  1.00  0.00     0.008 C 
HETATM   21  C8  UNL     1     -19.445  -2.607   1.676  1.00  0.00     0.022 C 
HETATM   22  C9  UNL     1     -17.140  -2.999   1.114  1.00  0.00     0.022 C 
HETATM   23  C10 UNL     1     -17.806  -3.433   3.377  1.00  0.00     0.022 C 
ENDBRANCH  15  20
BRANCH  17  24
HETATM   24  C5  UNL     1     -18.517  -0.595   4.776  1.00  0.00     0.077 C 
BRANCH  24  25
HETATM   25  C3  UNL     1     -19.965  -0.801   4.900  1.00  0.00     0.020 C 
HETATM   26  C4  UNL     1     -20.439   0.364   5.918  1.00  0.00     0.015 C 
BRANCH  25  27
HETATM   27  C2  UNL     1     -20.504  -2.013   5.579  1.00  0.00     0.005 C 
HETATM   28  C1  UNL     1     -21.511  -2.808   4.788  1.00  0.00     0.006 C 
ENDBRANCH  25  27
ENDBRANCH  24  25
ENDBRANCH  17  24
ENDBRANCH   8   9
ENDBRANCH   1   8
BRANCH   3  29
HETATM   29  C16 UNL     1     -16.998   8.558   4.806  1.00  0.00     0.008 A 
HETATM   30  C17 UNL     1     -17.902   8.451   5.829  1.00  0.00     0.121 A 
HETATM   31  N5  UNL     1     -18.087   9.698   6.347  1.00  0.00    -0.309 N 
HETATM   32  N6  UNL     1     -17.369  10.597   5.734  1.00  0.00    -0.298 N 
ATOM     33  H5  UNL     1     -18.714   9.903   7.125  1.00  0.00     0.186 HD
HETATM   34  C27 UNL     1     -16.686   9.940   4.779  1.00  0.00     0.124 A 
BRANCH  32  35
HETATM   35  C18 UNL     1     -17.224  12.008   5.982  1.00  0.00     0.111 C 
HETATM   36  C19 UNL     1     -16.731  12.296   7.396  1.00  0.00     0.057 C 
HETATM   37  C20 UNL     1     -17.097  13.736   7.648  1.00  0.00     0.274 C 
HETATM   38  N7  UNL     1     -16.397  14.603   6.680  1.00  0.00     0.088 N 
HETATM   39  C25 UNL     1     -16.569  14.230   5.337  1.00  0.00     0.274 C 
HETATM   40  C26 UNL     1     -16.282  12.713   5.084  1.00  0.00     0.057 C 
BRANCH  38  41
HETATM   41  C21 UNL     1     -16.851  15.904   7.016  1.00  0.00     0.276 C 
BRANCH  41  42
HETATM   42  C22 UNL     1     -18.177  16.178   7.539  1.00  0.00     0.006 C 
HETATM   43  C23 UNL     1     -19.090  16.905   6.609  1.00  0.00     0.011 C 
HETATM   44  C24 UNL     1     -18.129  16.851   8.909  1.00  0.00     0.011 C 
ENDBRANCH  41  42
ENDBRANCH  38  41
ENDBRANCH  32  35
ENDBRANCH   3  29
BRANCH   5  45
HETATM   45  N8  UNL     1     -13.950   7.873   1.083  1.00  0.00    -0.283 N 
ATOM     46  H8  UNL     1     -14.246   8.014   0.117  1.00  0.00     0.178 HD
BRANCH  45  47
HETATM   47  S1  UNL     1     -12.358   8.295   1.584  1.00  0.00     0.227 S 
HETATM   48  C30 UNL     1     -11.245   8.092   0.188  1.00  0.00     0.186 C 
HETATM   49  O1  UNL     1     -11.901   7.255   2.601  1.00  0.00    -0.206 OA
HETATM   50  O2  UNL     1     -12.240   9.607   2.238  1.00  0.00    -0.206 OA
ENDBRANCH  45  47
ENDBRANCH   5  45
TORSDOF 12
ENDMDL
MODEL 3
REMARK VINA RESULT: -9.191588646      5.661     11.859
REMARK  12 active torsions:
REMARK  status: ('A' for Active; 'I' for Inactive)
REMARK    1  A    between atoms: C2_2  and  C3_3 
REMARK    2  A    between atoms: C3_3  and  C5_5 
REMARK    3  A    between atoms: C5_5  and  N1_6 
REMARK    4  A    between atoms: C6_7  and  C7_8 
REMARK    5  A    between atoms: C12_17  and  N4_18 
REMARK    6  A    between atoms: N4_18  and  C13_19 
REMARK    7  A    between atoms: C15_21  and  C16_22 
REMARK    8  A    between atoms: N6_26  and  C18_27 
REMARK    9  A    between atoms: N7_30  and  C21_31 
REMARK   10  A    between atoms: C21_31  and  C22_32 
REMARK   11  A    between atoms: C29_39  and  N8_40 
REMARK   12  A    between atoms: N8_40  and  S1_42 
ROOT
HETATM    1  C13 UNL     1     -17.137   5.272   4.064  1.00  0.00     0.136 A 
HETATM    2  C14 UNL     1     -17.489   6.311   4.940  1.00  0.00     0.059 A 
HETATM    3  C15 UNL     1     -17.039   7.563   4.774  1.00  0.00    -0.018 A 
HETATM    4  C28 UNL     1     -16.193   7.835   3.697  1.00  0.00     0.044 A 
HETATM    5  C29 UNL     1     -15.810   6.877   2.807  1.00  0.00     0.068 A 
HETATM    6  C31 UNL     1     -16.272   5.619   2.987  1.00  0.00     0.102 A 
HETATM    7 CL1  UNL     1     -15.815   4.359   1.880  1.00  0.00    -0.078 Cl
ENDROOT
BRANCH   1   8
HETATM    8  N4  UNL     1     -17.596   4.040   4.177  1.00  0.00    -0.369 NA
BRANCH   8   9
HETATM    9  C12 UNL     1     -18.016   2.950   4.276  1.00  0.00     0.264 A 
HETATM   10  N3  UNL     1     -19.097   2.556   5.013  1.00  0.00    -0.299 N 
HETATM   11  C11 UNL     1     -19.233   1.224   4.878  1.00  0.00     0.156 A 
ATOM     12  H3  UNL     1     -19.698   3.166   5.568  1.00  0.00     0.171 HD
HETATM   13  N2  UNL     1     -19.948   0.162   5.250  1.00  0.00    -0.328 N 
HETATM   14  C33 UNL     1     -18.240   0.762   4.046  1.00  0.00     0.163 A 
HETATM   15  C6  UNL     1     -19.461  -0.965   4.696  1.00  0.00     0.098 A 
ATOM     16  H2  UNL     1     -20.756   0.198   5.870  1.00  0.00     0.169 HD
HETATM   17  N1  UNL     1     -18.413  -0.599   3.953  1.00  0.00    -0.297 N 
HETATM   18  N9  UNL     1     -17.496   1.814   3.682  1.00  0.00    -0.294 N 
HETATM   19  C32 UNL     1     -16.347   1.873   2.855  1.00  0.00     0.162 C 
BRANCH  15  20
HETATM   20  C7  UNL     1     -20.013  -2.323   4.960  1.00  0.00     0.008 C 
HETATM   21  C8  UNL     1     -20.868  -2.329   6.218  1.00  0.00     0.022 C 
HETATM   22  C9  UNL     1     -21.037  -2.593   3.833  1.00  0.00     0.022 C 
HETATM   23  C10 UNL     1     -19.066  -3.454   4.897  1.00  0.00     0.022 C 
ENDBRANCH  15  20
BRANCH  17  24
HETATM   24  C5  UNL     1     -17.528  -1.398   3.192  1.00  0.00     0.077 C 
BRANCH  24  25
HETATM   25  C3  UNL     1     -17.861  -1.917   1.859  1.00  0.00     0.020 C 
HETATM   26  C4  UNL     1     -16.914  -3.219   1.700  1.00  0.00     0.015 C 
BRANCH  25  27
HETATM   27  C2  UNL     1     -17.503  -1.148   0.634  1.00  0.00     0.005 C 
HETATM   28  C1  UNL     1     -18.379  -1.393  -0.567  1.00  0.00     0.006 C 
ENDBRANCH  25  27
ENDBRANCH  24  25
ENDBRANCH  17  24
ENDBRANCH   8   9
ENDBRANCH   1   8
BRANCH   3  29
HETATM   29  C16 UNL     1     -17.407   8.707   5.594  1.00  0.00     0.008 A 
HETATM   30  C17 UNL     1     -18.085   8.829   6.777  1.00  0.00     0.121 A 
HETATM   31  N5  UNL     1     -18.103  10.151   7.107  1.00  0.00    -0.309 N 
HETATM   32  N6  UNL     1     -17.487  10.887   6.225  1.00  0.00    -0.298 N 
ATOM     33  H5  UNL     1     -18.547  10.522   7.948  1.00  0.00     0.186 HD
HETATM   34  C27 UNL     1     -17.045  10.040   5.277  1.00  0.00     0.124 A 
BRANCH  32  35
HETATM   35  C18 UNL     1     -17.231  12.303   6.202  1.00  0.00     0.111 C 
HETATM   36  C19 UNL     1     -16.665  12.808   7.525  1.00  0.00     0.057 C 
HETATM   37  C20 UNL     1     -16.915  14.293   7.513  1.00  0.00     0.274 C 
HETATM   38  N7  UNL     1     -16.191  14.909   6.385  1.00  0.00     0.088 N 
HETATM   39  C25 UNL     1     -16.440  14.311   5.139  1.00  0.00     0.274 C 
HETATM   40  C26 UNL     1     -16.273  12.755   5.167  1.00  0.00     0.057 C 
BRANCH  38  41
HETATM   41  C21 UNL     1     -16.536  16.282   6.483  1.00  0.00     0.276 C 
BRANCH  41  42
HETATM   42  C22 UNL     1     -17.759  16.756   7.105  1.00  0.00     0.006 C 
HETATM   43  C23 UNL     1     -18.874  17.065   6.163  1.00  0.00     0.011 C 
HETATM   44  C24 UNL     1     -17.504  17.917   8.064  1.00  0.00     0.011 C 
ENDBRANCH  41  42
ENDBRANCH  38  41
ENDBRANCH  32  35
ENDBRANCH   3  29
BRANCH   5  45
HETATM   45  N8  UNL     1     -14.978   7.193   1.667  1.00  0.00    -0.283 N 
ATOM     46  H8  UNL     1     -15.387   7.302   0.739  1.00  0.00     0.178 HD
BRANCH  45  47
HETATM   47  S1  UNL     1     -13.283   7.380   1.907  1.00  0.00     0.227 S 
HETATM   48  C30 UNL     1     -12.421   6.614   0.529  1.00  0.00     0.186 C 
HETATM   49  O1  UNL     1     -12.893   6.546   3.123  1.00  0.00    -0.206 OA
HETATM   50  O2  UNL     1     -12.842   8.757   2.178  1.00  0.00    -0.206 OA
ENDBRANCH  45  47
ENDBRANCH   5  45
TORSDOF 12
ENDMDL
MODEL 4
REMARK VINA RESULT: -8.815492344      5.901     11.645
REMARK  12 active torsions:
REMARK  status: ('A' for Active; 'I' for Inactive)
REMARK    1  A    between atoms: C2_2  and  C3_3 
REMARK    2  A    between atoms: C3_3  and  C5_5 
REMARK    3  A    between atoms: C5_5  and  N1_6 
REMARK    4  A    between atoms: C6_7  and  C7_8 
REMARK    5  A    between atoms: C12_17  and  N4_18 
REMARK    6  A    between atoms: N4_18  and  C13_19 
REMARK    7  A    between atoms: C15_21  and  C16_22 
REMARK    8  A    between atoms: N6_26  and  C18_27 
REMARK    9  A    between atoms: N7_30  and  C21_31 
REMARK   10  A    between atoms: C21_31  and  C22_32 
REMARK   11  A    between atoms: C29_39  and  N8_40 
REMARK   12  A    between atoms: N8_40  and  S1_42 
ROOT
HETATM    1  C13 UNL     1     -16.236   5.678   2.613  1.00  0.00     0.136 A 
HETATM    2  C14 UNL     1     -16.687   6.479   3.674  1.00  0.00     0.059 A 
HETATM    3  C15 UNL     1     -16.489   7.804   3.698  1.00  0.00    -0.018 A 
HETATM    4  C28 UNL     1     -15.812   8.401   2.633  1.00  0.00     0.044 A 
HETATM    5  C29 UNL     1     -15.346   7.688   1.569  1.00  0.00     0.068 A 
HETATM    6  C31 UNL     1     -15.553   6.351   1.559  1.00  0.00     0.102 A 
HETATM    7 CL1  UNL     1     -14.981   5.394   0.226  1.00  0.00    -0.078 Cl
ENDROOT
BRANCH   1   8
HETATM    8  N4  UNL     1     -16.451   4.378   2.541  1.00  0.00    -0.369 NA
BRANCH   8   9
HETATM    9  C12 UNL     1     -16.636   3.224   2.465  1.00  0.00     0.264 A 
HETATM   10  N3  UNL     1     -16.405   2.430   1.377  1.00  0.00    -0.299 N 
HETATM   11  C11 UNL     1     -16.769   1.173   1.691  1.00  0.00     0.156 A 
ATOM     12  H3  UNL     1     -16.022   2.737   0.483  1.00  0.00     0.171 HD
HETATM   13  N2  UNL     1     -16.876  -0.074   1.231  1.00  0.00    -0.328 N 
HETATM   14  C33 UNL     1     -17.228   1.158   2.987  1.00  0.00     0.163 A 
HETATM   15  C6  UNL     1     -17.385  -0.893   2.171  1.00  0.00     0.098 A 
ATOM     16  H2  UNL     1     -16.609  -0.368   0.292  1.00  0.00     0.169 HD
HETATM   17  N1  UNL     1     -17.599  -0.140   3.253  1.00  0.00    -0.297 N 
HETATM   18  N9  UNL     1     -17.150   2.408   3.458  1.00  0.00    -0.294 N 
HETATM   19  C32 UNL     1     -17.517   2.928   4.724  1.00  0.00     0.162 C 
BRANCH  15  20
HETATM   20  C7  UNL     1     -17.672  -2.337   1.944  1.00  0.00     0.008 C 
HETATM   21  C8  UNL     1     -19.169  -2.586   1.836  1.00  0.00     0.022 C 
HETATM   22  C9  UNL     1     -17.155  -2.657   0.523  1.00  0.00     0.022 C 
HETATM   23  C10 UNL     1     -16.986  -3.301   2.828  1.00  0.00     0.022 C 
ENDBRANCH  15  20
BRANCH  17  24
HETATM   24  C5  UNL     1     -18.154  -0.500   4.503  1.00  0.00     0.077 C 
BRANCH  24  25
HETATM   25  C3  UNL     1     -19.587  -0.751   4.702  1.00  0.00     0.020 C 
HETATM   26  C4  UNL     1     -20.065   0.460   5.663  1.00  0.00     0.015 C 
BRANCH  25  27
HETATM   27  C2  UNL     1     -20.051  -1.935   5.478  1.00  0.00     0.005 C 
HETATM   28  C1  UNL     1     -21.261  -1.710   6.347  1.00  0.00     0.006 C 
ENDBRANCH  25  27
ENDBRANCH  24  25
ENDBRANCH  17  24
ENDBRANCH   8   9
ENDBRANCH   1   8
BRANCH   3  29
HETATM   29  C16 UNL     1     -16.980   8.712   4.723  1.00  0.00     0.008 A 
HETATM   30  C17 UNL     1     -17.667   8.518   5.892  1.00  0.00     0.121 A 
HETATM   31  N5  UNL     1     -17.829   9.736   6.481  1.00  0.00    -0.309 N 
HETATM   32  N6  UNL     1     -17.298  10.697   5.780  1.00  0.00    -0.298 N 
ATOM     33  H5  UNL     1     -18.311   9.878   7.369  1.00  0.00     0.186 HD
HETATM   34  C27 UNL     1     -16.766  10.113   4.690  1.00  0.00     0.124 A 
BRANCH  32  35
HETATM   35  C18 UNL     1     -17.198  12.108   6.048  1.00  0.00     0.111 C 
HETATM   36  C19 UNL     1     -16.751  12.392   7.478  1.00  0.00     0.057 C 
HETATM   37  C20 UNL     1     -17.163  13.817   7.738  1.00  0.00     0.274 C 
HETATM   38  N7  UNL     1     -16.461  14.715   6.800  1.00  0.00     0.088 N 
HETATM   39  C25 UNL     1     -16.587  14.356   5.448  1.00  0.00     0.274 C 
HETATM   40  C26 UNL     1     -16.252  12.850   5.185  1.00  0.00     0.057 C 
BRANCH  38  41
HETATM   41  C21 UNL     1     -16.959  15.999   7.140  1.00  0.00     0.276 C 
BRANCH  41  42
HETATM   42  C22 UNL     1     -18.116  16.208   7.991  1.00  0.00     0.006 C 
HETATM   43  C23 UNL     1     -19.328  16.735   7.300  1.00  0.00     0.011 C 
HETATM   44  C24 UNL     1     -17.778  17.038   9.228  1.00  0.00     0.011 C 
ENDBRANCH  41  42
ENDBRANCH  38  41
ENDBRANCH  32  35
ENDBRANCH   3  29
BRANCH   5  45
HETATM   45  N8  UNL     1     -14.695   8.334   0.451  1.00  0.00    -0.283 N 
ATOM     46  H8  UNL     1     -13.709   8.164   0.254  1.00  0.00     0.178 HD
BRANCH  45  47
HETATM   47  S1  UNL     1     -15.619   9.395  -0.543  1.00  0.00     0.227 S 
HETATM   48  C30 UNL     1     -15.065   9.214  -2.243  1.00  0.00     0.186 C 
HETATM   49  O1  UNL     1     -15.248  10.825  -0.163  1.00  0.00    -0.206 OA
HETATM   50  O2  UNL     1     -17.076   9.279  -0.389  1.00  0.00    -0.206 OA
ENDBRANCH  45  47
ENDBRANCH   5  45
TORSDOF 12
ENDMDL
MODEL 5
REMARK VINA RESULT: -8.807282730      5.553     11.788
REMARK  12 active torsions:
REMARK  status: ('A' for Active; 'I' for Inactive)
REMARK    1  A    between atoms: C2_2  and  C3_3 
REMARK    2  A    between atoms: C3_3  and  C5_5 
REMARK    3  A    between atoms: C5_5  and  N1_6 
REMARK    4  A    between atoms: C6_7  and  C7_8 
REMARK    5  A    between atoms: C12_17  and  N4_18 
REMARK    6  A    between atoms: N4_18  and  C13_19 
REMARK    7  A    between atoms: C15_21  and  C16_22 
REMARK    8  A    between atoms: N6_26  and  C18_27 
REMARK    9  A    between atoms: N7_30  and  C21_31 
REMARK   10  A    between atoms: C21_31  and  C22_32 
REMARK   11  A    between atoms: C29_39  and  N8_40 
REMARK   12  A    between atoms: N8_40  and  S1_42 
ROOT
HETATM    1  C13 UNL     1     -17.290   5.320   3.997  1.00  0.00     0.136 A 
HETATM    2  C14 UNL     1     -17.542   6.339   4.929  1.00  0.00     0.059 A 
HETATM    3  C15 UNL     1     -17.124   7.598   4.735  1.00  0.00    -0.018 A 
HETATM    4  C28 UNL     1     -16.417   7.898   3.569  1.00  0.00     0.044 A 
HETATM    5  C29 UNL     1     -16.136   6.961   2.620  1.00  0.00     0.068 A 
HETATM    6  C31 UNL     1     -16.564   5.695   2.830  1.00  0.00     0.102 A 
HETATM    7 CL1  UNL     1     -16.234   4.461   1.652  1.00  0.00    -0.078 Cl
ENDROOT
BRANCH   1   8
HETATM    8  N4  UNL     1     -17.723   4.081   4.140  1.00  0.00    -0.369 NA
BRANCH   8   9
HETATM    9  C12 UNL     1     -18.110   2.981   4.254  1.00  0.00     0.264 A 
HETATM   10  N3  UNL     1     -19.180   2.566   4.996  1.00  0.00    -0.299 N 
HETATM   11  C11 UNL     1     -19.276   1.228   4.880  1.00  0.00     0.156 A 
ATOM     12  H3  UNL     1     -19.799   3.165   5.542  1.00  0.00     0.171 HD
HETATM   13  N2  UNL     1     -19.959   0.151   5.266  1.00  0.00    -0.328 N 
HETATM   14  C33 UNL     1     -18.269   0.785   4.055  1.00  0.00     0.163 A 
HETATM   15  C6  UNL     1     -19.439  -0.969   4.729  1.00  0.00     0.098 A 
ATOM     16  H2  UNL     1     -20.768   0.171   5.886  1.00  0.00     0.169 HD
HETATM   17  N1  UNL     1     -18.401  -0.583   3.980  1.00  0.00    -0.297 N 
HETATM   18  N9  UNL     1     -17.557   1.853   3.676  1.00  0.00    -0.294 N 
HETATM   19  C32 UNL     1     -16.410   1.934   2.848  1.00  0.00     0.162 C 
BRANCH  15  20
HETATM   20  C7  UNL     1     -19.951  -2.339   5.011  1.00  0.00     0.008 C 
HETATM   21  C8  UNL     1     -20.689  -2.382   6.341  1.00  0.00     0.022 C 
HETATM   22  C9  UNL     1     -21.069  -2.598   3.976  1.00  0.00     0.022 C 
HETATM   23  C10 UNL     1     -19.001  -3.456   4.838  1.00  0.00     0.022 C 
ENDBRANCH  15  20
BRANCH  17  24
HETATM   24  C5  UNL     1     -17.493  -1.366   3.231  1.00  0.00     0.077 C 
BRANCH  24  25
HETATM   25  C3  UNL     1     -17.838  -1.982   1.944  1.00  0.00     0.020 C 
HETATM   26  C4  UNL     1     -16.822  -3.236   1.827  1.00  0.00     0.015 C 
BRANCH  25  27
HETATM   27  C2  UNL     1     -17.567  -1.270   0.663  1.00  0.00     0.005 C 
HETATM   28  C1  UNL     1     -18.137  -1.915  -0.573  1.00  0.00     0.006 C 
ENDBRANCH  25  27
ENDBRANCH  24  25
ENDBRANCH  17  24
ENDBRANCH   8   9
ENDBRANCH   1   8
BRANCH   3  29
HETATM   29  C16 UNL     1     -17.400   8.723   5.614  1.00  0.00     0.008 A 
HETATM   30  C17 UNL     1     -17.908   8.815   6.882  1.00  0.00     0.121 A 
HETATM   31  N5  UNL     1     -17.909  10.132   7.232  1.00  0.00    -0.309 N 
HETATM   32  N6  UNL     1     -17.440  10.893   6.283  1.00  0.00    -0.298 N 
ATOM     33  H5  UNL     1     -18.239  10.482   8.131  1.00  0.00     0.186 HD
HETATM   34  C27 UNL     1     -17.116  10.068   5.270  1.00  0.00     0.124 A 
BRANCH  32  35
HETATM   35  C18 UNL     1     -17.222  12.315   6.245  1.00  0.00     0.111 C 
HETATM   36  C19 UNL     1     -16.663  12.847   7.561  1.00  0.00     0.057 C 
HETATM   37  C20 UNL     1     -16.953  14.325   7.537  1.00  0.00     0.274 C 
HETATM   38  N7  UNL     1     -16.251  14.950   6.399  1.00  0.00     0.088 N 
HETATM   39  C25 UNL     1     -16.490  14.333   5.160  1.00  0.00     0.274 C 
HETATM   40  C26 UNL     1     -16.282  12.783   5.201  1.00  0.00     0.057 C 
BRANCH  38  41
HETATM   41  C21 UNL     1     -16.632  16.314   6.485  1.00  0.00     0.276 C 
BRANCH  41  42
HETATM   42  C22 UNL     1     -17.735  16.785   7.303  1.00  0.00     0.006 C 
HETATM   43  C23 UNL     1     -18.993  17.089   6.562  1.00  0.00     0.011 C 
HETATM   44  C24 UNL     1     -17.326  17.948   8.206  1.00  0.00     0.011 C 
ENDBRANCH  41  42
ENDBRANCH  38  41
ENDBRANCH  32  35
ENDBRANCH   3  29
BRANCH   5  45
HETATM   45  N8  UNL     1     -15.449   7.305   1.395  1.00  0.00    -0.283 N 
ATOM     46  H8  UNL     1     -14.437   7.200   1.319  1.00  0.00     0.178 HD
BRANCH  45  47
HETATM   47  S1  UNL     1     -16.372   7.897   0.067  1.00  0.00     0.227 S 
HETATM   48  C30 UNL     1     -15.291   8.051  -1.359  1.00  0.00     0.186 C 
HETATM   49  O1  UNL     1     -16.792   9.326   0.395  1.00  0.00    -0.206 OA
HETATM   50  O2  UNL     1     -17.606   7.147  -0.215  1.00  0.00    -0.206 OA
ENDBRANCH  45  47
ENDBRANCH   5  45
TORSDOF 12
ENDMDL
