MODEL 1
REMARK VINA RESULT: -7.443420984      0.000      0.000
REMARK  5 active torsions:
REMARK  status: ('A' for Active; 'I' for Inactive)
REMARK    1  A    between atoms: C2_2  and  N1_4 
REMARK    2  A    between atoms: N1_4  and  C4_6 
REMARK    3  A    between atoms: C4_6  and  C7_9 
REMARK       I    between atoms: N2_12  and  C10_13 
REMARK    4  A    between atoms: C10_13  and  O2_15 
REMARK    5  A    between atoms: O2_15  and  C11_16 
ROOT
HETATM    1  C7  UNL     1     -20.083  52.252  -0.613  1.00  0.00     0.015 C 
HETATM    2  C8  UNL     1     -20.278  53.431  -1.527  1.00  0.00     0.027 C 
HETATM    3  C9  UNL     1     -20.739  52.839  -2.843  1.00  0.00     0.128 C 
HETATM    4  N2  UNL     1     -22.002  52.176  -2.595  1.00  0.00    -0.328 N 
HETATM    5  C10 UNL     1     -22.868  52.052  -3.718  1.00  0.00     0.363 C 
HETATM    6  O1  UNL     1     -23.968  51.491  -3.553  1.00  0.00    -0.238 OA
HETATM    7  C15 UNL     1     -22.374  51.671  -1.308  1.00  0.00     0.128 C 
HETATM    8  C16 UNL     1     -21.427  51.764  -0.193  1.00  0.00     0.027 C 
ENDROOT
BRANCH   1   9
HETATM    9  C4  UNL     1     -19.215  52.631   0.598  1.00  0.00     0.022 C 
HETATM   10  C5  UNL     1     -17.808  52.076   0.281  1.00  0.00     0.038 C 
HETATM   11  C6  UNL     1     -19.745  51.836   1.747  1.00  0.00     0.038 C 
BRANCH   9  12
HETATM   12  N1  UNL     1     -19.092  54.020   0.721  1.00  0.00    -0.410 N 
ATOM     13  H1  UNL     1     -18.673  54.561  -0.035  1.00  0.00     0.154 HD
BRANCH  12  14
HETATM   14  C2  UNL     1     -19.542  54.671   1.876  1.00  0.00     0.069 C 
HETATM   15  C1  UNL     1     -20.865  55.376   1.735  1.00  0.00     0.031 C 
HETATM   16  C3  UNL     1     -18.492  55.669   2.411  1.00  0.00     0.031 C 
ENDBRANCH  12  14
ENDBRANCH   9  12
ENDBRANCH   1   9
BRANCH   5  17
HETATM   17  O2  UNL     1     -22.531  52.521  -4.937  1.00  0.00    -0.294 OA
BRANCH  17  18
HETATM   18  C11 UNL     1     -22.192  51.776  -6.068  1.00  0.00     0.061 C 
HETATM   19  C12 UNL     1     -22.545  52.589  -7.294  1.00  0.00     0.046 C 
HETATM   20  C13 UNL     1     -20.692  51.534  -6.117  1.00  0.00     0.046 C 
HETATM   21  C14 UNL     1     -22.868  50.445  -6.178  1.00  0.00     0.046 C 
ENDBRANCH  17  18
ENDBRANCH   5  17
TORSDOF 5
ENDMDL
MODEL 2
REMARK VINA RESULT: -7.025464546      1.600      2.004
REMARK  5 active torsions:
REMARK  status: ('A' for Active; 'I' for Inactive)
REMARK    1  A    between atoms: C2_2  and  N1_4 
REMARK    2  A    between atoms: N1_4  and  C4_6 
REMARK    3  A    between atoms: C4_6  and  C7_9 
REMARK       I    between atoms: N2_12  and  C10_13 
REMARK    4  A    between atoms: C10_13  and  O2_15 
REMARK    5  A    between atoms: O2_15  and  C11_16 
ROOT
HETATM    1  C7  UNL     1     -20.371  53.435  -0.526  1.00  0.00     0.015 C 
HETATM    2  C8  UNL     1     -19.888  53.391  -1.951  1.00  0.00     0.027 C 
HETATM    3  C9  UNL     1     -20.708  52.305  -2.613  1.00  0.00     0.128 C 
HETATM    4  N2  UNL     1     -22.093  52.723  -2.562  1.00  0.00    -0.328 N 
HETATM    5  C10 UNL     1     -22.942  52.184  -3.571  1.00  0.00     0.363 C 
HETATM    6  O1  UNL     1     -24.142  52.518  -3.569  1.00  0.00    -0.238 OA
HETATM    7  C15 UNL     1     -22.596  53.621  -1.567  1.00  0.00     0.128 C 
HETATM    8  C16 UNL     1     -21.703  54.103  -0.510  1.00  0.00     0.027 C 
ENDROOT
BRANCH   1   9
HETATM    9  C4  UNL     1     -19.362  54.162   0.377  1.00  0.00     0.022 C 
HETATM   10  C5  UNL     1     -18.404  53.062   0.887  1.00  0.00     0.038 C 
HETATM   11  C6  UNL     1     -20.141  54.641   1.559  1.00  0.00     0.038 C 
BRANCH   9  12
HETATM   12  N1  UNL     1     -18.590  55.074  -0.354  1.00  0.00    -0.410 N 
ATOM     13  H1  UNL     1     -17.861  54.733  -0.981  1.00  0.00     0.154 HD
BRANCH  12  14
HETATM   14  C2  UNL     1     -18.813  56.450  -0.229  1.00  0.00     0.069 C 
HETATM   15  C1  UNL     1     -19.643  57.062  -1.327  1.00  0.00     0.031 C 
HETATM   16  C3  UNL     1     -17.487  57.231  -0.102  1.00  0.00     0.031 C 
ENDBRANCH  12  14
ENDBRANCH   9  12
ENDBRANCH   1   9
BRANCH   5  17
HETATM   17  O2  UNL     1     -22.484  51.335  -4.514  1.00  0.00    -0.294 OA
BRANCH  17  18
HETATM   18  C11 UNL     1     -22.288  51.600  -5.870  1.00  0.00     0.061 C 
HETATM   19  C12 UNL     1     -20.833  51.347  -6.196  1.00  0.00     0.046 C 
HETATM   20  C13 UNL     1     -23.103  50.642  -6.723  1.00  0.00     0.046 C 
HETATM   21  C14 UNL     1     -22.630  52.991  -6.301  1.00  0.00     0.046 C 
ENDBRANCH  17  18
ENDBRANCH   5  17
TORSDOF 5
ENDMDL
MODEL 3
REMARK VINA RESULT: -6.993880589      1.043      1.100
REMARK  5 active torsions:
REMARK  status: ('A' for Active; 'I' for Inactive)
REMARK    1  A    between atoms: C2_2  and  N1_4 
REMARK    2  A    between atoms: N1_4  and  C4_6 
REMARK    3  A    between atoms: C4_6  and  C7_9 
REMARK       I    between atoms: N2_12  and  C10_13 
REMARK    4  A    between atoms: C10_13  and  O2_15 
REMARK    5  A    between atoms: O2_15  and  C11_16 
ROOT
HETATM    1  C7  UNL     1     -19.694  52.840  -0.816  1.00  0.00     0.015 C 
HETATM    2  C8  UNL     1     -20.159  53.915  -1.762  1.00  0.00     0.027 C 
HETATM    3  C9  UNL     1     -20.645  53.176  -2.991  1.00  0.00     0.128 C 
HETATM    4  N2  UNL     1     -21.758  52.346  -2.580  1.00  0.00    -0.328 N 
HETATM    5  C10 UNL     1     -22.698  52.020  -3.598  1.00  0.00     0.363 C 
HETATM    6  O1  UNL     1     -23.676  51.311  -3.291  1.00  0.00    -0.238 OA
HETATM    7  C15 UNL     1     -21.921  51.875  -1.238  1.00  0.00     0.128 C 
HETATM    8  C16 UNL     1     -20.898  52.183  -0.234  1.00  0.00     0.027 C 
ENDROOT
BRANCH   1   9
HETATM    9  C4  UNL     1     -18.784  53.424   0.276  1.00  0.00     0.022 C 
HETATM   10  C5  UNL     1     -17.634  52.403   0.438  1.00  0.00     0.038 C 
HETATM   11  C6  UNL     1     -19.581  53.383   1.539  1.00  0.00     0.038 C 
BRANCH   9  12
HETATM   12  N1  UNL     1     -18.207  54.633  -0.134  1.00  0.00    -0.410 N 
ATOM     13  H1  UNL     1     -17.738  54.690  -1.038  1.00  0.00     0.154 HD
BRANCH  12  14
HETATM   14  C2  UNL     1     -18.270  55.763   0.690  1.00  0.00     0.069 C 
HETATM   15  C1  UNL     1     -19.236  56.826   0.237  1.00  0.00     0.031 C 
HETATM   16  C3  UNL     1     -16.877  56.397   0.891  1.00  0.00     0.031 C 
ENDBRANCH  12  14
ENDBRANCH   9  12
ENDBRANCH   1   9
BRANCH   5  17
HETATM   17  O2  UNL     1     -22.559  52.454  -4.868  1.00  0.00    -0.294 OA
BRANCH  17  18
HETATM   18  C11 UNL     1     -22.216  51.698  -5.989  1.00  0.00     0.061 C 
HETATM   19  C12 UNL     1     -22.466  52.539  -7.221  1.00  0.00     0.046 C 
HETATM   20  C13 UNL     1     -20.733  51.366  -5.976  1.00  0.00     0.046 C 
HETATM   21  C14 UNL     1     -22.966  50.411  -6.141  1.00  0.00     0.046 C 
ENDBRANCH  17  18
ENDBRANCH   5  17
TORSDOF 5
ENDMDL
MODEL 4
REMARK VINA RESULT: -6.980845719      4.377      8.043
REMARK  5 active torsions:
REMARK  status: ('A' for Active; 'I' for Inactive)
REMARK    1  A    between atoms: C2_2  and  N1_4 
REMARK    2  A    between atoms: N1_4  and  C4_6 
REMARK    3  A    between atoms: C4_6  and  C7_9 
REMARK       I    between atoms: N2_12  and  C10_13 
REMARK    4  A    between atoms: C10_13  and  O2_15 
REMARK    5  A    between atoms: O2_15  and  C11_16 
ROOT
HETATM    1  C7  UNL     1     -20.338  55.550   0.527  1.00  0.00     0.015 C 
HETATM    2  C8  UNL     1     -19.857  55.550   1.953  1.00  0.00     0.027 C 
HETATM    3  C9  UNL     1     -20.650  56.645   2.637  1.00  0.00     0.128 C 
HETATM    4  N2  UNL     1     -22.046  56.266   2.573  1.00  0.00    -0.328 N 
HETATM    5  C10 UNL     1     -22.882  56.806   3.591  1.00  0.00     0.363 C 
HETATM    6  O1  UNL     1     -24.091  56.505   3.579  1.00  0.00    -0.238 OA
HETATM    7  C15 UNL     1     -22.570  55.403   1.559  1.00  0.00     0.128 C 
HETATM    8  C16 UNL     1     -21.687  54.918   0.494  1.00  0.00     0.027 C 
ENDROOT
BRANCH   1   9
HETATM    9  C4  UNL     1     -19.346  54.815  -0.389  1.00  0.00     0.022 C 
HETATM   10  C5  UNL     1     -18.366  55.902  -0.886  1.00  0.00     0.038 C 
HETATM   11  C6  UNL     1     -20.138  54.368  -1.576  1.00  0.00     0.038 C 
BRANCH   9  12
HETATM   12  N1  UNL     1     -18.592  53.876   0.327  1.00  0.00    -0.410 N 
ATOM     13  H1  UNL     1     -17.885  54.194   0.990  1.00  0.00     0.154 HD
BRANCH  12  14
HETATM   14  C2  UNL     1     -18.803  52.505   0.138  1.00  0.00     0.069 C 
HETATM   15  C1  UNL     1     -19.706  51.855   1.154  1.00  0.00     0.031 C 
HETATM   16  C3  UNL     1     -17.470  51.729   0.075  1.00  0.00     0.031 C 
ENDBRANCH  12  14
ENDBRANCH   9  12
ENDBRANCH   1   9
BRANCH   5  17
HETATM   17  O2  UNL     1     -22.404  57.622   4.553  1.00  0.00    -0.294 OA
BRANCH  17  18
HETATM   18  C11 UNL     1     -22.289  57.350   5.916  1.00  0.00     0.061 C 
HETATM   19  C12 UNL     1     -20.851  57.574   6.325  1.00  0.00     0.046 C 
HETATM   20  C13 UNL     1     -23.133  58.320   6.727  1.00  0.00     0.046 C 
HETATM   21  C14 UNL     1     -22.682  55.963   6.322  1.00  0.00     0.046 C 
ENDBRANCH  17  18
ENDBRANCH   5  17
TORSDOF 5
ENDMDL
MODEL 5
REMARK VINA RESULT: -6.891279281      4.787      8.189
REMARK  5 active torsions:
REMARK  status: ('A' for Active; 'I' for Inactive)
REMARK    1  A    between atoms: C2_2  and  N1_4 
REMARK    2  A    between atoms: N1_4  and  C4_6 
REMARK    3  A    between atoms: C4_6  and  C7_9 
REMARK       I    between atoms: N2_12  and  C10_13 
REMARK    4  A    between atoms: C10_13  and  O2_15 
REMARK    5  A    between atoms: O2_15  and  C11_16 
ROOT
HETATM    1  C7  UNL     1     -20.003  56.197   0.521  1.00  0.00     0.015 C 
HETATM    2  C8  UNL     1     -20.657  55.135   1.363  1.00  0.00     0.027 C 
HETATM    3  C9  UNL     1     -21.059  55.836   2.643  1.00  0.00     0.128 C 
HETATM    4  N2  UNL     1     -22.018  56.861   2.287  1.00  0.00    -0.328 N 
HETATM    5  C10 UNL     1     -22.926  57.245   3.314  1.00  0.00     0.363 C 
HETATM    6  O1  UNL     1     -23.772  58.122   3.053  1.00  0.00    -0.238 OA
HETATM    7  C15 UNL     1     -22.066  57.461   0.989  1.00  0.00     0.128 C 
HETATM    8  C16 UNL     1     -21.074  57.081  -0.021  1.00  0.00     0.027 C 
ENDROOT
BRANCH   1   9
HETATM    9  C4  UNL     1     -19.163  55.571  -0.602  1.00  0.00     0.022 C 
HETATM   10  C5  UNL     1     -17.704  55.979  -0.297  1.00  0.00     0.038 C 
HETATM   11  C6  UNL     1     -19.559  56.282  -1.856  1.00  0.00     0.038 C 
BRANCH   9  12
HETATM   12  N1  UNL     1     -19.217  54.172  -0.559  1.00  0.00    -0.410 N 
ATOM     13  H1  UNL     1     -20.114  53.703  -0.434  1.00  0.00     0.154 HD
BRANCH  12  14
HETATM   14  C2  UNL     1     -18.047  53.414  -0.688  1.00  0.00     0.069 C 
HETATM   15  C1  UNL     1     -17.923  52.650  -1.979  1.00  0.00     0.031 C 
HETATM   16  C3  UNL     1     -17.871  52.438   0.496  1.00  0.00     0.031 C 
ENDBRANCH  12  14
ENDBRANCH   9  12
ENDBRANCH   1   9
BRANCH   5  17
HETATM   17  O2  UNL     1     -22.893  56.691   4.544  1.00  0.00    -0.294 OA
BRANCH  17  18
HETATM   18  C11 UNL     1     -22.434  57.275   5.725  1.00  0.00     0.061 C 
HETATM   19  C12 UNL     1     -22.591  56.269   6.843  1.00  0.00     0.046 C 
HETATM   20  C13 UNL     1     -20.951  57.592   5.623  1.00  0.00     0.046 C 
HETATM   21  C14 UNL     1     -23.138  58.534   6.126  1.00  0.00     0.046 C 
ENDBRANCH  17  18
ENDBRANCH   5  17
TORSDOF 5
ENDMDL
