MODEL 1
REMARK VINA RESULT: -8.152128631      0.000      0.000
REMARK  6 active torsions:
REMARK  status: ('A' for Active; 'I' for Inactive)
REMARK    1  A    between atoms: C2_2  and  C3_3 
REMARK    2  A    between atoms: C3_3  and  C5_5 
REMARK    3  A    between atoms: C7_10  and  C8_11 
REMARK    4  A    between atoms: C8_11  and  S1_12 
REMARK    5  A    between atoms: C18_27  and  C19_28 
REMARK    6  A    between atoms: C19_28  and  N3_29 
ROOT
HETATM    1  C5  UNL     1      47.601  10.439   9.030  1.00  0.00     0.180 C 
HETATM    2  N1  UNL     1      47.166  10.034  10.325  1.00  0.00    -0.346 N 
ATOM      3  H1  UNL     1      47.895   9.575  10.871  1.00  0.00     0.163 HD
HETATM    4  C6  UNL     1      45.957  10.134  10.997  1.00  0.00     0.241 C 
HETATM    5  O1  UNL     1      45.401   9.036  11.382  1.00  0.00    -0.271 OA
HETATM    6  C7  UNL     1      45.143  11.310  11.377  1.00  0.00     0.185 C 
HETATM    7  N2  UNL     1      45.204  11.565  12.814  1.00  0.00    -0.347 N 
ATOM      8  H2  UNL     1      45.124  10.778  13.458  1.00  0.00     0.163 HD
HETATM    9  C10 UNL     1      45.371  12.871  13.348  1.00  0.00     0.218 C 
HETATM   10  O2  UNL     1      44.996  13.157  14.517  1.00  0.00    -0.274 OA
HETATM   11  C11 UNL     1      46.004  13.886  12.476  1.00  0.00     0.103 C 
HETATM   12  C12 UNL     1      46.271  15.174  13.214  1.00  0.00     0.009 C 
HETATM   13  C13 UNL     1      47.224  16.037  12.412  1.00  0.00     0.002 C 
HETATM   14  C14 UNL     1      46.997  15.856  10.941  1.00  0.00     0.020 C 
HETATM   15  C15 UNL     1      48.063  16.623  10.189  1.00  0.00     0.089 C 
HETATM   16 CL1  UNL     1      47.328  17.461   8.820  1.00  0.00    -0.125 Cl
HETATM   17  C16 UNL     1      49.141  15.693   9.699  1.00  0.00     0.101 C 
HETATM   18  C17 UNL     1      48.616  14.830   8.650  1.00  0.00     0.152 C 
HETATM   19  O3  UNL     1      48.059  15.322   7.682  1.00  0.00    -0.296 OA
HETATM   20  C18 UNL     1      48.688  13.326   8.631  1.00  0.00     0.182 C 
HETATM   21  N4  UNL     1      47.449  12.826   8.087  1.00  0.00    -0.346 N 
ATOM     22  H4  UNL     1      46.953  13.420   7.423  1.00  0.00     0.163 HD
HETATM   23  C22 UNL     1      46.866  11.566   8.406  1.00  0.00     0.241 C 
HETATM   24  O4  UNL     1      45.636  11.471   8.106  1.00  0.00    -0.271 OA
ENDROOT
BRANCH   1  25
HETATM   25  C3  UNL     1      47.774   9.301   8.054  1.00  0.00     0.013 C 
HETATM   26  C4  UNL     1      47.502   7.946   8.708  1.00  0.00     0.012 C 
BRANCH  25  27
HETATM   27  C2  UNL     1      49.133   9.188   7.455  1.00  0.00     0.002 C 
HETATM   28  C1  UNL     1      50.263   9.120   8.447  1.00  0.00     0.005 C 
ENDBRANCH  25  27
ENDBRANCH   1  25
BRANCH   6  29
HETATM   29  C8  UNL     1      43.672  10.996  11.103  1.00  0.00     0.108 C 
BRANCH  29  30
HETATM   30  S1  UNL     1      42.713  12.437  10.670  1.00  0.00    -0.171 SA
HETATM   31  C9  UNL     1      41.826  12.957  12.187  1.00  0.00     0.089 C 
ENDBRANCH  29  30
ENDBRANCH   6  29
BRANCH  20  32
HETATM   32  C19 UNL     1      49.863  13.020   7.703  1.00  0.00     0.304 C 
BRANCH  32  33
HETATM   33  N3  UNL     1      51.027  12.593   8.457  1.00  0.00     0.082 N 
HETATM   34  C20 UNL     1      51.985  11.883   7.595  1.00  0.00     0.309 C 
HETATM   35  C21 UNL     1      51.755  13.712   9.006  1.00  0.00     0.309 C 
ENDBRANCH  32  33
ENDBRANCH  20  32
TORSDOF 6
ENDMDL
MODEL 2
REMARK VINA RESULT: -7.795614168      0.849      1.148
REMARK  6 active torsions:
REMARK  status: ('A' for Active; 'I' for Inactive)
REMARK    1  A    between atoms: C2_2  and  C3_3 
REMARK    2  A    between atoms: C3_3  and  C5_5 
REMARK    3  A    between atoms: C7_10  and  C8_11 
REMARK    4  A    between atoms: C8_11  and  S1_12 
REMARK    5  A    between atoms: C18_27  and  C19_28 
REMARK    6  A    between atoms: C19_28  and  N3_29 
ROOT
HETATM    1  C5  UNL     1      47.824  10.667   9.805  1.00  0.00     0.180 C 
HETATM    2  N1  UNL     1      47.120  10.328  10.996  1.00  0.00    -0.346 N 
ATOM      3  H1  UNL     1      47.716   9.924  11.718  1.00  0.00     0.163 HD
HETATM    4  C6  UNL     1      45.791  10.434  11.379  1.00  0.00     0.241 C 
HETATM    5  O1  UNL     1      45.179   9.347  11.704  1.00  0.00    -0.271 OA
HETATM    6  C7  UNL     1      44.897  11.608  11.494  1.00  0.00     0.185 C 
HETATM    7  N2  UNL     1      44.635  11.951  12.890  1.00  0.00    -0.347 N 
ATOM      8  H2  UNL     1      44.426  11.202  13.550  1.00  0.00     0.163 HD
HETATM    9  C10 UNL     1      44.662  13.291  13.362  1.00  0.00     0.218 C 
HETATM   10  O2  UNL     1      44.034  13.636  14.399  1.00  0.00    -0.274 OA
HETATM   11  C11 UNL     1      45.458  14.269  12.586  1.00  0.00     0.103 C 
HETATM   12  C12 UNL     1      45.537  15.606  13.279  1.00  0.00     0.009 C 
HETATM   13  C13 UNL     1      46.631  16.445  12.652  1.00  0.00     0.002 C 
HETATM   14  C14 UNL     1      46.737  16.170  11.181  1.00  0.00     0.020 C 
HETATM   15  C15 UNL     1      47.932  16.919  10.633  1.00  0.00     0.089 C 
HETATM   16 CL1  UNL     1      47.506  17.653   9.085  1.00  0.00    -0.125 Cl
HETATM   17  C16 UNL     1      49.104  15.993  10.453  1.00  0.00     0.101 C 
HETATM   18  C17 UNL     1      48.836  15.053   9.372  1.00  0.00     0.152 C 
HETATM   19  O3  UNL     1      48.500  15.470   8.276  1.00  0.00    -0.296 OA
HETATM   20  C18 UNL     1      48.932  13.554   9.468  1.00  0.00     0.182 C 
HETATM   21  N4  UNL     1      47.851  12.987   8.699  1.00  0.00    -0.346 N 
ATOM     22  H4  UNL     1      47.505  13.526   7.905  1.00  0.00     0.163 HD
HETATM   23  C22 UNL     1      47.229  11.732   8.963  1.00  0.00     0.241 C 
HETATM   24  O4  UNL     1      46.097  11.585   8.408  1.00  0.00    -0.271 OA
ENDROOT
BRANCH   1  25
HETATM   25  C3  UNL     1      48.224   9.478   8.967  1.00  0.00     0.013 C 
HETATM   26  C4  UNL     1      49.656   9.029   9.263  1.00  0.00     0.012 C 
BRANCH  25  27
HETATM   27  C2  UNL     1      48.174   9.701   7.495  1.00  0.00     0.002 C 
HETATM   28  C1  UNL     1      49.082   8.816   6.685  1.00  0.00     0.005 C 
ENDBRANCH  25  27
ENDBRANCH   1  25
BRANCH   6  29
HETATM   29  C8  UNL     1      43.528  11.237  10.926  1.00  0.00     0.108 C 
BRANCH  29  30
HETATM   30  S1  UNL     1      42.412  12.625  10.811  1.00  0.00    -0.171 SA
HETATM   31  C9  UNL     1      41.092  12.346  12.050  1.00  0.00     0.089 C 
ENDBRANCH  29  30
ENDBRANCH   6  29
BRANCH  20  32
HETATM   32  C19 UNL     1      50.287  13.226   8.842  1.00  0.00     0.304 C 
BRANCH  32  33
HETATM   33  N3  UNL     1      50.134  12.343   7.700  1.00  0.00     0.082 N 
HETATM   34  C20 UNL     1      49.860  13.107   6.473  1.00  0.00     0.309 C 
HETATM   35  C21 UNL     1      51.340  11.596   7.431  1.00  0.00     0.309 C 
ENDBRANCH  32  33
ENDBRANCH  20  32
TORSDOF 6
ENDMDL
MODEL 3
REMARK VINA RESULT: -7.516521359      1.194      1.539
REMARK  6 active torsions:
REMARK  status: ('A' for Active; 'I' for Inactive)
REMARK    1  A    between atoms: C2_2  and  C3_3 
REMARK    2  A    between atoms: C3_3  and  C5_5 
REMARK    3  A    between atoms: C7_10  and  C8_11 
REMARK    4  A    between atoms: C8_11  and  S1_12 
REMARK    5  A    between atoms: C18_27  and  C19_28 
REMARK    6  A    between atoms: C19_28  and  N3_29 
ROOT
HETATM    1  C5  UNL     1      47.520  10.909   9.904  1.00  0.00     0.180 C 
HETATM    2  N1  UNL     1      46.780  10.685  11.101  1.00  0.00    -0.346 N 
ATOM      3  H1  UNL     1      47.338  10.273  11.849  1.00  0.00     0.163 HD
HETATM    4  C6  UNL     1      45.461  10.911  11.462  1.00  0.00     0.241 C 
HETATM    5  O1  UNL     1      44.764   9.891  11.831  1.00  0.00    -0.271 OA
HETATM    6  C7  UNL     1      44.658  12.154  11.507  1.00  0.00     0.185 C 
HETATM    7  N2  UNL     1      44.411  12.586  12.881  1.00  0.00    -0.347 N 
ATOM      8  H2  UNL     1      44.139  11.889  13.575  1.00  0.00     0.163 HD
HETATM    9  C10 UNL     1      44.537  13.942  13.286  1.00  0.00     0.218 C 
HETATM   10  O2  UNL     1      43.928  14.385  14.297  1.00  0.00    -0.274 OA
HETATM   11  C11 UNL     1      45.413  14.816  12.474  1.00  0.00     0.103 C 
HETATM   12  C12 UNL     1      45.588  16.176  13.101  1.00  0.00     0.009 C 
HETATM   13  C13 UNL     1      46.749  16.897  12.447  1.00  0.00     0.002 C 
HETATM   14  C14 UNL     1      46.846  16.541  10.993  1.00  0.00     0.020 C 
HETATM   15  C15 UNL     1      48.100  17.168  10.424  1.00  0.00     0.089 C 
HETATM   16 CL1  UNL     1      47.745  17.854   8.836  1.00  0.00    -0.125 Cl
HETATM   17  C16 UNL     1      49.200  16.147  10.305  1.00  0.00     0.101 C 
HETATM   18  C17 UNL     1      48.870  15.178   9.269  1.00  0.00     0.152 C 
HETATM   19  O3  UNL     1      48.576  15.564   8.149  1.00  0.00    -0.296 OA
HETATM   20  C18 UNL     1      48.849  13.682   9.439  1.00  0.00     0.182 C 
HETATM   21  N4  UNL     1      47.734  13.162   8.685  1.00  0.00    -0.346 N 
ATOM     22  H4  UNL     1      47.438  13.686   7.861  1.00  0.00     0.163 HD
HETATM   23  C22 UNL     1      47.015  11.973   9.003  1.00  0.00     0.241 C 
HETATM   24  O4  UNL     1      45.881  11.885   8.441  1.00  0.00    -0.271 OA
ENDROOT
BRANCH   1  25
HETATM   25  C3  UNL     1      47.834   9.652   9.131  1.00  0.00     0.013 C 
HETATM   26  C4  UNL     1      47.500   9.800   7.646  1.00  0.00     0.012 C 
BRANCH  25  27
HETATM   27  C2  UNL     1      47.103   8.436   9.584  1.00  0.00     0.002 C 
HETATM   28  C1  UNL     1      47.872   7.541  10.518  1.00  0.00     0.005 C 
ENDBRANCH  25  27
ENDBRANCH   1  25
BRANCH   6  29
HETATM   29  C8  UNL     1      43.270  11.861  10.940  1.00  0.00     0.108 C 
BRANCH  29  30
HETATM   30  S1  UNL     1      41.954  12.151  12.111  1.00  0.00    -0.171 SA
HETATM   31  C9  UNL     1      41.117  10.542  12.375  1.00  0.00     0.089 C 
ENDBRANCH  29  30
ENDBRANCH   6  29
BRANCH  20  32
HETATM   32  C19 UNL     1      50.180  13.221   8.847  1.00  0.00     0.304 C 
BRANCH  32  33
HETATM   33  N3  UNL     1      49.970  12.318   7.730  1.00  0.00     0.082 N 
HETATM   34  C20 UNL     1      50.122  13.020   6.446  1.00  0.00     0.309 C 
HETATM   35  C21 UNL     1      50.943  11.252   7.708  1.00  0.00     0.309 C 
ENDBRANCH  32  33
ENDBRANCH  20  32
TORSDOF 6
ENDMDL
MODEL 4
REMARK VINA RESULT: -7.210644551      1.601      1.883
REMARK  6 active torsions:
REMARK  status: ('A' for Active; 'I' for Inactive)
REMARK    1  A    between atoms: C2_2  and  C3_3 
REMARK    2  A    between atoms: C3_3  and  C5_5 
REMARK    3  A    between atoms: C7_10  and  C8_11 
REMARK    4  A    between atoms: C8_11  and  S1_12 
REMARK    5  A    between atoms: C18_27  and  C19_28 
REMARK    6  A    between atoms: C19_28  and  N3_29 
ROOT
HETATM    1  C5  UNL     1      46.779  10.881  10.599  1.00  0.00     0.180 C 
HETATM    2  N1  UNL     1      45.829  10.807  11.659  1.00  0.00    -0.346 N 
ATOM      3  H1  UNL     1      46.215  10.421  12.521  1.00  0.00     0.163 HD
HETATM    4  C6  UNL     1      44.490  11.149  11.761  1.00  0.00     0.241 C 
HETATM    5  O1  UNL     1      43.661  10.211  12.071  1.00  0.00    -0.271 OA
HETATM    6  C7  UNL     1      43.793  12.441  11.577  1.00  0.00     0.185 C 
HETATM    7  N2  UNL     1      43.348  13.000  12.852  1.00  0.00    -0.347 N 
ATOM      8  H2  UNL     1      42.906  12.382  13.532  1.00  0.00     0.163 HD
HETATM    9  C10 UNL     1      43.510  14.374  13.177  1.00  0.00     0.218 C 
HETATM   10  O2  UNL     1      42.773  14.938  14.030  1.00  0.00    -0.274 OA
HETATM   11  C11 UNL     1      44.579  15.118  12.475  1.00  0.00     0.103 C 
HETATM   12  C12 UNL     1      44.751  16.510  13.027  1.00  0.00     0.009 C 
HETATM   13  C13 UNL     1      46.061  17.096  12.542  1.00  0.00     0.002 C 
HETATM   14  C14 UNL     1      46.380  16.616  11.157  1.00  0.00     0.020 C 
HETATM   15  C15 UNL     1      47.759  17.110  10.778  1.00  0.00     0.089 C 
HETATM   16 CL1  UNL     1      47.739  17.684   9.108  1.00  0.00    -0.125 Cl
HETATM   17  C16 UNL     1      48.777  16.012  10.928  1.00  0.00     0.101 C 
HETATM   18  C17 UNL     1      48.555  14.985   9.919  1.00  0.00     0.152 C 
HETATM   19  O3  UNL     1      48.490  15.295   8.741  1.00  0.00    -0.296 OA
HETATM   20  C18 UNL     1      48.386  13.512  10.187  1.00  0.00     0.182 C 
HETATM   21  N4  UNL     1      47.380  13.007   9.285  1.00  0.00    -0.346 N 
ATOM     22  H4  UNL     1      47.273  13.479   8.387  1.00  0.00     0.163 HD
HETATM   23  C22 UNL     1      46.525  11.898   9.551  1.00  0.00     0.241 C 
HETATM   24  O4  UNL     1      45.501  11.840   8.804  1.00  0.00    -0.271 OA
ENDROOT
BRANCH   1  25
HETATM   25  C3  UNL     1      47.122   9.547   9.984  1.00  0.00     0.013 C 
HETATM   26  C4  UNL     1      47.276   8.455  11.043  1.00  0.00     0.012 C 
BRANCH  25  27
HETATM   27  C2  UNL     1      48.389   9.523   9.200  1.00  0.00     0.002 C 
HETATM   28  C1  UNL     1      48.233   9.160   7.748  1.00  0.00     0.005 C 
ENDBRANCH  25  27
ENDBRANCH   1  25
BRANCH   6  29
HETATM   29  C8  UNL     1      42.504  12.195  10.794  1.00  0.00     0.108 C 
BRANCH  29  30
HETATM   30  S1  UNL     1      41.048  12.156  11.825  1.00  0.00    -0.171 SA
HETATM   31  C9  UNL     1      40.138  10.625  11.397  1.00  0.00     0.089 C 
ENDBRANCH  29  30
ENDBRANCH   6  29
BRANCH  20  32
HETATM   32  C19 UNL     1      49.758  12.917   9.875  1.00  0.00     0.304 C 
BRANCH  32  33
HETATM   33  N3  UNL     1      50.311  13.486   8.660  1.00  0.00     0.082 N 
HETATM   34  C20 UNL     1      51.706  13.908   8.860  1.00  0.00     0.309 C 
HETATM   35  C21 UNL     1      50.345  12.527   7.582  1.00  0.00     0.309 C 
ENDBRANCH  32  33
ENDBRANCH  20  32
TORSDOF 6
ENDMDL
MODEL 5
REMARK VINA RESULT: -7.209723828      2.441      6.126
REMARK  6 active torsions:
REMARK  status: ('A' for Active; 'I' for Inactive)
REMARK    1  A    between atoms: C2_2  and  C3_3 
REMARK    2  A    between atoms: C3_3  and  C5_5 
REMARK    3  A    between atoms: C7_10  and  C8_11 
REMARK    4  A    between atoms: C8_11  and  S1_12 
REMARK    5  A    between atoms: C18_27  and  C19_28 
REMARK    6  A    between atoms: C19_28  and  N3_29 
ROOT
HETATM    1  C5  UNL     1      44.340  12.692  12.140  1.00  0.00     0.180 C 
HETATM    2  N1  UNL     1      44.265  11.672  11.148  1.00  0.00    -0.346 N 
ATOM      3  H1  UNL     1      43.437  11.744  10.556  1.00  0.00     0.163 HD
HETATM    4  C6  UNL     1      45.083  10.603  10.818  1.00  0.00     0.241 C 
HETATM    5  O1  UNL     1      44.567   9.422  10.875  1.00  0.00    -0.271 OA
HETATM    6  C7  UNL     1      46.500  10.549  10.393  1.00  0.00     0.185 C 
HETATM    7  N2  UNL     1      46.624  10.223   8.974  1.00  0.00    -0.347 N 
ATOM      8  H2  UNL     1      46.045   9.477   8.588  1.00  0.00     0.163 HD
HETATM    9  C10 UNL     1      47.523  10.908   8.113  1.00  0.00     0.218 C 
HETATM   10  O2  UNL     1      47.952  10.377   7.053  1.00  0.00    -0.274 OA
HETATM   11  C11 UNL     1      47.939  12.272   8.510  1.00  0.00     0.103 C 
HETATM   12  C12 UNL     1      48.756  12.945   7.436  1.00  0.00     0.009 C 
HETATM   13  C13 UNL     1      48.851  14.431   7.719  1.00  0.00     0.002 C 
HETATM   14  C14 UNL     1      48.889  14.690   9.196  1.00  0.00     0.020 C 
HETATM   15  C15 UNL     1      48.837  16.185   9.426  1.00  0.00     0.089 C 
HETATM   16 CL1  UNL     1      49.985  16.625  10.694  1.00  0.00    -0.125 Cl
HETATM   17  C16 UNL     1      47.450  16.614   9.823  1.00  0.00     0.101 C 
HETATM   18  C17 UNL     1      47.133  16.109  11.152  1.00  0.00     0.152 C 
HETATM   19  O3  UNL     1      47.889  16.334  12.083  1.00  0.00    -0.296 OA
HETATM   20  C18 UNL     1      45.916  15.300  11.518  1.00  0.00     0.182 C 
HETATM   21  N4  UNL     1      46.317  14.300  12.476  1.00  0.00    -0.346 N 
ATOM     22  H4  UNL     1      47.108  14.518  13.083  1.00  0.00     0.163 HD
HETATM   23  C22 UNL     1      45.694  13.029  12.643  1.00  0.00     0.241 C 
HETATM   24  O4  UNL     1      46.398  12.182  13.273  1.00  0.00    -0.271 OA
ENDROOT
BRANCH   1  25
HETATM   25  C3  UNL     1      43.370  12.513  13.282  1.00  0.00     0.013 C 
HETATM   26  C4  UNL     1      43.168  11.037  13.630  1.00  0.00     0.012 C 
BRANCH  25  27
HETATM   27  C2  UNL     1      42.004  13.054  13.037  1.00  0.00     0.002 C 
HETATM   28  C1  UNL     1      40.968  12.026  12.664  1.00  0.00     0.005 C 
ENDBRANCH  25  27
ENDBRANCH   1  25
BRANCH   6  29
HETATM   29  C8  UNL     1      47.184   9.389  11.116  1.00  0.00     0.108 C 
BRANCH  29  30
HETATM   30  S1  UNL     1      47.796   8.130  10.009  1.00  0.00    -0.171 SA
HETATM   31  C9  UNL     1      46.621   6.727  10.104  1.00  0.00     0.089 C 
ENDBRANCH  29  30
ENDBRANCH   6  29
BRANCH  20  32
HETATM   32  C19 UNL     1      44.966  16.318  12.145  1.00  0.00     0.304 C 
BRANCH  32  33
HETATM   33  N3  UNL     1      44.898  16.151  13.585  1.00  0.00     0.082 N 
HETATM   34  C20 UNL     1      45.504  17.298  14.280  1.00  0.00     0.309 C 
HETATM   35  C21 UNL     1      43.536  16.087  14.058  1.00  0.00     0.309 C 
ENDBRANCH  32  33
ENDBRANCH  20  32
TORSDOF 6
ENDMDL
