MODEL 1
REMARK VINA RESULT: -8.086268860      0.000      0.000
REMARK  7 active torsions:
REMARK  status: ('A' for Active; 'I' for Inactive)
REMARK    1  A    between atoms: C2_2  and  C3_3 
REMARK    2  A    between atoms: C2_2  and  C10_12 
REMARK    3  A    between atoms: C3_3  and  C4_4 
REMARK    4  A    between atoms: C4_4  and  C5_5 
REMARK    5  A    between atoms: C5_5  and  N1_6 
REMARK    6  A    between atoms: C10_12  and  C12_14 
REMARK    7  A    between atoms: C16_18  and  C17_19 
ROOT
HETATM    1  C12 UNL     1      14.837  28.941  11.716  1.00  0.00    -0.002 C 
HETATM    2  C13 UNL     1      14.252  28.849  10.322  1.00  0.00     0.006 C 
HETATM    3  C14 UNL     1      14.612  30.149   9.656  1.00  0.00     0.010 C 
HETATM    4  C15 UNL     1      15.628  30.783  10.591  1.00  0.00     0.023 C 
HETATM    5  C16 UNL     1      16.679  31.482   9.865  1.00  0.00    -0.074 C 
HETATM    6  C27 UNL     1      17.688  30.719   9.380  1.00  0.00    -0.023 C 
HETATM    7  C28 UNL     1      17.664  29.267   9.607  1.00  0.00     0.028 C 
HETATM    8  C29 UNL     1      17.312  29.005  11.080  1.00  0.00     0.014 C 
HETATM    9  C30 UNL     1      16.099  29.664  11.533  1.00  0.00    -0.032 C 
HETATM   10  C31 UNL     1      16.378  30.394  12.873  1.00  0.00     0.016 C 
ENDROOT
BRANCH   1  11
HETATM   11  C10 UNL     1      14.627  27.819  12.602  1.00  0.00    -0.010 C 
HETATM   12  C11 UNL     1      13.359  27.080  12.699  1.00  0.00     0.011 C 
BRANCH  11  13
HETATM   13  C2  UNL     1      15.099  28.078  14.049  1.00  0.00    -0.014 C 
HETATM   14  C1  UNL     1      14.009  28.275  15.024  1.00  0.00     0.010 C 
BRANCH  13  15
HETATM   15  C3  UNL     1      16.180  27.172  14.505  1.00  0.00     0.006 C 
BRANCH  15  16
HETATM   16  C4  UNL     1      17.532  27.729  14.724  1.00  0.00     0.030 C 
BRANCH  16  17
HETATM   17  C5  UNL     1      17.488  28.425  16.097  1.00  0.00     0.272 C 
BRANCH  17  18
HETATM   18  N1  UNL     1      18.409  27.812  17.003  1.00  0.00     0.092 N 
HETATM   19  C6  UNL     1      19.745  28.301  16.865  1.00  0.00     0.298 C 
HETATM   20  C7  UNL     1      19.885  29.768  17.243  1.00  0.00     0.198 C 
HETATM   21  O1  UNL     1      18.935  30.095  18.200  1.00  0.00    -0.388 OA
HETATM   22  C8  UNL     1      18.757  29.022  19.061  1.00  0.00     0.198 C 
HETATM   23  C9  UNL     1      17.980  27.900  18.376  1.00  0.00     0.298 C 
ENDBRANCH  17  18
ENDBRANCH  16  17
ENDBRANCH  15  16
ENDBRANCH  13  15
ENDBRANCH  11  13
ENDBRANCH   1  11
BRANCH   5  24
HETATM   24  C17 UNL     1      16.736  32.899   9.562  1.00  0.00     0.023 C 
HETATM   25  C18 UNL     1      18.138  33.481   9.542  1.00  0.00     0.010 C 
HETATM   26  C19 UNL     1      17.843  34.921   9.166  1.00  0.00     0.006 C 
HETATM   27  C20 UNL     1      16.497  34.932   8.483  1.00  0.00     0.001 C 
HETATM   28  C21 UNL     1      15.420  35.632   9.240  1.00  0.00     0.083 C 
HETATM   29  C25 UNL     1      16.156  33.425   8.313  1.00  0.00    -0.032 C 
HETATM   30  C22 UNL     1      14.193  35.573   8.377  1.00  0.00     0.127 C 
HETATM   31  O2  UNL     1      13.360  36.430   8.380  1.00  0.00    -0.298 OA
HETATM   32  C23 UNL     1      14.050  34.383   7.499  1.00  0.00     0.079 C 
HETATM   33  C24 UNL     1      14.662  33.222   8.272  1.00  0.00     0.017 C 
HETATM   34  C26 UNL     1      16.786  33.043   7.023  1.00  0.00     0.016 C 
ENDBRANCH   5  24
TORSDOF 7
ENDMDL
MODEL 2
REMARK VINA RESULT: -7.853936173      3.639      5.169
REMARK  7 active torsions:
REMARK  status: ('A' for Active; 'I' for Inactive)
REMARK    1  A    between atoms: C2_2  and  C3_3 
REMARK    2  A    between atoms: C2_2  and  C10_12 
REMARK    3  A    between atoms: C3_3  and  C4_4 
REMARK    4  A    between atoms: C4_4  and  C5_5 
REMARK    5  A    between atoms: C5_5  and  N1_6 
REMARK    6  A    between atoms: C10_12  and  C12_14 
REMARK    7  A    between atoms: C16_18  and  C17_19 
ROOT
HETATM    1  C12 UNL     1      17.287  30.143  10.924  1.00  0.00    -0.002 C 
HETATM    2  C13 UNL     1      16.546  30.540  12.185  1.00  0.00     0.006 C 
HETATM    3  C14 UNL     1      15.975  31.901  11.894  1.00  0.00     0.010 C 
HETATM    4  C15 UNL     1      16.164  32.077  10.396  1.00  0.00     0.023 C 
HETATM    5  C16 UNL     1      15.044  32.776   9.781  1.00  0.00    -0.074 C 
HETATM    6  C27 UNL     1      13.949  32.031   9.496  1.00  0.00    -0.023 C 
HETATM    7  C28 UNL     1      13.953  30.597   9.817  1.00  0.00     0.028 C 
HETATM    8  C29 UNL     1      15.284  29.990   9.344  1.00  0.00     0.014 C 
HETATM    9  C30 UNL     1      16.465  30.679   9.836  1.00  0.00    -0.032 C 
HETATM   10  C31 UNL     1      17.434  30.948   8.655  1.00  0.00     0.016 C 
ENDROOT
BRANCH   1  11
HETATM   11  C10 UNL     1      17.962  28.865  10.924  1.00  0.00    -0.010 C 
HETATM   12  C11 UNL     1      17.861  27.886  12.018  1.00  0.00     0.011 C 
BRANCH  11  13
HETATM   13  C2  UNL     1      19.456  28.956  10.549  1.00  0.00    -0.014 C 
HETATM   14  C1  UNL     1      19.755  28.647   9.137  1.00  0.00     0.010 C 
BRANCH  13  15
HETATM   15  C3  UNL     1      20.141  30.161  11.076  1.00  0.00     0.006 C 
BRANCH  15  16
HETATM   16  C4  UNL     1      21.246  30.753  10.294  1.00  0.00     0.030 C 
BRANCH  16  17
HETATM   17  C5  UNL     1      22.079  31.579  11.291  1.00  0.00     0.272 C 
BRANCH  17  18
HETATM   18  N1  UNL     1      23.266  30.873  11.663  1.00  0.00     0.092 N 
HETATM   19  C6  UNL     1      24.234  30.807  10.613  1.00  0.00     0.298 C 
HETATM   20  C7  UNL     1      24.799  32.168  10.236  1.00  0.00     0.198 C 
HETATM   21  O1  UNL     1      24.775  33.005  11.343  1.00  0.00    -0.388 OA
HETATM   22  C8  UNL     1      25.054  32.270  12.486  1.00  0.00     0.198 C 
HETATM   23  C9  UNL     1      23.865  31.390  12.868  1.00  0.00     0.298 C 
ENDBRANCH  17  18
ENDBRANCH  16  17
ENDBRANCH  15  16
ENDBRANCH  13  15
ENDBRANCH  11  13
ENDBRANCH   1  11
BRANCH   5  24
HETATM   24  C17 UNL     1      14.956  34.194   9.487  1.00  0.00     0.023 C 
HETATM   25  C18 UNL     1      16.232  34.802   8.934  1.00  0.00     0.010 C 
HETATM   26  C19 UNL     1      15.790  36.236   8.709  1.00  0.00     0.006 C 
HETATM   27  C20 UNL     1      14.285  36.221   8.596  1.00  0.00     0.001 C 
HETATM   28  C21 UNL     1      13.569  36.902   9.712  1.00  0.00     0.083 C 
HETATM   29  C25 UNL     1      13.931  34.708   8.561  1.00  0.00    -0.032 C 
HETATM   30  C22 UNL     1      12.106  36.819   9.387  1.00  0.00     0.127 C 
HETATM   31  O2  UNL     1      11.323  37.660   9.715  1.00  0.00    -0.298 OA
HETATM   32  C23 UNL     1      11.658  35.625   8.624  1.00  0.00     0.079 C 
HETATM   33  C24 UNL     1      12.540  34.477   9.096  1.00  0.00     0.017 C 
HETATM   34  C26 UNL     1      14.024  34.336   7.126  1.00  0.00     0.016 C 
ENDBRANCH   5  24
TORSDOF 7
ENDMDL
MODEL 3
REMARK VINA RESULT: -7.784210709      3.607      5.353
REMARK  7 active torsions:
REMARK  status: ('A' for Active; 'I' for Inactive)
REMARK    1  A    between atoms: C2_2  and  C3_3 
REMARK    2  A    between atoms: C2_2  and  C10_12 
REMARK    3  A    between atoms: C3_3  and  C4_4 
REMARK    4  A    between atoms: C4_4  and  C5_5 
REMARK    5  A    between atoms: C5_5  and  N1_6 
REMARK    6  A    between atoms: C10_12  and  C12_14 
REMARK    7  A    between atoms: C16_18  and  C17_19 
ROOT
HETATM    1  C12 UNL     1      17.345  29.651  10.999  1.00  0.00    -0.002 C 
HETATM    2  C13 UNL     1      16.596  30.080  12.244  1.00  0.00     0.006 C 
HETATM    3  C14 UNL     1      15.633  31.138  11.780  1.00  0.00     0.010 C 
HETATM    4  C15 UNL     1      15.671  31.045  10.264  1.00  0.00     0.023 C 
HETATM    5  C16 UNL     1      14.361  31.264   9.668  1.00  0.00    -0.074 C 
HETATM    6  C27 UNL     1      13.520  30.202   9.653  1.00  0.00    -0.023 C 
HETATM    7  C28 UNL     1      13.965  28.924  10.226  1.00  0.00     0.028 C 
HETATM    8  C29 UNL     1      15.385  28.625   9.718  1.00  0.00     0.014 C 
HETATM    9  C30 UNL     1      16.338  29.701   9.935  1.00  0.00    -0.032 C 
HETATM   10  C31 UNL     1      17.111  29.977   8.619  1.00  0.00     0.016 C 
ENDROOT
BRANCH   1  11
HETATM   11  C10 UNL     1      18.365  28.638  11.151  1.00  0.00    -0.010 C 
HETATM   12  C11 UNL     1      18.625  27.922  12.409  1.00  0.00     0.011 C 
BRANCH  11  13
HETATM   13  C2  UNL     1      19.740  29.059  10.589  1.00  0.00    -0.014 C 
HETATM   14  C1  UNL     1      19.986  28.644   9.194  1.00  0.00     0.010 C 
BRANCH  13  15
HETATM   15  C3  UNL     1      20.115  30.460  10.892  1.00  0.00     0.006 C 
BRANCH  15  16
HETATM   16  C4  UNL     1      21.295  31.044  10.220  1.00  0.00     0.030 C 
BRANCH  16  17
HETATM   17  C5  UNL     1      22.118  31.733  11.325  1.00  0.00     0.272 C 
BRANCH  17  18
HETATM   18  N1  UNL     1      23.258  30.942  11.670  1.00  0.00     0.092 N 
HETATM   19  C6  UNL     1      24.228  30.864  10.623  1.00  0.00     0.298 C 
HETATM   20  C7  UNL     1      24.876  32.205  10.309  1.00  0.00     0.198 C 
HETATM   21  O1  UNL     1      24.893  32.993  11.452  1.00  0.00    -0.388 OA
HETATM   22  C8  UNL     1      25.120  32.193  12.562  1.00  0.00     0.198 C 
HETATM   23  C9  UNL     1      23.878  31.370  12.900  1.00  0.00     0.298 C 
ENDBRANCH  17  18
ENDBRANCH  16  17
ENDBRANCH  15  16
ENDBRANCH  13  15
ENDBRANCH  11  13
ENDBRANCH   1  11
BRANCH   5  24
HETATM   24  C17 UNL     1      13.842  32.508   9.135  1.00  0.00     0.023 C 
HETATM   25  C18 UNL     1      12.532  32.960   9.756  1.00  0.00     0.010 C 
HETATM   26  C19 UNL     1      12.304  34.267   9.021  1.00  0.00     0.006 C 
HETATM   27  C20 UNL     1      13.649  34.729   8.514  1.00  0.00     0.001 C 
HETATM   28  C21 UNL     1      13.794  34.717   7.030  1.00  0.00     0.083 C 
HETATM   29  C25 UNL     1      14.652  33.739   9.171  1.00  0.00    -0.032 C 
HETATM   30  C22 UNL     1      15.166  35.251   6.738  1.00  0.00     0.127 C 
HETATM   31  O2  UNL     1      15.420  35.869   5.747  1.00  0.00    -0.298 OA
HETATM   32  C23 UNL     1      16.220  34.977   7.749  1.00  0.00     0.079 C 
HETATM   33  C24 UNL     1      15.894  33.606   8.325  1.00  0.00     0.017 C 
HETATM   34  C26 UNL     1      14.962  34.344  10.491  1.00  0.00     0.016 C 
ENDBRANCH   5  24
TORSDOF 7
ENDMDL
MODEL 4
REMARK VINA RESULT: -7.772112183      2.924      4.889
REMARK  7 active torsions:
REMARK  status: ('A' for Active; 'I' for Inactive)
REMARK    1  A    between atoms: C2_2  and  C3_3 
REMARK    2  A    between atoms: C2_2  and  C10_12 
REMARK    3  A    between atoms: C3_3  and  C4_4 
REMARK    4  A    between atoms: C4_4  and  C5_5 
REMARK    5  A    between atoms: C5_5  and  N1_6 
REMARK    6  A    between atoms: C10_12  and  C12_14 
REMARK    7  A    between atoms: C16_18  and  C17_19 
ROOT
HETATM    1  C12 UNL     1      16.007  29.432  11.265  1.00  0.00    -0.002 C 
HETATM    2  C13 UNL     1      15.495  28.821   9.977  1.00  0.00     0.006 C 
HETATM    3  C14 UNL     1      14.565  29.850   9.394  1.00  0.00     0.010 C 
HETATM    4  C15 UNL     1      14.823  31.101  10.217  1.00  0.00     0.023 C 
HETATM    5  C16 UNL     1      14.765  32.310   9.409  1.00  0.00    -0.074 C 
HETATM    6  C27 UNL     1      15.877  32.618   8.700  1.00  0.00    -0.023 C 
HETATM    7  C28 UNL     1      17.050  31.735   8.784  1.00  0.00     0.028 C 
HETATM    8  C29 UNL     1      17.303  31.393  10.261  1.00  0.00     0.014 C 
HETATM    9  C30 UNL     1      16.146  30.859  10.960  1.00  0.00    -0.032 C 
HETATM   10  C31 UNL     1      15.966  31.609  12.305  1.00  0.00     0.016 C 
ENDROOT
BRANCH   1  11
HETATM   11  C10 UNL     1      16.923  28.644  12.059  1.00  0.00    -0.010 C 
HETATM   12  C11 UNL     1      17.937  27.745  11.486  1.00  0.00     0.011 C 
BRANCH  11  13
HETATM   13  C2  UNL     1      16.236  27.865  13.201  1.00  0.00    -0.014 C 
HETATM   14  C1  UNL     1      16.976  27.870  14.478  1.00  0.00     0.010 C 
BRANCH  13  15
HETATM   15  C3  UNL     1      14.783  28.131  13.327  1.00  0.00     0.006 C 
BRANCH  15  16
HETATM   16  C4  UNL     1      14.124  27.884  14.627  1.00  0.00     0.030 C 
BRANCH  16  17
HETATM   17  C5  UNL     1      12.742  27.290  14.298  1.00  0.00     0.272 C 
BRANCH  17  18
HETATM   18  N1  UNL     1      12.784  25.862  14.342  1.00  0.00     0.092 N 
HETATM   19  C6  UNL     1      11.986  25.306  15.390  1.00  0.00     0.298 C 
HETATM   20  C7  UNL     1      10.497  25.557  15.202  1.00  0.00     0.198 C 
HETATM   21  O1  UNL     1      10.208  25.653  13.848  1.00  0.00    -0.388 OA
HETATM   22  C8  UNL     1      11.002  24.763  13.141  1.00  0.00     0.198 C 
HETATM   23  C9  UNL     1      12.446  25.257  13.077  1.00  0.00     0.298 C 
ENDBRANCH  17  18
ENDBRANCH  16  17
ENDBRANCH  15  16
ENDBRANCH  13  15
ENDBRANCH  11  13
ENDBRANCH   1  11
BRANCH   5  24
HETATM   24  C17 UNL     1      13.627  33.194   9.241  1.00  0.00     0.023 C 
HETATM   25  C18 UNL     1      12.322  32.650   9.796  1.00  0.00     0.010 C 
HETATM   26  C19 UNL     1      11.383  33.804   9.498  1.00  0.00     0.006 C 
HETATM   27  C20 UNL     1      12.236  35.040   9.349  1.00  0.00     0.001 C 
HETATM   28  C21 UNL     1      12.269  35.614   7.973  1.00  0.00     0.083 C 
HETATM   29  C25 UNL     1      13.654  34.566   9.778  1.00  0.00    -0.032 C 
HETATM   30  C22 UNL     1      13.121  36.847   8.052  1.00  0.00     0.127 C 
HETATM   31  O2  UNL     1      12.940  37.802   7.355  1.00  0.00    -0.298 OA
HETATM   32  C23 UNL     1      14.221  36.838   9.051  1.00  0.00     0.079 C 
HETATM   33  C24 UNL     1      14.716  35.399   9.107  1.00  0.00     0.017 C 
HETATM   34  C26 UNL     1      13.678  34.749  11.252  1.00  0.00     0.016 C 
ENDBRANCH   5  24
TORSDOF 7
ENDMDL
MODEL 5
REMARK VINA RESULT: -7.654983401      3.659      5.284
REMARK  7 active torsions:
REMARK  status: ('A' for Active; 'I' for Inactive)
REMARK    1  A    between atoms: C2_2  and  C3_3 
REMARK    2  A    between atoms: C2_2  and  C10_12 
REMARK    3  A    between atoms: C3_3  and  C4_4 
REMARK    4  A    between atoms: C4_4  and  C5_5 
REMARK    5  A    between atoms: C5_5  and  N1_6 
REMARK    6  A    between atoms: C10_12  and  C12_14 
REMARK    7  A    between atoms: C16_18  and  C17_19 
ROOT
HETATM    1  C12 UNL     1      17.337  30.051  10.881  1.00  0.00    -0.002 C 
HETATM    2  C13 UNL     1      16.596  30.488  12.129  1.00  0.00     0.006 C 
HETATM    3  C14 UNL     1      15.870  31.746  11.737  1.00  0.00     0.010 C 
HETATM    4  C15 UNL     1      15.992  31.796  10.223  1.00  0.00     0.023 C 
HETATM    5  C16 UNL     1      14.784  32.309   9.593  1.00  0.00    -0.074 C 
HETATM    6  C27 UNL     1      13.769  31.428   9.423  1.00  0.00    -0.023 C 
HETATM    7  C28 UNL     1      13.940  30.040   9.876  1.00  0.00     0.028 C 
HETATM    8  C29 UNL     1      15.314  29.535   9.406  1.00  0.00     0.014 C 
HETATM    9  C30 UNL     1      16.427  30.390   9.783  1.00  0.00    -0.032 C 
HETATM   10  C31 UNL     1      17.323  30.645   8.542  1.00  0.00     0.016 C 
ENDROOT
BRANCH   1  11
HETATM   11  C10 UNL     1      18.147  28.858  10.971  1.00  0.00    -0.010 C 
HETATM   12  C11 UNL     1      18.182  27.980  12.151  1.00  0.00     0.011 C 
BRANCH  11  13
HETATM   13  C2  UNL     1      19.613  29.074  10.537  1.00  0.00    -0.014 C 
HETATM   14  C1  UNL     1      19.903  28.689   9.142  1.00  0.00     0.010 C 
BRANCH  13  15
HETATM   15  C3  UNL     1      20.181  30.380  10.949  1.00  0.00     0.006 C 
BRANCH  15  16
HETATM   16  C4  UNL     1      21.389  30.880  10.262  1.00  0.00     0.030 C 
BRANCH  16  17
HETATM   17  C5  UNL     1      22.197  31.647  11.324  1.00  0.00     0.272 C 
BRANCH  17  18
HETATM   18  N1  UNL     1      23.385  30.929  11.669  1.00  0.00     0.092 N 
HETATM   19  C6  UNL     1      24.338  30.873  10.604  1.00  0.00     0.298 C 
HETATM   20  C7  UNL     1      24.905  32.236  10.239  1.00  0.00     0.198 C 
HETATM   21  O1  UNL     1      24.902  33.057  11.357  1.00  0.00    -0.388 OA
HETATM   22  C8  UNL     1      25.193  32.305  12.485  1.00  0.00     0.198 C 
HETATM   23  C9  UNL     1      24.005  31.426  12.872  1.00  0.00     0.298 C 
ENDBRANCH  17  18
ENDBRANCH  16  17
ENDBRANCH  15  16
ENDBRANCH  13  15
ENDBRANCH  11  13
ENDBRANCH   1  11
BRANCH   5  24
HETATM   24  C17 UNL     1      14.531  33.674   9.173  1.00  0.00     0.023 C 
HETATM   25  C18 UNL     1      13.983  34.576  10.264  1.00  0.00     0.010 C 
HETATM   26  C19 UNL     1      13.876  35.893   9.518  1.00  0.00     0.006 C 
HETATM   27  C20 UNL     1      14.827  35.816   8.348  1.00  0.00     0.001 C 
HETATM   28  C21 UNL     1      14.170  35.796   7.010  1.00  0.00     0.083 C 
HETATM   29  C25 UNL     1      15.610  34.495   8.594  1.00  0.00    -0.032 C 
HETATM   30  C22 UNL     1      15.278  35.768   5.998  1.00  0.00     0.127 C 
HETATM   31  O2  UNL     1      15.178  36.272   4.918  1.00  0.00    -0.298 OA
HETATM   32  C23 UNL     1      16.531  35.077   6.397  1.00  0.00     0.079 C 
HETATM   33  C24 UNL     1      16.099  33.920   7.288  1.00  0.00     0.017 C 
HETATM   34  C26 UNL     1      16.745  34.891   9.467  1.00  0.00     0.016 C 
ENDBRANCH   5  24
TORSDOF 7
ENDMDL
