MODEL 1
REMARK VINA RESULT: -8.739974283      0.000      0.000
REMARK  12 active torsions:
REMARK  status: ('A' for Active; 'I' for Inactive)
REMARK    1  A    between atoms: N1_1  and  C1_4 
REMARK    2  A    between atoms: N5_10  and  C2_11 
REMARK    3  A    between atoms: C3_14  and  N7_15 
REMARK    4  A    between atoms: N7_15  and  C4_17 
REMARK    5  A    between atoms: C4_17  and  C5_18 
REMARK    6  A    between atoms: C5_18  and  O1_19 
REMARK    7  A    between atoms: C6_23  and  N9_24 
REMARK    8  A    between atoms: N9_24  and  C7_26 
REMARK    9  A    between atoms: C10_29  and  N10_30 
REMARK   10  A    between atoms: C12_34  and  C13_35 
REMARK   11  A    between atoms: C13_35  and  N13_37 
REMARK   12  A    between atoms: N13_37  and  O2_39 
ROOT
HETATM    1  C2  UNL     1     -12.342 -13.373 -31.088  1.00  0.00     0.748 A 
HETATM    2  N6  UNL     1     -13.355 -14.249 -31.211  1.00  0.00    -0.019 N 
ATOM      3  H6  UNL     1     -13.966 -14.401 -30.407  1.00  0.00     0.203 HD
HETATM    4  C3  UNL     1     -13.606 -14.945 -32.357  1.00  0.00     0.707 A 
HETATM    5  N8  UNL     1     -12.802 -14.736 -33.396  1.00  0.00    -0.021 N 
ATOM      6  H8  UNL     1     -12.973 -15.247 -34.262  1.00  0.00     0.203 HD
HETATM    7  C6  UNL     1     -11.756 -13.863 -33.343  1.00  0.00     0.711 A 
HETATM    8  N14 UNL     1     -11.568 -13.215 -32.191  1.00  0.00    -0.019 N 
ATOM      9  H14 UNL     1     -10.789 -12.558 -32.136  1.00  0.00     0.203 HD
ENDROOT
BRANCH   7  10
HETATM   10  N9  UNL     1     -11.040 -13.726 -34.381  1.00  0.00    -0.191 N 
ATOM     11  H9  UNL     1     -10.456 -14.522 -34.639  1.00  0.00     0.184 HD
BRANCH  10  12
HETATM   12  C7  UNL     1     -10.965 -12.606 -35.207  1.00  0.00     0.049 A 
HETATM   13  C8  UNL     1     -12.102 -11.952 -35.592  1.00  0.00     0.032 A 
HETATM   14  C9  UNL     1     -12.076 -10.829 -36.414  1.00  0.00     0.032 A 
HETATM   15  C10 UNL     1     -10.855 -10.373 -36.847  1.00  0.00     0.039 A 
HETATM   16  C15 UNL     1      -9.706 -11.041 -36.452  1.00  0.00     0.032 A 
HETATM   17  C16 UNL     1      -9.752 -12.147 -35.640  1.00  0.00     0.032 A 
BRANCH  15  18
HETATM   18  N10 UNL     1     -10.783  -9.229 -37.689  1.00  0.00    -0.316 N 
HETATM   19  C11 UNL     1     -11.714  -8.277 -37.871  1.00  0.00     0.188 A 
HETATM   20  N11 UNL     1     -11.284  -7.356 -38.742  1.00  0.00    -0.348 N 
HETATM   21  C12 UNL     1     -10.058  -7.719 -39.129  1.00  0.00     0.092 A 
ATOM     22  H11 UNL     1     -11.797  -6.531 -39.054  1.00  0.00     0.167 HD
HETATM   23  C14 UNL     1      -9.753  -8.885 -38.469  1.00  0.00     0.131 A 
BRANCH  21  24
HETATM   24  C13 UNL     1      -9.189  -7.017 -40.077  1.00  0.00     0.164 C 
HETATM   25  N12 UNL     1      -7.816  -6.870 -39.795  1.00  0.00    -0.078 NA
BRANCH  24  26
HETATM   26  N13 UNL     1      -9.648  -6.530 -41.162  1.00  0.00    -0.253 N 
ATOM     27  H13 UNL     1      -9.349  -6.945 -42.045  1.00  0.00     0.195 HD
BRANCH  26  28
HETATM   28  O2  UNL     1     -10.516  -5.481 -41.201  1.00  0.00    -0.288 OA
ATOM     29  H2  UNL     1     -10.477  -4.796 -41.858  1.00  0.00     0.244 HD
ENDBRANCH  26  28
ENDBRANCH  24  26
ENDBRANCH  21  24
ENDBRANCH  15  18
ENDBRANCH  10  12
ENDBRANCH   7  10
BRANCH   4  30
HETATM   30  N7  UNL     1     -14.589 -15.763 -32.399  1.00  0.00    -0.223 N 
ATOM     31  H7  UNL     1     -14.396 -16.739 -32.625  1.00  0.00     0.177 HD
BRANCH  30  32
HETATM   32  C4  UNL     1     -15.954 -15.381 -32.143  1.00  0.00     0.164 C 
BRANCH  32  33
HETATM   33  C5  UNL     1     -16.362 -14.154 -32.931  1.00  0.00     0.184 C 
BRANCH  33  34
HETATM   34  O1  UNL     1     -16.900 -14.497 -34.170  1.00  0.00    -0.399 OA
ATOM     35  H1  UNL     1     -16.417 -15.208 -34.576  1.00  0.00     0.209 HD
ENDBRANCH  33  34
ENDBRANCH  32  33
ENDBRANCH  30  32
ENDBRANCH   4  30
BRANCH   1  36
HETATM   36  N5  UNL     1     -12.106 -12.667 -29.890  1.00  0.00     0.105 N 
HETATM   37  C1  UNL     1     -11.251 -12.969 -28.919  1.00  0.00     0.726 A 
HETATM   38  N2  UNL     1     -11.316 -12.044 -27.929  1.00  0.00    -0.113 N 
HETATM   39  N3  UNL     1     -12.241 -11.164 -28.331  1.00  0.00     0.009 NA
ATOM     40  H2  UNL     1     -10.776 -12.023 -27.064  1.00  0.00     0.203 HD
HETATM   41  N4  UNL     1     -12.712 -11.558 -29.526  1.00  0.00    -0.190 N 
ATOM     42  H4  UNL     1     -13.429 -11.073 -30.067  1.00  0.00     0.207 HD
BRANCH  37  43
HETATM   43  N1  UNL     1     -10.471 -13.989 -28.908  1.00  0.00    -0.231 N 
ATOM     44  H12 UNL     1     -10.501 -14.746 -28.224  1.00  0.00     0.174 HD
ATOM     45  H11 UNL     1      -9.729 -14.154 -29.589  1.00  0.00     0.174 HD
ENDBRANCH  37  43
ENDBRANCH   1  36
TORSDOF 12
ENDMDL
MODEL 2
REMARK VINA RESULT: -8.532844130      1.079      1.667
REMARK  12 active torsions:
REMARK  status: ('A' for Active; 'I' for Inactive)
REMARK    1  A    between atoms: N1_1  and  C1_4 
REMARK    2  A    between atoms: N5_10  and  C2_11 
REMARK    3  A    between atoms: C3_14  and  N7_15 
REMARK    4  A    between atoms: N7_15  and  C4_17 
REMARK    5  A    between atoms: C4_17  and  C5_18 
REMARK    6  A    between atoms: C5_18  and  O1_19 
REMARK    7  A    between atoms: C6_23  and  N9_24 
REMARK    8  A    between atoms: N9_24  and  C7_26 
REMARK    9  A    between atoms: C10_29  and  N10_30 
REMARK   10  A    between atoms: C12_34  and  C13_35 
REMARK   11  A    between atoms: C13_35  and  N13_37 
REMARK   12  A    between atoms: N13_37  and  O2_39 
ROOT
HETATM    1  C2  UNL     1     -12.723 -13.544 -30.581  1.00  0.00     0.748 A 
HETATM    2  N6  UNL     1     -13.840 -14.291 -30.532  1.00  0.00    -0.019 N 
ATOM      3  H6  UNL     1     -14.407 -14.261 -29.683  1.00  0.00     0.203 HD
HETATM    4  C3  UNL     1     -14.253 -15.086 -31.559  1.00  0.00     0.707 A 
HETATM    5  N8  UNL     1     -13.505 -15.114 -32.659  1.00  0.00    -0.021 N 
ATOM      6  H8  UNL     1     -13.797 -15.703 -33.439  1.00  0.00     0.203 HD
HETATM    7  C6  UNL     1     -12.360 -14.384 -32.780  1.00  0.00     0.711 A 
HETATM    8  N14 UNL     1     -12.014 -13.627 -31.736  1.00  0.00    -0.019 N 
ATOM      9  H14 UNL     1     -11.160 -13.074 -31.811  1.00  0.00     0.203 HD
ENDROOT
BRANCH   7  10
HETATM   10  N9  UNL     1     -11.708 -14.472 -33.864  1.00  0.00    -0.191 N 
ATOM     11  H9  UNL     1     -11.392 -15.404 -34.131  1.00  0.00     0.184 HD
BRANCH  10  12
HETATM   12  C7  UNL     1     -11.377 -13.431 -34.730  1.00  0.00     0.049 A 
HETATM   13  C8  UNL     1     -10.069 -13.138 -34.994  1.00  0.00     0.032 A 
HETATM   14  C9  UNL     1      -9.691 -12.110 -35.853  1.00  0.00     0.032 A 
HETATM   15  C10 UNL     1     -10.681 -11.370 -36.449  1.00  0.00     0.039 A 
HETATM   16  C15 UNL     1     -12.007 -11.672 -36.178  1.00  0.00     0.032 A 
HETATM   17  C16 UNL     1     -12.360 -12.691 -35.327  1.00  0.00     0.032 A 
BRANCH  15  18
HETATM   18  N10 UNL     1     -10.340 -10.309 -37.333  1.00  0.00    -0.316 N 
HETATM   19  C11 UNL     1      -9.232 -10.184 -38.084  1.00  0.00     0.188 A 
HETATM   20  N11 UNL     1      -9.266  -9.047 -38.790  1.00  0.00    -0.348 N 
HETATM   21  C12 UNL     1     -10.412  -8.429 -38.490  1.00  0.00     0.092 A 
ATOM     22  H11 UNL     1      -8.551  -8.714 -39.436  1.00  0.00     0.167 HD
HETATM   23  C14 UNL     1     -11.075  -9.220 -37.584  1.00  0.00     0.131 A 
BRANCH  21  24
HETATM   24  C13 UNL     1     -10.887  -7.148 -39.020  1.00  0.00     0.164 C 
HETATM   25  N12 UNL     1     -11.841  -6.401 -38.300  1.00  0.00    -0.078 NA
BRANCH  24  26
HETATM   26  N13 UNL     1     -10.457  -6.687 -40.127  1.00  0.00    -0.253 N 
ATOM     27  H13 UNL     1     -10.643  -5.709 -40.351  1.00  0.00     0.195 HD
BRANCH  26  28
HETATM   28  O2  UNL     1      -9.761  -7.436 -41.028  1.00  0.00    -0.288 OA
ATOM     29  H2  UNL     1      -9.638  -7.180 -41.934  1.00  0.00     0.244 HD
ENDBRANCH  26  28
ENDBRANCH  24  26
ENDBRANCH  21  24
ENDBRANCH  15  18
ENDBRANCH  10  12
ENDBRANCH   7  10
BRANCH   4  30
HETATM   30  N7  UNL     1     -15.329 -15.770 -31.439  1.00  0.00    -0.223 N 
ATOM     31  H7  UNL     1     -15.450 -16.336 -30.599  1.00  0.00     0.177 HD
BRANCH  30  32
HETATM   32  C4  UNL     1     -16.378 -15.782 -32.425  1.00  0.00     0.164 C 
BRANCH  32  33
HETATM   33  C5  UNL     1     -16.685 -14.397 -32.952  1.00  0.00     0.184 C 
BRANCH  33  34
HETATM   34  O1  UNL     1     -17.153 -14.441 -34.265  1.00  0.00    -0.399 OA
ATOM     35  H1  UNL     1     -16.945 -13.642 -34.736  1.00  0.00     0.209 HD
ENDBRANCH  33  34
ENDBRANCH  32  33
ENDBRANCH  30  32
ENDBRANCH   4  30
BRANCH   1  36
HETATM   36  N5  UNL     1     -12.319 -12.731 -29.502  1.00  0.00     0.105 N 
HETATM   37  C1  UNL     1     -11.482 -13.036 -28.517  1.00  0.00     0.726 A 
HETATM   38  N2  UNL     1     -11.348 -11.987 -27.669  1.00  0.00    -0.113 N 
HETATM   39  N3  UNL     1     -12.133 -11.027 -28.172  1.00  0.00     0.009 NA
ATOM     40  H2  UNL     1     -10.773 -11.939 -26.828  1.00  0.00     0.203 HD
HETATM   41  N4  UNL     1     -12.717 -11.496 -29.288  1.00  0.00    -0.190 N 
ATOM     42  H4  UNL     1     -13.368 -10.975 -29.876  1.00  0.00     0.207 HD
BRANCH  37  43
HETATM   43  N1  UNL     1     -10.880 -14.163 -28.377  1.00  0.00    -0.231 N 
ATOM     44  H12 UNL     1      -9.869 -14.296 -28.387  1.00  0.00     0.174 HD
ATOM     45  H11 UNL     1     -11.355 -15.056 -28.241  1.00  0.00     0.174 HD
ENDBRANCH  37  43
ENDBRANCH   1  36
TORSDOF 12
ENDMDL
MODEL 3
REMARK VINA RESULT: -8.340343021      5.635     10.871
REMARK  12 active torsions:
REMARK  status: ('A' for Active; 'I' for Inactive)
REMARK    1  A    between atoms: N1_1  and  C1_4 
REMARK    2  A    between atoms: N5_10  and  C2_11 
REMARK    3  A    between atoms: C3_14  and  N7_15 
REMARK    4  A    between atoms: N7_15  and  C4_17 
REMARK    5  A    between atoms: C4_17  and  C5_18 
REMARK    6  A    between atoms: C5_18  and  O1_19 
REMARK    7  A    between atoms: C6_23  and  N9_24 
REMARK    8  A    between atoms: N9_24  and  C7_26 
REMARK    9  A    between atoms: C10_29  and  N10_30 
REMARK   10  A    between atoms: C12_34  and  C13_35 
REMARK   11  A    between atoms: C13_35  and  N13_37 
REMARK   12  A    between atoms: N13_37  and  O2_39 
ROOT
HETATM    1  C2  UNL     1     -12.224 -13.301 -29.703  1.00  0.00     0.748 A 
HETATM    2  N6  UNL     1     -11.000 -13.289 -30.261  1.00  0.00    -0.019 N 
ATOM      3  H6  UNL     1     -10.216 -12.949 -29.703  1.00  0.00     0.203 HD
HETATM    4  C3  UNL     1     -10.756 -13.710 -31.535  1.00  0.00     0.707 A 
HETATM    5  N8  UNL     1     -11.789 -14.150 -32.250  1.00  0.00    -0.021 N 
ATOM      6  H8  UNL     1     -11.627 -14.469 -33.205  1.00  0.00     0.203 HD
HETATM    7  C6  UNL     1     -13.056 -14.190 -31.749  1.00  0.00     0.711 A 
HETATM    8  N14 UNL     1     -13.224 -13.764 -30.495  1.00  0.00    -0.019 N 
ATOM      9  H14 UNL     1     -14.167 -13.788 -30.107  1.00  0.00     0.203 HD
ENDROOT
BRANCH   7  10
HETATM   10  N9  UNL     1     -13.980 -14.625 -32.501  1.00  0.00    -0.191 N 
ATOM     11  H9  UNL     1     -13.892 -14.421 -33.496  1.00  0.00     0.184 HD
BRANCH  10  12
HETATM   12  C7  UNL     1     -15.105 -15.351 -32.112  1.00  0.00     0.049 A 
HETATM   13  C8  UNL     1     -14.976 -16.455 -31.317  1.00  0.00     0.032 A 
HETATM   14  C9  UNL     1     -16.070 -17.210 -30.903  1.00  0.00     0.032 A 
HETATM   15  C10 UNL     1     -17.319 -16.820 -31.318  1.00  0.00     0.039 A 
HETATM   16  C15 UNL     1     -17.443 -15.699 -32.125  1.00  0.00     0.032 A 
HETATM   17  C16 UNL     1     -16.351 -14.966 -32.523  1.00  0.00     0.032 A 
BRANCH  15  18
HETATM   18  N10 UNL     1     -18.464 -17.563 -30.919  1.00  0.00    -0.316 N 
HETATM   19  C11 UNL     1     -19.738 -17.391 -31.312  1.00  0.00     0.188 A 
HETATM   20  N11 UNL     1     -20.539 -18.285 -30.720  1.00  0.00    -0.348 N 
HETATM   21  C12 UNL     1     -19.772 -19.045 -29.934  1.00  0.00     0.092 A 
ATOM     22  H11 UNL     1     -21.548 -18.371 -30.846  1.00  0.00     0.167 HD
HETATM   23  C14 UNL     1     -18.482 -18.590 -30.063  1.00  0.00     0.131 A 
BRANCH  21  24
HETATM   24  C13 UNL     1     -20.208 -20.157 -29.086  1.00  0.00     0.164 C 
HETATM   25  N12 UNL     1     -19.810 -21.473 -29.395  1.00  0.00    -0.078 NA
BRANCH  24  26
HETATM   26  N13 UNL     1     -20.947 -19.964 -28.066  1.00  0.00    -0.253 N 
ATOM     27  H13 UNL     1     -21.274 -20.777 -27.543  1.00  0.00     0.195 HD
BRANCH  26  28
HETATM   28  O2  UNL     1     -21.323 -18.726 -27.639  1.00  0.00    -0.288 OA
ATOM     29  H2  UNL     1     -22.230 -18.454 -27.563  1.00  0.00     0.244 HD
ENDBRANCH  26  28
ENDBRANCH  24  26
ENDBRANCH  21  24
ENDBRANCH  15  18
ENDBRANCH  10  12
ENDBRANCH   7  10
BRANCH   4  30
HETATM   30  N7  UNL     1      -9.563 -13.669 -31.999  1.00  0.00    -0.223 N 
ATOM     31  H7  UNL     1      -9.307 -14.333 -32.730  1.00  0.00     0.177 HD
BRANCH  30  32
HETATM   32  C4  UNL     1      -8.565 -12.737 -31.544  1.00  0.00     0.164 C 
BRANCH  32  33
HETATM   33  C5  UNL     1      -8.903 -11.309 -31.915  1.00  0.00     0.184 C 
BRANCH  33  34
HETATM   34  O1  UNL     1      -9.580 -10.658 -30.885  1.00  0.00    -0.399 OA
ATOM     35  H1  UNL     1     -10.177 -10.000 -31.221  1.00  0.00     0.209 HD
ENDBRANCH  33  34
ENDBRANCH  32  33
ENDBRANCH  30  32
ENDBRANCH   4  30
BRANCH   1  36
HETATM   36  N5  UNL     1     -12.447 -12.859 -28.382  1.00  0.00     0.105 N 
HETATM   37  C1  UNL     1     -12.178 -11.666 -27.863  1.00  0.00     0.726 A 
HETATM   38  N2  UNL     1     -12.538 -11.628 -26.557  1.00  0.00    -0.113 N 
HETATM   39  N3  UNL     1     -13.040 -12.841 -26.296  1.00  0.00     0.009 NA
ATOM     40  H2  UNL     1     -12.447 -10.844 -25.911  1.00  0.00     0.203 HD
HETATM   41  N4  UNL     1     -12.977 -13.579 -27.418  1.00  0.00    -0.190 N 
ATOM     42  H4  UNL     1     -13.290 -14.545 -27.506  1.00  0.00     0.207 HD
BRANCH  37  43
HETATM   43  N1  UNL     1     -11.649 -10.682 -28.499  1.00  0.00    -0.231 N 
ATOM     44  H12 UNL     1     -11.616  -9.718 -28.168  1.00  0.00     0.174 HD
ATOM     45  H11 UNL     1     -11.202 -10.761 -29.412  1.00  0.00     0.174 HD
ENDBRANCH  37  43
ENDBRANCH   1  36
TORSDOF 12
ENDMDL
MODEL 4
REMARK VINA RESULT: -8.322033958      5.747      9.096
REMARK  12 active torsions:
REMARK  status: ('A' for Active; 'I' for Inactive)
REMARK    1  A    between atoms: N1_1  and  C1_4 
REMARK    2  A    between atoms: N5_10  and  C2_11 
REMARK    3  A    between atoms: C3_14  and  N7_15 
REMARK    4  A    between atoms: N7_15  and  C4_17 
REMARK    5  A    between atoms: C4_17  and  C5_18 
REMARK    6  A    between atoms: C5_18  and  O1_19 
REMARK    7  A    between atoms: C6_23  and  N9_24 
REMARK    8  A    between atoms: N9_24  and  C7_26 
REMARK    9  A    between atoms: C10_29  and  N10_30 
REMARK   10  A    between atoms: C12_34  and  C13_35 
REMARK   11  A    between atoms: C13_35  and  N13_37 
REMARK   12  A    between atoms: N13_37  and  O2_39 
ROOT
HETATM    1  C2  UNL     1     -19.731 -17.155 -28.717  1.00  0.00     0.748 A 
HETATM    2  N6  UNL     1     -20.242 -18.380 -28.934  1.00  0.00    -0.019 N 
ATOM      3  H6  UNL     1     -20.788 -18.816 -28.190  1.00  0.00     0.203 HD
HETATM    4  C3  UNL     1     -20.065 -19.068 -30.098  1.00  0.00     0.707 A 
HETATM    5  N8  UNL     1     -19.351 -18.485 -31.058  1.00  0.00    -0.021 N 
ATOM      6  H8  UNL     1     -19.207 -18.984 -31.937  1.00  0.00     0.203 HD
HETATM    7  C6  UNL     1     -18.803 -17.246 -30.908  1.00  0.00     0.711 A 
HETATM    8  N14 UNL     1     -19.015 -16.629 -29.743  1.00  0.00    -0.019 N 
ATOM      9  H14 UNL     1     -18.612 -15.701 -29.616  1.00  0.00     0.203 HD
ENDROOT
BRANCH   7  10
HETATM   10  N9  UNL     1     -18.137 -16.767 -31.875  1.00  0.00    -0.191 N 
ATOM     11  H9  UNL     1     -18.549 -16.862 -32.803  1.00  0.00     0.184 HD
BRANCH  10  12
HETATM   12  C7  UNL     1     -16.902 -16.125 -31.805  1.00  0.00     0.049 A 
HETATM   13  C8  UNL     1     -16.734 -14.884 -32.353  1.00  0.00     0.032 A 
HETATM   14  C9  UNL     1     -15.520 -14.204 -32.307  1.00  0.00     0.032 A 
HETATM   15  C10 UNL     1     -14.460 -14.816 -31.685  1.00  0.00     0.039 A 
HETATM   16  C15 UNL     1     -14.637 -16.074 -31.131  1.00  0.00     0.032 A 
HETATM   17  C16 UNL     1     -15.843 -16.730 -31.186  1.00  0.00     0.032 A 
BRANCH  15  18
HETATM   18  N10 UNL     1     -13.202 -14.157 -31.615  1.00  0.00    -0.316 N 
HETATM   19  C11 UNL     1     -12.473 -13.660 -32.629  1.00  0.00     0.188 A 
HETATM   20  N11 UNL     1     -11.341 -13.111 -32.171  1.00  0.00    -0.348 N 
HETATM   21  C12 UNL     1     -11.339 -13.256 -30.844  1.00  0.00     0.092 A 
ATOM     22  H11 UNL     1     -10.615 -12.665 -32.732  1.00  0.00     0.167 HD
HETATM   23  C14 UNL     1     -12.500 -13.908 -30.505  1.00  0.00     0.131 A 
BRANCH  21  24
HETATM   24  C13 UNL     1     -10.301 -12.810 -29.910  1.00  0.00     0.164 C 
HETATM   25  N12 UNL     1     -10.337 -13.233 -28.566  1.00  0.00    -0.078 NA
BRANCH  24  26
HETATM   26  N13 UNL     1      -9.358 -12.039 -30.285  1.00  0.00    -0.253 N 
ATOM     27  H13 UNL     1      -8.396 -12.320 -30.091  1.00  0.00     0.195 HD
BRANCH  26  28
HETATM   28  O2  UNL     1      -9.570 -10.859 -30.932  1.00  0.00    -0.288 OA
ATOM     29  H2  UNL     1      -9.256 -10.684 -31.811  1.00  0.00     0.244 HD
ENDBRANCH  26  28
ENDBRANCH  24  26
ENDBRANCH  21  24
ENDBRANCH  15  18
ENDBRANCH  10  12
ENDBRANCH   7  10
BRANCH   4  30
HETATM   30  N7  UNL     1     -20.582 -20.231 -30.231  1.00  0.00    -0.223 N 
ATOM     31  H7  UNL     1     -21.350 -20.345 -30.893  1.00  0.00     0.177 HD
BRANCH  30  32
HETATM   32  C4  UNL     1     -20.136 -21.388 -29.498  1.00  0.00     0.164 C 
BRANCH  32  33
HETATM   33  C5  UNL     1     -20.944 -21.613 -28.238  1.00  0.00     0.184 C 
BRANCH  33  34
HETATM   34  O1  UNL     1     -20.576 -20.726 -27.228  1.00  0.00    -0.399 OA
ATOM     35  H1  UNL     1     -20.579 -21.146 -26.376  1.00  0.00     0.209 HD
ENDBRANCH  33  34
ENDBRANCH  32  33
ENDBRANCH  30  32
ENDBRANCH   4  30
BRANCH   1  36
HETATM   36  N5  UNL     1     -19.930 -16.467 -27.502  1.00  0.00     0.105 N 
HETATM   37  C1  UNL     1     -19.148 -15.547 -26.946  1.00  0.00     0.726 A 
HETATM   38  N2  UNL     1     -19.681 -15.121 -25.774  1.00  0.00    -0.113 N 
HETATM   39  N3  UNL     1     -20.818 -15.812 -25.634  1.00  0.00     0.009 NA
ATOM     40  H2  UNL     1     -19.298 -14.423 -25.137  1.00  0.00     0.203 HD
HETATM   41  N4  UNL     1     -20.955 -16.627 -26.694  1.00  0.00    -0.190 N 
ATOM     42  H4  UNL     1     -21.732 -17.271 -26.847  1.00  0.00     0.207 HD
BRANCH  37  43
HETATM   43  N1  UNL     1     -18.043 -15.117 -27.439  1.00  0.00    -0.231 N 
ATOM     44  H12 UNL     1     -17.917 -14.773 -28.392  1.00  0.00     0.174 HD
ATOM     45  H11 UNL     1     -17.162 -15.072 -26.926  1.00  0.00     0.174 HD
ENDBRANCH  37  43
ENDBRANCH   1  36
TORSDOF 12
ENDMDL
MODEL 5
REMARK VINA RESULT: -8.299620469      1.630      3.763
REMARK  12 active torsions:
REMARK  status: ('A' for Active; 'I' for Inactive)
REMARK    1  A    between atoms: N1_1  and  C1_4 
REMARK    2  A    between atoms: N5_10  and  C2_11 
REMARK    3  A    between atoms: C3_14  and  N7_15 
REMARK    4  A    between atoms: N7_15  and  C4_17 
REMARK    5  A    between atoms: C4_17  and  C5_18 
REMARK    6  A    between atoms: C5_18  and  O1_19 
REMARK    7  A    between atoms: C6_23  and  N9_24 
REMARK    8  A    between atoms: N9_24  and  C7_26 
REMARK    9  A    between atoms: C10_29  and  N10_30 
REMARK   10  A    between atoms: C12_34  and  C13_35 
REMARK   11  A    between atoms: C13_35  and  N13_37 
REMARK   12  A    between atoms: N13_37  and  O2_39 
ROOT
HETATM    1  C2  UNL     1     -14.100 -14.483 -32.387  1.00  0.00     0.748 A 
HETATM    2  N6  UNL     1     -13.506 -13.963 -31.298  1.00  0.00    -0.019 N 
ATOM      3  H6  UNL     1     -13.991 -14.029 -30.402  1.00  0.00     0.203 HD
HETATM    4  C3  UNL     1     -12.286 -13.353 -31.332  1.00  0.00     0.707 A 
HETATM    5  N8  UNL     1     -11.666 -13.276 -32.506  1.00  0.00    -0.021 N 
ATOM      6  H8  UNL     1     -10.753 -12.823 -32.553  1.00  0.00     0.203 HD
HETATM    7  C6  UNL     1     -12.209 -13.780 -33.651  1.00  0.00     0.711 A 
HETATM    8  N14 UNL     1     -13.405 -14.364 -33.546  1.00  0.00    -0.019 N 
ATOM      9  H14 UNL     1     -13.823 -14.747 -34.393  1.00  0.00     0.203 HD
ENDROOT
BRANCH   7  10
HETATM   10  N9  UNL     1     -11.548 -13.662 -34.727  1.00  0.00    -0.191 N 
ATOM     11  H9  UNL     1     -11.096 -14.506 -35.078  1.00  0.00     0.184 HD
BRANCH  10  12
HETATM   12  C7  UNL     1     -11.373 -12.503 -35.481  1.00  0.00     0.049 A 
HETATM   13  C8  UNL     1     -10.138 -12.167 -35.959  1.00  0.00     0.032 A 
HETATM   14  C9  UNL     1      -9.916 -11.021 -36.717  1.00  0.00     0.032 A 
HETATM   15  C10 UNL     1     -10.988 -10.206 -36.986  1.00  0.00     0.039 A 
HETATM   16  C15 UNL     1     -12.239 -10.553 -36.498  1.00  0.00     0.032 A 
HETATM   17  C16 UNL     1     -12.438 -11.688 -35.752  1.00  0.00     0.032 A 
BRANCH  15  18
HETATM   18  N10 UNL     1     -10.806  -9.025 -37.756  1.00  0.00    -0.316 N 
HETATM   19  C11 UNL     1     -11.600  -7.940 -37.805  1.00  0.00     0.188 A 
HETATM   20  N11 UNL     1     -11.099  -7.027 -38.647  1.00  0.00    -0.348 N 
HETATM   21  C12 UNL     1      -9.968  -7.528 -39.148  1.00  0.00     0.092 A 
ATOM     22  H11 UNL     1     -11.507  -6.118 -38.865  1.00  0.00     0.167 HD
HETATM   23  C14 UNL     1      -9.791  -8.771 -38.590  1.00  0.00     0.131 A 
BRANCH  21  24
HETATM   24  C13 UNL     1      -9.071  -6.887 -40.113  1.00  0.00     0.164 C 
HETATM   25  N12 UNL     1      -7.686  -6.833 -39.857  1.00  0.00    -0.078 NA
BRANCH  24  26
HETATM   26  N13 UNL     1      -9.516  -6.370 -41.190  1.00  0.00    -0.253 N 
ATOM     27  H13 UNL     1      -9.090  -6.649 -42.074  1.00  0.00     0.195 HD
BRANCH  26  28
HETATM   28  O2  UNL     1     -10.531  -5.462 -41.219  1.00  0.00    -0.288 OA
ATOM     29  H2  UNL     1     -11.300  -5.558 -41.768  1.00  0.00     0.244 HD
ENDBRANCH  26  28
ENDBRANCH  24  26
ENDBRANCH  21  24
ENDBRANCH  15  18
ENDBRANCH  10  12
ENDBRANCH   7  10
BRANCH   4  30
HETATM   30  N7  UNL     1     -11.783 -12.881 -30.253  1.00  0.00    -0.223 N 
ATOM     31  H7  UNL     1     -10.787 -13.021 -30.084  1.00  0.00     0.177 HD
BRANCH  30  32
HETATM   32  C4  UNL     1     -12.548 -12.164 -29.266  1.00  0.00     0.164 C 
BRANCH  32  33
HETATM   33  C5  UNL     1     -12.618 -12.903 -27.947  1.00  0.00     0.184 C 
BRANCH  33  34
HETATM   34  O1  UNL     1     -13.342 -14.089 -28.062  1.00  0.00    -0.399 OA
ATOM     35  H1  UNL     1     -12.768 -14.845 -28.116  1.00  0.00     0.209 HD
ENDBRANCH  33  34
ENDBRANCH  32  33
ENDBRANCH  30  32
ENDBRANCH   4  30
BRANCH   1  36
HETATM   36  N5  UNL     1     -15.363 -15.108 -32.322  1.00  0.00     0.105 N 
HETATM   37  C1  UNL     1     -15.632 -16.380 -32.048  1.00  0.00     0.726 A 
HETATM   38  N2  UNL     1     -16.970 -16.597 -32.081  1.00  0.00    -0.113 N 
HETATM   39  N3  UNL     1     -17.510 -15.411 -32.383  1.00  0.00     0.009 NA
ATOM     40  H2  UNL     1     -17.459 -17.475 -31.912  1.00  0.00     0.203 HD
HETATM   41  N4  UNL     1     -16.518 -14.515 -32.527  1.00  0.00    -0.190 N 
ATOM     42  H4  UNL     1     -16.643 -13.529 -32.759  1.00  0.00     0.207 HD
BRANCH  37  43
HETATM   43  N1  UNL     1     -14.757 -17.284 -31.790  1.00  0.00    -0.231 N 
ATOM     44  H12 UNL     1     -14.783 -18.245 -32.133  1.00  0.00     0.174 HD
ATOM     45  H11 UNL     1     -13.932 -17.138 -31.206  1.00  0.00     0.174 HD
ENDBRANCH  37  43
ENDBRANCH   1  36
TORSDOF 12
ENDMDL
