MODEL 1
REMARK VINA RESULT: -5.842889637      0.000      0.000
REMARK  9 active torsions:
REMARK  status: ('A' for Active; 'I' for Inactive)
REMARK    1  A    between atoms: C6_7  and  C7_8 
REMARK    2  A    between atoms: C18_29  and  O2_30 
REMARK    3  A    between atoms: O2_30  and  C19_31 
REMARK    4  A    between atoms: C19_31  and  C20_32 
REMARK    5  A    between atoms: C20_32  and  C21_33 
REMARK    6  A    between atoms: C21_33  and  C22_34 
REMARK    7  A    between atoms: C22_34  and  N5_35 
REMARK    8  A    between atoms: C25_38  and  C26_39 
REMARK    9  A    between atoms: C26_39  and  N6_40 
ROOT
HETATM    1  N1  UNL     1      11.695  11.239  26.361  1.00  0.00    -0.102 NA
HETATM    2  C1  UNL     1      12.304  11.635  25.135  1.00  0.00     0.062 A 
HETATM    3  C2  UNL     1      13.492  11.088  24.686  1.00  0.00     0.042 A 
HETATM    4  C3  UNL     1      14.024  11.510  23.499  1.00  0.00     0.008 A 
HETATM    5  C4  UNL     1      13.382  12.478  22.732  1.00  0.00     0.047 A 
HETATM    6  C5  UNL     1      12.188  13.009  23.211  1.00  0.00     0.048 A 
HETATM    7  C6  UNL     1      11.649  12.599  24.399  1.00  0.00     0.074 A 
HETATM    8  N2  UNL     1      13.827  12.864  21.528  1.00  0.00    -0.322 N 
ATOM      9  H2  UNL     1      13.321  13.577  21.003  1.00  0.00     0.169 HD
HETATM   10  C8  UNL     1      14.922  12.321  21.021  1.00  0.00     0.259 A 
HETATM   11  O1  UNL     1      15.374  12.659  19.878  1.00  0.00    -0.267 OA
HETATM   12  C9  UNL     1      15.629  11.365  21.697  1.00  0.00     0.076 A 
HETATM   13  C10 UNL     1      16.753  10.813  21.119  1.00  0.00     0.077 A 
HETATM   14  N3  UNL     1      17.430  10.959  19.965  1.00  0.00    -0.353 N 
ATOM     15  H3  UNL     1      17.180  11.611  19.222  1.00  0.00     0.166 HD
HETATM   16  C11 UNL     1      18.486  10.121  19.930  1.00  0.00     0.045 A 
HETATM   17  C12 UNL     1      19.481   9.869  19.001  1.00  0.00     0.030 A 
HETATM   18  C13 UNL     1      20.471   8.943  19.200  1.00  0.00     0.002 A 
HETATM   19  C14 UNL     1      20.487   8.217  20.382  1.00  0.00     0.001 A 
HETATM   20  C15 UNL     1      19.506   8.445  21.328  1.00  0.00     0.016 A 
HETATM   21  C16 UNL     1      18.526   9.383  21.097  1.00  0.00     0.020 A 
HETATM   22  C17 UNL     1      17.441   9.792  21.883  1.00  0.00     0.074 A 
HETATM   23  N4  UNL     1      16.999   9.433  23.077  1.00  0.00    -0.334 N 
ATOM     24  H4  UNL     1      17.506   8.714  23.593  1.00  0.00     0.168 HD
HETATM   25  C18 UNL     1      15.878   9.998  23.647  1.00  0.00     0.155 A 
HETATM   26  C34 UNL     1      15.181  10.949  22.965  1.00  0.00     0.045 A 
ENDROOT
BRANCH  25  27
HETATM   27  O2  UNL     1      15.560   9.558  24.912  1.00  0.00    -0.335 OA
BRANCH  27  28
HETATM   28  C19 UNL     1      16.637   9.199  25.836  1.00  0.00     0.177 C 
BRANCH  28  29
HETATM   29  C20 UNL     1      16.548   9.873  27.150  1.00  0.00     0.028 C 
BRANCH  29  30
HETATM   30  C21 UNL     1      16.857  11.374  26.968  1.00  0.00     0.021 C 
BRANCH  30  31
HETATM   31  C22 UNL     1      15.621  12.189  27.288  1.00  0.00     0.117 C 
BRANCH  31  32
HETATM   32  N5  UNL     1      15.879  13.588  27.356  1.00  0.00    -0.412 N 
HETATM   33  C23 UNL     1      14.742  14.354  27.739  1.00  0.00     0.117 C 
HETATM   34  C24 UNL     1      13.899  14.715  26.534  1.00  0.00     0.025 C 
HETATM   35  C25 UNL     1      14.767  15.439  25.520  1.00  0.00     0.017 C 
HETATM   36  C32 UNL     1      15.825  14.419  25.095  1.00  0.00     0.025 C 
HETATM   37  C33 UNL     1      16.678  14.131  26.308  1.00  0.00     0.117 C 
BRANCH  35  38
HETATM   38  C26 UNL     1      13.934  15.795  24.319  1.00  0.00     0.277 C 
BRANCH  38  39
HETATM   39  N6  UNL     1      12.953  16.753  24.711  1.00  0.00     0.088 N 
HETATM   40  C27 UNL     1      13.430  18.071  24.985  1.00  0.00     0.272 C 
HETATM   41  C28 UNL     1      12.249  18.872  25.504  1.00  0.00     0.030 C 
HETATM   42  C29 UNL     1      11.314  19.107  24.339  1.00  0.00     0.003 C 
HETATM   43  C30 UNL     1      11.512  18.069  23.242  1.00  0.00     0.030 C 
HETATM   44  C31 UNL     1      11.762  16.726  23.905  1.00  0.00     0.272 C 
ENDBRANCH  38  39
ENDBRANCH  35  38
ENDBRANCH  31  32
ENDBRANCH  30  31
ENDBRANCH  29  30
ENDBRANCH  28  29
ENDBRANCH  27  28
ENDBRANCH  25  27
BRANCH   7  45
HETATM   45  C7  UNL     1      10.363  13.201  24.876  1.00  0.00     0.419 C 
HETATM   46  F1  UNL     1       9.891  14.037  23.878  1.00  0.00    -0.166 F 
HETATM   47  F2  UNL     1      10.565  13.966  25.993  1.00  0.00    -0.166 F 
HETATM   48  F3  UNL     1       9.404  12.219  25.054  1.00  0.00    -0.166 F 
ENDBRANCH   7  45
TORSDOF 9
ENDMDL
MODEL 2
REMARK VINA RESULT: -5.754030811      0.967      1.224
REMARK  9 active torsions:
REMARK  status: ('A' for Active; 'I' for Inactive)
REMARK    1  A    between atoms: C6_7  and  C7_8 
REMARK    2  A    between atoms: C18_29  and  O2_30 
REMARK    3  A    between atoms: O2_30  and  C19_31 
REMARK    4  A    between atoms: C19_31  and  C20_32 
REMARK    5  A    between atoms: C20_32  and  C21_33 
REMARK    6  A    between atoms: C21_33  and  C22_34 
REMARK    7  A    between atoms: C22_34  and  N5_35 
REMARK    8  A    between atoms: C25_38  and  C26_39 
REMARK    9  A    between atoms: C26_39  and  N6_40 
ROOT
HETATM    1  N1  UNL     1      11.263  11.510  26.898  1.00  0.00    -0.102 NA
HETATM    2  C1  UNL     1      11.812  11.854  25.629  1.00  0.00     0.062 A 
HETATM    3  C2  UNL     1      13.009  11.335  25.173  1.00  0.00     0.042 A 
HETATM    4  C3  UNL     1      13.481  11.704  23.944  1.00  0.00     0.008 A 
HETATM    5  C4  UNL     1      12.769  12.591  23.143  1.00  0.00     0.047 A 
HETATM    6  C5  UNL     1      11.568  13.096  23.630  1.00  0.00     0.048 A 
HETATM    7  C6  UNL     1      11.087  12.739  24.859  1.00  0.00     0.074 A 
HETATM    8  N2  UNL     1      13.156  12.920  21.902  1.00  0.00    -0.322 N 
ATOM      9  H2  UNL     1      12.600  13.575  21.352  1.00  0.00     0.169 HD
HETATM   10  C8  UNL     1      14.259  12.397  21.391  1.00  0.00     0.259 A 
HETATM   11  O1  UNL     1      14.657  12.682  20.214  1.00  0.00    -0.267 OA
HETATM   12  C9  UNL     1      15.033  11.519  22.100  1.00  0.00     0.076 A 
HETATM   13  C10 UNL     1      16.162  10.984  21.517  1.00  0.00     0.077 A 
HETATM   14  N3  UNL     1      16.794  11.087  20.333  1.00  0.00    -0.353 N 
ATOM     15  H3  UNL     1      16.489  11.678  19.561  1.00  0.00     0.166 HD
HETATM   16  C11 UNL     1      17.887  10.297  20.313  1.00  0.00     0.045 A 
HETATM   17  C12 UNL     1      18.863  10.033  19.367  1.00  0.00     0.030 A 
HETATM   18  C13 UNL     1      19.902   9.168  19.588  1.00  0.00     0.002 A 
HETATM   19  C14 UNL     1      19.991   8.520  20.812  1.00  0.00     0.001 A 
HETATM   20  C15 UNL     1      19.031   8.762  21.775  1.00  0.00     0.016 A 
HETATM   21  C16 UNL     1      18.001   9.638  21.521  1.00  0.00     0.020 A 
HETATM   22  C17 UNL     1      16.923  10.046  22.318  1.00  0.00     0.074 A 
HETATM   23  N4  UNL     1      16.538   9.744  23.547  1.00  0.00    -0.334 N 
ATOM     24  H4  UNL     1      17.095   9.083  24.089  1.00  0.00     0.168 HD
HETATM   25  C18 UNL     1      15.410  10.292  24.120  1.00  0.00     0.155 A 
HETATM   26  C34 UNL     1      14.646  11.165  23.406  1.00  0.00     0.045 A 
ENDROOT
BRANCH  25  27
HETATM   27  O2  UNL     1      15.155   9.919  25.420  1.00  0.00    -0.335 OA
BRANCH  27  28
HETATM   28  C19 UNL     1      16.212  10.054  26.424  1.00  0.00     0.177 C 
BRANCH  28  29
HETATM   29  C20 UNL     1      16.208  11.356  27.126  1.00  0.00     0.028 C 
BRANCH  29  30
HETATM   30  C21 UNL     1      17.153  12.329  26.391  1.00  0.00     0.021 C 
BRANCH  30  31
HETATM   31  C22 UNL     1      17.042  13.708  27.006  1.00  0.00     0.117 C 
BRANCH  31  32
HETATM   32  N5  UNL     1      16.730  14.719  26.052  1.00  0.00    -0.412 N 
HETATM   33  C23 UNL     1      16.788  16.037  26.588  1.00  0.00     0.117 C 
HETATM   34  C24 UNL     1      15.466  16.427  27.216  1.00  0.00     0.025 C 
HETATM   35  C25 UNL     1      14.362  16.270  26.185  1.00  0.00     0.017 C 
HETATM   36  C32 UNL     1      14.330  14.778  25.853  1.00  0.00     0.025 C 
HETATM   37  C33 UNL     1      15.639  14.444  25.178  1.00  0.00     0.117 C 
BRANCH  35  38
HETATM   38  C26 UNL     1      13.046  16.652  26.808  1.00  0.00     0.277 C 
BRANCH  38  39
HETATM   39  N6  UNL     1      12.318  17.455  25.881  1.00  0.00     0.088 N 
HETATM   40  C27 UNL     1      13.096  18.234  24.972  1.00  0.00     0.272 C 
HETATM   41  C28 UNL     1      12.127  19.096  24.182  1.00  0.00     0.030 C 
HETATM   42  C29 UNL     1      11.366  18.183  23.248  1.00  0.00     0.003 C 
HETATM   43  C30 UNL     1      11.367  16.743  23.747  1.00  0.00     0.030 C 
HETATM   44  C31 UNL     1      11.219  16.768  25.258  1.00  0.00     0.272 C 
ENDBRANCH  38  39
ENDBRANCH  35  38
ENDBRANCH  31  32
ENDBRANCH  30  31
ENDBRANCH  29  30
ENDBRANCH  28  29
ENDBRANCH  27  28
ENDBRANCH  25  27
BRANCH   7  45
HETATM   45  C7  UNL     1       9.790  13.309  25.342  1.00  0.00     0.419 C 
HETATM   46  F1  UNL     1       9.308  14.159  24.360  1.00  0.00    -0.166 F 
HETATM   47  F2  UNL     1       9.976  14.055  26.476  1.00  0.00    -0.166 F 
HETATM   48  F3  UNL     1       8.846  12.309  25.497  1.00  0.00    -0.166 F 
ENDBRANCH   7  45
TORSDOF 9
ENDMDL
MODEL 3
REMARK VINA RESULT: -5.588223137      4.038      8.205
REMARK  9 active torsions:
REMARK  status: ('A' for Active; 'I' for Inactive)
REMARK    1  A    between atoms: C6_7  and  C7_8 
REMARK    2  A    between atoms: C18_29  and  O2_30 
REMARK    3  A    between atoms: O2_30  and  C19_31 
REMARK    4  A    between atoms: C19_31  and  C20_32 
REMARK    5  A    between atoms: C20_32  and  C21_33 
REMARK    6  A    between atoms: C21_33  and  C22_34 
REMARK    7  A    between atoms: C22_34  and  N5_35 
REMARK    8  A    between atoms: C25_38  and  C26_39 
REMARK    9  A    between atoms: C26_39  and  N6_40 
ROOT
HETATM    1  N1  UNL     1       4.703  17.449  25.259  1.00  0.00    -0.102 NA
HETATM    2  C1  UNL     1       5.289  16.157  25.128  1.00  0.00     0.062 A 
HETATM    3  C2  UNL     1       6.568  15.874  25.572  1.00  0.00     0.042 A 
HETATM    4  C3  UNL     1       7.072  14.613  25.419  1.00  0.00     0.008 A 
HETATM    5  C4  UNL     1       6.313  13.607  24.830  1.00  0.00     0.047 A 
HETATM    6  C5  UNL     1       5.029  13.922  24.394  1.00  0.00     0.048 A 
HETATM    7  C6  UNL     1       4.515  15.181  24.536  1.00  0.00     0.074 A 
HETATM    8  N2  UNL     1       6.738  12.339  24.730  1.00  0.00    -0.322 N 
ATOM      9  H2  UNL     1       6.145  11.636  24.290  1.00  0.00     0.169 HD
HETATM   10  C8  UNL     1       7.927  12.000  25.201  1.00  0.00     0.259 A 
HETATM   11  O1  UNL     1       8.365  10.805  25.129  1.00  0.00    -0.267 OA
HETATM   12  C9  UNL     1       8.752  12.916  25.794  1.00  0.00     0.076 A 
HETATM   13  C10 UNL     1       9.974  12.511  26.289  1.00  0.00     0.077 A 
HETATM   14  N3  UNL     1      10.666  11.359  26.363  1.00  0.00    -0.353 N 
ATOM     15  H3  UNL     1      10.344  10.463  26.000  1.00  0.00     0.166 HD
HETATM   16  C11 UNL     1      11.845  11.557  26.987  1.00  0.00     0.045 A 
HETATM   17  C12 UNL     1      12.906  10.732  27.319  1.00  0.00     0.030 A 
HETATM   18  C13 UNL     1      14.025  11.179  27.970  1.00  0.00     0.002 A 
HETATM   19  C14 UNL     1      14.110  12.520  28.319  1.00  0.00     0.001 A 
HETATM   20  C15 UNL     1      13.067  13.368  28.002  1.00  0.00     0.016 A 
HETATM   21  C16 UNL     1      11.957  12.885  27.347  1.00  0.00     0.020 A 
HETATM   22  C17 UNL     1      10.788  13.530  26.922  1.00  0.00     0.074 A 
HETATM   23  N4  UNL     1      10.362  14.780  26.998  1.00  0.00    -0.334 N 
ATOM     24  H4  UNL     1      10.958  15.476  27.445  1.00  0.00     0.168 HD
HETATM   25  C18 UNL     1       9.141  15.173  26.492  1.00  0.00     0.155 A 
HETATM   26  C34 UNL     1       8.326  14.253  25.904  1.00  0.00     0.045 A 
ENDROOT
BRANCH  25  27
HETATM   27  O2  UNL     1       8.847  16.513  26.604  1.00  0.00    -0.335 OA
BRANCH  27  28
HETATM   28  C19 UNL     1       9.941  17.478  26.727  1.00  0.00     0.177 C 
BRANCH  28  29
HETATM   29  C20 UNL     1       9.680  18.769  26.055  1.00  0.00     0.028 C 
BRANCH  29  30
HETATM   30  C21 UNL     1      10.928  19.178  25.247  1.00  0.00     0.021 C 
BRANCH  30  31
HETATM   31  C22 UNL     1      12.048  18.192  25.507  1.00  0.00     0.117 C 
BRANCH  31  32
HETATM   32  N5  UNL     1      12.649  17.705  24.312  1.00  0.00    -0.412 N 
HETATM   33  C23 UNL     1      11.714  17.472  23.263  1.00  0.00     0.117 C 
HETATM   34  C24 UNL     1      11.124  16.081  23.361  1.00  0.00     0.025 C 
HETATM   35  C25 UNL     1      12.251  15.063  23.365  1.00  0.00     0.017 C 
HETATM   36  C32 UNL     1      13.049  15.352  24.637  1.00  0.00     0.025 C 
HETATM   37  C33 UNL     1      13.666  16.720  24.475  1.00  0.00     0.117 C 
BRANCH  35  38
HETATM   38  C26 UNL     1      11.668  13.679  23.467  1.00  0.00     0.277 C 
BRANCH  38  39
HETATM   39  N6  UNL     1      12.514  12.775  22.761  1.00  0.00     0.088 N 
HETATM   40  C27 UNL     1      13.824  13.248  22.445  1.00  0.00     0.272 C 
HETATM   41  C28 UNL     1      14.489  12.183  21.591  1.00  0.00     0.030 C 
HETATM   42  C29 UNL     1      14.784  11.002  22.487  1.00  0.00     0.003 C 
HETATM   43  C30 UNL     1      13.881  10.990  23.714  1.00  0.00     0.030 C 
HETATM   44  C31 UNL     1      12.495  11.435  23.284  1.00  0.00     0.272 C 
ENDBRANCH  38  39
ENDBRANCH  35  38
ENDBRANCH  31  32
ENDBRANCH  30  31
ENDBRANCH  29  30
ENDBRANCH  28  29
ENDBRANCH  27  28
ENDBRANCH  25  27
BRANCH   7  45
HETATM   45  C7  UNL     1       3.130  15.476  24.051  1.00  0.00     0.419 C 
HETATM   46  F1  UNL     1       2.720  14.410  23.267  1.00  0.00    -0.166 F 
HETATM   47  F2  UNL     1       3.116  16.595  23.262  1.00  0.00    -0.166 F 
HETATM   48  F3  UNL     1       2.247  15.546  25.114  1.00  0.00    -0.166 F 
ENDBRANCH   7  45
TORSDOF 9
ENDMDL
MODEL 4
REMARK VINA RESULT: -5.420912639      3.102      6.407
REMARK  9 active torsions:
REMARK  status: ('A' for Active; 'I' for Inactive)
REMARK    1  A    between atoms: C6_7  and  C7_8 
REMARK    2  A    between atoms: C18_29  and  O2_30 
REMARK    3  A    between atoms: O2_30  and  C19_31 
REMARK    4  A    between atoms: C19_31  and  C20_32 
REMARK    5  A    between atoms: C20_32  and  C21_33 
REMARK    6  A    between atoms: C21_33  and  C22_34 
REMARK    7  A    between atoms: C22_34  and  N5_35 
REMARK    8  A    between atoms: C25_38  and  C26_39 
REMARK    9  A    between atoms: C26_39  and  N6_40 
ROOT
HETATM    1  N1  UNL     1      18.318   9.966  21.992  1.00  0.00    -0.102 NA
HETATM    2  C1  UNL     1      17.100  10.689  21.838  1.00  0.00     0.062 A 
HETATM    3  C2  UNL     1      16.125  10.717  22.818  1.00  0.00     0.042 A 
HETATM    4  C3  UNL     1      14.978  11.432  22.610  1.00  0.00     0.008 A 
HETATM    5  C4  UNL     1      14.781  12.138  21.428  1.00  0.00     0.047 A 
HETATM    6  C5  UNL     1      15.781  12.091  20.461  1.00  0.00     0.048 A 
HETATM    7  C6  UNL     1      16.930  11.376  20.655  1.00  0.00     0.074 A 
HETATM    8  N2  UNL     1      13.709  12.913  21.213  1.00  0.00    -0.322 N 
ATOM      9  H2  UNL     1      13.609  13.413  20.330  1.00  0.00     0.169 HD
HETATM   10  C8  UNL     1      12.778  13.029  22.147  1.00  0.00     0.259 A 
HETATM   11  O1  UNL     1      11.746  13.759  21.983  1.00  0.00    -0.267 OA
HETATM   12  C9  UNL     1      12.875  12.371  23.343  1.00  0.00     0.076 A 
HETATM   13  C10 UNL     1      11.890  12.540  24.294  1.00  0.00     0.077 A 
HETATM   14  N3  UNL     1      10.740  13.231  24.399  1.00  0.00    -0.353 N 
ATOM     15  H3  UNL     1      10.352  13.829  23.670  1.00  0.00     0.166 HD
HETATM   16  C11 UNL     1      10.173  13.022  25.604  1.00  0.00     0.045 A 
HETATM   17  C12 UNL     1       9.017  13.479  26.214  1.00  0.00     0.030 A 
HETATM   18  C13 UNL     1       8.646  13.113  27.481  1.00  0.00     0.002 A 
HETATM   19  C14 UNL     1       9.459  12.246  28.197  1.00  0.00     0.001 A 
HETATM   20  C15 UNL     1      10.621  11.774  27.616  1.00  0.00     0.016 A 
HETATM   21  C16 UNL     1      10.963  12.161  26.341  1.00  0.00     0.020 A 
HETATM   22  C17 UNL     1      12.067  11.829  25.544  1.00  0.00     0.074 A 
HETATM   23  N4  UNL     1      13.123  11.055  25.735  1.00  0.00    -0.334 N 
ATOM     24  H4  UNL     1      13.219  10.564  26.623  1.00  0.00     0.168 HD
HETATM   25  C18 UNL     1      14.097  10.890  24.772  1.00  0.00     0.155 A 
HETATM   26  C34 UNL     1      13.991  11.549  23.585  1.00  0.00     0.045 A 
ENDROOT
BRANCH  25  27
HETATM   27  O2  UNL     1      15.115  10.021  25.091  1.00  0.00    -0.335 OA
BRANCH  27  28
HETATM   28  C19 UNL     1      15.855  10.213  26.340  1.00  0.00     0.177 C 
BRANCH  28  29
HETATM   29  C20 UNL     1      17.012  11.127  26.217  1.00  0.00     0.028 C 
BRANCH  29  30
HETATM   30  C21 UNL     1      16.663  12.473  26.883  1.00  0.00     0.021 C 
BRANCH  30  31
HETATM   31  C22 UNL     1      16.966  13.607  25.926  1.00  0.00     0.117 C 
BRANCH  31  32
HETATM   32  N5  UNL     1      15.855  13.952  25.104  1.00  0.00    -0.412 N 
HETATM   33  C23 UNL     1      16.229  14.607  23.896  1.00  0.00     0.117 C 
HETATM   34  C24 UNL     1      16.352  16.102  24.105  1.00  0.00     0.025 C 
HETATM   35  C25 UNL     1      15.047  16.634  24.671  1.00  0.00     0.017 C 
HETATM   36  C32 UNL     1      14.893  15.956  26.033  1.00  0.00     0.025 C 
HETATM   37  C33 UNL     1      14.714  14.479  25.777  1.00  0.00     0.117 C 
BRANCH  35  38
HETATM   38  C26 UNL     1      15.168  18.119  24.885  1.00  0.00     0.277 C 
BRANCH  38  39
HETATM   39  N6  UNL     1      13.963  18.743  24.448  1.00  0.00     0.088 N 
HETATM   40  C27 UNL     1      13.278  18.110  23.366  1.00  0.00     0.272 C 
HETATM   41  C28 UNL     1      12.113  19.008  22.990  1.00  0.00     0.030 C 
HETATM   42  C29 UNL     1      11.096  18.922  24.105  1.00  0.00     0.003 C 
HETATM   43  C30 UNL     1      11.736  18.479  25.415  1.00  0.00     0.030 C 
HETATM   44  C31 UNL     1      13.096  19.145  25.523  1.00  0.00     0.272 C 
ENDBRANCH  38  39
ENDBRANCH  35  38
ENDBRANCH  31  32
ENDBRANCH  30  31
ENDBRANCH  29  30
ENDBRANCH  28  29
ENDBRANCH  27  28
ENDBRANCH  25  27
BRANCH   7  45
HETATM   45  C7  UNL     1      17.978  11.352  19.586  1.00  0.00     0.419 C 
HETATM   46  F1  UNL     1      18.062  10.057  19.103  1.00  0.00    -0.166 F 
HETATM   47  F2  UNL     1      19.206  11.681  20.097  1.00  0.00    -0.166 F 
HETATM   48  F3  UNL     1      17.602  12.148  18.518  1.00  0.00    -0.166 F 
ENDBRANCH   7  45
TORSDOF 9
ENDMDL
MODEL 5
REMARK VINA RESULT: -5.402952443      1.186      1.623
REMARK  9 active torsions:
REMARK  status: ('A' for Active; 'I' for Inactive)
REMARK    1  A    between atoms: C6_7  and  C7_8 
REMARK    2  A    between atoms: C18_29  and  O2_30 
REMARK    3  A    between atoms: O2_30  and  C19_31 
REMARK    4  A    between atoms: C19_31  and  C20_32 
REMARK    5  A    between atoms: C20_32  and  C21_33 
REMARK    6  A    between atoms: C21_33  and  C22_34 
REMARK    7  A    between atoms: C22_34  and  N5_35 
REMARK    8  A    between atoms: C25_38  and  C26_39 
REMARK    9  A    between atoms: C26_39  and  N6_40 
ROOT
HETATM    1  N1  UNL     1      10.804  11.398  27.817  1.00  0.00    -0.102 NA
HETATM    2  C1  UNL     1      11.194  11.854  26.524  1.00  0.00     0.062 A 
HETATM    3  C2  UNL     1      12.368  11.449  25.917  1.00  0.00     0.042 A 
HETATM    4  C3  UNL     1      12.685  11.922  24.674  1.00  0.00     0.008 A 
HETATM    5  C4  UNL     1      11.837  12.801  24.007  1.00  0.00     0.047 A 
HETATM    6  C5  UNL     1      10.662  13.189  24.644  1.00  0.00     0.048 A 
HETATM    7  C6  UNL     1      10.337  12.728  25.889  1.00  0.00     0.074 A 
HETATM    8  N2  UNL     1      12.069  13.228  22.758  1.00  0.00    -0.322 N 
ATOM      9  H2  UNL     1      11.417  13.872  22.310  1.00  0.00     0.169 HD
HETATM   10  C8  UNL     1      13.145  12.816  22.106  1.00  0.00     0.259 A 
HETATM   11  O1  UNL     1      13.399  13.196  20.917  1.00  0.00    -0.267 OA
HETATM   12  C9  UNL     1      14.044  11.956  22.675  1.00  0.00     0.076 A 
HETATM   13  C10 UNL     1      15.139  11.537  21.949  1.00  0.00     0.077 A 
HETATM   14  N3  UNL     1      15.636  11.754  20.717  1.00  0.00    -0.353 N 
ATOM     15  H3  UNL     1      15.214  12.366  20.019  1.00  0.00     0.166 HD
HETATM   16  C11 UNL     1      16.770  11.047  20.536  1.00  0.00     0.045 A 
HETATM   17  C12 UNL     1      17.657  10.909  19.482  1.00  0.00     0.030 A 
HETATM   18  C13 UNL     1      18.768  10.109  19.541  1.00  0.00     0.002 A 
HETATM   19  C14 UNL     1      19.026   9.399  20.705  1.00  0.00     0.001 A 
HETATM   20  C15 UNL     1      18.158   9.516  21.774  1.00  0.00     0.016 A 
HETATM   21  C16 UNL     1      17.052  10.329  21.681  1.00  0.00     0.020 A 
HETATM   22  C17 UNL     1      16.039  10.611  22.607  1.00  0.00     0.074 A 
HETATM   23  N4  UNL     1      15.805  10.212  23.846  1.00  0.00    -0.334 N 
ATOM     24  H4  UNL     1      16.457   9.563  24.285  1.00  0.00     0.168 HD
HETATM   25  C18 UNL     1      14.709  10.643  24.564  1.00  0.00     0.155 A 
HETATM   26  C34 UNL     1      13.820  11.500  23.988  1.00  0.00     0.045 A 
ENDROOT
BRANCH  25  27
HETATM   27  O2  UNL     1      14.616  10.179  25.856  1.00  0.00    -0.335 OA
BRANCH  27  28
HETATM   28  C19 UNL     1      15.811  10.173  26.703  1.00  0.00     0.177 C 
BRANCH  28  29
HETATM   29  C20 UNL     1      15.529  10.401  28.137  1.00  0.00     0.028 C 
BRANCH  29  30
HETATM   30  C21 UNL     1      15.566  11.916  28.424  1.00  0.00     0.021 C 
BRANCH  30  31
HETATM   31  C22 UNL     1      16.354  12.619  27.338  1.00  0.00     0.117 C 
BRANCH  31  32
HETATM   32  N5  UNL     1      16.290  14.038  27.434  1.00  0.00    -0.412 N 
HETATM   33  C23 UNL     1      15.003  14.521  27.805  1.00  0.00     0.117 C 
HETATM   34  C24 UNL     1      14.122  14.709  26.587  1.00  0.00     0.025 C 
HETATM   35  C25 UNL     1      14.824  15.631  25.605  1.00  0.00     0.017 C 
HETATM   36  C32 UNL     1      16.091  14.884  25.188  1.00  0.00     0.025 C 
HETATM   37  C33 UNL     1      16.965  14.769  26.413  1.00  0.00     0.117 C 
BRANCH  35  38
HETATM   38  C26 UNL     1      13.954  15.817  24.392  1.00  0.00     0.277 C 
BRANCH  38  39
HETATM   39  N6  UNL     1      12.857  16.658  24.740  1.00  0.00     0.088 N 
HETATM   40  C27 UNL     1      13.188  17.967  25.206  1.00  0.00     0.272 C 
HETATM   41  C28 UNL     1      11.889  18.628  25.637  1.00  0.00     0.030 C 
HETATM   42  C29 UNL     1      11.096  18.926  24.385  1.00  0.00     0.003 C 
HETATM   43  C30 UNL     1      11.516  18.029  23.228  1.00  0.00     0.030 C 
HETATM   44  C31 UNL     1      11.785  16.641  23.781  1.00  0.00     0.272 C 
ENDBRANCH  38  39
ENDBRANCH  35  38
ENDBRANCH  31  32
ENDBRANCH  30  31
ENDBRANCH  29  30
ENDBRANCH  28  29
ENDBRANCH  27  28
ENDBRANCH  25  27
BRANCH   7  45
HETATM   45  C7  UNL     1       9.062  13.175  26.536  1.00  0.00     0.419 C 
HETATM   46  F1  UNL     1       8.417  14.027  25.656  1.00  0.00    -0.166 F 
HETATM   47  F2  UNL     1       9.317  13.882  27.681  1.00  0.00    -0.166 F 
HETATM   48  F3  UNL     1       8.216  12.099  26.737  1.00  0.00    -0.166 F 
ENDBRANCH   7  45
TORSDOF 9
ENDMDL
