MODEL 1
REMARK VINA RESULT: -7.167114680      0.000      0.000
REMARK  10 active torsions:
REMARK  status: ('A' for Active; 'I' for Inactive)
REMARK       I    between atoms: C1_2  and  N1_3 
REMARK    1  A    between atoms: C1_2  and  O5_37 
REMARK    2  A    between atoms: N1_3  and  C2_5 
REMARK    3  A    between atoms: C4_7  and  C5_8 
REMARK    4  A    between atoms: C9_16  and  C10_17 
REMARK    5  A    between atoms: C13_20  and  N3_21 
REMARK    6  A    between atoms: N3_21  and  C14_24 
REMARK    7  A    between atoms: C14_24  and  C15_25 
REMARK    8  A    between atoms: O5_37  and  C26_38 
REMARK    9  A    between atoms: C26_38  and  C27_39 
REMARK   10  A    between atoms: C32_44  and  C33_45 
ROOT
HETATM    1  C2  UNL     1       4.324  14.882  24.137  1.00  0.00     0.122 C 
HETATM    2  C3  UNL     1       3.030  15.567  24.242  1.00  0.00     0.046 C 
HETATM    3  C4  UNL     1       3.131  17.057  24.315  1.00  0.00     0.095 C 
HETATM    4  C6  UNL     1       3.964  17.484  25.516  1.00  0.00     0.073 C 
HETATM    5  C7  UNL     1       5.258  16.737  25.498  1.00  0.00     0.018 A 
HETATM    6  N2  UNL     1       6.347  17.261  26.138  1.00  0.00    -0.368 N 
ATOM      7  H2  UNL     1       6.239  18.151  26.624  1.00  0.00     0.165 HD
HETATM    8  C8  UNL     1       7.544  16.669  26.160  1.00  0.00     0.095 A 
HETATM    9  C9  UNL     1       7.735  15.467  25.517  1.00  0.00    -0.038 A 
HETATM   10  C24 UNL     1       6.679  14.894  24.860  1.00  0.00     0.020 A 
HETATM   11  C25 UNL     1       5.423  15.551  24.859  1.00  0.00    -0.012 A 
ENDROOT
BRANCH   9  12
HETATM   12  C10 UNL     1       9.055  14.798  25.518  1.00  0.00     0.020 C 
HETATM   13  C11 UNL     1      10.108  15.608  26.243  1.00  0.00     0.011 C 
HETATM   14  C12 UNL     1      11.407  14.795  26.169  1.00  0.00     0.034 C 
HETATM   15  C13 UNL     1      11.857  14.663  24.729  1.00  0.00     0.186 C 
HETATM   16  C22 UNL     1      10.799  15.197  23.812  1.00  0.00     0.034 C 
HETATM   17  C23 UNL     1       9.511  14.422  24.140  1.00  0.00     0.011 C 
BRANCH  15  18
HETATM   18  N3  UNL     1      12.130  13.262  24.493  1.00  0.00    -0.068 N 
ATOM     19  H32 UNL     1      11.917  12.714  25.327  1.00  0.00     0.277 HD
ATOM     20  H31 UNL     1      11.445  12.870  23.847  1.00  0.00     0.277 HD
BRANCH  18  21
HETATM   21  C14 UNL     1      13.461  12.984  24.039  1.00  0.00     0.276 C 
BRANCH  21  22
HETATM   22  C15 UNL     1      13.425  12.069  22.831  1.00  0.00     0.213 C 
HETATM   23  C16 UNL     1      14.410  12.190  21.843  1.00  0.00    -0.150 C 
HETATM   24  C17 UNL     1      15.351  12.585  20.880  1.00  0.00     0.082 C 
HETATM   25  C18 UNL     1      16.276  11.338  20.676  1.00  0.00     0.011 C 
HETATM   26  C19 UNL     1      16.555  10.543  21.881  1.00  0.00     0.003 C 
HETATM   27  C20 UNL     1      15.559   9.592  22.471  1.00  0.00     0.026 C 
HETATM   28  C21 UNL     1      14.730  10.227  23.599  1.00  0.00     0.169 C 
HETATM   29  O4  UNL     1      13.519  10.742  23.369  1.00  0.00    -0.373 OA
ENDBRANCH  21  22
ENDBRANCH  18  21
ENDBRANCH  15  18
ENDBRANCH   9  12
BRANCH   1  30
HETATM   30  N1  UNL     1       4.253  13.504  24.618  1.00  0.00    -0.328 N 
HETATM   31  C1  UNL     1       4.409  12.402  23.755  1.00  0.00     0.361 C 
HETATM   32  O1  UNL     1       4.618  12.520  22.531  1.00  0.00    -0.238 OA
ATOM     33  H1  UNL     1       4.085  13.335  25.610  1.00  0.00     0.165 HD
BRANCH  31  34
HETATM   34  O5  UNL     1       4.329  11.118  24.280  1.00  0.00    -0.299 OA
BRANCH  34  35
HETATM   35  C26 UNL     1       4.701  10.855  25.637  1.00  0.00     0.220 C 
BRANCH  35  36
HETATM   36  C27 UNL     1       6.151  10.991  25.755  1.00  0.00    -0.019 A 
HETATM   37  C28 UNL     1       6.957  10.494  24.753  1.00  0.00     0.010 A 
HETATM   38  C29 UNL     1       8.334  10.578  24.765  1.00  0.00     0.001 A 
HETATM   39  C30 UNL     1       8.942  11.191  25.838  1.00  0.00     0.001 A 
HETATM   40  C31 UNL     1       8.149  11.690  26.844  1.00  0.00     0.017 A 
HETATM   41  C32 UNL     1       6.778  11.604  26.824  1.00  0.00     0.056 A 
BRANCH  41  42
HETATM   42  C33 UNL     1       5.936  12.143  27.913  1.00  0.00     0.418 C 
HETATM   43  F1  UNL     1       5.040  13.085  27.495  1.00  0.00    -0.166 F 
HETATM   44  F2  UNL     1       5.317  11.118  28.634  1.00  0.00    -0.166 F 
HETATM   45  F3  UNL     1       6.788  12.767  28.825  1.00  0.00    -0.166 F 
ENDBRANCH  41  42
ENDBRANCH  35  36
ENDBRANCH  34  35
ENDBRANCH  31  34
ENDBRANCH   1  30
BRANCH   3  46
HETATM   46  C5  UNL     1       1.785  17.640  24.462  1.00  0.00     0.177 C 
HETATM   47  O2  UNL     1       0.878  17.336  23.646  1.00  0.00    -0.648 OA
HETATM   48  O3  UNL     1       1.531  18.515  25.495  1.00  0.00    -0.648 OA
ENDBRANCH   3  46
TORSDOF 10
ENDMDL
MODEL 2
REMARK VINA RESULT: -7.119188781      1.300      1.784
REMARK  10 active torsions:
REMARK  status: ('A' for Active; 'I' for Inactive)
REMARK       I    between atoms: C1_2  and  N1_3 
REMARK    1  A    between atoms: C1_2  and  O5_37 
REMARK    2  A    between atoms: N1_3  and  C2_5 
REMARK    3  A    between atoms: C4_7  and  C5_8 
REMARK    4  A    between atoms: C9_16  and  C10_17 
REMARK    5  A    between atoms: C13_20  and  N3_21 
REMARK    6  A    between atoms: N3_21  and  C14_24 
REMARK    7  A    between atoms: C14_24  and  C15_25 
REMARK    8  A    between atoms: O5_37  and  C26_38 
REMARK    9  A    between atoms: C26_38  and  C27_39 
REMARK   10  A    between atoms: C32_44  and  C33_45 
ROOT
HETATM    1  C2  UNL     1       4.169  14.837  24.284  1.00  0.00     0.122 C 
HETATM    2  C3  UNL     1       2.920  15.605  24.370  1.00  0.00     0.046 C 
HETATM    3  C4  UNL     1       3.108  17.087  24.315  1.00  0.00     0.095 C 
HETATM    4  C6  UNL     1       4.005  17.560  25.451  1.00  0.00     0.073 C 
HETATM    5  C7  UNL     1       5.253  16.738  25.456  1.00  0.00     0.018 A 
HETATM    6  N2  UNL     1       6.392  17.247  26.017  1.00  0.00    -0.368 N 
ATOM      7  H2  UNL     1       6.352  18.179  26.430  1.00  0.00     0.165 HD
HETATM    8  C8  UNL     1       7.554  16.589  26.052  1.00  0.00     0.095 A 
HETATM    9  C9  UNL     1       7.654  15.329  25.505  1.00  0.00    -0.038 A 
HETATM   10  C24 UNL     1       6.544  14.768  24.931  1.00  0.00     0.020 A 
HETATM   11  C25 UNL     1       5.328  15.497  24.913  1.00  0.00    -0.012 A 
ENDROOT
BRANCH   9  12
HETATM   12  C10 UNL     1       8.932  14.585  25.523  1.00  0.00     0.020 C 
HETATM   13  C11 UNL     1       9.844  15.036  26.643  1.00  0.00     0.011 C 
HETATM   14  C12 UNL     1      11.114  14.181  26.540  1.00  0.00     0.034 C 
HETATM   15  C13 UNL     1      11.830  14.469  25.238  1.00  0.00     0.186 C 
HETATM   16  C22 UNL     1      10.982  15.351  24.372  1.00  0.00     0.034 C 
HETATM   17  C23 UNL     1       9.638  14.623  24.200  1.00  0.00     0.011 C 
BRANCH  15  18
HETATM   18  N3  UNL     1      12.111  13.195  24.614  1.00  0.00    -0.068 N 
ATOM     19  H32 UNL     1      11.978  12.435  25.281  1.00  0.00     0.277 HD
ATOM     20  H31 UNL     1      11.384  12.963  23.937  1.00  0.00     0.277 HD
BRANCH  18  21
HETATM   21  C14 UNL     1      13.406  13.104  24.006  1.00  0.00     0.276 C 
BRANCH  21  22
HETATM   22  C15 UNL     1      13.362  12.175  22.809  1.00  0.00     0.213 C 
HETATM   23  C16 UNL     1      14.368  12.251  21.837  1.00  0.00    -0.150 C 
HETATM   24  C17 UNL     1      15.336  12.605  20.885  1.00  0.00     0.082 C 
HETATM   25  C18 UNL     1      16.226  11.327  20.713  1.00  0.00     0.011 C 
HETATM   26  C19 UNL     1      16.459  10.540  21.933  1.00  0.00     0.003 C 
HETATM   27  C20 UNL     1      15.425   9.628  22.518  1.00  0.00     0.026 C 
HETATM   28  C21 UNL     1      14.597  10.304  23.623  1.00  0.00     0.169 C 
HETATM   29  O4  UNL     1      13.407  10.852  23.366  1.00  0.00    -0.373 OA
ENDBRANCH  21  22
ENDBRANCH  18  21
ENDBRANCH  15  18
ENDBRANCH   9  12
BRANCH   1  30
HETATM   30  N1  UNL     1       4.036  13.510  24.879  1.00  0.00    -0.328 N 
HETATM   31  C1  UNL     1       4.167  12.333  24.118  1.00  0.00     0.361 C 
HETATM   32  O1  UNL     1       4.405  12.336  22.893  1.00  0.00    -0.238 OA
ATOM     33  H1  UNL     1       3.842  13.434  25.878  1.00  0.00     0.165 HD
BRANCH  31  34
HETATM   34  O5  UNL     1       4.029  11.103  24.750  1.00  0.00    -0.299 OA
BRANCH  34  35
HETATM   35  C26 UNL     1       5.178  10.330  25.112  1.00  0.00     0.220 C 
BRANCH  35  36
HETATM   36  C27 UNL     1       5.827  10.971  26.252  1.00  0.00    -0.019 A 
HETATM   37  C28 UNL     1       5.092  11.226  27.390  1.00  0.00     0.010 A 
HETATM   38  C29 UNL     1       5.612  11.820  28.522  1.00  0.00     0.001 A 
HETATM   39  C30 UNL     1       6.940  12.182  28.517  1.00  0.00     0.001 A 
HETATM   40  C31 UNL     1       7.684  11.934  27.389  1.00  0.00     0.017 A 
HETATM   41  C32 UNL     1       7.160  11.341  26.266  1.00  0.00     0.056 A 
BRANCH  41  42
HETATM   42  C33 UNL     1       7.970  11.081  25.058  1.00  0.00     0.418 C 
HETATM   43  F1  UNL     1       8.012   9.764  24.701  1.00  0.00    -0.166 F 
HETATM   44  F2  UNL     1       7.574  11.896  23.993  1.00  0.00    -0.166 F 
HETATM   45  F3  UNL     1       9.279  11.467  25.346  1.00  0.00    -0.166 F 
ENDBRANCH  41  42
ENDBRANCH  35  36
ENDBRANCH  34  35
ENDBRANCH  31  34
ENDBRANCH   1  30
BRANCH   3  46
HETATM   46  C5  UNL     1       1.803  17.759  24.454  1.00  0.00     0.177 C 
HETATM   47  O2  UNL     1       0.910  17.578  23.588  1.00  0.00    -0.648 OA
HETATM   48  O3  UNL     1       1.573  18.583  25.533  1.00  0.00    -0.648 OA
ENDBRANCH   3  46
TORSDOF 10
ENDMDL
MODEL 3
REMARK VINA RESULT: -7.105517560      0.924      1.251
REMARK  10 active torsions:
REMARK  status: ('A' for Active; 'I' for Inactive)
REMARK       I    between atoms: C1_2  and  N1_3 
REMARK    1  A    between atoms: C1_2  and  O5_37 
REMARK    2  A    between atoms: N1_3  and  C2_5 
REMARK    3  A    between atoms: C4_7  and  C5_8 
REMARK    4  A    between atoms: C9_16  and  C10_17 
REMARK    5  A    between atoms: C13_20  and  N3_21 
REMARK    6  A    between atoms: N3_21  and  C14_24 
REMARK    7  A    between atoms: C14_24  and  C15_25 
REMARK    8  A    between atoms: O5_37  and  C26_38 
REMARK    9  A    between atoms: C26_38  and  C27_39 
REMARK   10  A    between atoms: C32_44  and  C33_45 
ROOT
HETATM    1  C2  UNL     1       4.650  14.687  24.035  1.00  0.00     0.122 C 
HETATM    2  C3  UNL     1       3.332  15.331  23.979  1.00  0.00     0.046 C 
HETATM    3  C4  UNL     1       3.381  16.825  23.974  1.00  0.00     0.095 C 
HETATM    4  C6  UNL     1       4.083  17.347  25.220  1.00  0.00     0.073 C 
HETATM    5  C7  UNL     1       5.395  16.646  25.366  1.00  0.00     0.018 A 
HETATM    6  N2  UNL     1       6.402  17.243  26.072  1.00  0.00    -0.368 N 
ATOM      7  H2  UNL     1       6.222  18.155  26.493  1.00  0.00     0.165 HD
HETATM    8  C8  UNL     1       7.609  16.696  26.240  1.00  0.00     0.095 A 
HETATM    9  C9  UNL     1       7.896  15.468  25.688  1.00  0.00    -0.038 A 
HETATM   10  C24 UNL     1       6.924  14.822  24.971  1.00  0.00     0.020 A 
HETATM   11  C25 UNL     1       5.655  15.434  24.815  1.00  0.00    -0.012 A 
ENDROOT
BRANCH   9  12
HETATM   12  C10 UNL     1       9.230  14.848  25.850  1.00  0.00     0.020 C 
HETATM   13  C11 UNL     1       9.726  14.919  27.278  1.00  0.00     0.011 C 
HETATM   14  C12 UNL     1      11.101  14.239  27.294  1.00  0.00     0.034 C 
HETATM   15  C13 UNL     1      12.078  15.019  26.441  1.00  0.00     0.186 C 
HETATM   16  C22 UNL     1      11.355  16.099  25.695  1.00  0.00     0.034 C 
HETATM   17  C23 UNL     1      10.242  15.401  24.894  1.00  0.00     0.011 C 
BRANCH  15  18
HETATM   18  N3  UNL     1      12.719  14.074  25.552  1.00  0.00    -0.068 N 
ATOM     19  H32 UNL     1      12.431  14.242  24.588  1.00  0.00     0.277 HD
ATOM     20  H31 UNL     1      13.715  14.278  25.475  1.00  0.00     0.277 HD
BRANCH  18  21
HETATM   21  C14 UNL     1      12.516  12.699  25.901  1.00  0.00     0.276 C 
BRANCH  21  22
HETATM   22  C15 UNL     1      12.259  11.872  24.656  1.00  0.00     0.213 C 
HETATM   23  C16 UNL     1      12.432  12.452  23.393  1.00  0.00    -0.150 C 
HETATM   24  C17 UNL     1      12.466  13.250  22.239  1.00  0.00     0.082 C 
HETATM   25  C18 UNL     1      13.583  12.620  21.340  1.00  0.00     0.011 C 
HETATM   26  C19 UNL     1      14.750  12.080  22.052  1.00  0.00     0.003 C 
HETATM   27  C20 UNL     1      14.722  10.768  22.775  1.00  0.00     0.026 C 
HETATM   28  C21 UNL     1      14.414  10.924  24.272  1.00  0.00     0.169 C 
HETATM   29  O4  UNL     1      13.176  10.771  24.749  1.00  0.00    -0.373 OA
ENDBRANCH  21  22
ENDBRANCH  18  21
ENDBRANCH  15  18
ENDBRANCH   9  12
BRANCH   1  30
HETATM   30  N1  UNL     1       4.575  13.336  24.586  1.00  0.00    -0.328 N 
HETATM   31  C1  UNL     1       4.542  12.194  23.764  1.00  0.00     0.361 C 
HETATM   32  O1  UNL     1       4.574  12.250  22.518  1.00  0.00    -0.238 OA
ATOM     33  H1  UNL     1       4.546  13.217  25.599  1.00  0.00     0.165 HD
BRANCH  31  34
HETATM   34  O5  UNL     1       4.470  10.939  24.356  1.00  0.00    -0.299 OA
BRANCH  34  35
HETATM   35  C26 UNL     1       4.835  10.752  25.727  1.00  0.00     0.220 C 
BRANCH  35  36
HETATM   36  C27 UNL     1       6.278  10.941  25.853  1.00  0.00    -0.019 A 
HETATM   37  C28 UNL     1       7.105  10.502  24.841  1.00  0.00     0.010 A 
HETATM   38  C29 UNL     1       8.478  10.639  24.860  1.00  0.00     0.001 A 
HETATM   39  C30 UNL     1       9.058  11.248  25.950  1.00  0.00     0.001 A 
HETATM   40  C31 UNL     1       8.244  11.690  26.966  1.00  0.00     0.017 A 
HETATM   41  C32 UNL     1       6.879  11.550  26.940  1.00  0.00     0.056 A 
BRANCH  41  42
HETATM   42  C33 UNL     1       6.014  12.028  28.039  1.00  0.00     0.418 C 
HETATM   43  F1  UNL     1       5.025  12.875  27.628  1.00  0.00    -0.166 F 
HETATM   44  F2  UNL     1       5.508  10.963  28.790  1.00  0.00    -0.166 F 
HETATM   45  F3  UNL     1       6.823  12.745  28.921  1.00  0.00    -0.166 F 
ENDBRANCH  41  42
ENDBRANCH  35  36
ENDBRANCH  34  35
ENDBRANCH  31  34
ENDBRANCH   1  30
BRANCH   3  46
HETATM   46  C5  UNL     1       2.010  17.368  23.961  1.00  0.00     0.177 C 
HETATM   47  O2  UNL     1       1.050  16.653  24.344  1.00  0.00    -0.648 OA
HETATM   48  O3  UNL     1       1.792  18.657  23.528  1.00  0.00    -0.648 OA
ENDBRANCH   3  46
TORSDOF 10
ENDMDL
MODEL 4
REMARK VINA RESULT: -6.958653654      0.610      1.130
REMARK  10 active torsions:
REMARK  status: ('A' for Active; 'I' for Inactive)
REMARK       I    between atoms: C1_2  and  N1_3 
REMARK    1  A    between atoms: C1_2  and  O5_37 
REMARK    2  A    between atoms: N1_3  and  C2_5 
REMARK    3  A    between atoms: C4_7  and  C5_8 
REMARK    4  A    between atoms: C9_16  and  C10_17 
REMARK    5  A    between atoms: C13_20  and  N3_21 
REMARK    6  A    between atoms: N3_21  and  C14_24 
REMARK    7  A    between atoms: C14_24  and  C15_25 
REMARK    8  A    between atoms: O5_37  and  C26_38 
REMARK    9  A    between atoms: C26_38  and  C27_39 
REMARK   10  A    between atoms: C32_44  and  C33_45 
ROOT
HETATM    1  C2  UNL     1       4.269  14.912  24.117  1.00  0.00     0.122 C 
HETATM    2  C3  UNL     1       2.982  15.612  24.216  1.00  0.00     0.046 C 
HETATM    3  C4  UNL     1       3.099  17.100  24.294  1.00  0.00     0.095 C 
HETATM    4  C6  UNL     1       3.929  17.514  25.501  1.00  0.00     0.073 C 
HETATM    5  C7  UNL     1       5.215  16.752  25.489  1.00  0.00     0.018 A 
HETATM    6  N2  UNL     1       6.306  17.262  26.136  1.00  0.00    -0.368 N 
ATOM      7  H2  UNL     1       6.205  18.153  26.624  1.00  0.00     0.165 HD
HETATM    8  C8  UNL     1       7.497  16.657  26.164  1.00  0.00     0.095 A 
HETATM    9  C9  UNL     1       7.678  15.455  25.517  1.00  0.00    -0.038 A 
HETATM   10  C24 UNL     1       6.619  14.896  24.853  1.00  0.00     0.020 A 
HETATM   11  C25 UNL     1       5.371  15.567  24.847  1.00  0.00    -0.012 A 
ENDROOT
BRANCH   9  12
HETATM   12  C10 UNL     1       8.990  14.772  25.524  1.00  0.00     0.020 C 
HETATM   13  C11 UNL     1      10.099  15.662  26.042  1.00  0.00     0.011 C 
HETATM   14  C12 UNL     1      11.384  14.826  25.998  1.00  0.00     0.034 C 
HETATM   15  C13 UNL     1      11.726  14.473  24.566  1.00  0.00     0.186 C 
HETATM   16  C22 UNL     1      10.606  14.882  23.658  1.00  0.00     0.034 C 
HETATM   17  C23 UNL     1       9.342  14.187  24.190  1.00  0.00     0.011 C 
BRANCH  15  18
HETATM   18  N3  UNL     1      11.972  13.048  24.524  1.00  0.00    -0.068 N 
ATOM     19  H32 UNL     1      12.518  12.757  25.335  1.00  0.00     0.277 HD
ATOM     20  H31 UNL     1      11.110  12.533  24.701  1.00  0.00     0.277 HD
BRANCH  18  21
HETATM   21  C14 UNL     1      12.590  12.587  23.315  1.00  0.00     0.276 C 
BRANCH  21  22
HETATM   22  C15 UNL     1      14.098  12.700  23.419  1.00  0.00     0.213 C 
HETATM   23  C16 UNL     1      14.867  11.544  23.604  1.00  0.00    -0.150 C 
HETATM   24  C17 UNL     1      15.442  10.321  23.980  1.00  0.00     0.082 C 
HETATM   25  C18 UNL     1      16.445   9.969  22.829  1.00  0.00     0.011 C 
HETATM   26  C19 UNL     1      16.019  10.345  21.472  1.00  0.00     0.003 C 
HETATM   27  C20 UNL     1      16.077  11.753  20.967  1.00  0.00     0.026 C 
HETATM   28  C21 UNL     1      14.741  12.496  21.131  1.00  0.00     0.169 C 
HETATM   29  O4  UNL     1      14.511  13.293  22.178  1.00  0.00    -0.373 OA
ENDBRANCH  21  22
ENDBRANCH  18  21
ENDBRANCH  15  18
ENDBRANCH   9  12
BRANCH   1  30
HETATM   30  N1  UNL     1       4.179  13.533  24.593  1.00  0.00    -0.328 N 
HETATM   31  C1  UNL     1       4.380  12.433  23.738  1.00  0.00     0.361 C 
HETATM   32  O1  UNL     1       4.647  12.552  22.525  1.00  0.00    -0.238 OA
ATOM     33  H1  UNL     1       3.965  13.363  25.576  1.00  0.00     0.165 HD
BRANCH  31  34
HETATM   34  O5  UNL     1       4.280  11.149  24.258  1.00  0.00    -0.299 OA
BRANCH  34  35
HETATM   35  C26 UNL     1       4.637  10.876  25.618  1.00  0.00     0.220 C 
BRANCH  35  36
HETATM   36  C27 UNL     1       6.086  11.002  25.749  1.00  0.00    -0.019 A 
HETATM   37  C28 UNL     1       6.900  10.467  24.774  1.00  0.00     0.010 A 
HETATM   38  C29 UNL     1       8.278  10.538  24.801  1.00  0.00     0.001 A 
HETATM   39  C30 UNL     1       8.878  11.178  25.862  1.00  0.00     0.001 A 
HETATM   40  C31 UNL     1       8.077  11.716  26.842  1.00  0.00     0.017 A 
HETATM   41  C32 UNL     1       6.706  11.642  26.808  1.00  0.00     0.056 A 
BRANCH  41  42
HETATM   42  C33 UNL     1       5.856  12.223  27.868  1.00  0.00     0.418 C 
HETATM   43  F1  UNL     1       5.046  13.230  27.428  1.00  0.00    -0.166 F 
HETATM   44  F2  UNL     1       5.136  11.233  28.544  1.00  0.00    -0.166 F 
HETATM   45  F3  UNL     1       6.707  12.773  28.826  1.00  0.00    -0.166 F 
ENDBRANCH  41  42
ENDBRANCH  35  36
ENDBRANCH  34  35
ENDBRANCH  31  34
ENDBRANCH   1  30
BRANCH   3  46
HETATM   46  C5  UNL     1       1.759  17.698  24.435  1.00  0.00     0.177 C 
HETATM   47  O2  UNL     1       0.857  17.417  23.605  1.00  0.00    -0.648 OA
HETATM   48  O3  UNL     1       1.504  18.561  25.477  1.00  0.00    -0.648 OA
ENDBRANCH   3  46
TORSDOF 10
ENDMDL
MODEL 5
REMARK VINA RESULT: -6.632086564      1.799      2.196
REMARK  10 active torsions:
REMARK  status: ('A' for Active; 'I' for Inactive)
REMARK       I    between atoms: C1_2  and  N1_3 
REMARK    1  A    between atoms: C1_2  and  O5_37 
REMARK    2  A    between atoms: N1_3  and  C2_5 
REMARK    3  A    between atoms: C4_7  and  C5_8 
REMARK    4  A    between atoms: C9_16  and  C10_17 
REMARK    5  A    between atoms: C13_20  and  N3_21 
REMARK    6  A    between atoms: N3_21  and  C14_24 
REMARK    7  A    between atoms: C14_24  and  C15_25 
REMARK    8  A    between atoms: O5_37  and  C26_38 
REMARK    9  A    between atoms: C26_38  and  C27_39 
REMARK   10  A    between atoms: C32_44  and  C33_45 
ROOT
HETATM    1  C2  UNL     1       4.140  14.870  24.097  1.00  0.00     0.122 C 
HETATM    2  C3  UNL     1       2.896  15.642  24.199  1.00  0.00     0.046 C 
HETATM    3  C4  UNL     1       3.097  17.122  24.270  1.00  0.00     0.095 C 
HETATM    4  C6  UNL     1       3.954  17.492  25.474  1.00  0.00     0.073 C 
HETATM    5  C7  UNL     1       5.195  16.659  25.459  1.00  0.00     0.018 A 
HETATM    6  N2  UNL     1       6.315  17.108  26.101  1.00  0.00    -0.368 N 
ATOM      7  H2  UNL     1       6.266  18.005  26.586  1.00  0.00     0.165 HD
HETATM    8  C8  UNL     1       7.469  16.437  26.127  1.00  0.00     0.095 A 
HETATM    9  C9  UNL     1       7.580  15.224  25.484  1.00  0.00    -0.038 A 
HETATM   10  C24 UNL     1       6.488  14.724  24.825  1.00  0.00     0.020 A 
HETATM   11  C25 UNL     1       5.280  15.465  24.821  1.00  0.00    -0.012 A 
ENDROOT
BRANCH   9  12
HETATM   12  C10 UNL     1       8.851  14.468  25.489  1.00  0.00     0.020 C 
HETATM   13  C11 UNL     1       9.861  15.046  26.457  1.00  0.00     0.011 C 
HETATM   14  C12 UNL     1      11.112  14.164  26.358  1.00  0.00     0.034 C 
HETATM   15  C13 UNL     1      11.712  14.266  24.973  1.00  0.00     0.186 C 
HETATM   16  C22 UNL     1      10.795  15.040  24.074  1.00  0.00     0.034 C 
HETATM   17  C23 UNL     1       9.437  14.318  24.117  1.00  0.00     0.011 C 
BRANCH  15  18
HETATM   18  N3  UNL     1      11.930  12.915  24.501  1.00  0.00    -0.068 N 
ATOM     19  H32 UNL     1      11.575  12.241  25.179  1.00  0.00     0.277 HD
ATOM     20  H31 UNL     1      11.316  12.711  23.712  1.00  0.00     0.277 HD
BRANCH  18  21
HETATM   21  C14 UNL     1      13.291  12.616  24.165  1.00  0.00     0.276 C 
BRANCH  21  22
HETATM   22  C15 UNL     1      13.347  11.721  22.943  1.00  0.00     0.213 C 
HETATM   23  C16 UNL     1      14.275  11.992  21.929  1.00  0.00    -0.150 C 
HETATM   24  C17 UNL     1      15.120  12.529  20.946  1.00  0.00     0.082 C 
HETATM   25  C18 UNL     1      16.206  11.428  20.695  1.00  0.00     0.011 C 
HETATM   26  C19 UNL     1      16.630  10.665  21.878  1.00  0.00     0.003 C 
HETATM   27  C20 UNL     1      15.798   9.576  22.480  1.00  0.00     0.026 C 
HETATM   28  C21 UNL     1      14.922  10.072  23.641  1.00  0.00     0.169 C 
HETATM   29  O4  UNL     1      13.645  10.414  23.455  1.00  0.00    -0.373 OA
ENDBRANCH  21  22
ENDBRANCH  18  21
ENDBRANCH  15  18
ENDBRANCH   9  12
BRANCH   1  30
HETATM   30  N1  UNL     1       3.975  13.501  24.578  1.00  0.00    -0.328 N 
HETATM   31  C1  UNL     1       3.410  13.214  25.835  1.00  0.00     0.361 C 
HETATM   32  O1  UNL     1       3.012  14.097  26.622  1.00  0.00    -0.238 OA
ATOM     33  H1  UNL     1       4.278  12.729  23.985  1.00  0.00     0.165 HD
BRANCH  31  34
HETATM   34  O5  UNL     1       3.282  11.888  26.230  1.00  0.00    -0.299 OA
BRANCH  34  35
HETATM   35  C26 UNL     1       3.829  10.829  25.436  1.00  0.00     0.220 C 
BRANCH  35  36
HETATM   36  C27 UNL     1       5.286  10.920  25.483  1.00  0.00    -0.019 A 
HETATM   37  C28 UNL     1       5.903  11.231  26.676  1.00  0.00     0.010 A 
HETATM   38  C29 UNL     1       7.270  11.335  26.827  1.00  0.00     0.001 A 
HETATM   39  C30 UNL     1       8.067  11.116  25.726  1.00  0.00     0.001 A 
HETATM   40  C31 UNL     1       7.464  10.804  24.531  1.00  0.00     0.017 A 
HETATM   41  C32 UNL     1       6.102  10.703  24.388  1.00  0.00     0.056 A 
BRANCH  41  42
HETATM   42  C33 UNL     1       5.465  10.369  23.097  1.00  0.00     0.418 C 
HETATM   43  F1  UNL     1       4.813   9.169  23.103  1.00  0.00    -0.166 F 
HETATM   44  F2  UNL     1       4.642  11.407  22.651  1.00  0.00    -0.166 F 
HETATM   45  F3  UNL     1       6.481  10.275  22.146  1.00  0.00    -0.166 F 
ENDBRANCH  41  42
ENDBRANCH  35  36
ENDBRANCH  34  35
ENDBRANCH  31  34
ENDBRANCH   1  30
BRANCH   3  46
HETATM   46  C5  UNL     1       1.793  17.795  24.414  1.00  0.00     0.177 C 
HETATM   47  O2  UNL     1       0.901  17.623  23.546  1.00  0.00    -0.648 OA
HETATM   48  O3  UNL     1       1.563  18.609  25.501  1.00  0.00    -0.648 OA
ENDBRANCH   3  46
TORSDOF 10
ENDMDL
