MODEL 1
REMARK VINA RESULT: -5.737721460      0.000      0.000
REMARK  10 active torsions:
REMARK  status: ('A' for Active; 'I' for Inactive)
REMARK    1  A    between atoms: C3_5  and  C4_6 
REMARK    2  A    between atoms: C12_14  and  C13_15 
REMARK    3  A    between atoms: C16_21  and  O1_22 
REMARK    4  A    between atoms: O1_22  and  C17_23 
REMARK    5  A    between atoms: C17_23  and  C18_24 
REMARK    6  A    between atoms: C18_24  and  O2_25 
REMARK    7  A    between atoms: N3_29  and  C21_30 
REMARK    8  A    between atoms: C27_36  and  C28_37 
REMARK       I    between atoms: C28_37  and  N4_39 
REMARK    9  A    between atoms: C31_42  and  C32_43 
REMARK   10  A    between atoms: C32_43  and  O4_44 
ROOT
HETATM    1  C13 UNL     1      12.698  17.560  24.736  1.00  0.00     0.358 C 
HETATM    2  F1  UNL     1      13.998  17.184  24.127  1.00  0.00    -0.184 F 
HETATM    3  F2  UNL     1      13.352  17.660  25.924  1.00  0.00    -0.184 F 
HETATM    4  C14 UNL     1      12.602  18.720  23.859  1.00  0.00     0.143 C 
HETATM    5  N2  UNL     1      12.491  19.670  23.163  1.00  0.00    -0.190 NA
ENDROOT
BRANCH   1   6
HETATM    6  C12 UNL     1      11.948  16.387  24.387  1.00  0.00     0.044 A 
HETATM    7  C11 UNL     1      10.728  16.102  24.997  1.00  0.00     0.017 A 
HETATM    8  C5  UNL     1      10.006  16.719  25.971  1.00  0.00     0.009 A 
HETATM    9  C20 UNL     1      10.050  14.934  24.590  1.00  0.00     0.050 A 
HETATM   10  C4  UNL     1       8.850  15.863  26.129  1.00  0.00     0.073 A 
HETATM   11  C6  UNL     1      10.237  17.799  26.864  1.00  0.00    -0.066 C 
HETATM   12  N3  UNL     1       8.905  14.837  25.318  1.00  0.00    -0.339 N 
HETATM   13  C7  UNL     1      10.824  19.081  26.899  1.00  0.00     0.035 C 
HETATM   14  C10 UNL     1      10.428  17.265  28.339  1.00  0.00     0.035 C 
HETATM   15  C8  UNL     1      10.166  19.670  28.212  1.00  0.00     0.005 C 
HETATM   16  C9  UNL     1       9.952  18.476  29.077  1.00  0.00     0.005 C 
HETATM   17  C19 UNL     1      10.548  14.091  23.633  1.00  0.00     0.067 A 
HETATM   18  C16 UNL     1      11.734  14.337  23.018  1.00  0.00     0.071 A 
HETATM   19  C15 UNL     1      12.389  15.480  23.421  1.00  0.00     0.052 A 
BRANCH  10  20
HETATM   20  C3  UNL     1       7.693  16.237  26.957  1.00  0.00     0.061 A 
HETATM   21  N1  UNL     1       7.234  15.654  28.083  1.00  0.00    -0.357 N 
HETATM   22  C2  UNL     1       6.058  16.194  28.461  1.00  0.00     0.021 A 
ATOM     23  H1  UNL     1       7.713  14.905  28.583  1.00  0.00     0.166 HD
HETATM   24  C1  UNL     1       5.266  15.791  29.667  1.00  0.00     0.069 C 
HETATM   25  C27 UNL     1       5.719  17.169  27.561  1.00  0.00     0.056 A 
HETATM   26  C26 UNL     1       6.730  17.186  26.642  1.00  0.00     0.051 A 
BRANCH  25  27
HETATM   27  C28 UNL     1       4.491  17.986  27.585  1.00  0.00     0.255 C 
HETATM   28  O3  UNL     1       4.494  19.071  28.285  1.00  0.00    -0.267 OA
HETATM   29  N4  UNL     1       3.316  17.683  26.907  1.00  0.00    -0.348 N 
HETATM   30  C29 UNL     1       2.157  18.530  27.008  1.00  0.00     0.126 C 
HETATM   31  C34 UNL     1       3.200  16.524  26.065  1.00  0.00     0.126 C 
HETATM   32  C30 UNL     1       0.938  17.852  26.401  1.00  0.00     0.027 C 
HETATM   33  C31 UNL     1       1.155  17.361  25.010  1.00  0.00     0.012 C 
HETATM   34  C33 UNL     1       2.589  17.054  24.755  1.00  0.00     0.027 C 
BRANCH  33  35
HETATM   35  C32 UNL     1       0.589  18.324  23.978  1.00  0.00     0.168 C 
BRANCH  35  36
HETATM   36  O4  UNL     1       1.616  18.920  23.258  1.00  0.00    -0.400 OA
ATOM     37  H4  UNL     1       1.555  18.686  22.339  1.00  0.00     0.209 HD
ENDBRANCH  35  36
ENDBRANCH  33  35
ENDBRANCH  25  27
ENDBRANCH  10  20
BRANCH  12  38
HETATM   38  C21 UNL     1       7.942  13.835  25.208  1.00  0.00     0.090 C 
HETATM   39  C22 UNL     1       6.957  13.960  24.030  1.00  0.00     0.026 C 
HETATM   40  C23 UNL     1       6.115  12.696  24.245  1.00  0.00     0.002 C 
HETATM   41  C24 UNL     1       6.797  11.886  25.331  1.00  0.00     0.002 C 
HETATM   42  C25 UNL     1       8.258  12.418  25.133  1.00  0.00     0.026 C 
ENDBRANCH  12  38
BRANCH  18  43
HETATM   43  O1  UNL     1      12.275  13.541  22.069  1.00  0.00    -0.349 OA
BRANCH  43  44
HETATM   44  C17 UNL     1      13.025  12.409  22.066  1.00  0.00     0.201 C 
BRANCH  44  45
HETATM   45  C18 UNL     1      14.522  12.551  21.964  1.00  0.00     0.190 C 
BRANCH  45  46
HETATM   46  O2  UNL     1      14.840  12.920  20.633  1.00  0.00    -0.399 OA
ATOM     47  H2  UNL     1      15.501  12.319  20.309  1.00  0.00     0.209 HD
ENDBRANCH  45  46
ENDBRANCH  44  45
ENDBRANCH  43  44
ENDBRANCH  18  43
ENDBRANCH   1   6
TORSDOF 10
ENDMDL
MODEL 2
REMARK VINA RESULT: -5.705466116      3.737      6.793
REMARK  10 active torsions:
REMARK  status: ('A' for Active; 'I' for Inactive)
REMARK    1  A    between atoms: C3_5  and  C4_6 
REMARK    2  A    between atoms: C12_14  and  C13_15 
REMARK    3  A    between atoms: C16_21  and  O1_22 
REMARK    4  A    between atoms: O1_22  and  C17_23 
REMARK    5  A    between atoms: C17_23  and  C18_24 
REMARK    6  A    between atoms: C18_24  and  O2_25 
REMARK    7  A    between atoms: N3_29  and  C21_30 
REMARK    8  A    between atoms: C27_36  and  C28_37 
REMARK       I    between atoms: C28_37  and  N4_39 
REMARK    9  A    between atoms: C31_42  and  C32_43 
REMARK   10  A    between atoms: C32_43  and  O4_44 
ROOT
HETATM    1  C13 UNL     1       8.073  20.815  29.988  1.00  0.00     0.358 C 
HETATM    2  F1  UNL     1       9.011  21.592  30.837  1.00  0.00    -0.184 F 
HETATM    3  F2  UNL     1       7.622  20.229  31.128  1.00  0.00    -0.184 F 
HETATM    4  C14 UNL     1       7.457  22.046  29.510  1.00  0.00     0.143 C 
HETATM    5  N2  UNL     1       6.934  23.024  29.101  1.00  0.00    -0.190 NA
ENDROOT
BRANCH   1   6
HETATM    6  C12 UNL     1       9.035  20.169  29.140  1.00  0.00     0.044 A 
HETATM    7  C11 UNL     1       8.667  19.119  28.301  1.00  0.00     0.017 A 
HETATM    8  C5  UNL     1       7.492  18.466  28.084  1.00  0.00     0.009 A 
HETATM    9  C20 UNL     1       9.670  18.545  27.493  1.00  0.00     0.050 A 
HETATM   10  C4  UNL     1       7.839  17.467  27.096  1.00  0.00     0.073 A 
HETATM   11  C6  UNL     1       6.213  18.466  28.698  1.00  0.00    -0.066 C 
HETATM   12  N3  UNL     1       9.106  17.536  26.775  1.00  0.00    -0.339 N 
HETATM   13  C7  UNL     1       5.273  19.353  29.265  1.00  0.00     0.035 C 
HETATM   14  C10 UNL     1       5.985  17.124  29.501  1.00  0.00     0.035 C 
HETATM   15  C8  UNL     1       3.973  18.450  29.252  1.00  0.00     0.005 C 
HETATM   16  C9  UNL     1       4.493  17.063  29.414  1.00  0.00     0.005 C 
HETATM   17  C19 UNL     1      10.968  18.981  27.511  1.00  0.00     0.067 A 
HETATM   18  C16 UNL     1      11.362  20.001  28.317  1.00  0.00     0.071 A 
HETATM   19  C15 UNL     1      10.376  20.556  29.102  1.00  0.00     0.052 A 
BRANCH  10  20
HETATM   20  C3  UNL     1       6.830  16.638  26.419  1.00  0.00     0.061 A 
HETATM   21  N1  UNL     1       5.876  17.012  25.543  1.00  0.00    -0.357 N 
HETATM   22  C2  UNL     1       5.046  15.987  25.265  1.00  0.00     0.021 A 
ATOM     23  H1  UNL     1       5.794  17.947  25.142  1.00  0.00     0.166 HD
HETATM   24  C1  UNL     1       3.877  16.045  24.331  1.00  0.00     0.069 C 
HETATM   25  C27 UNL     1       5.457  14.891  25.978  1.00  0.00     0.056 A 
HETATM   26  C26 UNL     1       6.552  15.303  26.682  1.00  0.00     0.051 A 
BRANCH  25  27
HETATM   27  C28 UNL     1       4.806  13.567  25.990  1.00  0.00     0.255 C 
HETATM   28  O3  UNL     1       3.777  13.400  26.751  1.00  0.00    -0.267 OA
HETATM   29  N4  UNL     1       5.214  12.470  25.240  1.00  0.00    -0.348 N 
HETATM   30  C29 UNL     1       4.531  11.207  25.333  1.00  0.00     0.126 C 
HETATM   31  C34 UNL     1       6.323  12.541  24.328  1.00  0.00     0.126 C 
HETATM   32  C30 UNL     1       5.320  10.113  24.630  1.00  0.00     0.027 C 
HETATM   33  C31 UNL     1       5.689  10.448  23.226  1.00  0.00     0.012 C 
HETATM   34  C33 UNL     1       5.794  11.919  23.023  1.00  0.00     0.027 C 
BRANCH  33  35
HETATM   35  C32 UNL     1       4.744   9.803  22.225  1.00  0.00     0.168 C 
BRANCH  35  36
HETATM   36  O4  UNL     1       5.215   9.980  20.930  1.00  0.00    -0.400 OA
ATOM     37  H4  UNL     1       5.381   9.139  20.521  1.00  0.00     0.209 HD
ENDBRANCH  35  36
ENDBRANCH  33  35
ENDBRANCH  25  27
ENDBRANCH  10  20
BRANCH  12  38
HETATM   38  C21 UNL     1       9.754  16.728  25.843  1.00  0.00     0.090 C 
HETATM   39  C22 UNL     1      10.566  17.455  24.755  1.00  0.00     0.026 C 
HETATM   40  C23 UNL     1      11.120  16.253  23.979  1.00  0.00     0.002 C 
HETATM   41  C24 UNL     1      10.782  15.012  24.781  1.00  0.00     0.002 C 
HETATM   42  C25 UNL     1      10.687  15.671  26.200  1.00  0.00     0.026 C 
ENDBRANCH  12  38
BRANCH  18  43
HETATM   43  O1  UNL     1      12.627  20.472  28.378  1.00  0.00    -0.349 OA
BRANCH  43  44
HETATM   44  C17 UNL     1      13.388  21.307  27.624  1.00  0.00     0.201 C 
BRANCH  44  45
HETATM   45  C18 UNL     1      13.151  22.789  27.748  1.00  0.00     0.190 C 
BRANCH  45  46
HETATM   46  O2  UNL     1      12.271  23.184  26.708  1.00  0.00    -0.399 OA
ATOM     47  H2  UNL     1      11.652  23.810  27.065  1.00  0.00     0.209 HD
ENDBRANCH  45  46
ENDBRANCH  44  45
ENDBRANCH  43  44
ENDBRANCH  18  43
ENDBRANCH   1   6
TORSDOF 10
ENDMDL
MODEL 3
REMARK VINA RESULT: -5.583795437      3.180      9.856
REMARK  10 active torsions:
REMARK  status: ('A' for Active; 'I' for Inactive)
REMARK    1  A    between atoms: C3_5  and  C4_6 
REMARK    2  A    between atoms: C12_14  and  C13_15 
REMARK    3  A    between atoms: C16_21  and  O1_22 
REMARK    4  A    between atoms: O1_22  and  C17_23 
REMARK    5  A    between atoms: C17_23  and  C18_24 
REMARK    6  A    between atoms: C18_24  and  O2_25 
REMARK    7  A    between atoms: N3_29  and  C21_30 
REMARK    8  A    between atoms: C27_36  and  C28_37 
REMARK       I    between atoms: C28_37  and  N4_39 
REMARK    9  A    between atoms: C31_42  and  C32_43 
REMARK   10  A    between atoms: C32_43  and  O4_44 
ROOT
HETATM    1  C13 UNL     1       4.786  13.045  24.715  1.00  0.00     0.358 C 
HETATM    2  F1  UNL     1       3.319  13.254  24.806  1.00  0.00    -0.184 F 
HETATM    3  F2  UNL     1       4.641  12.054  25.635  1.00  0.00    -0.184 F 
HETATM    4  C14 UNL     1       4.673  12.739  23.294  1.00  0.00     0.143 C 
HETATM    5  N2  UNL     1       4.618  12.487  22.141  1.00  0.00    -0.190 NA
ENDROOT
BRANCH   1   6
HETATM    6  C12 UNL     1       5.216  14.362  25.089  1.00  0.00     0.044 A 
HETATM    7  C11 UNL     1       6.561  14.643  25.325  1.00  0.00     0.017 A 
HETATM    8  C5  UNL     1       7.688  13.881  25.312  1.00  0.00     0.009 A 
HETATM    9  C20 UNL     1       6.901  15.965  25.680  1.00  0.00     0.050 A 
HETATM   10  C4  UNL     1       8.731  14.817  25.674  1.00  0.00     0.073 A 
HETATM   11  C6  UNL     1       7.964  12.493  25.203  1.00  0.00    -0.066 C 
HETATM   12  N3  UNL     1       8.245  16.013  25.882  1.00  0.00    -0.339 N 
HETATM   13  C7  UNL     1       7.538  11.346  24.500  1.00  0.00     0.035 C 
HETATM   14  C10 UNL     1       8.450  11.915  26.591  1.00  0.00     0.035 C 
HETATM   15  C8  UNL     1       8.765  10.378  24.746  1.00  0.00     0.005 C 
HETATM   16  C9  UNL     1       9.286  10.784  26.081  1.00  0.00     0.005 C 
HETATM   17  C19 UNL     1       5.966  16.958  25.797  1.00  0.00     0.067 A 
HETATM   18  C16 UNL     1       4.647  16.720  25.574  1.00  0.00     0.071 A 
HETATM   19  C15 UNL     1       4.324  15.427  25.228  1.00  0.00     0.052 A 
BRANCH  10  20
HETATM   20  C3  UNL     1      10.161  14.475  25.608  1.00  0.00     0.061 A 
HETATM   21  N1  UNL     1      11.035  14.287  26.618  1.00  0.00    -0.357 N 
HETATM   22  C2  UNL     1      12.290  14.141  26.150  1.00  0.00     0.021 A 
ATOM     23  H1  UNL     1      10.779  14.260  27.605  1.00  0.00     0.166 HD
HETATM   24  C1  UNL     1      13.509  13.914  26.990  1.00  0.00     0.069 C 
HETATM   25  C27 UNL     1      12.257  14.233  24.783  1.00  0.00     0.056 A 
HETATM   26  C26 UNL     1      10.945  14.438  24.462  1.00  0.00     0.051 A 
BRANCH  25  27
HETATM   27  C28 UNL     1      13.419  14.161  23.878  1.00  0.00     0.255 C 
HETATM   28  O3  UNL     1      14.088  15.242  23.656  1.00  0.00    -0.267 OA
HETATM   29  N4  UNL     1      13.860  13.010  23.235  1.00  0.00    -0.348 N 
HETATM   30  C29 UNL     1      14.994  13.038  22.348  1.00  0.00     0.126 C 
HETATM   31  C34 UNL     1      13.222  11.737  23.430  1.00  0.00     0.126 C 
HETATM   32  C30 UNL     1      15.109  11.733  21.576  1.00  0.00     0.027 C 
HETATM   33  C31 UNL     1      15.105  10.521  22.443  1.00  0.00     0.012 C 
HETATM   34  C33 UNL     1      14.379  10.763  23.720  1.00  0.00     0.027 C 
BRANCH  33  35
HETATM   35  C32 UNL     1      16.512   9.995  22.682  1.00  0.00     0.168 C 
BRANCH  35  36
HETATM   36  O4  UNL     1      17.212   9.926  21.484  1.00  0.00    -0.400 OA
ATOM     37  H4  UNL     1      17.835   9.209  21.506  1.00  0.00     0.209 HD
ENDBRANCH  35  36
ENDBRANCH  33  35
ENDBRANCH  25  27
ENDBRANCH  10  20
BRANCH  12  38
HETATM   38  C21 UNL     1       8.984  17.143  26.229  1.00  0.00     0.090 C 
HETATM   39  C22 UNL     1       9.494  18.012  25.063  1.00  0.00     0.026 C 
HETATM   40  C23 UNL     1      10.208  19.123  25.843  1.00  0.00     0.002 C 
HETATM   41  C24 UNL     1       9.869  18.926  27.308  1.00  0.00     0.002 C 
HETATM   42  C25 UNL     1       8.504  18.177  27.132  1.00  0.00     0.026 C 
ENDBRANCH  12  38
BRANCH  18  43
HETATM   43  O1  UNL     1       3.680  17.660  25.676  1.00  0.00    -0.349 OA
BRANCH  43  44
HETATM   44  C17 UNL     1       2.323  17.663  25.625  1.00  0.00     0.201 C 
BRANCH  44  45
HETATM   45  C18 UNL     1       1.662  18.163  24.367  1.00  0.00     0.190 C 
BRANCH  45  46
HETATM   46  O2  UNL     1       2.370  17.637  23.257  1.00  0.00    -0.399 OA
ATOM     47  H2  UNL     1       1.990  16.795  23.036  1.00  0.00     0.209 HD
ENDBRANCH  45  46
ENDBRANCH  44  45
ENDBRANCH  43  44
ENDBRANCH  18  43
ENDBRANCH   1   6
TORSDOF 10
ENDMDL
MODEL 4
REMARK VINA RESULT: -5.570942222      4.377      8.359
REMARK  10 active torsions:
REMARK  status: ('A' for Active; 'I' for Inactive)
REMARK    1  A    between atoms: C3_5  and  C4_6 
REMARK    2  A    between atoms: C12_14  and  C13_15 
REMARK    3  A    between atoms: C16_21  and  O1_22 
REMARK    4  A    between atoms: O1_22  and  C17_23 
REMARK    5  A    between atoms: C17_23  and  C18_24 
REMARK    6  A    between atoms: C18_24  and  O2_25 
REMARK    7  A    between atoms: N3_29  and  C21_30 
REMARK    8  A    between atoms: C27_36  and  C28_37 
REMARK       I    between atoms: C28_37  and  N4_39 
REMARK    9  A    between atoms: C31_42  and  C32_43 
REMARK   10  A    between atoms: C32_43  and  O4_44 
ROOT
HETATM    1  C13 UNL     1       2.463  12.545  25.356  1.00  0.00     0.358 C 
HETATM    2  F1  UNL     1       1.578  11.529  24.733  1.00  0.00    -0.184 F 
HETATM    3  F2  UNL     1       2.065  13.403  24.380  1.00  0.00    -0.184 F 
HETATM    4  C14 UNL     1       1.712  12.463  26.603  1.00  0.00     0.143 C 
HETATM    5  N2  UNL     1       1.125  12.421  27.628  1.00  0.00    -0.190 NA
ENDROOT
BRANCH   1   6
HETATM    6  C12 UNL     1       3.705  11.831  25.269  1.00  0.00     0.044 A 
HETATM    7  C11 UNL     1       4.921  12.466  25.515  1.00  0.00     0.017 A 
HETATM    8  C5  UNL     1       5.258  13.747  25.825  1.00  0.00     0.009 A 
HETATM    9  C20 UNL     1       6.096  11.690  25.418  1.00  0.00     0.050 A 
HETATM   10  C4  UNL     1       6.702  13.704  25.915  1.00  0.00     0.073 A 
HETATM   11  C6  UNL     1       4.564  14.984  25.887  1.00  0.00    -0.066 C 
HETATM   12  N3  UNL     1       7.157  12.502  25.672  1.00  0.00    -0.339 N 
HETATM   13  C7  UNL     1       3.327  15.522  26.300  1.00  0.00     0.035 C 
HETATM   14  C10 UNL     1       4.991  15.919  24.687  1.00  0.00     0.035 C 
HETATM   15  C8  UNL     1       3.689  17.061  26.380  1.00  0.00     0.005 C 
HETATM   16  C9  UNL     1       4.734  17.242  25.333  1.00  0.00     0.005 C 
HETATM   17  C19 UNL     1       6.073  10.360  25.095  1.00  0.00     0.067 A 
HETATM   18  C16 UNL     1       4.907   9.709  24.849  1.00  0.00     0.071 A 
HETATM   19  C15 UNL     1       3.765  10.474  24.947  1.00  0.00     0.052 A 
BRANCH  10  20
HETATM   20  C3  UNL     1       7.499  14.836  26.414  1.00  0.00     0.061 A 
HETATM   21  N1  UNL     1       7.603  15.309  27.672  1.00  0.00    -0.357 N 
HETATM   22  C2  UNL     1       8.310  16.456  27.700  1.00  0.00     0.021 A 
ATOM     23  H1  UNL     1       7.199  14.859  28.494  1.00  0.00     0.166 HD
HETATM   24  C1  UNL     1       8.622  17.254  28.929  1.00  0.00     0.069 C 
HETATM   25  C27 UNL     1       8.693  16.761  26.420  1.00  0.00     0.056 A 
HETATM   26  C26 UNL     1       8.190  15.759  25.640  1.00  0.00     0.051 A 
BRANCH  25  27
HETATM   27  C28 UNL     1       9.457  17.950  26.001  1.00  0.00     0.255 C 
HETATM   28  O3  UNL     1       9.180  19.081  26.559  1.00  0.00    -0.267 OA
HETATM   29  N4  UNL     1      10.464  17.956  25.043  1.00  0.00    -0.348 N 
HETATM   30  C29 UNL     1      11.142  19.174  24.680  1.00  0.00     0.126 C 
HETATM   31  C34 UNL     1      10.891  16.755  24.379  1.00  0.00     0.126 C 
HETATM   32  C30 UNL     1      12.000  18.966  23.442  1.00  0.00     0.027 C 
HETATM   33  C31 UNL     1      12.938  17.812  23.548  1.00  0.00     0.012 C 
HETATM   34  C33 UNL     1      12.427  16.776  24.486  1.00  0.00     0.027 C 
BRANCH  33  35
HETATM   35  C32 UNL     1      14.345  18.262  23.911  1.00  0.00     0.168 C 
BRANCH  35  36
HETATM   36  O4  UNL     1      14.469  19.636  23.754  1.00  0.00    -0.400 OA
ATOM     37  H4  UNL     1      14.114  20.089  24.510  1.00  0.00     0.209 HD
ENDBRANCH  35  36
ENDBRANCH  33  35
ENDBRANCH  25  27
ENDBRANCH  10  20
BRANCH  12  38
HETATM   38  C21 UNL     1       8.498  12.119  25.695  1.00  0.00     0.090 C 
HETATM   39  C22 UNL     1       9.094  11.798  27.079  1.00  0.00     0.026 C 
HETATM   40  C23 UNL     1      10.522  11.410  26.677  1.00  0.00     0.002 C 
HETATM   41  C24 UNL     1      10.551  11.328  25.163  1.00  0.00     0.002 C 
HETATM   42  C25 UNL     1       9.036  11.014  24.918  1.00  0.00     0.026 C 
ENDBRANCH  12  38
BRANCH  18  43
HETATM   43  O1  UNL     1       4.823   8.399  24.526  1.00  0.00    -0.349 OA
BRANCH  43  44
HETATM   44  C17 UNL     1       4.141   7.670  23.605  1.00  0.00     0.201 C 
BRANCH  44  45
HETATM   45  C18 UNL     1       4.218   8.098  22.163  1.00  0.00     0.190 C 
BRANCH  45  46
HETATM   46  O2  UNL     1       3.042   7.656  21.507  1.00  0.00    -0.399 OA
ATOM     47  H2  UNL     1       2.320   8.203  21.793  1.00  0.00     0.209 HD
ENDBRANCH  45  46
ENDBRANCH  44  45
ENDBRANCH  43  44
ENDBRANCH  18  43
ENDBRANCH   1   6
TORSDOF 10
ENDMDL
MODEL 5
REMARK VINA RESULT: -5.548152254      4.233      9.080
REMARK  10 active torsions:
REMARK  status: ('A' for Active; 'I' for Inactive)
REMARK    1  A    between atoms: C3_5  and  C4_6 
REMARK    2  A    between atoms: C12_14  and  C13_15 
REMARK    3  A    between atoms: C16_21  and  O1_22 
REMARK    4  A    between atoms: O1_22  and  C17_23 
REMARK    5  A    between atoms: C17_23  and  C18_24 
REMARK    6  A    between atoms: C18_24  and  O2_25 
REMARK    7  A    between atoms: N3_29  and  C21_30 
REMARK    8  A    between atoms: C27_36  and  C28_37 
REMARK       I    between atoms: C28_37  and  N4_39 
REMARK    9  A    between atoms: C31_42  and  C32_43 
REMARK   10  A    between atoms: C32_43  and  O4_44 
ROOT
HETATM    1  C13 UNL     1       4.495  10.219  24.297  1.00  0.00     0.358 C 
HETATM    2  F1  UNL     1       3.355   9.313  24.009  1.00  0.00    -0.184 F 
HETATM    3  F2  UNL     1       5.000   9.234  25.086  1.00  0.00    -0.184 F 
HETATM    4  C14 UNL     1       4.840  10.266  22.882  1.00  0.00     0.143 C 
HETATM    5  N2  UNL     1       5.148  10.327  21.742  1.00  0.00    -0.190 NA
ENDROOT
BRANCH   1   6
HETATM    6  C12 UNL     1       3.759  11.321  24.849  1.00  0.00     0.044 A 
HETATM    7  C11 UNL     1       4.413  12.394  25.452  1.00  0.00     0.017 A 
HETATM    8  C5  UNL     1       5.722  12.670  25.699  1.00  0.00     0.009 A 
HETATM    9  C20 UNL     1       3.617  13.442  25.962  1.00  0.00     0.050 A 
HETATM   10  C4  UNL     1       5.677  13.945  26.381  1.00  0.00     0.073 A 
HETATM   11  C6  UNL     1       6.940  11.950  25.587  1.00  0.00    -0.066 C 
HETATM   12  N3  UNL     1       4.445  14.365  26.520  1.00  0.00    -0.339 N 
HETATM   13  C7  UNL     1       7.599  11.043  24.730  1.00  0.00     0.035 C 
HETATM   14  C10 UNL     1       7.492  11.571  27.018  1.00  0.00     0.035 C 
HETATM   15  C8  UNL     1       9.090  11.187  25.239  1.00  0.00     0.005 C 
HETATM   16  C9  UNL     1       8.949  11.511  26.687  1.00  0.00     0.005 C 
HETATM   17  C19 UNL     1       2.250  13.433  25.881  1.00  0.00     0.067 A 
HETATM   18  C16 UNL     1       1.581  12.404  25.300  1.00  0.00     0.071 A 
HETATM   19  C15 UNL     1       2.365  11.385  24.805  1.00  0.00     0.052 A 
BRANCH  10  20
HETATM   20  C3  UNL     1       6.886  14.728  26.681  1.00  0.00     0.061 A 
HETATM   21  N1  UNL     1       7.657  14.705  27.787  1.00  0.00    -0.357 N 
HETATM   22  C2  UNL     1       8.585  15.681  27.748  1.00  0.00     0.021 A 
ATOM     23  H1  UNL     1       7.550  14.038  28.552  1.00  0.00     0.166 HD
HETATM   24  C1  UNL     1       9.610  15.946  28.809  1.00  0.00     0.069 C 
HETATM   25  C27 UNL     1       8.433  16.379  26.580  1.00  0.00     0.056 A 
HETATM   26  C26 UNL     1       7.387  15.785  25.933  1.00  0.00     0.051 A 
BRANCH  25  27
HETATM   27  C28 UNL     1       9.226  17.548  26.156  1.00  0.00     0.255 C 
HETATM   28  O3  UNL     1       8.983  18.686  26.716  1.00  0.00    -0.267 OA
HETATM   29  N4  UNL     1      10.225  17.528  25.190  1.00  0.00    -0.348 N 
HETATM   30  C29 UNL     1      10.932  18.727  24.823  1.00  0.00     0.126 C 
HETATM   31  C34 UNL     1      10.614  16.317  24.521  1.00  0.00     0.126 C 
HETATM   32  C30 UNL     1      11.775  18.497  23.577  1.00  0.00     0.027 C 
HETATM   33  C31 UNL     1      12.682  17.319  23.675  1.00  0.00     0.012 C 
HETATM   34  C33 UNL     1      12.150  16.296  24.616  1.00  0.00     0.027 C 
BRANCH  33  35
HETATM   35  C32 UNL     1      14.103  17.730  24.028  1.00  0.00     0.168 C 
BRANCH  35  36
HETATM   36  O4  UNL     1      14.758  18.217  22.904  1.00  0.00    -0.400 OA
ATOM     37  H4  UNL     1      15.481  17.647  22.670  1.00  0.00     0.209 HD
ENDBRANCH  35  36
ENDBRANCH  33  35
ENDBRANCH  25  27
ENDBRANCH  10  20
BRANCH  12  38
HETATM   38  C21 UNL     1       4.057  15.564  27.118  1.00  0.00     0.090 C 
HETATM   39  C22 UNL     1       3.605  16.688  26.167  1.00  0.00     0.026 C 
HETATM   40  C23 UNL     1       3.251  17.779  27.184  1.00  0.00     0.002 C 
HETATM   41  C24 UNL     1       3.311  17.143  28.559  1.00  0.00     0.002 C 
HETATM   42  C25 UNL     1       3.027  15.660  28.140  1.00  0.00     0.026 C 
ENDBRANCH  12  38
BRANCH  18  43
HETATM   43  O1  UNL     1       0.235  12.340  25.193  1.00  0.00    -0.349 OA
BRANCH  43  44
HETATM   44  C17 UNL     1      -0.682  11.344  25.080  1.00  0.00     0.201 C 
BRANCH  44  45
HETATM   45  C18 UNL     1      -1.399  11.188  23.764  1.00  0.00     0.190 C 
BRANCH  45  46
HETATM   46  O2  UNL     1      -0.659  10.281  22.963  1.00  0.00    -0.399 OA
ATOM     47  H2  UNL     1      -1.249   9.597  22.668  1.00  0.00     0.209 HD
ENDBRANCH  45  46
ENDBRANCH  44  45
ENDBRANCH  43  44
ENDBRANCH  18  43
ENDBRANCH   1   6
TORSDOF 10
ENDMDL
