MODEL 1
REMARK VINA RESULT: -6.982080669      0.000      0.000
REMARK  14 active torsions:
REMARK  status: ('A' for Active; 'I' for Inactive)
REMARK    1  A    between atoms: C2_2  and  C3_3 
REMARK    2  A    between atoms: C3_3  and  O1_4 
REMARK    3  A    between atoms: C3_3  and  C4_6 
REMARK    4  A    between atoms: C10_12  and  C11_13 
REMARK    5  A    between atoms: C11_13  and  C12_15 
REMARK    6  A    between atoms: C12_15  and  O3_16 
REMARK    7  A    between atoms: O3_16  and  C13_17 
REMARK    8  A    between atoms: C13_17  and  C14_19 
REMARK    9  A    between atoms: C14_19  and  C15_20 
REMARK   10  A    between atoms: C16_21  and  O5_22 
REMARK   11  A    between atoms: C19_28  and  C20_29 
REMARK   12  A    between atoms: C28_40  and  O6_41 
REMARK   13  A    between atoms: O6_41  and  C29_42 
REMARK   14  A    between atoms: C29_42  and  C30_44 
ROOT
HETATM    1  C4  UNL     1       4.217  11.299  25.001  1.00  0.00     0.009 C 
HETATM    2  C5  UNL     1       3.108  11.443  26.033  1.00  0.00     0.020 C 
HETATM    3  C6  UNL     1       5.426  10.864  25.815  1.00  0.00     0.019 C 
HETATM    4  C7  UNL     1       6.400  11.928  26.114  1.00  0.00    -0.005 C 
HETATM    5  C8  UNL     1       7.175  11.761  27.384  1.00  0.00     0.006 C 
HETATM    6  C9  UNL     1       8.206  12.847  27.160  1.00  0.00     0.013 C 
HETATM    7  C10 UNL     1       8.609  12.704  25.650  1.00  0.00     0.066 C 
HETATM    8  C24 UNL     1       7.496  11.902  25.086  1.00  0.00    -0.030 C 
HETATM    9  C25 UNL     1       8.000  10.477  24.909  1.00  0.00     0.016 C 
HETATM   10  C26 UNL     1       6.873  12.311  23.806  1.00  0.00     0.013 C 
HETATM   11  C27 UNL     1       5.637  13.108  23.834  1.00  0.00     0.034 C 
HETATM   12  C28 UNL     1       4.348  12.570  24.296  1.00  0.00     0.142 C 
ENDROOT
BRANCH   7  13
HETATM   13  C11 UNL     1       8.883  14.015  25.108  1.00  0.00     0.155 C 
HETATM   14  O2  UNL     1       8.166  14.945  25.555  1.00  0.00    -0.295 OA
BRANCH  13  15
HETATM   15  C12 UNL     1       9.843  14.461  24.122  1.00  0.00     0.257 C 
BRANCH  15  16
HETATM   16  O3  UNL     1      11.230  14.256  24.488  1.00  0.00    -0.314 OA
BRANCH  16  17
HETATM   17  C13 UNL     1      12.051  14.379  23.354  1.00  0.00     0.263 C 
HETATM   18  O4  UNL     1      12.861  15.350  23.273  1.00  0.00    -0.265 OA
BRANCH  17  19
HETATM   19  C14 UNL     1      12.082  13.451  22.200  1.00  0.00     0.155 C 
BRANCH  19  20
HETATM   20  C15 UNL     1      12.948  12.268  22.526  1.00  0.00     0.014 A 
HETATM   21  C16 UNL     1      12.675  11.316  23.469  1.00  0.00     0.148 A 
HETATM   22  N1  UNL     1      13.723  10.427  23.427  1.00  0.00    -0.336 N 
HETATM   23  C17 UNL     1      14.605  10.794  22.519  1.00  0.00     0.045 A 
ATOM     24  H1  UNL     1      13.806   9.598  24.016  1.00  0.00     0.168 HD
HETATM   25  C18 UNL     1      15.812  10.235  22.130  1.00  0.00     0.046 A 
HETATM   26  C23 UNL     1      14.137  11.976  21.927  1.00  0.00     0.002 A 
HETATM   27  C19 UNL     1      16.546  10.867  21.155  1.00  0.00     0.050 A 
HETATM   28  C21 UNL     1      16.123  12.032  20.540  1.00  0.00     0.017 A 
HETATM   29  C22 UNL     1      14.921  12.549  20.952  1.00  0.00     0.015 A 
BRANCH  21  30
HETATM   30  O5  UNL     1      11.585  11.191  24.338  1.00  0.00    -0.346 OA
ATOM     31  H5  UNL     1      11.234  11.802  24.975  1.00  0.00     0.219 HD
ENDBRANCH  21  30
BRANCH  27  32
HETATM   32  C20 UNL     1      17.844  10.272  20.733  1.00  0.00     0.417 C 
HETATM   33  F1  UNL     1      18.896  11.152  20.820  1.00  0.00    -0.166 F 
HETATM   34  F2  UNL     1      18.157   9.211  21.577  1.00  0.00    -0.166 F 
HETATM   35  F3  UNL     1      17.751   9.899  19.416  1.00  0.00    -0.166 F 
ENDBRANCH  27  32
ENDBRANCH  19  20
ENDBRANCH  17  19
ENDBRANCH  16  17
ENDBRANCH  15  16
ENDBRANCH  13  15
ENDBRANCH   7  13
BRANCH   1  36
HETATM   36  C3  UNL     1       3.850  10.193  24.023  1.00  0.00     0.128 C 
BRANCH  36  37
HETATM   37  C2  UNL     1       4.638   8.946  24.071  1.00  0.00     0.028 C 
HETATM   38  C1  UNL     1       4.080   7.722  23.481  1.00  0.00     0.007 C 
ENDBRANCH  36  37
BRANCH  36  39
HETATM   39  O1  UNL     1       2.496   9.909  23.982  1.00  0.00    -0.395 OA
ATOM     40  H1  UNL     1       2.029  10.414  24.637  1.00  0.00     0.210 HD
ENDBRANCH  36  39
ENDBRANCH   1  36
BRANCH  12  41
HETATM   41  O6  UNL     1       3.753  13.661  25.030  1.00  0.00    -0.315 OA
BRANCH  41  42
HETATM   42  C29 UNL     1       3.153  14.733  24.482  1.00  0.00     0.267 C 
HETATM   43  O7  UNL     1       2.342  14.546  23.530  1.00  0.00    -0.264 OA
BRANCH  42  44
HETATM   44  C30 UNL     1       3.355  16.155  24.892  1.00  0.00     0.037 C 
HETATM   45  C31 UNL     1       2.655  16.464  26.206  1.00  0.00     0.025 C 
HETATM   46  C32 UNL     1       2.688  17.017  23.851  1.00  0.00     0.025 C 
HETATM   47  C33 UNL     1       4.824  16.517  25.000  1.00  0.00     0.025 C 
ENDBRANCH  42  44
ENDBRANCH  41  42
ENDBRANCH  12  41
TORSDOF 14
ENDMDL
MODEL 2
REMARK VINA RESULT: -6.581284019      5.924      9.463
REMARK  14 active torsions:
REMARK  status: ('A' for Active; 'I' for Inactive)
REMARK    1  A    between atoms: C2_2  and  C3_3 
REMARK    2  A    between atoms: C3_3  and  O1_4 
REMARK    3  A    between atoms: C3_3  and  C4_6 
REMARK    4  A    between atoms: C10_12  and  C11_13 
REMARK    5  A    between atoms: C11_13  and  C12_15 
REMARK    6  A    between atoms: C12_15  and  O3_16 
REMARK    7  A    between atoms: O3_16  and  C13_17 
REMARK    8  A    between atoms: C13_17  and  C14_19 
REMARK    9  A    between atoms: C14_19  and  C15_20 
REMARK   10  A    between atoms: C16_21  and  O5_22 
REMARK   11  A    between atoms: C19_28  and  C20_29 
REMARK   12  A    between atoms: C28_40  and  O6_41 
REMARK   13  A    between atoms: O6_41  and  C29_42 
REMARK   14  A    between atoms: C29_42  and  C30_44 
ROOT
HETATM    1  C4  UNL     1      16.035  14.154  25.804  1.00  0.00     0.009 C 
HETATM    2  C5  UNL     1      15.246  14.765  26.953  1.00  0.00     0.020 C 
HETATM    3  C6  UNL     1      17.374  14.873  25.851  1.00  0.00     0.019 C 
HETATM    4  C7  UNL     1      17.548  15.948  24.859  1.00  0.00    -0.005 C 
HETATM    5  C8  UNL     1      18.460  17.064  25.263  1.00  0.00     0.006 C 
HETATM    6  C9  UNL     1      18.580  17.751  23.920  1.00  0.00     0.013 C 
HETATM    7  C10 UNL     1      18.737  16.579  22.888  1.00  0.00     0.066 C 
HETATM    8  C24 UNL     1      18.256  15.402  23.651  1.00  0.00    -0.030 C 
HETATM    9  C25 UNL     1      19.477  14.606  24.088  1.00  0.00     0.016 C 
HETATM   10  C26 UNL     1      17.316  14.450  23.015  1.00  0.00     0.013 C 
HETATM   11  C27 UNL     1      15.873  14.593  23.267  1.00  0.00     0.034 C 
HETATM   12  C28 UNL     1      15.261  14.330  24.579  1.00  0.00     0.142 C 
ENDROOT
BRANCH   7  13
HETATM   13  C11 UNL     1      18.079  16.942  21.655  1.00  0.00     0.155 C 
HETATM   14  O2  UNL     1      16.998  17.572  21.785  1.00  0.00    -0.295 OA
BRANCH  13  15
HETATM   15  C12 UNL     1      18.434  16.703  20.273  1.00  0.00     0.257 C 
BRANCH  15  16
HETATM   16  O3  UNL     1      18.666  15.312  19.938  1.00  0.00    -0.314 OA
BRANCH  16  17
HETATM   17  C13 UNL     1      17.835  14.929  18.872  1.00  0.00     0.263 C 
HETATM   18  O4  UNL     1      16.977  15.747  18.425  1.00  0.00    -0.265 OA
BRANCH  17  19
HETATM   19  C14 UNL     1      17.864  13.622  18.176  1.00  0.00     0.155 C 
BRANCH  19  20
HETATM   20  C15 UNL     1      18.030  12.518  19.181  1.00  0.00     0.014 A 
HETATM   21  C16 UNL     1      19.156  11.763  19.356  1.00  0.00     0.148 A 
HETATM   22  N1  UNL     1      18.871  10.885  20.376  1.00  0.00    -0.336 N 
HETATM   23  C17 UNL     1      17.643  11.070  20.816  1.00  0.00     0.045 A 
ATOM     24  H1  UNL     1      19.521  10.189  20.741  1.00  0.00     0.168 HD
HETATM   25  C18 UNL     1      16.913  10.429  21.805  1.00  0.00     0.046 A 
HETATM   26  C23 UNL     1      17.076  12.110  20.065  1.00  0.00     0.002 A 
HETATM   27  C19 UNL     1      15.617  10.828  22.029  1.00  0.00     0.050 A 
HETATM   28  C21 UNL     1      15.017  11.850  21.316  1.00  0.00     0.017 A 
HETATM   29  C22 UNL     1      15.777  12.461  20.350  1.00  0.00     0.015 A 
BRANCH  21  30
HETATM   30  O5  UNL     1      20.385  11.802  18.687  1.00  0.00    -0.346 OA
ATOM     31  H5  UNL     1      21.053  12.477  18.669  1.00  0.00     0.219 HD
ENDBRANCH  21  30
BRANCH  27  32
HETATM   32  C20 UNL     1      14.827  10.142  23.088  1.00  0.00     0.417 C 
HETATM   33  F1  UNL     1      13.742   9.457  22.596  1.00  0.00    -0.166 F 
HETATM   34  F2  UNL     1      15.630   9.194  23.717  1.00  0.00    -0.166 F 
HETATM   35  F3  UNL     1      14.337  11.086  23.954  1.00  0.00    -0.166 F 
ENDBRANCH  27  32
ENDBRANCH  19  20
ENDBRANCH  17  19
ENDBRANCH  16  17
ENDBRANCH  15  16
ENDBRANCH  13  15
ENDBRANCH   7  13
BRANCH   1  36
HETATM   36  C3  UNL     1      16.253  12.674  26.079  1.00  0.00     0.128 C 
BRANCH  36  37
HETATM   37  C2  UNL     1      17.642  12.177  26.093  1.00  0.00     0.028 C 
HETATM   38  C1  UNL     1      18.087  11.263  25.031  1.00  0.00     0.007 C 
ENDBRANCH  36  37
BRANCH  36  39
HETATM   39  O1  UNL     1      15.557  12.200  27.178  1.00  0.00    -0.395 OA
ATOM     40  H1  UNL     1      14.872  11.601  26.905  1.00  0.00     0.210 HD
ENDBRANCH  36  39
ENDBRANCH   1  36
BRANCH  12  41
HETATM   41  O6  UNL     1      14.258  15.359  24.714  1.00  0.00    -0.315 OA
BRANCH  41  42
HETATM   42  C29 UNL     1      13.165  15.488  23.941  1.00  0.00     0.267 C 
HETATM   43  O7  UNL     1      13.038  16.540  23.251  1.00  0.00    -0.264 OA
BRANCH  42  44
HETATM   44  C30 UNL     1      12.058  14.493  23.816  1.00  0.00     0.037 C 
HETATM   45  C31 UNL     1      12.229  13.617  22.585  1.00  0.00     0.025 C 
HETATM   46  C32 UNL     1      10.784  15.269  23.603  1.00  0.00     0.025 C 
HETATM   47  C33 UNL     1      11.931  13.619  25.049  1.00  0.00     0.025 C 
ENDBRANCH  42  44
ENDBRANCH  41  42
ENDBRANCH  12  41
TORSDOF 14
ENDMDL
MODEL 3
REMARK VINA RESULT: -6.543291295      1.876      2.748
REMARK  14 active torsions:
REMARK  status: ('A' for Active; 'I' for Inactive)
REMARK    1  A    between atoms: C2_2  and  C3_3 
REMARK    2  A    between atoms: C3_3  and  O1_4 
REMARK    3  A    between atoms: C3_3  and  C4_6 
REMARK    4  A    between atoms: C10_12  and  C11_13 
REMARK    5  A    between atoms: C11_13  and  C12_15 
REMARK    6  A    between atoms: C12_15  and  O3_16 
REMARK    7  A    between atoms: O3_16  and  C13_17 
REMARK    8  A    between atoms: C13_17  and  C14_19 
REMARK    9  A    between atoms: C14_19  and  C15_20 
REMARK   10  A    between atoms: C16_21  and  O5_22 
REMARK   11  A    between atoms: C19_28  and  C20_29 
REMARK   12  A    between atoms: C28_40  and  O6_41 
REMARK   13  A    between atoms: O6_41  and  C29_42 
REMARK   14  A    between atoms: C29_42  and  C30_44 
ROOT
HETATM    1  C4  UNL     1       5.294  12.839  24.559  1.00  0.00     0.009 C 
HETATM    2  C5  UNL     1       3.920  13.064  25.173  1.00  0.00     0.020 C 
HETATM    3  C6  UNL     1       5.811  11.589  25.255  1.00  0.00     0.019 C 
HETATM    4  C7  UNL     1       6.783  11.826  26.336  1.00  0.00    -0.005 C 
HETATM    5  C8  UNL     1       6.796  10.808  27.433  1.00  0.00     0.006 C 
HETATM    6  C9  UNL     1       8.065  11.248  28.130  1.00  0.00     0.013 C 
HETATM    7  C10 UNL     1       9.069  11.558  26.965  1.00  0.00     0.066 C 
HETATM    8  C24 UNL     1       8.176  11.698  25.789  1.00  0.00    -0.030 C 
HETATM    9  C25 UNL     1       8.291  10.421  24.969  1.00  0.00     0.016 C 
HETATM   10  C26 UNL     1       8.363  12.836  24.859  1.00  0.00     0.013 C 
HETATM   11  C27 UNL     1       7.531  14.038  25.023  1.00  0.00     0.034 C 
HETATM   12  C28 UNL     1       6.083  14.051  24.758  1.00  0.00     0.142 C 
ENDROOT
BRANCH   7  13
HETATM   13  C11 UNL     1       9.914  12.664  27.350  1.00  0.00     0.155 C 
HETATM   14  O2  UNL     1       9.326  13.620  27.919  1.00  0.00    -0.295 OA
BRANCH  13  15
HETATM   15  C12 UNL     1      11.335  12.885  27.192  1.00  0.00     0.257 C 
BRANCH  15  16
HETATM   16  O3  UNL     1      11.802  12.870  25.820  1.00  0.00    -0.314 OA
BRANCH  16  17
HETATM   17  C13 UNL     1      12.193  11.570  25.459  1.00  0.00     0.263 C 
HETATM   18  O4  UNL     1      12.762  10.829  26.315  1.00  0.00    -0.265 OA
BRANCH  17  19
HETATM   19  C14 UNL     1      11.993  10.940  24.133  1.00  0.00     0.155 C 
BRANCH  19  20
HETATM   20  C15 UNL     1      12.896  11.590  23.123  1.00  0.00     0.014 A 
HETATM   21  C16 UNL     1      12.684  12.804  22.530  1.00  0.00     0.148 A 
HETATM   22  N1  UNL     1      13.752  13.007  21.688  1.00  0.00    -0.336 N 
HETATM   23  C17 UNL     1      14.585  11.988  21.742  1.00  0.00     0.045 A 
ATOM     24  H1  UNL     1      13.882  13.834  21.104  1.00  0.00     0.168 HD
HETATM   25  C18 UNL     1      15.773  11.734  21.076  1.00  0.00     0.046 A 
HETATM   26  C23 UNL     1      14.060  11.059  22.653  1.00  0.00     0.002 A 
HETATM   27  C19 UNL     1      16.423  10.547  21.319  1.00  0.00     0.050 A 
HETATM   28  C21 UNL     1      15.947   9.604  22.210  1.00  0.00     0.017 A 
HETATM   29  C22 UNL     1      14.769   9.898  22.852  1.00  0.00     0.015 A 
BRANCH  21  30
HETATM   30  O5  UNL     1      11.632  13.714  22.684  1.00  0.00    -0.346 OA
ATOM     31  H5  UNL     1      10.795  13.617  23.121  1.00  0.00     0.219 HD
ENDBRANCH  21  30
BRANCH  27  32
HETATM   32  C20 UNL     1      17.700  10.268  20.605  1.00  0.00     0.417 C 
HETATM   33  F1  UNL     1      18.560  11.340  20.595  1.00  0.00    -0.166 F 
HETATM   34  F2  UNL     1      18.373   9.238  21.256  1.00  0.00    -0.166 F 
HETATM   35  F3  UNL     1      17.418   9.977  19.293  1.00  0.00    -0.166 F 
ENDBRANCH  27  32
ENDBRANCH  19  20
ENDBRANCH  17  19
ENDBRANCH  16  17
ENDBRANCH  15  16
ENDBRANCH  13  15
ENDBRANCH   7  13
BRANCH   1  36
HETATM   36  C3  UNL     1       5.138  12.554  23.073  1.00  0.00     0.128 C 
BRANCH  36  37
HETATM   37  C2  UNL     1       5.012  11.144  22.655  1.00  0.00     0.028 C 
HETATM   38  C1  UNL     1       5.644  10.710  21.401  1.00  0.00     0.007 C 
ENDBRANCH  36  37
BRANCH  36  39
HETATM   39  O1  UNL     1       4.175  13.332  22.452  1.00  0.00    -0.395 OA
ATOM     40  H1  UNL     1       4.377  14.254  22.553  1.00  0.00     0.210 HD
ENDBRANCH  36  39
ENDBRANCH   1  36
BRANCH  12  41
HETATM   41  O6  UNL     1       5.540  14.886  25.802  1.00  0.00    -0.315 OA
BRANCH  41  42
HETATM   42  C29 UNL     1       5.829  16.186  25.990  1.00  0.00     0.267 C 
HETATM   43  O7  UNL     1       5.494  17.010  25.091  1.00  0.00    -0.264 OA
BRANCH  42  44
HETATM   44  C30 UNL     1       6.523  16.768  27.178  1.00  0.00     0.037 C 
HETATM   45  C31 UNL     1       5.804  18.003  27.696  1.00  0.00     0.025 C 
HETATM   46  C32 UNL     1       7.879  17.235  26.716  1.00  0.00     0.025 C 
HETATM   47  C33 UNL     1       6.677  15.760  28.300  1.00  0.00     0.025 C 
ENDBRANCH  42  44
ENDBRANCH  41  42
ENDBRANCH  12  41
TORSDOF 14
ENDMDL
MODEL 4
REMARK VINA RESULT: -6.473463042      1.007      1.329
REMARK  14 active torsions:
REMARK  status: ('A' for Active; 'I' for Inactive)
REMARK    1  A    between atoms: C2_2  and  C3_3 
REMARK    2  A    between atoms: C3_3  and  O1_4 
REMARK    3  A    between atoms: C3_3  and  C4_6 
REMARK    4  A    between atoms: C10_12  and  C11_13 
REMARK    5  A    between atoms: C11_13  and  C12_15 
REMARK    6  A    between atoms: C12_15  and  O3_16 
REMARK    7  A    between atoms: O3_16  and  C13_17 
REMARK    8  A    between atoms: C13_17  and  C14_19 
REMARK    9  A    between atoms: C14_19  and  C15_20 
REMARK   10  A    between atoms: C16_21  and  O5_22 
REMARK   11  A    between atoms: C19_28  and  C20_29 
REMARK   12  A    between atoms: C28_40  and  O6_41 
REMARK   13  A    between atoms: O6_41  and  C29_42 
REMARK   14  A    between atoms: C29_42  and  C30_44 
ROOT
HETATM    1  C4  UNL     1       4.455  11.844  25.795  1.00  0.00     0.009 C 
HETATM    2  C5  UNL     1       3.572  11.832  27.035  1.00  0.00     0.020 C 
HETATM    3  C6  UNL     1       5.698  11.075  26.218  1.00  0.00     0.019 C 
HETATM    4  C7  UNL     1       6.867  11.905  26.559  1.00  0.00    -0.005 C 
HETATM    5  C8  UNL     1       7.806  11.320  27.566  1.00  0.00     0.006 C 
HETATM    6  C9  UNL     1       8.946  12.304  27.405  1.00  0.00     0.013 C 
HETATM    7  C10 UNL     1       9.062  12.524  25.856  1.00  0.00     0.066 C 
HETATM    8  C24 UNL     1       7.756  12.031  25.354  1.00  0.00    -0.030 C 
HETATM    9  C25 UNL     1       7.988  10.657  24.742  1.00  0.00     0.016 C 
HETATM   10  C26 UNL     1       7.001  12.832  24.364  1.00  0.00     0.013 C 
HETATM   11  C27 UNL     1       5.932  13.727  24.832  1.00  0.00     0.034 C 
HETATM   12  C28 UNL     1       4.669  13.234  25.405  1.00  0.00     0.142 C 
ENDROOT
BRANCH   7  13
HETATM   13  C11 UNL     1       9.448  13.892  25.600  1.00  0.00     0.155 C 
HETATM   14  O2  UNL     1       8.969  14.746  26.389  1.00  0.00    -0.295 OA
BRANCH  13  15
HETATM   15  C12 UNL     1      10.293  14.473  24.579  1.00  0.00     0.257 C 
BRANCH  15  16
HETATM   16  O3  UNL     1      11.687  14.081  24.649  1.00  0.00    -0.314 OA
BRANCH  16  17
HETATM   17  C13 UNL     1      12.300  14.259  23.398  1.00  0.00     0.263 C 
HETATM   18  O4  UNL     1      12.993  15.298  23.185  1.00  0.00    -0.265 OA
BRANCH  17  19
HETATM   19  C14 UNL     1      12.232  13.317  22.256  1.00  0.00     0.155 C 
BRANCH  19  20
HETATM   20  C15 UNL     1      13.133  12.144  22.515  1.00  0.00     0.014 A 
HETATM   21  C16 UNL     1      12.908  11.152  23.428  1.00  0.00     0.148 A 
HETATM   22  N1  UNL     1      13.974  10.290  23.325  1.00  0.00    -0.336 N 
HETATM   23  C17 UNL     1      14.823  10.711  22.409  1.00  0.00     0.045 A 
ATOM     24  H1  UNL     1      14.092   9.442  23.881  1.00  0.00     0.168 HD
HETATM   25  C18 UNL     1      16.030  10.195  21.966  1.00  0.00     0.046 A 
HETATM   26  C23 UNL     1      14.312  11.903  21.873  1.00  0.00     0.002 A 
HETATM   27  C19 UNL     1      16.723  10.880  20.996  1.00  0.00     0.050 A 
HETATM   28  C21 UNL     1      16.257  12.056  20.436  1.00  0.00     0.017 A 
HETATM   29  C22 UNL     1      15.055  12.529  20.900  1.00  0.00     0.015 A 
BRANCH  21  30
HETATM   30  O5  UNL     1      11.846  10.969  24.321  1.00  0.00    -0.346 OA
ATOM     31  H5  UNL     1      11.589  10.203  24.821  1.00  0.00     0.219 HD
ENDBRANCH  21  30
BRANCH  27  32
HETATM   32  C20 UNL     1      18.022  10.332  20.518  1.00  0.00     0.417 C 
HETATM   33  F1  UNL     1      18.440   9.233  21.229  1.00  0.00    -0.166 F 
HETATM   34  F2  UNL     1      17.882   9.908  19.199  1.00  0.00    -0.166 F 
HETATM   35  F3  UNL     1      18.990  11.292  20.671  1.00  0.00    -0.166 F 
ENDBRANCH  27  32
ENDBRANCH  19  20
ENDBRANCH  17  19
ENDBRANCH  16  17
ENDBRANCH  15  16
ENDBRANCH  13  15
ENDBRANCH   7  13
BRANCH   1  36
HETATM   36  C3  UNL     1       3.757  11.086  24.676  1.00  0.00     0.128 C 
BRANCH  36  37
HETATM   37  C2  UNL     1       4.502   9.995  24.018  1.00  0.00     0.028 C 
HETATM   38  C1  UNL     1       4.962  10.176  22.634  1.00  0.00     0.007 C 
ENDBRANCH  36  37
BRANCH  36  39
HETATM   39  O1  UNL     1       2.474  10.674  24.995  1.00  0.00    -0.395 OA
ATOM     40  H1  UNL     1       2.476  10.169  25.799  1.00  0.00     0.210 HD
ENDBRANCH  36  39
ENDBRANCH   1  36
BRANCH  12  41
HETATM   41  O6  UNL     1       4.388  14.150  26.484  1.00  0.00    -0.315 OA
BRANCH  41  42
HETATM   42  C29 UNL     1       3.660  15.276  26.380  1.00  0.00     0.267 C 
HETATM   43  O7  UNL     1       2.399  15.180  26.414  1.00  0.00    -0.264 OA
BRANCH  42  44
HETATM   44  C30 UNL     1       4.201  16.659  26.224  1.00  0.00     0.037 C 
HETATM   45  C31 UNL     1       5.565  16.804  26.880  1.00  0.00     0.025 C 
HETATM   46  C32 UNL     1       3.277  17.586  26.971  1.00  0.00     0.025 C 
HETATM   47  C33 UNL     1       4.289  17.078  24.769  1.00  0.00     0.025 C 
ENDBRANCH  42  44
ENDBRANCH  41  42
ENDBRANCH  12  41
TORSDOF 14
ENDMDL
MODEL 5
REMARK VINA RESULT: -6.407996820      3.058      4.354
REMARK  14 active torsions:
REMARK  status: ('A' for Active; 'I' for Inactive)
REMARK    1  A    between atoms: C2_2  and  C3_3 
REMARK    2  A    between atoms: C3_3  and  O1_4 
REMARK    3  A    between atoms: C3_3  and  C4_6 
REMARK    4  A    between atoms: C10_12  and  C11_13 
REMARK    5  A    between atoms: C11_13  and  C12_15 
REMARK    6  A    between atoms: C12_15  and  O3_16 
REMARK    7  A    between atoms: O3_16  and  C13_17 
REMARK    8  A    between atoms: C13_17  and  C14_19 
REMARK    9  A    between atoms: C14_19  and  C15_20 
REMARK   10  A    between atoms: C16_21  and  O5_22 
REMARK   11  A    between atoms: C19_28  and  C20_29 
REMARK   12  A    between atoms: C28_40  and  O6_41 
REMARK   13  A    between atoms: O6_41  and  C29_42 
REMARK   14  A    between atoms: C29_42  and  C30_44 
ROOT
HETATM    1  C4  UNL     1       5.327  11.999  23.947  1.00  0.00     0.009 C 
HETATM    2  C5  UNL     1       4.071  11.235  24.341  1.00  0.00     0.020 C 
HETATM    3  C6  UNL     1       6.396  11.468  24.888  1.00  0.00     0.019 C 
HETATM    4  C7  UNL     1       6.718  12.339  26.032  1.00  0.00    -0.005 C 
HETATM    5  C8  UNL     1       7.192  11.639  27.268  1.00  0.00     0.006 C 
HETATM    6  C9  UNL     1       7.667  12.851  28.041  1.00  0.00     0.013 C 
HETATM    7  C10 UNL     1       8.408  13.733  26.977  1.00  0.00     0.066 C 
HETATM    8  C24 UNL     1       7.909  13.188  25.691  1.00  0.00    -0.030 C 
HETATM    9  C25 UNL     1       9.009  12.318  25.102  1.00  0.00     0.016 C 
HETATM   10  C26 UNL     1       7.464  14.116  24.625  1.00  0.00     0.013 C 
HETATM   11  C27 UNL     1       6.031  14.420  24.493  1.00  0.00     0.034 C 
HETATM   12  C28 UNL     1       5.039  13.426  24.051  1.00  0.00     0.142 C 
ENDROOT
BRANCH   7  13
HETATM   13  C11 UNL     1       8.194  15.128  27.286  1.00  0.00     0.155 C 
HETATM   14  O2  UNL     1       7.064  15.409  27.760  1.00  0.00    -0.295 OA
BRANCH  13  15
HETATM   15  C12 UNL     1       9.052  16.284  27.141  1.00  0.00     0.257 C 
BRANCH  15  16
HETATM   16  O3  UNL     1       8.615  17.243  26.146  1.00  0.00    -0.314 OA
BRANCH  16  17
HETATM   17  C13 UNL     1       9.536  18.300  26.059  1.00  0.00     0.263 C 
HETATM   18  O4  UNL     1       9.858  18.934  27.108  1.00  0.00    -0.265 OA
BRANCH  17  19
HETATM   19  C14 UNL     1      10.209  18.766  24.825  1.00  0.00     0.155 C 
BRANCH  19  20
HETATM   20  C15 UNL     1      11.471  17.980  24.610  1.00  0.00     0.014 A 
HETATM   21  C16 UNL     1      12.736  18.406  24.910  1.00  0.00     0.148 A 
HETATM   22  N1  UNL     1      13.577  17.377  24.559  1.00  0.00    -0.336 N 
HETATM   23  C17 UNL     1      12.891  16.365  24.066  1.00  0.00     0.045 A 
ATOM     24  H1  UNL     1      14.591  17.393  24.667  1.00  0.00     0.168 HD
HETATM   25  C18 UNL     1      13.292  15.135  23.572  1.00  0.00     0.046 A 
HETATM   26  C23 UNL     1      11.535  16.725  24.082  1.00  0.00     0.002 A 
HETATM   27  C19 UNL     1      12.335  14.276  23.089  1.00  0.00     0.050 A 
HETATM   28  C21 UNL     1      10.987  14.585  23.087  1.00  0.00     0.017 A 
HETATM   29  C22 UNL     1      10.632  15.812  23.590  1.00  0.00     0.015 A 
BRANCH  21  30
HETATM   30  O5  UNL     1      13.176  19.616  25.459  1.00  0.00    -0.346 OA
ATOM     31  H5  UNL     1      13.175  19.918  26.359  1.00  0.00     0.219 HD
ENDBRANCH  21  30
BRANCH  27  32
HETATM   32  C20 UNL     1      12.760  12.952  22.554  1.00  0.00     0.417 C 
HETATM   33  F1  UNL     1      14.108  12.724  22.686  1.00  0.00    -0.166 F 
HETATM   34  F2  UNL     1      12.125  11.943  23.273  1.00  0.00    -0.166 F 
HETATM   35  F3  UNL     1      12.482  12.908  21.211  1.00  0.00    -0.166 F 
ENDBRANCH  27  32
ENDBRANCH  19  20
ENDBRANCH  17  19
ENDBRANCH  16  17
ENDBRANCH  15  16
ENDBRANCH  13  15
ENDBRANCH   7  13
BRANCH   1  36
HETATM   36  C3  UNL     1       5.701  11.643  22.516  1.00  0.00     0.128 C 
BRANCH  36  37
HETATM   37  C2  UNL     1       5.338  10.299  22.027  1.00  0.00     0.028 C 
HETATM   38  C1  UNL     1       5.707   9.911  20.658  1.00  0.00     0.007 C 
ENDBRANCH  36  37
BRANCH  36  39
HETATM   39  O1  UNL     1       5.349  12.609  21.588  1.00  0.00    -0.395 OA
ATOM     40  H1  UNL     1       5.586  13.474  21.901  1.00  0.00     0.210 HD
ENDBRANCH  36  39
ENDBRANCH   1  36
BRANCH  12  41
HETATM   41  O6  UNL     1       3.885  13.688  24.876  1.00  0.00    -0.315 OA
BRANCH  41  42
HETATM   42  C29 UNL     1       2.864  14.503  24.552  1.00  0.00     0.267 C 
HETATM   43  O7  UNL     1       2.064  14.131  23.646  1.00  0.00    -0.264 OA
BRANCH  42  44
HETATM   44  C30 UNL     1       2.575  15.833  25.167  1.00  0.00     0.037 C 
HETATM   45  C31 UNL     1       3.219  16.964  24.383  1.00  0.00     0.025 C 
HETATM   46  C32 UNL     1       3.223  15.844  26.528  1.00  0.00     0.025 C 
HETATM   47  C33 UNL     1       1.086  16.090  25.301  1.00  0.00     0.025 C 
ENDBRANCH  42  44
ENDBRANCH  41  42
ENDBRANCH  12  41
TORSDOF 14
ENDMDL
