MODEL 1
REMARK VINA RESULT: -6.295865970      0.000      0.000
REMARK  9 active torsions:
REMARK  status: ('A' for Active; 'I' for Inactive)
REMARK    1  A    between atoms: O1_2  and  C2_3 
REMARK    2  A    between atoms: C3_4  and  C4_5 
REMARK    3  A    between atoms: C7_9  and  O3_10 
REMARK    4  A    between atoms: C8_12  and  C9_13 
REMARK    5  A    between atoms: C14_19  and  O5_20 
REMARK    6  A    between atoms: O5_20  and  C15_21 
REMARK       I    between atoms: C15_21  and  N1_23 
REMARK    7  A    between atoms: N1_23  and  C16_25 
REMARK    8  A    between atoms: C19_28  and  C20_29 
REMARK    9  A    between atoms: C20_29  and  C21_30 
ROOT
HETATM    1  C2  UNL     1       3.564  15.925  27.044  1.00  0.00     0.093 A 
HETATM    2  C3  UNL     1       4.704  15.312  27.497  1.00  0.00     0.070 A 
HETATM    3  C5  UNL     1       4.923  13.925  27.416  1.00  0.00     0.102 A 
HETATM    4  C6  UNL     1       3.910  13.190  26.838  1.00  0.00     0.078 A 
HETATM    5  C7  UNL     1       2.756  13.816  26.382  1.00  0.00     0.091 A 
HETATM    6  C8  UNL     1       2.550  15.195  26.472  1.00  0.00     0.014 A 
HETATM    7  C12 UNL     1       3.978  11.742  26.606  1.00  0.00     0.167 C 
HETATM    8  O4  UNL     1       3.030  11.008  26.964  1.00  0.00    -0.292 OA
HETATM    9  C13 UNL     1       5.146  11.052  25.945  1.00  0.00     0.116 C 
HETATM   10  C14 UNL     1       4.921  10.672  24.535  1.00  0.00     0.141 C 
HETATM   11  C24 UNL     1       5.588  11.563  23.513  1.00  0.00     0.033 C 
HETATM   12  C25 UNL     1       6.950  11.008  23.038  1.00  0.00     0.002 C 
HETATM   13  C26 UNL     1       7.877  11.302  24.200  1.00  0.00     0.000 C 
HETATM   14  C27 UNL     1       9.333  11.208  23.962  1.00  0.00     0.000 C 
HETATM   15  C28 UNL     1       9.997  10.687  25.220  1.00  0.00     0.000 C 
HETATM   16  C29 UNL     1      10.027  11.677  26.371  1.00  0.00     0.000 C 
HETATM   17  C30 UNL     1       8.775  11.740  27.129  1.00  0.00     0.000 C 
HETATM   18  C31 UNL     1       8.774  12.067  28.583  1.00  0.00     0.002 C 
HETATM   19  C32 UNL     1       7.378  11.597  29.045  1.00  0.00     0.032 C 
HETATM   20  C33 UNL     1       6.340  12.638  29.079  1.00  0.00     0.125 C 
HETATM   21  C34 UNL     1       5.109  12.082  29.730  1.00  0.00     0.040 C 
HETATM   22  O7  UNL     1       6.101  13.386  27.909  1.00  0.00    -0.344 OA
ENDROOT
BRANCH  10  23
HETATM   23  O5  UNL     1       5.233   9.356  24.190  1.00  0.00    -0.298 OA
BRANCH  23  24
HETATM   24  C15 UNL     1       4.417   8.529  23.387  1.00  0.00     0.365 C 
HETATM   25  O6  UNL     1       4.337   8.938  22.226  1.00  0.00    -0.238 OA
HETATM   26  N1  UNL     1       3.820   7.408  23.936  1.00  0.00    -0.303 N 
ATOM     27  H1  UNL     1       4.000   7.220  24.922  1.00  0.00     0.171 HD
BRANCH  26  28
HETATM   28  C16 UNL     1       2.984   6.505  23.249  1.00  0.00     0.039 A 
HETATM   29  C17 UNL     1       1.684   6.924  22.904  1.00  0.00     0.030 A 
HETATM   30  C18 UNL     1       0.818   6.125  22.232  1.00  0.00     0.012 A 
HETATM   31  C19 UNL     1       1.193   4.846  21.856  1.00  0.00    -0.017 A 
HETATM   32  C22 UNL     1       2.462   4.429  22.190  1.00  0.00     0.124 A 
HETATM   33  F2  UNL     1       2.877   3.170  21.838  1.00  0.00    -0.205 F 
HETATM   34  C23 UNL     1       3.360   5.248  22.882  1.00  0.00     0.072 A 
BRANCH  31  35
HETATM   35  C20 UNL     1       0.263   3.957  21.124  1.00  0.00     0.073 C 
BRANCH  35  36
HETATM   36  C21 UNL     1       0.287   4.313  19.638  1.00  0.00     0.227 C 
HETATM   37  F1  UNL     1       1.490   4.846  19.271  1.00  0.00    -0.255 F 
ENDBRANCH  35  36
ENDBRANCH  31  35
ENDBRANCH  26  28
ENDBRANCH  23  24
ENDBRANCH  10  23
BRANCH   5  38
HETATM   38  O3  UNL     1       1.735  13.085  25.806  1.00  0.00    -0.359 OA
ATOM     39  H3  UNL     1       0.851  13.429  25.768  1.00  0.00     0.217 HD
ENDBRANCH   5  38
BRANCH   2  40
HETATM   40  C4  UNL     1       5.712  16.240  28.051  1.00  0.00     0.275 C 
HETATM   41  O2  UNL     1       6.626  16.650  27.328  1.00  0.00    -0.301 OA
ENDBRANCH   2  40
BRANCH   6  42
HETATM   42  C9  UNL     1       1.325  15.878  25.991  1.00  0.00     0.016 C 
HETATM   43  C10 UNL     1       0.828  15.530  24.647  1.00  0.00     0.015 C 
HETATM   44  C11 UNL     1       0.221  15.526  26.996  1.00  0.00     0.015 C 
ENDBRANCH   6  42
BRANCH   1  45
HETATM   45  O1  UNL     1       3.376  17.309  27.140  1.00  0.00    -0.354 OA
HETATM   46  C1  UNL     1       2.830  17.922  28.299  1.00  0.00     0.210 C 
ENDBRANCH   1  45
TORSDOF 9
ENDMDL
MODEL 2
REMARK VINA RESULT: -6.240224268      6.967     10.261
REMARK  9 active torsions:
REMARK  status: ('A' for Active; 'I' for Inactive)
REMARK    1  A    between atoms: O1_2  and  C2_3 
REMARK    2  A    between atoms: C3_4  and  C4_5 
REMARK    3  A    between atoms: C7_9  and  O3_10 
REMARK    4  A    between atoms: C8_12  and  C9_13 
REMARK    5  A    between atoms: C14_19  and  O5_20 
REMARK    6  A    between atoms: O5_20  and  C15_21 
REMARK       I    between atoms: C15_21  and  N1_23 
REMARK    7  A    between atoms: N1_23  and  C16_25 
REMARK    8  A    between atoms: C19_28  and  C20_29 
REMARK    9  A    between atoms: C20_29  and  C21_30 
ROOT
HETATM    1  C2  UNL     1       9.574  17.672  26.055  1.00  0.00     0.093 A 
HETATM    2  C3  UNL     1       8.866  16.577  26.480  1.00  0.00     0.070 A 
HETATM    3  C5  UNL     1       9.181  15.258  26.108  1.00  0.00     0.102 A 
HETATM    4  C6  UNL     1      10.269  15.112  25.276  1.00  0.00     0.078 A 
HETATM    5  C7  UNL     1      10.983  16.224  24.847  1.00  0.00     0.091 A 
HETATM    6  C8  UNL     1      10.658  17.530  25.222  1.00  0.00     0.014 A 
HETATM    7  C12 UNL     1      10.793  13.814  24.831  1.00  0.00     0.167 C 
HETATM    8  O4  UNL     1      11.027  13.620  23.617  1.00  0.00    -0.292 OA
HETATM    9  C13 UNL     1      11.078  12.660  25.761  1.00  0.00     0.116 C 
HETATM   10  C14 UNL     1      12.509  12.463  26.077  1.00  0.00     0.141 C 
HETATM   11  C24 UNL     1      12.937  12.944  27.445  1.00  0.00     0.033 C 
HETATM   12  C25 UNL     1      12.949  11.811  28.496  1.00  0.00     0.002 C 
HETATM   13  C26 UNL     1      11.481  11.601  28.807  1.00  0.00     0.000 C 
HETATM   14  C27 UNL     1      11.136  10.822  30.016  1.00  0.00     0.000 C 
HETATM   15  C28 UNL     1       9.881  10.023  29.735  1.00  0.00     0.000 C 
HETATM   16  C29 UNL     1       8.614  10.853  29.641  1.00  0.00     0.000 C 
HETATM   17  C30 UNL     1       8.424  11.495  28.337  1.00  0.00     0.000 C 
HETATM   18  C31 UNL     1       7.058  11.754  27.801  1.00  0.00     0.002 C 
HETATM   19  C32 UNL     1       7.315  12.005  26.300  1.00  0.00     0.032 C 
HETATM   20  C33 UNL     1       7.449  13.416  25.908  1.00  0.00     0.125 C 
HETATM   21  C34 UNL     1       7.493  13.507  24.412  1.00  0.00     0.040 C 
HETATM   22  O7  UNL     1       8.403  14.209  26.575  1.00  0.00    -0.344 OA
ENDROOT
BRANCH  10  23
HETATM   23  O5  UNL     1      13.003  11.166  25.930  1.00  0.00    -0.298 OA
BRANCH  23  24
HETATM   24  C15 UNL     1      13.854  10.754  24.882  1.00  0.00     0.365 C 
HETATM   25  O6  UNL     1      13.889   9.527  24.765  1.00  0.00    -0.238 OA
HETATM   26  N1  UNL     1      14.526  11.699  24.128  1.00  0.00    -0.303 N 
ATOM     27  H1  UNL     1      14.375  12.680  24.365  1.00  0.00     0.171 HD
BRANCH  26  28
HETATM   28  C16 UNL     1      15.403  11.423  23.059  1.00  0.00     0.039 A 
HETATM   29  C17 UNL     1      15.057  11.881  21.772  1.00  0.00     0.030 A 
HETATM   30  C18 UNL     1      15.847  11.670  20.689  1.00  0.00     0.012 A 
HETATM   31  C19 UNL     1      17.042  10.984  20.818  1.00  0.00    -0.017 A 
HETATM   32  C22 UNL     1      17.388  10.532  22.073  1.00  0.00     0.124 A 
HETATM   33  F2  UNL     1      18.563   9.848  22.248  1.00  0.00    -0.205 F 
HETATM   34  C23 UNL     1      16.578  10.747  23.193  1.00  0.00     0.072 A 
BRANCH  31  35
HETATM   35  C20 UNL     1      17.919  10.741  19.651  1.00  0.00     0.073 C 
BRANCH  35  36
HETATM   36  C21 UNL     1      18.662  12.030  19.299  1.00  0.00     0.227 C 
HETATM   37  F1  UNL     1      17.970  12.771  18.384  1.00  0.00    -0.255 F 
ENDBRANCH  35  36
ENDBRANCH  31  35
ENDBRANCH  26  28
ENDBRANCH  23  24
ENDBRANCH  10  23
BRANCH   5  38
HETATM   38  O3  UNL     1      12.074  16.086  24.009  1.00  0.00    -0.359 OA
ATOM     39  H3  UNL     1      12.141  16.593  23.209  1.00  0.00     0.217 HD
ENDBRANCH   5  38
BRANCH   2  40
HETATM   40  C4  UNL     1       7.754  16.895  27.400  1.00  0.00     0.275 C 
HETATM   41  O2  UNL     1       6.603  16.980  26.961  1.00  0.00    -0.301 OA
ENDBRANCH   2  40
BRANCH   6  42
HETATM   42  C9  UNL     1      11.409  18.727  24.772  1.00  0.00     0.016 C 
HETATM   43  C10 UNL     1      12.801  18.877  25.233  1.00  0.00     0.015 C 
HETATM   44  C11 UNL     1      11.434  18.661  23.239  1.00  0.00     0.015 C 
ENDBRANCH   6  42
BRANCH   1  45
HETATM   45  O1  UNL     1       9.236  18.974  26.443  1.00  0.00    -0.354 OA
HETATM   46  C1  UNL     1       9.801  19.595  27.588  1.00  0.00     0.210 C 
ENDBRANCH   1  45
TORSDOF 9
ENDMDL
MODEL 3
REMARK VINA RESULT: -6.238635912      5.145      8.504
REMARK  9 active torsions:
REMARK  status: ('A' for Active; 'I' for Inactive)
REMARK    1  A    between atoms: O1_2  and  C2_3 
REMARK    2  A    between atoms: C3_4  and  C4_5 
REMARK    3  A    between atoms: C7_9  and  O3_10 
REMARK    4  A    between atoms: C8_12  and  C9_13 
REMARK    5  A    between atoms: C14_19  and  O5_20 
REMARK    6  A    between atoms: O5_20  and  C15_21 
REMARK       I    between atoms: C15_21  and  N1_23 
REMARK    7  A    between atoms: N1_23  and  C16_25 
REMARK    8  A    between atoms: C19_28  and  C20_29 
REMARK    9  A    between atoms: C20_29  and  C21_30 
ROOT
HETATM    1  C2  UNL     1       4.293  14.497  24.257  1.00  0.00     0.093 A 
HETATM    2  C3  UNL     1       4.745  15.390  25.195  1.00  0.00     0.070 A 
HETATM    3  C5  UNL     1       5.964  15.245  25.879  1.00  0.00     0.102 A 
HETATM    4  C6  UNL     1       6.709  14.133  25.551  1.00  0.00     0.078 A 
HETATM    5  C7  UNL     1       6.246  13.230  24.602  1.00  0.00     0.091 A 
HETATM    6  C8  UNL     1       5.030  13.384  23.930  1.00  0.00     0.014 A 
HETATM    7  C12 UNL     1       8.036  13.840  26.108  1.00  0.00     0.167 C 
HETATM    8  O4  UNL     1       8.280  12.704  26.573  1.00  0.00    -0.292 OA
HETATM    9  C13 UNL     1       9.162  14.843  26.163  1.00  0.00     0.116 C 
HETATM   10  C14 UNL     1      10.205  14.655  25.132  1.00  0.00     0.141 C 
HETATM   11  C24 UNL     1      10.145  15.624  23.973  1.00  0.00     0.033 C 
HETATM   12  C25 UNL     1      11.093  16.830  24.156  1.00  0.00     0.002 C 
HETATM   13  C26 UNL     1      10.376  17.692  25.177  1.00  0.00     0.000 C 
HETATM   14  C27 UNL     1      10.833  19.088  25.344  1.00  0.00     0.000 C 
HETATM   15  C28 UNL     1      10.688  19.474  26.801  1.00  0.00     0.000 C 
HETATM   16  C29 UNL     1       9.254  19.657  27.263  1.00  0.00     0.000 C 
HETATM   17  C30 UNL     1       8.574  18.400  27.591  1.00  0.00     0.000 C 
HETATM   18  C31 UNL     1       7.512  18.351  28.635  1.00  0.00     0.002 C 
HETATM   19  C32 UNL     1       7.407  16.845  28.954  1.00  0.00     0.032 C 
HETATM   20  C33 UNL     1       6.356  16.117  28.228  1.00  0.00     0.125 C 
HETATM   21  C34 UNL     1       6.247  14.730  28.785  1.00  0.00     0.040 C 
HETATM   22  O7  UNL     1       6.340  16.191  26.821  1.00  0.00    -0.344 OA
ENDROOT
BRANCH  10  23
HETATM   23  O5  UNL     1      11.526  14.643  25.581  1.00  0.00    -0.298 OA
BRANCH  23  24
HETATM   24  C15 UNL     1      12.255  13.470  25.873  1.00  0.00     0.365 C 
HETATM   25  O6  UNL     1      13.464  13.687  25.981  1.00  0.00    -0.238 OA
HETATM   26  N1  UNL     1      11.593  12.261  26.004  1.00  0.00    -0.303 N 
ATOM     27  H1  UNL     1      10.581  12.268  25.884  1.00  0.00     0.171 HD
BRANCH  26  28
HETATM   28  C16 UNL     1      12.200  11.021  26.291  1.00  0.00     0.039 A 
HETATM   29  C17 UNL     1      12.440  10.131  25.226  1.00  0.00     0.030 A 
HETATM   30  C18 UNL     1      13.029   8.922  25.408  1.00  0.00     0.012 A 
HETATM   31  C19 UNL     1      13.422   8.519  26.673  1.00  0.00    -0.017 A 
HETATM   32  C22 UNL     1      13.191   9.385  27.720  1.00  0.00     0.124 A 
HETATM   33  F2  UNL     1      13.563   9.027  28.991  1.00  0.00    -0.205 F 
HETATM   34  C23 UNL     1      12.583  10.632  27.538  1.00  0.00     0.072 A 
BRANCH  31  35
HETATM   35  C20 UNL     1      14.065   7.205  26.896  1.00  0.00     0.073 C 
BRANCH  35  36
HETATM   36  C21 UNL     1      15.578   7.395  27.011  1.00  0.00     0.227 C 
HETATM   37  F1  UNL     1      16.060   8.178  26.000  1.00  0.00    -0.255 F 
ENDBRANCH  35  36
ENDBRANCH  31  35
ENDBRANCH  26  28
ENDBRANCH  23  24
ENDBRANCH  10  23
BRANCH   5  38
HETATM   38  O3  UNL     1       6.985  12.110  24.270  1.00  0.00    -0.359 OA
ATOM     39  H3  UNL     1       7.589  12.124  23.537  1.00  0.00     0.217 HD
ENDBRANCH   5  38
BRANCH   2  40
HETATM   40  C4  UNL     1       3.854  16.551  25.404  1.00  0.00     0.275 C 
HETATM   41  O2  UNL     1       4.049  17.592  24.768  1.00  0.00    -0.301 OA
ENDBRANCH   2  40
BRANCH   6  42
HETATM   42  C9  UNL     1       4.523  12.429  22.915  1.00  0.00     0.016 C 
HETATM   43  C10 UNL     1       5.448  12.004  21.850  1.00  0.00     0.015 C 
HETATM   44  C11 UNL     1       4.098  11.174  23.689  1.00  0.00     0.015 C 
ENDBRANCH   6  42
BRANCH   1  45
HETATM   45  O1  UNL     1       3.073  14.669  23.592  1.00  0.00    -0.354 OA
HETATM   46  C1  UNL     1       1.831  14.314  24.182  1.00  0.00     0.210 C 
ENDBRANCH   1  45
TORSDOF 9
ENDMDL
MODEL 4
REMARK VINA RESULT: -6.189540210      5.387      9.117
REMARK  9 active torsions:
REMARK  status: ('A' for Active; 'I' for Inactive)
REMARK    1  A    between atoms: O1_2  and  C2_3 
REMARK    2  A    between atoms: C3_4  and  C4_5 
REMARK    3  A    between atoms: C7_9  and  O3_10 
REMARK    4  A    between atoms: C8_12  and  C9_13 
REMARK    5  A    between atoms: C14_19  and  O5_20 
REMARK    6  A    between atoms: O5_20  and  C15_21 
REMARK       I    between atoms: C15_21  and  N1_23 
REMARK    7  A    between atoms: N1_23  and  C16_25 
REMARK    8  A    between atoms: C19_28  and  C20_29 
REMARK    9  A    between atoms: C20_29  and  C21_30 
ROOT
HETATM    1  C2  UNL     1       5.598  10.995  30.421  1.00  0.00     0.093 A 
HETATM    2  C3  UNL     1       5.036  11.885  29.542  1.00  0.00     0.070 A 
HETATM    3  C5  UNL     1       5.778  12.615  28.598  1.00  0.00     0.102 A 
HETATM    4  C6  UNL     1       7.136  12.386  28.593  1.00  0.00     0.078 A 
HETATM    5  C7  UNL     1       7.702  11.484  29.486  1.00  0.00     0.091 A 
HETATM    6  C8  UNL     1       6.954  10.765  30.422  1.00  0.00     0.014 A 
HETATM    7  C12 UNL     1       8.069  13.003  27.641  1.00  0.00     0.167 C 
HETATM    8  O4  UNL     1       9.115  13.549  28.058  1.00  0.00    -0.292 OA
HETATM    9  C13 UNL     1       7.851  13.027  26.148  1.00  0.00     0.116 C 
HETATM   10  C14 UNL     1       8.656  12.044  25.392  1.00  0.00     0.141 C 
HETATM   11  C24 UNL     1       7.901  10.822  24.920  1.00  0.00     0.033 C 
HETATM   12  C25 UNL     1       7.406  10.955  23.462  1.00  0.00     0.002 C 
HETATM   13  C26 UNL     1       6.221  11.893  23.575  1.00  0.00     0.000 C 
HETATM   14  C27 UNL     1       5.299  11.981  22.423  1.00  0.00     0.000 C 
HETATM   15  C28 UNL     1       4.792  13.404  22.316  1.00  0.00     0.000 C 
HETATM   16  C29 UNL     1       3.817  13.808  23.408  1.00  0.00     0.000 C 
HETATM   17  C30 UNL     1       4.464  14.196  24.664  1.00  0.00     0.000 C 
HETATM   18  C31 UNL     1       3.845  15.208  25.566  1.00  0.00     0.002 C 
HETATM   19  C32 UNL     1       5.017  15.622  26.481  1.00  0.00     0.032 C 
HETATM   20  C33 UNL     1       5.097  14.913  27.766  1.00  0.00     0.125 C 
HETATM   21  C34 UNL     1       6.151  15.557  28.616  1.00  0.00     0.040 C 
HETATM   22  O7  UNL     1       5.129  13.504  27.754  1.00  0.00    -0.344 OA
ENDROOT
BRANCH  10  23
HETATM   23  O5  UNL     1       9.360  12.535  24.292  1.00  0.00    -0.298 OA
BRANCH  23  24
HETATM   24  C15 UNL     1      10.768  12.528  24.182  1.00  0.00     0.365 C 
HETATM   25  O6  UNL     1      11.309  13.180  25.078  1.00  0.00    -0.238 OA
HETATM   26  N1  UNL     1      11.375  11.836  23.149  1.00  0.00    -0.303 N 
ATOM     27  H1  UNL     1      10.766  11.346  22.494  1.00  0.00     0.171 HD
BRANCH  26  28
HETATM   28  C16 UNL     1      12.765  11.751  22.925  1.00  0.00     0.039 A 
HETATM   29  C17 UNL     1      13.326  12.532  21.895  1.00  0.00     0.030 A 
HETATM   30  C18 UNL     1      14.654  12.522  21.618  1.00  0.00     0.012 A 
HETATM   31  C19 UNL     1      15.516  11.727  22.354  1.00  0.00    -0.017 A 
HETATM   32  C22 UNL     1      14.975  10.960  23.362  1.00  0.00     0.124 A 
HETATM   33  F2  UNL     1      15.791  10.158  24.118  1.00  0.00    -0.205 F 
HETATM   34  C23 UNL     1      13.607  10.967  23.653  1.00  0.00     0.072 A 
BRANCH  31  35
HETATM   35  C20 UNL     1      16.968  11.698  22.068  1.00  0.00     0.073 C 
BRANCH  35  36
HETATM   36  C21 UNL     1      17.201  11.069  20.694  1.00  0.00     0.227 C 
HETATM   37  F1  UNL     1      16.500   9.905  20.553  1.00  0.00    -0.255 F 
ENDBRANCH  35  36
ENDBRANCH  31  35
ENDBRANCH  26  28
ENDBRANCH  23  24
ENDBRANCH  10  23
BRANCH   5  38
HETATM   38  O3  UNL     1       9.065  11.251  29.490  1.00  0.00    -0.359 OA
ATOM     39  H3  UNL     1       9.469  10.736  30.178  1.00  0.00     0.217 HD
ENDBRANCH   5  38
BRANCH   2  40
HETATM   40  C4  UNL     1       3.565  11.988  29.644  1.00  0.00     0.275 C 
HETATM   41  O2  UNL     1       2.853  11.298  28.907  1.00  0.00    -0.301 OA
ENDBRANCH   2  40
BRANCH   6  42
HETATM   42  C9  UNL     1       7.542   9.801  31.382  1.00  0.00     0.016 C 
HETATM   43  C10 UNL     1       8.564   8.866  30.876  1.00  0.00     0.015 C 
HETATM   44  C11 UNL     1       8.193  10.644  32.486  1.00  0.00     0.015 C 
ENDBRANCH   6  42
BRANCH   1  45
HETATM   45  O1  UNL     1       4.832  10.281  31.351  1.00  0.00    -0.354 OA
HETATM   46  C1  UNL     1       4.472  10.824  32.612  1.00  0.00     0.210 C 
ENDBRANCH   1  45
TORSDOF 9
ENDMDL
MODEL 5
REMARK VINA RESULT: -6.172782705      4.987      8.514
REMARK  9 active torsions:
REMARK  status: ('A' for Active; 'I' for Inactive)
REMARK    1  A    between atoms: O1_2  and  C2_3 
REMARK    2  A    between atoms: C3_4  and  C4_5 
REMARK    3  A    between atoms: C7_9  and  O3_10 
REMARK    4  A    between atoms: C8_12  and  C9_13 
REMARK    5  A    between atoms: C14_19  and  O5_20 
REMARK    6  A    between atoms: O5_20  and  C15_21 
REMARK       I    between atoms: C15_21  and  N1_23 
REMARK    7  A    between atoms: N1_23  and  C16_25 
REMARK    8  A    between atoms: C19_28  and  C20_29 
REMARK    9  A    between atoms: C20_29  and  C21_30 
ROOT
HETATM    1  C2  UNL     1       4.341  14.492  24.292  1.00  0.00     0.093 A 
HETATM    2  C3  UNL     1       4.787  15.391  25.227  1.00  0.00     0.070 A 
HETATM    3  C5  UNL     1       6.011  15.260  25.906  1.00  0.00     0.102 A 
HETATM    4  C6  UNL     1       6.766  14.156  25.577  1.00  0.00     0.078 A 
HETATM    5  C7  UNL     1       6.309  13.247  24.631  1.00  0.00     0.091 A 
HETATM    6  C8  UNL     1       5.089  13.387  23.964  1.00  0.00     0.014 A 
HETATM    7  C12 UNL     1       8.098  13.879  26.129  1.00  0.00     0.167 C 
HETATM    8  O4  UNL     1       8.357  12.746  26.595  1.00  0.00    -0.292 OA
HETATM    9  C13 UNL     1       9.214  14.893  26.178  1.00  0.00     0.116 C 
HETATM   10  C14 UNL     1      10.254  14.716  25.143  1.00  0.00     0.141 C 
HETATM   11  C24 UNL     1      10.179  15.682  23.983  1.00  0.00     0.033 C 
HETATM   12  C25 UNL     1      11.115  16.898  24.161  1.00  0.00     0.002 C 
HETATM   13  C26 UNL     1      10.393  17.754  25.183  1.00  0.00     0.000 C 
HETATM   14  C27 UNL     1      10.836  19.155  25.346  1.00  0.00     0.000 C 
HETATM   15  C28 UNL     1      10.693  19.541  26.803  1.00  0.00     0.000 C 
HETATM   16  C29 UNL     1       9.258  19.710  27.271  1.00  0.00     0.000 C 
HETATM   17  C30 UNL     1       8.593  18.447  27.603  1.00  0.00     0.000 C 
HETATM   18  C31 UNL     1       7.536  18.388  28.652  1.00  0.00     0.002 C 
HETATM   19  C32 UNL     1       7.448  16.881  28.973  1.00  0.00     0.032 C 
HETATM   20  C33 UNL     1       6.403  16.141  28.252  1.00  0.00     0.125 C 
HETATM   21  C34 UNL     1       6.311  14.753  28.812  1.00  0.00     0.040 C 
HETATM   22  O7  UNL     1       6.380  16.212  26.846  1.00  0.00    -0.344 OA
ENDROOT
BRANCH  10  23
HETATM   23  O5  UNL     1      11.577  14.718  25.587  1.00  0.00    -0.298 OA
BRANCH  23  24
HETATM   24  C15 UNL     1      12.203  13.626  26.227  1.00  0.00     0.365 C 
HETATM   25  O6  UNL     1      13.253  13.952  26.786  1.00  0.00    -0.238 OA
HETATM   26  N1  UNL     1      11.622  12.371  26.174  1.00  0.00    -0.303 N 
ATOM     27  H1  UNL     1      10.743  12.285  25.664  1.00  0.00     0.171 HD
BRANCH  26  28
HETATM   28  C16 UNL     1      12.142  11.201  26.765  1.00  0.00     0.039 A 
HETATM   29  C17 UNL     1      11.933  10.998  28.143  1.00  0.00     0.030 A 
HETATM   30  C18 UNL     1      12.387   9.896  28.792  1.00  0.00     0.012 A 
HETATM   31  C19 UNL     1      13.085   8.917  28.104  1.00  0.00    -0.017 A 
HETATM   32  C22 UNL     1      13.294   9.109  26.756  1.00  0.00     0.124 A 
HETATM   33  F2  UNL     1      13.979   8.166  26.034  1.00  0.00    -0.205 F 
HETATM   34  C23 UNL     1      12.827  10.243  26.083  1.00  0.00     0.072 A 
BRANCH  31  35
HETATM   35  C20 UNL     1      13.592   7.708  28.791  1.00  0.00     0.073 C 
BRANCH  35  36
HETATM   36  C21 UNL     1      12.787   7.478  30.071  1.00  0.00     0.227 C 
HETATM   37  F1  UNL     1      12.845   6.173  30.469  1.00  0.00    -0.255 F 
ENDBRANCH  35  36
ENDBRANCH  31  35
ENDBRANCH  26  28
ENDBRANCH  23  24
ENDBRANCH  10  23
BRANCH   5  38
HETATM   38  O3  UNL     1       7.059  12.134  24.298  1.00  0.00    -0.359 OA
ATOM     39  H3  UNL     1       6.806  11.576  23.572  1.00  0.00     0.217 HD
ENDBRANCH   5  38
BRANCH   2  40
HETATM   40  C4  UNL     1       3.885  16.543  25.438  1.00  0.00     0.275 C 
HETATM   41  O2  UNL     1       4.061  17.582  24.794  1.00  0.00    -0.301 OA
ENDBRANCH   2  40
BRANCH   6  42
HETATM   42  C9  UNL     1       4.588  12.425  22.953  1.00  0.00     0.016 C 
HETATM   43  C10 UNL     1       5.514  12.005  21.887  1.00  0.00     0.015 C 
HETATM   44  C11 UNL     1       4.176  11.168  23.730  1.00  0.00     0.015 C 
ENDBRANCH   6  42
BRANCH   1  45
HETATM   45  O1  UNL     1       3.117  14.650  23.632  1.00  0.00    -0.354 OA
HETATM   46  C1  UNL     1       1.883  14.262  24.219  1.00  0.00     0.210 C 
ENDBRANCH   1  45
TORSDOF 9
ENDMDL
