MODEL 1
REMARK VINA RESULT: -5.903574750      0.000      0.000
REMARK  12 active torsions:
REMARK  status: ('A' for Active; 'I' for Inactive)
REMARK    1  A    between atoms: C2_2  and  C3_3 
REMARK    2  A    between atoms: C2_2  and  C26_34 
REMARK    3  A    between atoms: C3_3  and  O1_4 
REMARK    4  A    between atoms: C3_3  and  C4_6 
REMARK    5  A    between atoms: C4_6  and  C5_7 
REMARK    6  A    between atoms: C9_11  and  C10_12 
REMARK    7  A    between atoms: C10_12  and  S1_15 
REMARK    8  A    between atoms: S1_15  and  C11_16 
REMARK    9  A    between atoms: C14_19  and  C15_20 
REMARK   10  A    between atoms: C21_26  and  O2_27 
REMARK   11  A    between atoms: C28_36  and  O4_37 
REMARK   12  A    between atoms: C30_40  and  O5_41 
ROOT
HETATM    1  C5  UNL     1       6.274   8.728  -6.294  1.00  0.00    -0.003 A 
HETATM    2  C6  UNL     1       6.957   9.924  -6.568  1.00  0.00     0.022 A 
HETATM    3  C7  UNL     1       6.317  11.094  -6.476  1.00  0.00    -0.043 A 
HETATM    4  C8  UNL     1       4.948  11.151  -6.102  1.00  0.00     0.032 A 
HETATM    5  C9  UNL     1       4.238  10.028  -5.819  1.00  0.00     0.072 A 
HETATM    6  C21 UNL     1       4.956   8.810  -5.929  1.00  0.00     0.089 A 
HETATM    7  C22 UNL     1       4.335  12.474  -6.077  1.00  0.00     0.161 C 
HETATM    8  O3  UNL     1       3.182  12.564  -6.566  1.00  0.00    -0.292 OA
HETATM    9  C23 UNL     1       5.103  13.604  -5.489  1.00  0.00     0.084 C 
HETATM   10  C24 UNL     1       6.562  13.232  -5.442  1.00  0.00     0.012 C 
HETATM   11  C25 UNL     1       6.919  12.463  -6.709  1.00  0.00     0.040 C 
ENDROOT
BRANCH   1  12
HETATM   12  C4  UNL     1       7.000   7.484  -6.433  1.00  0.00     0.023 C 
BRANCH  12  13
HETATM   13  C3  UNL     1       8.458   7.359  -6.458  1.00  0.00     0.170 C 
BRANCH  13  14
HETATM   14  C2  UNL     1       9.348   7.714  -5.389  1.00  0.00    -0.053 C 
HETATM   15  C1  UNL     1      10.568   8.170  -5.559  1.00  0.00     0.017 C 
BRANCH  14  16
HETATM   16  C26 UNL     1       8.957   7.587  -3.939  1.00  0.00     0.025 C 
HETATM   17  C27 UNL     1       9.483   6.282  -3.378  1.00  0.00     0.041 C 
HETATM   18  C28 UNL     1       8.723   5.919  -2.107  1.00  0.00     0.121 C 
HETATM   19  C29 UNL     1       8.356   7.137  -1.314  1.00  0.00     0.064 C 
HETATM   20  C30 UNL     1       9.304   8.315  -1.602  1.00  0.00     0.127 C 
HETATM   21  C32 UNL     1       9.115   8.761  -3.071  1.00  0.00     0.019 C 
HETATM   22  C33 UNL     1       7.814   9.588  -2.996  1.00  0.00     0.013 C 
BRANCH  18  23
HETATM   23  O4  UNL     1       7.519   5.312  -2.531  1.00  0.00    -0.395 OA
ATOM     24  H4  UNL     1       6.837   5.661  -1.970  1.00  0.00     0.210 HD
ENDBRANCH  18  23
BRANCH  20  25
HETATM   25  O5  UNL     1      10.559   7.851  -1.334  1.00  0.00    -0.390 OA
HETATM   26  C31 UNL     1      11.558   8.787  -1.495  1.00  0.00     0.202 C 
ENDBRANCH  20  25
ENDBRANCH  14  16
ENDBRANCH  13  14
BRANCH  13  27
HETATM   27  O1  UNL     1       8.667   5.993  -6.870  1.00  0.00    -0.387 OA
ATOM     28  H1  UNL     1       8.161   5.395  -6.332  1.00  0.00     0.210 HD
ENDBRANCH  13  27
ENDBRANCH  12  13
ENDBRANCH   1  12
BRANCH   6  29
HETATM   29  O2  UNL     1       4.201   7.676  -5.623  1.00  0.00    -0.359 OA
ATOM     30  H2  UNL     1       3.508   7.693  -4.974  1.00  0.00     0.217 HD
ENDBRANCH   6  29
BRANCH   5  31
HETATM   31  C10 UNL     1       2.809  10.135  -5.536  1.00  0.00     0.327 C 
HETATM   32  F1  UNL     1       2.079  10.666  -6.617  1.00  0.00    -0.187 F 
HETATM   33  F2  UNL     1       2.398   8.781  -5.780  1.00  0.00    -0.187 F 
BRANCH  31  34
HETATM   34  S1  UNL     1       2.162  10.425  -3.975  1.00  0.00    -0.048 SA
BRANCH  34  35
HETATM   35  C11 UNL     1       2.899  10.273  -2.451  1.00  0.00     0.006 A 
HETATM   36  C12 UNL     1       4.214  10.690  -2.224  1.00  0.00     0.019 A 
HETATM   37  C13 UNL     1       4.870  10.490  -1.036  1.00  0.00     0.009 A 
HETATM   38  C14 UNL     1       4.259   9.856   0.024  1.00  0.00    -0.051 A 
HETATM   39  C19 UNL     1       2.961   9.438  -0.173  1.00  0.00     0.009 A 
HETATM   40  C20 UNL     1       2.293   9.629  -1.350  1.00  0.00     0.019 A 
BRANCH  38  41
HETATM   41  C15 UNL     1       4.951   9.597   1.313  1.00  0.00    -0.024 C 
HETATM   42  C16 UNL     1       6.112  10.524   1.476  1.00  0.00     0.019 C 
HETATM   43  C17 UNL     1       3.982   9.660   2.475  1.00  0.00     0.019 C 
HETATM   44  C18 UNL     1       5.535   8.176   1.316  1.00  0.00     0.019 C 
ENDBRANCH  38  41
ENDBRANCH  34  35
ENDBRANCH  31  34
ENDBRANCH   5  31
TORSDOF 12
ENDMDL
MODEL 2
REMARK VINA RESULT: -5.871866446      5.637      9.875
REMARK  12 active torsions:
REMARK  status: ('A' for Active; 'I' for Inactive)
REMARK    1  A    between atoms: C2_2  and  C3_3 
REMARK    2  A    between atoms: C2_2  and  C26_34 
REMARK    3  A    between atoms: C3_3  and  O1_4 
REMARK    4  A    between atoms: C3_3  and  C4_6 
REMARK    5  A    between atoms: C4_6  and  C5_7 
REMARK    6  A    between atoms: C9_11  and  C10_12 
REMARK    7  A    between atoms: C10_12  and  S1_15 
REMARK    8  A    between atoms: S1_15  and  C11_16 
REMARK    9  A    between atoms: C14_19  and  C15_20 
REMARK   10  A    between atoms: C21_26  and  O2_27 
REMARK   11  A    between atoms: C28_36  and  O4_37 
REMARK   12  A    between atoms: C30_40  and  O5_41 
ROOT
HETATM    1  C5  UNL     1      -0.269  12.404  -1.390  1.00  0.00    -0.003 A 
HETATM    2  C6  UNL     1      -0.221  12.263  -2.786  1.00  0.00     0.022 A 
HETATM    3  C7  UNL     1       0.859  11.729  -3.366  1.00  0.00    -0.043 A 
HETATM    4  C8  UNL     1       1.967  11.297  -2.591  1.00  0.00     0.032 A 
HETATM    5  C9  UNL     1       1.974  11.402  -1.236  1.00  0.00     0.072 A 
HETATM    6  C21 UNL     1       0.810  11.973  -0.663  1.00  0.00     0.089 A 
HETATM    7  C22 UNL     1       3.111  10.771  -3.326  1.00  0.00     0.161 C 
HETATM    8  O3  UNL     1       4.245  11.142  -2.934  1.00  0.00    -0.292 OA
HETATM    9  C23 UNL     1       2.861   9.854  -4.471  1.00  0.00     0.084 C 
HETATM   10  C24 UNL     1       1.432  10.010  -4.921  1.00  0.00     0.012 C 
HETATM   11  C25 UNL     1       1.047  11.484  -4.848  1.00  0.00     0.040 C 
ENDROOT
BRANCH   1  12
HETATM   12  C4  UNL     1      -1.446  13.013  -0.808  1.00  0.00     0.023 C 
BRANCH  12  13
HETATM   13  C3  UNL     1      -2.806  12.482  -0.913  1.00  0.00     0.170 C 
BRANCH  13  14
HETATM   14  C2  UNL     1      -3.280  11.269  -0.310  1.00  0.00    -0.053 C 
HETATM   15  C1  UNL     1      -3.418  10.128  -0.946  1.00  0.00     0.017 C 
BRANCH  14  16
HETATM   16  C26 UNL     1      -3.679  11.193   1.142  1.00  0.00     0.025 C 
HETATM   17  C27 UNL     1      -5.162  10.900   1.251  1.00  0.00     0.041 C 
HETATM   18  C28 UNL     1      -5.665  11.281   2.639  1.00  0.00     0.121 C 
HETATM   19  C29 UNL     1      -4.633  11.019   3.694  1.00  0.00     0.064 C 
HETATM   20  C30 UNL     1      -3.639   9.925   3.264  1.00  0.00     0.127 C 
HETATM   21  C32 UNL     1      -2.814  10.444   2.063  1.00  0.00     0.019 C 
HETATM   22  C33 UNL     1      -1.785  11.366   2.747  1.00  0.00     0.013 C 
BRANCH  18  23
HETATM   23  O4  UNL     1      -5.890  12.676   2.604  1.00  0.00    -0.395 OA
ATOM     24  H4  UNL     1      -6.124  12.926   3.490  1.00  0.00     0.210 HD
ENDBRANCH  18  23
BRANCH  20  25
HETATM   25  O5  UNL     1      -4.401   8.833   2.967  1.00  0.00    -0.390 OA
HETATM   26  C31 UNL     1      -3.786   7.625   3.217  1.00  0.00     0.202 C 
ENDBRANCH  20  25
ENDBRANCH  14  16
ENDBRANCH  13  14
BRANCH  13  27
HETATM   27  O1  UNL     1      -3.629  13.603  -0.532  1.00  0.00    -0.387 OA
ATOM     28  H1  UNL     1      -3.103  14.296  -0.150  1.00  0.00     0.210 HD
ENDBRANCH  13  27
ENDBRANCH  12  13
ENDBRANCH   1  12
BRANCH   6  29
HETATM   29  O2  UNL     1       0.846  12.060   0.730  1.00  0.00    -0.359 OA
ATOM     30  H2  UNL     1       1.651  12.236   1.202  1.00  0.00     0.217 HD
ENDBRANCH   6  29
BRANCH   5  31
HETATM   31  C10 UNL     1       3.178  11.034  -0.495  1.00  0.00     0.327 C 
HETATM   32  F1  UNL     1       4.223  11.964  -0.658  1.00  0.00    -0.187 F 
HETATM   33  F2  UNL     1       2.822  11.496   0.816  1.00  0.00    -0.187 F 
BRANCH  31  34
HETATM   34  S1  UNL     1       3.652   9.416  -0.184  1.00  0.00    -0.048 SA
BRANCH  34  35
HETATM   35  C11 UNL     1       4.727   8.806   0.983  1.00  0.00     0.006 A 
HETATM   36  C12 UNL     1       4.884   9.419   2.231  1.00  0.00     0.019 A 
HETATM   37  C13 UNL     1       5.813   9.012   3.154  1.00  0.00     0.009 A 
HETATM   38  C14 UNL     1       6.661   7.955   2.903  1.00  0.00    -0.051 A 
HETATM   39  C19 UNL     1       6.524   7.332   1.682  1.00  0.00     0.009 A 
HETATM   40  C20 UNL     1       5.604   7.725   0.750  1.00  0.00     0.019 A 
BRANCH  38  41
HETATM   41  C15 UNL     1       7.699   7.509   3.868  1.00  0.00    -0.024 C 
HETATM   42  C16 UNL     1       7.313   7.895   5.260  1.00  0.00     0.019 C 
HETATM   43  C17 UNL     1       7.976   6.028   3.726  1.00  0.00     0.019 C 
HETATM   44  C18 UNL     1       9.025   8.227   3.578  1.00  0.00     0.019 C 
ENDBRANCH  38  41
ENDBRANCH  34  35
ENDBRANCH  31  34
ENDBRANCH   5  31
TORSDOF 12
ENDMDL
MODEL 3
REMARK VINA RESULT: -5.823320885      3.775      7.189
REMARK  12 active torsions:
REMARK  status: ('A' for Active; 'I' for Inactive)
REMARK    1  A    between atoms: C2_2  and  C3_3 
REMARK    2  A    between atoms: C2_2  and  C26_34 
REMARK    3  A    between atoms: C3_3  and  O1_4 
REMARK    4  A    between atoms: C3_3  and  C4_6 
REMARK    5  A    between atoms: C4_6  and  C5_7 
REMARK    6  A    between atoms: C9_11  and  C10_12 
REMARK    7  A    between atoms: C10_12  and  S1_15 
REMARK    8  A    between atoms: S1_15  and  C11_16 
REMARK    9  A    between atoms: C14_19  and  C15_20 
REMARK   10  A    between atoms: C21_26  and  O2_27 
REMARK   11  A    between atoms: C28_36  and  O4_37 
REMARK   12  A    between atoms: C30_40  and  O5_41 
ROOT
HETATM    1  C5  UNL     1       2.485  12.972  -1.235  1.00  0.00    -0.003 A 
HETATM    2  C6  UNL     1       3.794  13.470  -1.324  1.00  0.00     0.022 A 
HETATM    3  C7  UNL     1       4.610  13.398  -0.267  1.00  0.00    -0.043 A 
HETATM    4  C8  UNL     1       4.173  12.821   0.954  1.00  0.00     0.032 A 
HETATM    5  C9  UNL     1       2.920  12.317   1.098  1.00  0.00     0.072 A 
HETATM    6  C21 UNL     1       2.089  12.414  -0.047  1.00  0.00     0.089 A 
HETATM    7  C22 UNL     1       5.127  12.834   2.058  1.00  0.00     0.161 C 
HETATM    8  O3  UNL     1       4.671  13.142   3.186  1.00  0.00    -0.292 OA
HETATM    9  C23 UNL     1       6.547  12.493   1.775  1.00  0.00     0.084 C 
HETATM   10  C24 UNL     1       6.801  12.638   0.297  1.00  0.00     0.012 C 
HETATM   11  C25 UNL     1       6.050  13.861  -0.217  1.00  0.00     0.040 C 
ENDROOT
BRANCH   1  12
HETATM   12  C4  UNL     1       1.629  13.096  -2.395  1.00  0.00     0.023 C 
BRANCH  12  13
HETATM   13  C3  UNL     1       1.391  12.042  -3.381  1.00  0.00     0.170 C 
BRANCH  13  14
HETATM   14  C2  UNL     1       1.943  10.717  -3.342  1.00  0.00    -0.053 C 
HETATM   15  C1  UNL     1       1.488   9.746  -2.582  1.00  0.00     0.017 C 
BRANCH  14  16
HETATM   16  C26 UNL     1       3.126  10.311  -4.183  1.00  0.00     0.025 C 
HETATM   17  C27 UNL     1       2.651   9.827  -5.537  1.00  0.00     0.041 C 
HETATM   18  C28 UNL     1       3.739   8.992  -6.202  1.00  0.00     0.121 C 
HETATM   19  C29 UNL     1       5.109   9.509  -5.879  1.00  0.00     0.064 C 
HETATM   20  C30 UNL     1       5.087  11.005  -5.519  1.00  0.00     0.127 C 
HETATM   21  C32 UNL     1       4.303  11.190  -4.198  1.00  0.00     0.019 C 
HETATM   22  C33 UNL     1       5.341  10.764  -3.140  1.00  0.00     0.013 C 
BRANCH  18  23
HETATM   23  O4  UNL     1       3.634   7.697  -5.644  1.00  0.00    -0.395 OA
ATOM     24  H4  UNL     1       4.049   7.110  -6.264  1.00  0.00     0.210 HD
ENDBRANCH  18  23
BRANCH  20  25
HETATM   25  O5  UNL     1       4.507  11.631  -6.584  1.00  0.00    -0.390 OA
HETATM   26  C31 UNL     1       4.465  13.005  -6.483  1.00  0.00     0.202 C 
ENDBRANCH  20  25
ENDBRANCH  14  16
ENDBRANCH  13  14
BRANCH  13  27
HETATM   27  O1  UNL     1      -0.047  11.998  -3.479  1.00  0.00    -0.387 OA
ATOM     28  H1  UNL     1      -0.442  11.877  -2.623  1.00  0.00     0.210 HD
ENDBRANCH  13  27
ENDBRANCH  12  13
ENDBRANCH   1  12
BRANCH   6  29
HETATM   29  O2  UNL     1       0.812  11.879   0.130  1.00  0.00    -0.359 OA
ATOM     30  H2  UNL     1       0.554  11.449   0.937  1.00  0.00     0.217 HD
ENDBRANCH   6  29
BRANCH   5  31
HETATM   31  C10 UNL     1       2.491  11.825   2.405  1.00  0.00     0.327 C 
HETATM   32  F1  UNL     1       2.241  12.863   3.323  1.00  0.00    -0.187 F 
HETATM   33  F2  UNL     1       1.102  11.575   2.140  1.00  0.00    -0.187 F 
BRANCH  31  34
HETATM   34  S1  UNL     1       2.996  10.331   3.077  1.00  0.00    -0.048 SA
BRANCH  34  35
HETATM   35  C11 UNL     1       4.440   9.467   2.837  1.00  0.00     0.006 A 
HETATM   36  C12 UNL     1       4.722   8.827   1.625  1.00  0.00     0.019 A 
HETATM   37  C13 UNL     1       5.829   8.040   1.433  1.00  0.00     0.009 A 
HETATM   38  C14 UNL     1       6.746   7.831   2.439  1.00  0.00    -0.051 A 
HETATM   39  C19 UNL     1       6.493   8.454   3.642  1.00  0.00     0.009 A 
HETATM   40  C20 UNL     1       5.395   9.241   3.851  1.00  0.00     0.019 A 
BRANCH  38  41
HETATM   41  C15 UNL     1       7.938   6.961   2.274  1.00  0.00    -0.024 C 
HETATM   42  C16 UNL     1       7.735   6.011   1.137  1.00  0.00     0.019 C 
HETATM   43  C17 UNL     1       9.201   7.784   2.131  1.00  0.00     0.019 C 
HETATM   44  C18 UNL     1       8.129   6.092   3.526  1.00  0.00     0.019 C 
ENDBRANCH  38  41
ENDBRANCH  34  35
ENDBRANCH  31  34
ENDBRANCH   5  31
TORSDOF 12
ENDMDL
MODEL 4
REMARK VINA RESULT: -5.633389744      5.532      9.717
REMARK  12 active torsions:
REMARK  status: ('A' for Active; 'I' for Inactive)
REMARK    1  A    between atoms: C2_2  and  C3_3 
REMARK    2  A    between atoms: C2_2  and  C26_34 
REMARK    3  A    between atoms: C3_3  and  O1_4 
REMARK    4  A    between atoms: C3_3  and  C4_6 
REMARK    5  A    between atoms: C4_6  and  C5_7 
REMARK    6  A    between atoms: C9_11  and  C10_12 
REMARK    7  A    between atoms: C10_12  and  S1_15 
REMARK    8  A    between atoms: S1_15  and  C11_16 
REMARK    9  A    between atoms: C14_19  and  C15_20 
REMARK   10  A    between atoms: C21_26  and  O2_27 
REMARK   11  A    between atoms: C28_36  and  O4_37 
REMARK   12  A    between atoms: C30_40  and  O5_41 
ROOT
HETATM    1  C5  UNL     1      -0.578  12.130  -2.262  1.00  0.00    -0.003 A 
HETATM    2  C6  UNL     1      -0.175  12.024  -3.602  1.00  0.00     0.022 A 
HETATM    3  C7  UNL     1       1.051  11.579  -3.898  1.00  0.00    -0.043 A 
HETATM    4  C8  UNL     1       1.960  11.208  -2.873  1.00  0.00     0.032 A 
HETATM    5  C9  UNL     1       1.624  11.284  -1.558  1.00  0.00     0.072 A 
HETATM    6  C21 UNL     1       0.316  11.760  -1.291  1.00  0.00     0.089 A 
HETATM    7  C22 UNL     1       3.286  10.780  -3.303  1.00  0.00     0.161 C 
HETATM    8  O3  UNL     1       4.257  11.220  -2.639  1.00  0.00    -0.292 OA
HETATM    9  C23 UNL     1       3.396   9.874  -4.477  1.00  0.00     0.084 C 
HETATM   10  C24 UNL     1       2.115   9.940  -5.268  1.00  0.00     0.012 C 
HETATM   11  C25 UNL     1       1.618  11.381  -5.287  1.00  0.00     0.040 C 
ENDROOT
BRANCH   1  12
HETATM   12  C4  UNL     1      -1.904  12.642  -1.989  1.00  0.00     0.023 C 
BRANCH  12  13
HETATM   13  C3  UNL     1      -3.083  11.820  -1.715  1.00  0.00     0.170 C 
BRANCH  13  14
HETATM   14  C2  UNL     1      -3.917  11.913  -0.551  1.00  0.00    -0.053 C 
HETATM   15  C1  UNL     1      -4.937  12.732  -0.431  1.00  0.00     0.017 C 
BRANCH  14  16
HETATM   16  C26 UNL     1      -3.691  11.062   0.673  1.00  0.00     0.025 C 
HETATM   17  C27 UNL     1      -3.321  11.944   1.849  1.00  0.00     0.041 C 
HETATM   18  C28 UNL     1      -2.644  11.110   2.930  1.00  0.00     0.121 C 
HETATM   19  C29 UNL     1      -3.221   9.729   3.009  1.00  0.00     0.064 C 
HETATM   20  C30 UNL     1      -4.665   9.681   2.477  1.00  0.00     0.127 C 
HETATM   21  C32 UNL     1      -4.649   9.988   0.961  1.00  0.00     0.019 C 
HETATM   22  C33 UNL     1      -4.189   8.644   0.360  1.00  0.00     0.013 C 
BRANCH  18  23
HETATM   23  O4  UNL     1      -1.292  10.982   2.535  1.00  0.00    -0.395 OA
ATOM     24  H4  UNL     1      -1.210  10.112   2.163  1.00  0.00     0.210 HD
ENDBRANCH  18  23
BRANCH  20  25
HETATM   25  O5  UNL     1      -5.357  10.602   3.208  1.00  0.00    -0.390 OA
HETATM   26  C31 UNL     1      -5.917  10.104   4.365  1.00  0.00     0.202 C 
ENDBRANCH  20  25
ENDBRANCH  14  16
ENDBRANCH  13  14
BRANCH  13  27
HETATM   27  O1  UNL     1      -3.864  11.950  -2.920  1.00  0.00    -0.387 OA
ATOM     28  H1  UNL     1      -3.463  12.568  -3.521  1.00  0.00     0.210 HD
ENDBRANCH  13  27
ENDBRANCH  12  13
ENDBRANCH   1  12
BRANCH   6  29
HETATM   29  O2  UNL     1      -0.002  11.818   0.067  1.00  0.00    -0.359 OA
ATOM     30  H2  UNL     1       0.269  11.141   0.676  1.00  0.00     0.217 HD
ENDBRANCH   6  29
BRANCH   5  31
HETATM   31  C10 UNL     1       2.630  10.984  -0.543  1.00  0.00     0.327 C 
HETATM   32  F1  UNL     1       3.511  12.059  -0.315  1.00  0.00    -0.187 F 
HETATM   33  F2  UNL     1       1.865  11.214   0.650  1.00  0.00    -0.187 F 
BRANCH  31  34
HETATM   34  S1  UNL     1       3.266   9.417  -0.260  1.00  0.00    -0.048 SA
BRANCH  34  35
HETATM   35  C11 UNL     1       4.361   8.890   0.928  1.00  0.00     0.006 A 
HETATM   36  C12 UNL     1       4.443   9.508   2.180  1.00  0.00     0.019 A 
HETATM   37  C13 UNL     1       5.382   9.172   3.122  1.00  0.00     0.009 A 
HETATM   38  C14 UNL     1       6.316   8.186   2.886  1.00  0.00    -0.051 A 
HETATM   39  C19 UNL     1       6.254   7.559   1.661  1.00  0.00     0.009 A 
HETATM   40  C20 UNL     1       5.325   7.882   0.711  1.00  0.00     0.019 A 
BRANCH  38  41
HETATM   41  C15 UNL     1       7.365   7.819   3.872  1.00  0.00    -0.024 C 
HETATM   42  C16 UNL     1       6.901   8.121   5.261  1.00  0.00     0.019 C 
HETATM   43  C17 UNL     1       7.799   6.379   3.698  1.00  0.00     0.019 C 
HETATM   44  C18 UNL     1       8.618   8.678   3.645  1.00  0.00     0.019 C 
ENDBRANCH  38  41
ENDBRANCH  34  35
ENDBRANCH  31  34
ENDBRANCH   5  31
TORSDOF 12
ENDMDL
MODEL 5
REMARK VINA RESULT: -5.618045144      5.930     10.161
REMARK  12 active torsions:
REMARK  status: ('A' for Active; 'I' for Inactive)
REMARK    1  A    between atoms: C2_2  and  C3_3 
REMARK    2  A    between atoms: C2_2  and  C26_34 
REMARK    3  A    between atoms: C3_3  and  O1_4 
REMARK    4  A    between atoms: C3_3  and  C4_6 
REMARK    5  A    between atoms: C4_6  and  C5_7 
REMARK    6  A    between atoms: C9_11  and  C10_12 
REMARK    7  A    between atoms: C10_12  and  S1_15 
REMARK    8  A    between atoms: S1_15  and  C11_16 
REMARK    9  A    between atoms: C14_19  and  C15_20 
REMARK   10  A    between atoms: C21_26  and  O2_27 
REMARK   11  A    between atoms: C28_36  and  O4_37 
REMARK   12  A    between atoms: C30_40  and  O5_41 
ROOT
HETATM    1  C5  UNL     1      -0.760  13.054  -0.785  1.00  0.00    -0.003 A 
HETATM    2  C6  UNL     1      -0.366  12.592  -2.052  1.00  0.00     0.022 A 
HETATM    3  C7  UNL     1       0.837  12.034  -2.214  1.00  0.00    -0.043 A 
HETATM    4  C8  UNL     1       1.734  11.897  -1.122  1.00  0.00     0.032 A 
HETATM    5  C9  UNL     1       1.406  12.320   0.127  1.00  0.00     0.072 A 
HETATM    6  C21 UNL     1       0.121  12.905   0.255  1.00  0.00     0.089 A 
HETATM    7  C22 UNL     1       3.038  11.316  -1.418  1.00  0.00     0.161 C 
HETATM    8  O3  UNL     1       4.030  11.868  -0.881  1.00  0.00    -0.292 OA
HETATM    9  C23 UNL     1       3.103  10.136  -2.322  1.00  0.00     0.084 C 
HETATM   10  C24 UNL     1       1.824  10.054  -3.113  1.00  0.00     0.012 C 
HETATM   11  C25 UNL     1       1.391  11.463  -3.502  1.00  0.00     0.040 C 
ENDROOT
BRANCH   1  12
HETATM   12  C4  UNL     1      -2.061  13.676  -0.662  1.00  0.00     0.023 C 
BRANCH  12  13
HETATM   13  C3  UNL     1      -3.232  13.059  -0.038  1.00  0.00     0.170 C 
BRANCH  13  14
HETATM   14  C2  UNL     1      -3.449  11.650   0.127  1.00  0.00    -0.053 C 
HETATM   15  C1  UNL     1      -3.469  10.781  -0.859  1.00  0.00     0.017 C 
BRANCH  14  16
HETATM   16  C26 UNL     1      -3.685  11.023   1.477  1.00  0.00     0.025 C 
HETATM   17  C27 UNL     1      -5.064  10.396   1.518  1.00  0.00     0.041 C 
HETATM   18  C28 UNL     1      -5.497  10.188   2.964  1.00  0.00     0.121 C 
HETATM   19  C29 UNL     1      -4.337   9.830   3.845  1.00  0.00     0.064 C 
HETATM   20  C30 UNL     1      -3.194   9.178   3.048  1.00  0.00     0.127 C 
HETATM   21  C32 UNL     1      -2.605  10.223   2.071  1.00  0.00     0.019 C 
HETATM   22  C33 UNL     1      -1.717  11.075   3.001  1.00  0.00     0.013 C 
BRANCH  18  23
HETATM   23  O4  UNL     1      -5.994  11.436   3.407  1.00  0.00    -0.395 OA
ATOM     24  H4  UNL     1      -6.896  11.283   3.661  1.00  0.00     0.210 HD
ENDBRANCH  18  23
BRANCH  20  25
HETATM   25  O5  UNL     1      -3.750   8.103   2.418  1.00  0.00    -0.390 OA
HETATM   26  C31 UNL     1      -3.591   6.908   3.086  1.00  0.00     0.202 C 
ENDBRANCH  20  25
ENDBRANCH  14  16
ENDBRANCH  13  14
BRANCH  13  27
HETATM   27  O1  UNL     1      -3.335  13.748   1.225  1.00  0.00    -0.387 OA
ATOM     28  H1  UNL     1      -2.485  13.816   1.645  1.00  0.00     0.210 HD
ENDBRANCH  13  27
ENDBRANCH  12  13
ENDBRANCH   1  12
BRANCH   6  29
HETATM   29  O2  UNL     1      -0.189  13.321   1.551  1.00  0.00    -0.359 OA
ATOM     30  H2  UNL     1      -0.605  12.742   2.179  1.00  0.00     0.217 HD
ENDBRANCH   6  29
BRANCH   5  31
HETATM   31  C10 UNL     1       2.401  12.246   1.194  1.00  0.00     0.327 C 
HETATM   32  F1  UNL     1       3.531  13.048   0.941  1.00  0.00    -0.187 F 
HETATM   33  F2  UNL     1       1.828  13.158   2.142  1.00  0.00    -0.187 F 
BRANCH  31  34
HETATM   34  S1  UNL     1       2.667  10.853   2.158  1.00  0.00    -0.048 SA
BRANCH  34  35
HETATM   35  C11 UNL     1       3.948   9.738   2.122  1.00  0.00     0.006 A 
HETATM   36  C12 UNL     1       4.850   9.617   3.184  1.00  0.00     0.019 A 
HETATM   37  C13 UNL     1       5.950   8.798   3.144  1.00  0.00     0.009 A 
HETATM   38  C14 UNL     1       6.237   8.032   2.035  1.00  0.00    -0.051 A 
HETATM   39  C19 UNL     1       5.361   8.131   0.976  1.00  0.00     0.009 A 
HETATM   40  C20 UNL     1       4.260   8.941   0.999  1.00  0.00     0.019 A 
BRANCH  38  41
HETATM   41  C15 UNL     1       7.436   7.160   1.948  1.00  0.00    -0.024 C 
HETATM   42  C16 UNL     1       7.770   6.600   3.293  1.00  0.00     0.019 C 
HETATM   43  C17 UNL     1       7.257   6.088   0.894  1.00  0.00     0.019 C 
HETATM   44  C18 UNL     1       8.655   7.990   1.517  1.00  0.00     0.019 C 
ENDBRANCH  38  41
ENDBRANCH  34  35
ENDBRANCH  31  34
ENDBRANCH   5  31
TORSDOF 12
ENDMDL
