MODEL 1
REMARK VINA RESULT: -9.082671202      0.000      0.000
REMARK  5 active torsions:
REMARK  status: ('A' for Active; 'I' for Inactive)
REMARK       I    between atoms: N1_2  and  C2_3 
REMARK    1  A    between atoms: N1_2  and  C8_15 
REMARK    2  A    between atoms: C2_3  and  C3_5 
REMARK    3  A    between atoms: C3_5  and  N2_6 
REMARK    4  A    between atoms: C9_16  and  C10_17 
REMARK    5  A    between atoms: C10_17  and  N4_18 
ROOT
HETATM    1  C8  UNL     1      -0.594   7.169  82.589  1.00  0.00     0.130 A 
HETATM    2  C9  UNL     1       0.321   6.633  81.738  1.00  0.00     0.067 A 
HETATM    3  N8  UNL     1       0.441   7.136  80.454  1.00  0.00    -0.308 N 
ATOM      4  H8  UNL     1       1.134   6.721  79.831  1.00  0.00     0.170 HD
HETATM    5  C13 UNL     1      -0.310   8.139  79.997  1.00  0.00     0.327 A 
HETATM    6  O5  UNL     1      -0.189   8.591  78.816  1.00  0.00    -0.247 OA
HETATM    7  N9  UNL     1      -1.214   8.667  80.835  1.00  0.00    -0.274 N 
ATOM      8  H9  UNL     1      -1.799   9.435  80.505  1.00  0.00     0.173 HD
HETATM    9  C14 UNL     1      -1.379   8.226  82.091  1.00  0.00     0.278 A 
HETATM   10  O6  UNL     1      -2.224   8.716  82.884  1.00  0.00    -0.265 OA
ENDROOT
BRANCH   1  11
HETATM   11  N1  UNL     1      -0.783   6.779  83.949  1.00  0.00    -0.315 N 
HETATM   12  C1  UNL     1      -0.033   7.469  85.010  1.00  0.00     0.159 C 
HETATM   13  C2  UNL     1      -1.691   5.770  84.359  1.00  0.00     0.242 C 
HETATM   14  O1  UNL     1      -2.344   5.114  83.509  1.00  0.00    -0.271 OA
BRANCH  13  15
HETATM   15  C3  UNL     1      -1.881   5.483  85.779  1.00  0.00     0.236 C 
BRANCH  15  16
HETATM   16  N2  UNL     1      -1.819   4.070  86.084  1.00  0.00    -0.301 N 
HETATM   17  C4  UNL     1      -2.909   3.390  86.440  1.00  0.00     0.102 A 
HETATM   18  C5  UNL     1      -2.904   2.044  86.729  1.00  0.00     0.092 A 
HETATM   19  C6  UNL     1      -1.685   1.399  86.634  1.00  0.00     0.250 A 
HETATM   20  O2  UNL     1      -1.615   0.150  86.890  1.00  0.00    -0.268 OA
HETATM   21  N3  UNL     1      -0.582   2.086  86.274  1.00  0.00    -0.275 N 
HETATM   22  C7  UNL     1      -0.650   3.419  86.000  1.00  0.00     0.329 A 
ATOM     23  H3  UNL     1       0.314   1.602  86.207  1.00  0.00     0.173 HD
HETATM   24  O3  UNL     1       0.380   4.041  85.668  1.00  0.00    -0.246 OA
ENDBRANCH  15  16
ENDBRANCH  13  15
ENDBRANCH   1  11
BRANCH   2  25
HETATM   25  C10 UNL     1       1.184   5.511  82.100  1.00  0.00     0.229 C 
BRANCH  25  26
HETATM   26  N4  UNL     1       0.523   4.213  82.100  1.00  0.00    -0.224 N 
HETATM   27  N5  UNL     1       0.653   3.204  82.900  1.00  0.00    -0.266 N 
HETATM   28  C11 UNL     1      -0.126   2.163  82.582  1.00  0.00     0.202 A 
ATOM     29  H5  UNL     1       1.289   3.203  83.697  1.00  0.00     0.190 HD
HETATM   30  N6  UNL     1      -0.233   0.898  83.239  1.00  0.00    -0.075 NA
HETATM   31  C12 UNL     1      -0.818   2.577  81.453  1.00  0.00     0.303 A 
HETATM   32  O4  UNL     1      -1.667   1.876  80.829  1.00  0.00    -0.263 OA
HETATM   33  N7  UNL     1      -0.397   3.816  81.197  1.00  0.00    -0.246 N 
ATOM     34  H7  UNL     1      -0.727   4.388  80.420  1.00  0.00     0.192 HD
ENDBRANCH  25  26
ENDBRANCH   2  25
TORSDOF 5
ENDMDL
MODEL 2
REMARK VINA RESULT: -7.845514051      2.110      2.876
REMARK  5 active torsions:
REMARK  status: ('A' for Active; 'I' for Inactive)
REMARK       I    between atoms: N1_2  and  C2_3 
REMARK    1  A    between atoms: N1_2  and  C8_15 
REMARK    2  A    between atoms: C2_3  and  C3_5 
REMARK    3  A    between atoms: C3_5  and  N2_6 
REMARK    4  A    between atoms: C9_16  and  C10_17 
REMARK    5  A    between atoms: C10_17  and  N4_18 
ROOT
HETATM    1  C8  UNL     1      -0.612   7.084  82.653  1.00  0.00     0.130 A 
HETATM    2  C9  UNL     1       0.250   7.708  81.807  1.00  0.00     0.067 A 
HETATM    3  N8  UNL     1      -0.229   8.296  80.650  1.00  0.00    -0.308 N 
ATOM      4  H8  UNL     1       0.433   8.760  80.029  1.00  0.00     0.170 HD
HETATM    5  C13 UNL     1      -1.520   8.282  80.312  1.00  0.00     0.327 A 
HETATM    6  O5  UNL     1      -1.947   8.826  79.247  1.00  0.00    -0.247 OA
HETATM    7  N9  UNL     1      -2.371   7.665  81.146  1.00  0.00    -0.274 N 
ATOM      8  H9  UNL     1      -3.362   7.643  80.906  1.00  0.00     0.173 HD
HETATM    9  C14 UNL     1      -1.970   7.077  82.283  1.00  0.00     0.278 A 
HETATM   10  O6  UNL     1      -2.762   6.496  83.069  1.00  0.00    -0.265 OA
ENDROOT
BRANCH   1  11
HETATM   11  N1  UNL     1      -0.257   6.484  83.899  1.00  0.00    -0.315 N 
HETATM   12  C1  UNL     1      -0.234   7.308  85.117  1.00  0.00     0.159 C 
HETATM   13  C2  UNL     1       0.053   5.109  84.051  1.00  0.00     0.242 C 
HETATM   14  O1  UNL     1       0.086   4.347  83.051  1.00  0.00    -0.271 OA
BRANCH  13  15
HETATM   15  C3  UNL     1       0.333   4.557  85.375  1.00  0.00     0.236 C 
BRANCH  15  16
HETATM   16  N2  UNL     1      -0.705   3.670  85.851  1.00  0.00    -0.301 N 
HETATM   17  C4  UNL     1      -1.980   4.059  85.898  1.00  0.00     0.102 A 
HETATM   18  C5  UNL     1      -3.005   3.249  86.332  1.00  0.00     0.092 A 
HETATM   19  C6  UNL     1      -2.654   1.973  86.731  1.00  0.00     0.250 A 
HETATM   20  O2  UNL     1      -3.560   1.174  87.145  1.00  0.00    -0.268 OA
HETATM   21  N3  UNL     1      -1.365   1.579  86.684  1.00  0.00    -0.275 N 
HETATM   22  C7  UNL     1      -0.393   2.427  86.244  1.00  0.00     0.329 A 
ATOM     23  H3  UNL     1      -1.116   0.635  86.980  1.00  0.00     0.173 HD
HETATM   24  O3  UNL     1       0.794   2.047  86.205  1.00  0.00    -0.246 OA
ENDBRANCH  15  16
ENDBRANCH  13  15
ENDBRANCH   1  11
BRANCH   2  25
HETATM   25  C10 UNL     1       1.691   7.768  82.041  1.00  0.00     0.229 C 
BRANCH  25  26
HETATM   26  N4  UNL     1       2.439   6.636  81.512  1.00  0.00    -0.224 N 
HETATM   27  N5  UNL     1       2.982   6.458  80.350  1.00  0.00    -0.266 N 
HETATM   28  C11 UNL     1       3.592   5.274  80.219  1.00  0.00     0.202 A 
ATOM     29  H5  UNL     1       2.949   7.154  79.606  1.00  0.00     0.190 HD
HETATM   30  N6  UNL     1       4.283   4.749  79.083  1.00  0.00    -0.075 NA
HETATM   31  C12 UNL     1       3.403   4.647  81.442  1.00  0.00     0.303 A 
HETATM   32  O4  UNL     1       3.830   3.492  81.735  1.00  0.00    -0.263 OA
HETATM   33  N7  UNL     1       2.704   5.501  82.190  1.00  0.00    -0.246 N 
ATOM     34  H7  UNL     1       2.410   5.320  83.149  1.00  0.00     0.192 HD
ENDBRANCH  25  26
ENDBRANCH   2  25
TORSDOF 5
ENDMDL
MODEL 3
REMARK VINA RESULT: -7.623838705      2.874      3.678
REMARK  5 active torsions:
REMARK  status: ('A' for Active; 'I' for Inactive)
REMARK       I    between atoms: N1_2  and  C2_3 
REMARK    1  A    between atoms: N1_2  and  C8_15 
REMARK    2  A    between atoms: C2_3  and  C3_5 
REMARK    3  A    between atoms: C3_5  and  N2_6 
REMARK    4  A    between atoms: C9_16  and  C10_17 
REMARK    5  A    between atoms: C10_17  and  N4_18 
ROOT
HETATM    1  C8  UNL     1       0.201   5.732  81.597  1.00  0.00     0.130 A 
HETATM    2  C9  UNL     1       1.320   5.204  81.034  1.00  0.00     0.067 A 
HETATM    3  N8  UNL     1       1.515   5.305  79.668  1.00  0.00    -0.308 N 
ATOM      4  H8  UNL     1       2.360   4.903  79.264  1.00  0.00     0.170 HD
HETATM    5  C13 UNL     1       0.643   5.906  78.856  1.00  0.00     0.327 A 
HETATM    6  O5  UNL     1       0.834   5.993  77.603  1.00  0.00    -0.247 OA
HETATM    7  N9  UNL     1      -0.461   6.427  79.410  1.00  0.00    -0.274 N 
ATOM      8  H9  UNL     1      -1.141   6.891  78.806  1.00  0.00     0.173 HD
HETATM    9  C14 UNL     1      -0.708   6.362  80.727  1.00  0.00     0.278 A 
HETATM   10  O6  UNL     1      -1.743   6.848  81.254  1.00  0.00    -0.265 OA
ENDROOT
BRANCH   1  11
HETATM   11  N1  UNL     1      -0.095   5.740  82.993  1.00  0.00    -0.315 N 
HETATM   12  C1  UNL     1       0.516   6.763  83.856  1.00  0.00     0.159 C 
HETATM   13  C2  UNL     1      -0.985   4.827  83.614  1.00  0.00     0.242 C 
HETATM   14  O1  UNL     1      -1.521   3.905  82.950  1.00  0.00    -0.271 OA
BRANCH  13  15
HETATM   15  C3  UNL     1      -1.293   4.950  85.038  1.00  0.00     0.236 C 
BRANCH  15  16
HETATM   16  N2  UNL     1      -1.436   3.672  85.699  1.00  0.00    -0.301 N 
HETATM   17  C4  UNL     1      -2.630   3.223  86.085  1.00  0.00     0.102 A 
HETATM   18  C5  UNL     1      -2.820   2.009  86.708  1.00  0.00     0.092 A 
HETATM   19  C6  UNL     1      -1.689   1.245  86.924  1.00  0.00     0.250 A 
HETATM   20  O2  UNL     1      -1.799   0.110  87.497  1.00  0.00    -0.268 OA
HETATM   21  N3  UNL     1      -0.480   1.699  86.533  1.00  0.00    -0.275 N 
HETATM   22  C7  UNL     1      -0.355   2.910  85.921  1.00  0.00     0.329 A 
ATOM     23  H3  UNL     1       0.349   1.128  86.697  1.00  0.00     0.173 HD
HETATM   24  O3  UNL     1       0.769   3.316  85.565  1.00  0.00    -0.246 OA
ENDBRANCH  15  16
ENDBRANCH  13  15
ENDBRANCH   1  11
BRANCH   2  25
HETATM   25  C10 UNL     1       2.337   4.491  81.804  1.00  0.00     0.229 C 
BRANCH  25  26
HETATM   26  N4  UNL     1       3.704   4.923  81.549  1.00  0.00    -0.224 N 
HETATM   27  N5  UNL     1       4.648   4.363  80.862  1.00  0.00    -0.266 N 
HETATM   28  C11 UNL     1       5.791   5.060  80.855  1.00  0.00     0.202 A 
ATOM     29  H5  UNL     1       4.531   3.476  80.373  1.00  0.00     0.190 HD
HETATM   30  N6  UNL     1       7.025   4.738  80.208  1.00  0.00    -0.075 NA
HETATM   31  C12 UNL     1       5.523   6.180  81.628  1.00  0.00     0.303 A 
HETATM   32  O4  UNL     1       6.353   7.103  81.874  1.00  0.00    -0.263 OA
HETATM   33  N7  UNL     1       4.256   6.058  82.026  1.00  0.00    -0.246 N 
ATOM     34  H7  UNL     1       3.769   6.734  82.614  1.00  0.00     0.192 HD
ENDBRANCH  25  26
ENDBRANCH   2  25
TORSDOF 5
ENDMDL
MODEL 4
REMARK VINA RESULT: -7.545196350      2.112      3.050
REMARK  5 active torsions:
REMARK  status: ('A' for Active; 'I' for Inactive)
REMARK       I    between atoms: N1_2  and  C2_3 
REMARK    1  A    between atoms: N1_2  and  C8_15 
REMARK    2  A    between atoms: C2_3  and  C3_5 
REMARK    3  A    between atoms: C3_5  and  N2_6 
REMARK    4  A    between atoms: C9_16  and  C10_17 
REMARK    5  A    between atoms: C10_17  and  N4_18 
ROOT
HETATM    1  C8  UNL     1      -1.029   6.597  81.885  1.00  0.00     0.130 A 
HETATM    2  C9  UNL     1      -0.348   5.987  80.878  1.00  0.00     0.067 A 
HETATM    3  N8  UNL     1      -0.600   6.344  79.566  1.00  0.00    -0.308 N 
ATOM      4  H8  UNL     1      -0.078   5.876  78.824  1.00  0.00     0.170 HD
HETATM    5  C13 UNL     1      -1.496   7.274  79.227  1.00  0.00     0.327 A 
HETATM    6  O5  UNL     1      -1.717   7.592  78.018  1.00  0.00    -0.247 OA
HETATM    7  N9  UNL     1      -2.168   7.874  80.220  1.00  0.00    -0.274 N 
ATOM      8  H9  UNL     1      -2.858   8.588  79.983  1.00  0.00     0.173 HD
HETATM    9  C14 UNL     1      -1.970   7.574  81.512  1.00  0.00     0.278 A 
HETATM   10  O6  UNL     1      -2.598   8.133  82.449  1.00  0.00    -0.265 OA
ENDROOT
BRANCH   1  11
HETATM   11  N1  UNL     1      -0.829   6.358  83.278  1.00  0.00    -0.315 N 
HETATM   12  C1  UNL     1       0.202   7.119  84.001  1.00  0.00     0.159 C 
HETATM   13  C2  UNL     1      -1.597   5.440  84.038  1.00  0.00     0.242 C 
HETATM   14  O1  UNL     1      -2.475   4.731  83.485  1.00  0.00    -0.271 OA
BRANCH  13  15
HETATM   15  C3  UNL     1      -1.380   5.310  85.477  1.00  0.00     0.236 C 
BRANCH  15  16
HETATM   16  N2  UNL     1      -1.488   3.946  85.945  1.00  0.00    -0.301 N 
HETATM   17  C4  UNL     1      -2.639   3.464  86.414  1.00  0.00     0.102 A 
HETATM   18  C5  UNL     1      -2.795   2.170  86.861  1.00  0.00     0.092 A 
HETATM   19  C6  UNL     1      -1.677   1.360  86.803  1.00  0.00     0.250 A 
HETATM   20  O2  UNL     1      -1.757   0.150  87.202  1.00  0.00    -0.268 OA
HETATM   21  N3  UNL     1      -0.512   1.847  86.328  1.00  0.00    -0.275 N 
HETATM   22  C7  UNL     1      -0.419   3.137  85.900  1.00  0.00     0.329 A 
ATOM     23  H3  UNL     1       0.308   1.241  86.288  1.00  0.00     0.173 HD
HETATM   24  O3  UNL     1       0.665   3.573  85.463  1.00  0.00    -0.246 OA
ENDBRANCH  15  16
ENDBRANCH  13  15
ENDBRANCH   1  11
BRANCH   2  25
HETATM   25  C10 UNL     1       0.635   4.931  81.108  1.00  0.00     0.229 C 
BRANCH  25  26
HETATM   26  N4  UNL     1       2.021   5.342  80.927  1.00  0.00    -0.224 N 
HETATM   27  N5  UNL     1       2.765   5.342  79.868  1.00  0.00    -0.266 N 
HETATM   28  C11 UNL     1       4.007   5.792  80.086  1.00  0.00     0.202 A 
ATOM     29  H5  UNL     1       2.437   5.028  78.955  1.00  0.00     0.190 HD
HETATM   30  N6  UNL     1       5.082   5.923  79.153  1.00  0.00    -0.075 NA
HETATM   31  C12 UNL     1       4.033   6.107  81.437  1.00  0.00     0.303 A 
HETATM   32  O4  UNL     1       5.038   6.569  82.051  1.00  0.00    -0.263 OA
HETATM   33  N7  UNL     1       2.817   5.820  81.904  1.00  0.00    -0.246 N 
ATOM     34  H7  UNL     1       2.529   5.946  82.875  1.00  0.00     0.192 HD
ENDBRANCH  25  26
ENDBRANCH   2  25
TORSDOF 5
ENDMDL
MODEL 5
REMARK VINA RESULT: -7.518898622      3.440      4.370
REMARK  5 active torsions:
REMARK  status: ('A' for Active; 'I' for Inactive)
REMARK       I    between atoms: N1_2  and  C2_3 
REMARK    1  A    between atoms: N1_2  and  C8_15 
REMARK    2  A    between atoms: C2_3  and  C3_5 
REMARK    3  A    between atoms: C3_5  and  N2_6 
REMARK    4  A    between atoms: C9_16  and  C10_17 
REMARK    5  A    between atoms: C10_17  and  N4_18 
ROOT
HETATM    1  C8  UNL     1       1.013   5.434  81.542  1.00  0.00     0.130 A 
HETATM    2  C9  UNL     1       2.163   5.167  80.867  1.00  0.00     0.067 A 
HETATM    3  N8  UNL     1       2.169   5.203  79.484  1.00  0.00    -0.308 N 
ATOM      4  H8  UNL     1       3.041   5.000  78.995  1.00  0.00     0.170 HD
HETATM    5  C13 UNL     1       1.084   5.491  78.762  1.00  0.00     0.327 A 
HETATM    6  O5  UNL     1       1.105   5.521  77.492  1.00  0.00    -0.247 OA
HETATM    7  N9  UNL     1      -0.050   5.754  79.428  1.00  0.00    -0.274 N 
ATOM      8  H9  UNL     1      -0.891   5.976  78.895  1.00  0.00     0.173 HD
HETATM    9  C14 UNL     1      -0.122   5.736  80.767  1.00  0.00     0.278 A 
HETATM   10  O6  UNL     1      -1.182   5.981  81.399  1.00  0.00    -0.265 OA
ENDROOT
BRANCH   1  11
HETATM   11  N1  UNL     1       0.884   5.481  82.963  1.00  0.00    -0.315 N 
HETATM   12  C1  UNL     1       1.079   6.758  83.666  1.00  0.00     0.159 C 
HETATM   13  C2  UNL     1       0.540   4.359  83.759  1.00  0.00     0.242 C 
HETATM   14  O1  UNL     1       0.389   3.226  83.235  1.00  0.00    -0.271 OA
BRANCH  13  15
HETATM   15  C3  UNL     1       0.353   4.506  85.201  1.00  0.00     0.236 C 
BRANCH  15  16
HETATM   16  N2  UNL     1      -0.676   3.638  85.731  1.00  0.00    -0.301 N 
HETATM   17  C4  UNL     1      -1.961   3.993  85.708  1.00  0.00     0.102 A 
HETATM   18  C5  UNL     1      -2.977   3.198  86.189  1.00  0.00     0.092 A 
HETATM   19  C6  UNL     1      -2.605   1.976  86.714  1.00  0.00     0.250 A 
HETATM   20  O2  UNL     1      -3.501   1.193  87.177  1.00  0.00    -0.268 OA
HETATM   21  N3  UNL     1      -1.306   1.615  86.738  1.00  0.00    -0.275 N 
HETATM   22  C7  UNL     1      -0.344   2.446  86.246  1.00  0.00     0.329 A 
ATOM     23  H3  UNL     1      -1.040   0.710  87.128  1.00  0.00     0.173 HD
HETATM   24  O3  UNL     1       0.854   2.098  86.274  1.00  0.00    -0.246 OA
ENDBRANCH  15  16
ENDBRANCH  13  15
ENDBRANCH   1  11
BRANCH   2  25
HETATM   25  C10 UNL     1       3.412   4.805  81.533  1.00  0.00     0.229 C 
BRANCH  25  26
HETATM   26  N4  UNL     1       4.617   5.162  80.797  1.00  0.00    -0.224 N 
HETATM   27  N5  UNL     1       5.104   6.323  80.497  1.00  0.00    -0.266 N 
HETATM   28  C11 UNL     1       6.244   6.262  79.797  1.00  0.00     0.202 A 
ATOM     29  H5  UNL     1       4.662   7.201  80.768  1.00  0.00     0.190 HD
HETATM   30  N6  UNL     1       7.042   7.339  79.300  1.00  0.00    -0.075 NA
HETATM   31  C12 UNL     1       6.488   4.904  79.647  1.00  0.00     0.303 A 
HETATM   32  O4  UNL     1       7.482   4.413  79.035  1.00  0.00    -0.263 OA
HETATM   33  N7  UNL     1       5.485   4.279  80.263  1.00  0.00    -0.246 N 
ATOM     34  H7  UNL     1       5.388   3.266  80.323  1.00  0.00     0.192 HD
ENDBRANCH  25  26
ENDBRANCH   2  25
TORSDOF 5
ENDMDL
