MODEL 1
REMARK VINA RESULT: -7.449023605      0.000      0.000
REMARK  9 active torsions:
REMARK  status: ('A' for Active; 'I' for Inactive)
REMARK    1  A    between atoms: C3_3  and  N1_4 
REMARK    2  A    between atoms: C3_3  and  C7_20 
REMARK       I    between atoms: N1_4  and  C4_6 
REMARK    3  A    between atoms: C4_6  and  C5_8 
REMARK    4  A    between atoms: C5_8  and  N2_9 
REMARK    5  A    between atoms: C5_8  and  C6_13 
REMARK    6  A    between atoms: C6_13  and  O2_14 
REMARK    7  A    between atoms: C6_13  and  N3_16 
REMARK    8  A    between atoms: N3_16  and  N4_17 
REMARK    9  A    between atoms: C7_20  and  C8_22 
ROOT
HETATM    1  C1  UNL     1       3.822   4.312  81.376  1.00  0.00     0.014 C 
HETATM    2  C2  UNL     1       2.943   4.909  81.972  1.00  0.00    -0.084 C 
HETATM    3  C3  UNL     1       1.847   5.648  82.672  1.00  0.00     0.235 C 
ENDROOT
BRANCH   3   4
HETATM    4  N1  UNL     1       0.949   6.039  81.564  1.00  0.00    -0.337 N 
HETATM    5  C4  UNL     1       0.236   7.255  81.623  1.00  0.00     0.253 C 
HETATM    6  O1  UNL     1       0.355   8.040  82.630  1.00  0.00    -0.271 OA
ATOM      7  H1  UNL     1       0.846   5.428  80.753  1.00  0.00     0.164 HD
BRANCH   5   8
HETATM    8  C5  UNL     1      -0.676   7.697  80.548  1.00  0.00     0.320 C 
BRANCH   8   9
HETATM    9  N2  UNL     1      -2.010   7.955  81.089  1.00  0.00    -0.063 N 
ATOM     10  H23 UNL     1      -1.983   8.153  82.089  1.00  0.00     0.275 HD
ATOM     11  H22 UNL     1      -2.385   8.849  80.769  1.00  0.00     0.275 HD
ATOM     12  H21 UNL     1      -2.637   7.180  80.871  1.00  0.00     0.275 HD
ENDBRANCH   8   9
BRANCH   8  13
HETATM   13  C6  UNL     1      -0.789   6.665  79.419  1.00  0.00     0.270 C 
BRANCH  13  14
HETATM   14  O2  UNL     1      -1.168   5.456  79.929  1.00  0.00    -0.375 OA
ATOM     15  H2  UNL     1      -2.083   5.293  79.733  1.00  0.00     0.211 HD
ENDBRANCH  13  14
BRANCH  13  16
HETATM   16  N3  UNL     1       0.501   6.562  78.794  1.00  0.00    -0.114 NA
BRANCH  16  17
HETATM   17  N4  UNL     1       0.704   5.373  78.127  1.00  0.00    -0.346 N 
ATOM     18  H42 UNL     1       0.208   5.141  77.266  1.00  0.00     0.172 HD
ATOM     19  H41 UNL     1       1.386   4.760  78.573  1.00  0.00     0.172 HD
ENDBRANCH  16  17
ENDBRANCH  13  16
ENDBRANCH   8  13
ENDBRANCH   5   8
ENDBRANCH   3   4
BRANCH   3  20
HETATM   20  C7  UNL     1       1.172   4.686  83.546  1.00  0.00     0.192 C 
HETATM   21  O3  UNL     1       0.955   3.559  83.058  1.00  0.00    -0.292 OA
BRANCH  20  22
HETATM   22  C8  UNL     1       0.721   4.917  84.941  1.00  0.00     0.240 C 
HETATM   23  N5  UNL     1      -0.193   6.027  84.990  1.00  0.00    -0.300 N 
HETATM   24  S1  UNL     1      -1.770   5.665  84.455  1.00  0.00     0.231 S 
ATOM     25  H5  UNL     1       0.081   6.954  85.318  1.00  0.00     0.173 HD
HETATM   26  O4  UNL     1      -1.823   4.581  83.426  1.00  0.00    -0.206 OA
HETATM   27  O5  UNL     1      -2.482   6.874  83.917  1.00  0.00    -0.206 OA
HETATM   28  C9  UNL     1      -2.672   5.082  85.875  1.00  0.00     0.202 C 
HETATM   29  C10 UNL     1      -2.156   3.719  86.213  1.00  0.00    -0.029 A 
HETATM   30  C11 UNL     1      -3.245   2.990  86.685  1.00  0.00     0.009 A 
HETATM   31  C15 UNL     1      -0.913   3.181  86.131  1.00  0.00     0.020 A 
HETATM   32  C12 UNL     1      -3.047   1.687  87.078  1.00  0.00     0.001 A 
HETATM   33  C13 UNL     1      -1.811   1.082  87.018  1.00  0.00     0.001 A 
HETATM   34  C14 UNL     1      -0.772   1.845  86.546  1.00  0.00     0.016 A 
HETATM   35  C16 UNL     1       0.348   3.729  85.689  1.00  0.00     0.190 C 
HETATM   36  O6  UNL     1       1.337   3.003  86.042  1.00  0.00    -0.290 OA
ENDBRANCH  20  22
ENDBRANCH   3  20
TORSDOF 9
ENDMDL
MODEL 2
REMARK VINA RESULT: -7.302644742      1.058      1.594
REMARK  9 active torsions:
REMARK  status: ('A' for Active; 'I' for Inactive)
REMARK    1  A    between atoms: C3_3  and  N1_4 
REMARK    2  A    between atoms: C3_3  and  C7_20 
REMARK       I    between atoms: N1_4  and  C4_6 
REMARK    3  A    between atoms: C4_6  and  C5_8 
REMARK    4  A    between atoms: C5_8  and  N2_9 
REMARK    5  A    between atoms: C5_8  and  C6_13 
REMARK    6  A    between atoms: C6_13  and  O2_14 
REMARK    7  A    between atoms: C6_13  and  N3_16 
REMARK    8  A    between atoms: N3_16  and  N4_17 
REMARK    9  A    between atoms: C7_20  and  C8_22 
ROOT
HETATM    1  C1  UNL     1       4.004   4.377  81.306  1.00  0.00     0.014 C 
HETATM    2  C2  UNL     1       2.997   4.906  81.744  1.00  0.00    -0.084 C 
HETATM    3  C3  UNL     1       1.747   5.554  82.248  1.00  0.00     0.235 C 
ENDROOT
BRANCH   3   4
HETATM    4  N1  UNL     1       0.890   5.605  81.044  1.00  0.00    -0.337 N 
HETATM    5  C4  UNL     1       0.022   6.698  80.836  1.00  0.00     0.253 C 
HETATM    6  O1  UNL     1      -0.036   7.663  81.677  1.00  0.00    -0.271 OA
ATOM      7  H1  UNL     1       0.927   4.848  80.361  1.00  0.00     0.164 HD
BRANCH   5   8
HETATM    8  C5  UNL     1      -0.858   6.803  79.653  1.00  0.00     0.320 C 
BRANCH   8   9
HETATM    9  N2  UNL     1      -0.072   7.128  78.463  1.00  0.00    -0.063 N 
ATOM     10  H23 UNL     1       0.262   8.092  78.480  1.00  0.00     0.275 HD
ATOM     11  H22 UNL     1       0.831   6.656  78.463  1.00  0.00     0.275 HD
ATOM     12  H21 UNL     1      -0.608   6.926  77.619  1.00  0.00     0.275 HD
ENDBRANCH   8   9
BRANCH   8  13
HETATM   13  C6  UNL     1      -1.950   7.864  79.833  1.00  0.00     0.270 C 
BRANCH  13  14
HETATM   14  O2  UNL     1      -2.879   7.430  80.736  1.00  0.00    -0.375 OA
ATOM     15  H2  UNL     1      -2.510   6.739  81.274  1.00  0.00     0.211 HD
ENDBRANCH  13  14
BRANCH  13  16
HETATM   16  N3  UNL     1      -2.563   8.080  78.550  1.00  0.00    -0.114 NA
BRANCH  16  17
HETATM   17  N4  UNL     1      -3.660   8.913  78.590  1.00  0.00    -0.346 N 
ATOM     18  H42 UNL     1      -4.494   8.739  78.030  1.00  0.00     0.172 HD
ATOM     19  H41 UNL     1      -3.555   9.705  79.224  1.00  0.00     0.172 HD
ENDBRANCH  16  17
ENDBRANCH  13  16
ENDBRANCH   8  13
ENDBRANCH   5   8
ENDBRANCH   3   4
BRANCH   3  20
HETATM   20  C7  UNL     1       1.163   4.647  83.238  1.00  0.00     0.192 C 
HETATM   21  O3  UNL     1       1.004   3.465  82.873  1.00  0.00    -0.292 OA
BRANCH  20  22
HETATM   22  C8  UNL     1       0.744   4.989  84.620  1.00  0.00     0.240 C 
HETATM   23  N5  UNL     1      -0.187   6.085  84.598  1.00  0.00    -0.300 N 
HETATM   24  S1  UNL     1      -1.771   5.655  84.139  1.00  0.00     0.231 S 
ATOM     25  H5  UNL     1       0.079   7.041  84.838  1.00  0.00     0.173 HD
HETATM   26  O4  UNL     1      -1.832   4.487  83.207  1.00  0.00    -0.206 OA
HETATM   27  O5  UNL     1      -2.517   6.803  83.519  1.00  0.00    -0.206 OA
HETATM   28  C9  UNL     1      -2.626   5.182  85.626  1.00  0.00     0.202 C 
HETATM   29  C10 UNL     1      -2.078   3.861  86.066  1.00  0.00    -0.029 A 
HETATM   30  C11 UNL     1      -3.142   3.160  86.627  1.00  0.00     0.009 A 
HETATM   31  C15 UNL     1      -0.829   3.337  85.996  1.00  0.00     0.020 A 
HETATM   32  C12 UNL     1      -2.912   1.898  87.124  1.00  0.00     0.001 A 
HETATM   33  C13 UNL     1      -1.668   1.309  87.083  1.00  0.00     0.001 A 
HETATM   34  C14 UNL     1      -0.655   2.044  86.520  1.00  0.00     0.016 A 
HETATM   35  C16 UNL     1       0.411   3.864  85.476  1.00  0.00     0.190 C 
HETATM   36  O6  UNL     1       1.420   3.186  85.863  1.00  0.00    -0.290 OA
ENDBRANCH  20  22
ENDBRANCH   3  20
TORSDOF 9
ENDMDL
MODEL 3
REMARK VINA RESULT: -7.068413981      1.553      1.792
REMARK  9 active torsions:
REMARK  status: ('A' for Active; 'I' for Inactive)
REMARK    1  A    between atoms: C3_3  and  N1_4 
REMARK    2  A    between atoms: C3_3  and  C7_20 
REMARK       I    between atoms: N1_4  and  C4_6 
REMARK    3  A    between atoms: C4_6  and  C5_8 
REMARK    4  A    between atoms: C5_8  and  N2_9 
REMARK    5  A    between atoms: C5_8  and  C6_13 
REMARK    6  A    between atoms: C6_13  and  O2_14 
REMARK    7  A    between atoms: C6_13  and  N3_16 
REMARK    8  A    between atoms: N3_16  and  N4_17 
REMARK    9  A    between atoms: C7_20  and  C8_22 
ROOT
HETATM    1  C1  UNL     1       4.836   4.319  80.861  1.00  0.00     0.014 C 
HETATM    2  C2  UNL     1       3.876   4.996  81.185  1.00  0.00    -0.084 C 
HETATM    3  C3  UNL     1       2.683   5.822  81.548  1.00  0.00     0.235 C 
ENDROOT
BRANCH   3   4
HETATM    4  N1  UNL     1       1.892   5.832  80.298  1.00  0.00    -0.337 N 
HETATM    5  C4  UNL     1       1.129   6.967  79.950  1.00  0.00     0.253 C 
HETATM    6  O1  UNL     1       1.111   8.005  80.702  1.00  0.00    -0.271 OA
ATOM      7  H1  UNL     1       1.899   5.016  79.687  1.00  0.00     0.164 HD
BRANCH   5   8
HETATM    8  C5  UNL     1       0.318   7.033  78.716  1.00  0.00     0.320 C 
BRANCH   8   9
HETATM    9  N2  UNL     1      -1.070   6.671  79.002  1.00  0.00    -0.063 N 
ATOM     10  H23 UNL     1      -1.551   7.397  79.535  1.00  0.00     0.275 HD
ATOM     11  H22 UNL     1      -1.650   6.692  78.164  1.00  0.00     0.275 HD
ATOM     12  H21 UNL     1      -1.110   5.765  79.471  1.00  0.00     0.275 HD
ENDBRANCH   8   9
BRANCH   8  13
HETATM   13  C6  UNL     1       0.855   6.110  77.616  1.00  0.00     0.270 C 
BRANCH  13  14
HETATM   14  O2  UNL     1       0.694   4.804  77.982  1.00  0.00    -0.375 OA
ATOM     15  H2  UNL     1       1.470   4.305  77.756  1.00  0.00     0.211 HD
ENDBRANCH  13  14
BRANCH  13  16
HETATM   16  N3  UNL     1       2.250   6.411  77.439  1.00  0.00    -0.114 NA
BRANCH  16  17
HETATM   17  N4  UNL     1       3.013   5.323  77.073  1.00  0.00    -0.346 N 
ATOM     18  H42 UNL     1       3.914   5.122  77.505  1.00  0.00     0.172 HD
ATOM     19  H41 UNL     1       2.591   4.750  76.342  1.00  0.00     0.172 HD
ENDBRANCH  16  17
ENDBRANCH  13  16
ENDBRANCH   8  13
ENDBRANCH   5   8
ENDBRANCH   3   4
BRANCH   3  20
HETATM   20  C7  UNL     1       1.959   5.095  82.593  1.00  0.00     0.192 C 
HETATM   21  O3  UNL     1       1.859   3.862  82.433  1.00  0.00    -0.292 OA
BRANCH  20  22
HETATM   22  C8  UNL     1       1.337   5.671  83.810  1.00  0.00     0.240 C 
HETATM   23  N5  UNL     1       0.340   6.641  83.444  1.00  0.00    -0.300 N 
HETATM   24  S1  UNL     1      -1.134   5.970  82.912  1.00  0.00     0.231 S 
ATOM     25  H5  UNL     1       0.501   7.647  83.500  1.00  0.00     0.173 HD
HETATM   26  O4  UNL     1      -0.985   4.634  82.256  1.00  0.00    -0.206 OA
HETATM   27  O5  UNL     1      -1.873   6.885  81.977  1.00  0.00    -0.206 OA
HETATM   28  C9  UNL     1      -2.142   5.732  84.359  1.00  0.00     0.202 C 
HETATM   29  C10 UNL     1      -1.562   4.592  85.135  1.00  0.00    -0.029 A 
HETATM   30  C11 UNL     1      -2.637   3.919  85.711  1.00  0.00     0.009 A 
HETATM   31  C15 UNL     1      -0.280   4.191  85.324  1.00  0.00     0.020 A 
HETATM   32  C12 UNL     1      -2.383   2.816  86.493  1.00  0.00     0.001 A 
HETATM   33  C13 UNL     1      -1.104   2.359  86.723  1.00  0.00     0.001 A 
HETATM   34  C14 UNL     1      -0.083   3.059  86.133  1.00  0.00     0.016 A 
HETATM   35  C16 UNL     1       0.976   4.720  84.846  1.00  0.00     0.190 C 
HETATM   36  O6  UNL     1       1.973   4.241  85.484  1.00  0.00    -0.290 OA
ENDBRANCH  20  22
ENDBRANCH   3  20
TORSDOF 9
ENDMDL
MODEL 4
REMARK VINA RESULT: -6.994636172      2.470      3.831
REMARK  9 active torsions:
REMARK  status: ('A' for Active; 'I' for Inactive)
REMARK    1  A    between atoms: C3_3  and  N1_4 
REMARK    2  A    between atoms: C3_3  and  C7_20 
REMARK       I    between atoms: N1_4  and  C4_6 
REMARK    3  A    between atoms: C4_6  and  C5_8 
REMARK    4  A    between atoms: C5_8  and  N2_9 
REMARK    5  A    between atoms: C5_8  and  C6_13 
REMARK    6  A    between atoms: C6_13  and  O2_14 
REMARK    7  A    between atoms: C6_13  and  N3_16 
REMARK    8  A    between atoms: N3_16  and  N4_17 
REMARK    9  A    between atoms: C7_20  and  C8_22 
ROOT
HETATM    1  C1  UNL     1       1.273  10.048  84.245  1.00  0.00     0.014 C 
HETATM    2  C2  UNL     1       0.931   8.978  83.771  1.00  0.00    -0.084 C 
HETATM    3  C3  UNL     1       0.548   7.656  83.188  1.00  0.00     0.235 C 
ENDROOT
BRANCH   3   4
HETATM    4  N1  UNL     1       1.851   6.979  83.014  1.00  0.00    -0.337 N 
HETATM    5  C4  UNL     1       2.483   6.968  81.752  1.00  0.00     0.253 C 
HETATM    6  O1  UNL     1       1.945   7.545  80.741  1.00  0.00    -0.271 OA
ATOM      7  H1  UNL     1       2.295   6.519  83.808  1.00  0.00     0.164 HD
BRANCH   5   8
HETATM    8  C5  UNL     1       3.784   6.307  81.517  1.00  0.00     0.320 C 
BRANCH   8   9
HETATM    9  N2  UNL     1       4.800   7.297  81.166  1.00  0.00    -0.063 N 
ATOM     10  H23 UNL     1       5.315   7.033  80.326  1.00  0.00     0.275 HD
ATOM     11  H22 UNL     1       4.385   8.163  80.821  1.00  0.00     0.275 HD
ATOM     12  H21 UNL     1       5.422   7.463  81.958  1.00  0.00     0.275 HD
ENDBRANCH   8   9
BRANCH   8  13
HETATM   13  C6  UNL     1       3.709   5.255  80.404  1.00  0.00     0.270 C 
BRANCH  13  14
HETATM   14  O2  UNL     1       2.404   4.956  80.131  1.00  0.00    -0.375 OA
ATOM     15  H2  UNL     1       2.357   4.327  79.421  1.00  0.00     0.211 HD
ENDBRANCH  13  14
BRANCH  13  16
HETATM   16  N3  UNL     1       4.405   4.084  80.863  1.00  0.00    -0.114 NA
BRANCH  16  17
HETATM   17  N4  UNL     1       3.959   3.612  82.079  1.00  0.00    -0.346 N 
ATOM     18  H42 UNL     1       4.419   3.851  82.957  1.00  0.00     0.172 HD
ATOM     19  H41 UNL     1       3.138   3.010  82.012  1.00  0.00     0.172 HD
ENDBRANCH  16  17
ENDBRANCH  13  16
ENDBRANCH   8  13
ENDBRANCH   5   8
ENDBRANCH   3   4
BRANCH   3  20
HETATM   20  C7  UNL     1      -0.248   6.956  84.198  1.00  0.00     0.192 C 
HETATM   21  O3  UNL     1      -0.028   7.272  85.385  1.00  0.00    -0.292 OA
BRANCH  20  22
HETATM   22  C8  UNL     1      -1.278   5.916  83.956  1.00  0.00     0.240 C 
HETATM   23  N5  UNL     1      -0.858   5.040  82.895  1.00  0.00    -0.300 N 
HETATM   24  S1  UNL     1       0.311   3.888  83.354  1.00  0.00     0.231 S 
ATOM     25  H5  UNL     1      -1.230   5.103  81.947  1.00  0.00     0.173 HD
HETATM   26  O4  UNL     1       1.202   4.344  84.465  1.00  0.00    -0.206 OA
HETATM   27  O5  UNL     1       1.168   3.453  82.199  1.00  0.00    -0.206 OA
HETATM   28  C9  UNL     1      -0.577   2.464  83.947  1.00  0.00     0.202 C 
HETATM   29  C10 UNL     1      -1.176   2.820  85.271  1.00  0.00    -0.029 A 
HETATM   30  C11 UNL     1      -1.141   1.662  86.044  1.00  0.00     0.009 A 
HETATM   31  C15 UNL     1      -1.686   3.984  85.744  1.00  0.00     0.020 A 
HETATM   32  C12 UNL     1      -1.642   1.707  87.324  1.00  0.00     0.001 A 
HETATM   33  C13 UNL     1      -2.174   2.858  87.863  1.00  0.00     0.001 A 
HETATM   34  C14 UNL     1      -2.183   3.969  87.059  1.00  0.00     0.016 A 
HETATM   35  C16 UNL     1      -1.834   5.288  85.142  1.00  0.00     0.190 C 
HETATM   36  O6  UNL     1      -2.628   6.036  85.804  1.00  0.00    -0.290 OA
ENDBRANCH  20  22
ENDBRANCH   3  20
TORSDOF 9
ENDMDL
MODEL 5
REMARK VINA RESULT: -6.987025329      1.580      2.045
REMARK  9 active torsions:
REMARK  status: ('A' for Active; 'I' for Inactive)
REMARK    1  A    between atoms: C3_3  and  N1_4 
REMARK    2  A    between atoms: C3_3  and  C7_20 
REMARK       I    between atoms: N1_4  and  C4_6 
REMARK    3  A    between atoms: C4_6  and  C5_8 
REMARK    4  A    between atoms: C5_8  and  N2_9 
REMARK    5  A    between atoms: C5_8  and  C6_13 
REMARK    6  A    between atoms: C6_13  and  O2_14 
REMARK    7  A    between atoms: C6_13  and  N3_16 
REMARK    8  A    between atoms: N3_16  and  N4_17 
REMARK    9  A    between atoms: C7_20  and  C8_22 
ROOT
HETATM    1  C1  UNL     1       4.720   4.570  80.774  1.00  0.00     0.014 C 
HETATM    2  C2  UNL     1       3.710   5.180  81.079  1.00  0.00    -0.084 C 
HETATM    3  C3  UNL     1       2.457   5.922  81.421  1.00  0.00     0.235 C 
ENDROOT
BRANCH   3   4
HETATM    4  N1  UNL     1       1.661   5.820  80.179  1.00  0.00    -0.337 N 
HETATM    5  C4  UNL     1       0.781   6.861  79.812  1.00  0.00     0.253 C 
HETATM    6  O1  UNL     1       0.660   7.908  80.540  1.00  0.00    -0.271 OA
ATOM      7  H1  UNL     1       1.749   4.996  79.585  1.00  0.00     0.164 HD
BRANCH   5   8
HETATM    8  C5  UNL     1      -0.041   6.814  78.584  1.00  0.00     0.320 C 
BRANCH   8   9
HETATM    9  N2  UNL     1       0.716   7.336  77.447  1.00  0.00    -0.063 N 
ATOM     10  H23 UNL     1       0.440   8.289  77.211  1.00  0.00     0.275 HD
ATOM     11  H22 UNL     1       1.690   7.518  77.689  1.00  0.00     0.275 HD
ATOM     12  H21 UNL     1       0.634   6.706  76.648  1.00  0.00     0.275 HD
ENDBRANCH   8   9
BRANCH   8  13
HETATM   13  C6  UNL     1      -1.342   7.613  78.724  1.00  0.00     0.270 C 
BRANCH  13  14
HETATM   14  O2  UNL     1      -2.270   6.877  79.404  1.00  0.00    -0.375 OA
ATOM     15  H2  UNL     1      -2.019   5.961  79.409  1.00  0.00     0.211 HD
ENDBRANCH  13  14
BRANCH  13  16
HETATM   16  N3  UNL     1      -1.814   7.912  77.400  1.00  0.00    -0.114 NA
BRANCH  16  17
HETATM   17  N4  UNL     1      -2.739   8.932  77.355  1.00  0.00    -0.346 N 
ATOM     18  H42 UNL     1      -2.693   9.677  76.659  1.00  0.00     0.172 HD
ATOM     19  H41 UNL     1      -3.459   8.869  78.074  1.00  0.00     0.172 HD
ENDBRANCH  16  17
ENDBRANCH  13  16
ENDBRANCH   8  13
ENDBRANCH   5   8
ENDBRANCH   3   4
BRANCH   3  20
HETATM   20  C7  UNL     1       1.799   5.181  82.499  1.00  0.00     0.192 C 
HETATM   21  O3  UNL     1       1.686   3.950  82.328  1.00  0.00    -0.292 OA
BRANCH  20  22
HETATM   22  C8  UNL     1       1.257   5.740  83.762  1.00  0.00     0.240 C 
HETATM   23  N5  UNL     1       0.244   6.720  83.475  1.00  0.00    -0.300 N 
HETATM   24  S1  UNL     1      -1.264   6.063  83.025  1.00  0.00     0.231 S 
ATOM     25  H5  UNL     1       0.413   7.724  83.535  1.00  0.00     0.173 HD
HETATM   26  O4  UNL     1      -1.163   4.737  82.340  1.00  0.00    -0.206 OA
HETATM   27  O5  UNL     1      -2.055   6.995  82.152  1.00  0.00    -0.206 OA
HETATM   28  C9  UNL     1      -2.180   5.806  84.529  1.00  0.00     0.202 C 
HETATM   29  C10 UNL     1      -1.558   4.651  85.249  1.00  0.00    -0.029 A 
HETATM   30  C11 UNL     1      -2.598   3.972  85.880  1.00  0.00     0.009 A 
HETATM   31  C15 UNL     1      -0.269   4.242  85.350  1.00  0.00     0.020 A 
HETATM   32  C12 UNL     1      -2.301   2.856  86.627  1.00  0.00     0.001 A 
HETATM   33  C13 UNL     1      -1.013   2.391  86.770  1.00  0.00     0.001 A 
HETATM   34  C14 UNL     1      -0.027   3.096  86.127  1.00  0.00     0.016 A 
HETATM   35  C16 UNL     1       0.957   4.774  84.803  1.00  0.00     0.190 C 
HETATM   36  O6  UNL     1       1.989   4.281  85.370  1.00  0.00    -0.290 OA
ENDBRANCH  20  22
ENDBRANCH   3  20
TORSDOF 9
ENDMDL
