MODEL 1
REMARK VINA RESULT: -8.492854040      0.000      0.000
REMARK  7 active torsions:
REMARK  status: ('A' for Active; 'I' for Inactive)
REMARK    1  A    between atoms: N1_2  and  C2_4 
REMARK    2  A    between atoms: C2_4  and  O1_5 
REMARK    3  A    between atoms: C2_4  and  C3_7 
REMARK    4  A    between atoms: C3_7  and  O2_8 
REMARK    5  A    between atoms: C3_7  and  N2_10 
REMARK    6  A    between atoms: N2_10  and  N3_12 
REMARK    7  A    between atoms: C10_28  and  C11_29 
ROOT
HETATM    1  N3  UNL     1       0.271   1.268  82.877  1.00  0.00    -0.207 N 
HETATM    2  C4  UNL     1       0.185   0.026  82.186  1.00  0.00     0.345 C 
HETATM    3  O3  UNL     1       0.649  -1.106  82.462  1.00  0.00    -0.245 OA
HETATM    4  N4  UNL     1      -0.599   0.313  81.006  1.00  0.00    -0.275 N 
ATOM      5  H4  UNL     1      -0.858  -0.358  80.282  1.00  0.00     0.173 HD
HETATM    6  C5  UNL     1      -0.949   1.700  81.029  1.00  0.00     0.273 C 
HETATM    7  O4  UNL     1      -1.915   2.258  80.465  1.00  0.00    -0.269 OA
HETATM    8  C6  UNL     1       0.107   2.326  81.885  1.00  0.00     0.280 C 
HETATM    9  C7  UNL     1      -0.384   3.589  82.441  1.00  0.00     0.273 C 
HETATM   10  O5  UNL     1      -1.511   3.593  83.031  1.00  0.00    -0.269 OA
HETATM   11  N5  UNL     1       0.298   4.846  82.383  1.00  0.00    -0.276 N 
ATOM     12  H5  UNL     1       0.120   5.500  83.145  1.00  0.00     0.173 HD
HETATM   13  C8  UNL     1       1.206   5.278  81.361  1.00  0.00     0.325 C 
HETATM   14  O6  UNL     1       1.706   6.417  81.616  1.00  0.00    -0.247 OA
HETATM   15  N6  UNL     1       1.613   4.652  80.161  1.00  0.00    -0.320 N 
HETATM   16  C9  UNL     1       1.963   5.587  79.103  1.00  0.00     0.155 C 
HETATM   17  C10 UNL     1       1.709   3.246  79.882  1.00  0.00     0.231 C 
HETATM   18  C13 UNL     1       1.346   2.489  81.114  1.00  0.00     0.206 C 
HETATM   19  O8  UNL     1       2.301   1.867  81.584  1.00  0.00    -0.291 OA
ENDROOT
BRANCH   1  20
HETATM   20  N2  UNL     1       0.478   1.421  84.224  1.00  0.00    -0.295 N 
ATOM     21  H2  UNL     1       1.346   1.808  84.592  1.00  0.00     0.183 HD
BRANCH  20  22
HETATM   22  C3  UNL     1      -0.581   1.011  85.081  1.00  0.00     0.281 C 
BRANCH  22  23
HETATM   23  C2  UNL     1      -0.600   1.803  86.383  1.00  0.00     0.263 C 
BRANCH  23  24
HETATM   24  N1  UNL     1      -1.360   3.007  86.316  1.00  0.00    -0.398 N 
HETATM   25  C1  UNL     1      -2.617   2.999  86.990  1.00  0.00     0.142 C 
ATOM     26  H1  UNL     1      -1.023   3.829  85.814  1.00  0.00     0.155 HD
ENDBRANCH  23  24
BRANCH  23  27
HETATM   27  O1  UNL     1       0.700   2.105  86.768  1.00  0.00    -0.373 OA
ATOM     28  H1  UNL     1       0.806   1.904  87.690  1.00  0.00     0.212 HD
ENDBRANCH  23  27
ENDBRANCH  22  23
BRANCH  22  29
HETATM   29  O2  UNL     1      -0.365  -0.336  85.431  1.00  0.00    -0.371 OA
ATOM     30  H2  UNL     1       0.124  -0.727  84.717  1.00  0.00     0.212 HD
ENDBRANCH  22  29
ENDBRANCH  20  22
ENDBRANCH   1  20
BRANCH  17  31
HETATM   31  C11 UNL     1       3.078   2.854  79.439  1.00  0.00     0.153 C 
HETATM   32  C12 UNL     1       4.314   3.486  79.963  1.00  0.00     0.093 C 
HETATM   33  O7  UNL     1       3.211   1.973  78.609  1.00  0.00    -0.296 OA
ENDBRANCH  17  31
TORSDOF 7
ENDMDL
MODEL 2
REMARK VINA RESULT: -7.615897922      2.664      5.314
REMARK  7 active torsions:
REMARK  status: ('A' for Active; 'I' for Inactive)
REMARK    1  A    between atoms: N1_2  and  C2_4 
REMARK    2  A    between atoms: C2_4  and  O1_5 
REMARK    3  A    between atoms: C2_4  and  C3_7 
REMARK    4  A    between atoms: C3_7  and  O2_8 
REMARK    5  A    between atoms: C3_7  and  N2_10 
REMARK    6  A    between atoms: N2_10  and  N3_12 
REMARK    7  A    between atoms: C10_28  and  C11_29 
ROOT
HETATM    1  N3  UNL     1      -0.208   3.223  83.309  1.00  0.00    -0.207 N 
HETATM    2  C4  UNL     1       0.097   3.274  84.699  1.00  0.00     0.345 C 
HETATM    3  O3  UNL     1      -0.358   2.621  85.668  1.00  0.00    -0.245 OA
HETATM    4  N4  UNL     1       1.111   4.298  84.818  1.00  0.00    -0.275 N 
ATOM      5  H4  UNL     1       1.561   4.596  85.683  1.00  0.00     0.173 HD
HETATM    6  C5  UNL     1       1.374   4.819  83.511  1.00  0.00     0.273 C 
HETATM    7  O4  UNL     1       2.411   5.385  83.104  1.00  0.00    -0.269 OA
HETATM    8  C6  UNL     1       0.120   4.529  82.746  1.00  0.00     0.280 C 
HETATM    9  C7  UNL     1       0.407   4.501  81.310  1.00  0.00     0.273 C 
HETATM   10  O5  UNL     1       1.370   3.779  80.899  1.00  0.00    -0.269 OA
HETATM   11  N5  UNL     1      -0.310   5.224  80.303  1.00  0.00    -0.276 N 
ATOM     12  H5  UNL     1      -0.342   4.805  79.374  1.00  0.00     0.173 HD
HETATM   13  C8  UNL     1      -0.985   6.477  80.471  1.00  0.00     0.325 C 
HETATM   14  O6  UNL     1      -1.588   6.840  79.414  1.00  0.00    -0.247 OA
HETATM   15  N6  UNL     1      -1.077   7.335  81.589  1.00  0.00    -0.320 N 
HETATM   16  C9  UNL     1      -1.227   8.739  81.239  1.00  0.00     0.155 C 
HETATM   17  C10 UNL     1      -1.034   6.986  82.982  1.00  0.00     0.231 C 
HETATM   18  C13 UNL     1      -0.920   5.504  83.099  1.00  0.00     0.206 C 
HETATM   19  O8  UNL     1      -1.922   4.991  83.600  1.00  0.00    -0.291 OA
ENDROOT
BRANCH   1  20
HETATM   20  N2  UNL     1      -0.721   2.140  82.642  1.00  0.00    -0.295 N 
ATOM     21  H2  UNL     1      -1.668   2.142  82.265  1.00  0.00     0.183 HD
BRANCH  20  22
HETATM   22  C3  UNL     1       0.136   1.012  82.505  1.00  0.00     0.281 C 
BRANCH  22  23
HETATM   23  C2  UNL     1       0.097   0.434  81.096  1.00  0.00     0.263 C 
BRANCH  23  24
HETATM   24  N1  UNL     1       1.276   0.684  80.335  1.00  0.00    -0.398 N 
HETATM   25  C1  UNL     1       2.496   0.766  81.071  1.00  0.00     0.142 C 
ATOM     26  H1  UNL     1       1.249   0.797  79.322  1.00  0.00     0.155 HD
ENDBRANCH  23  24
BRANCH  23  27
HETATM   27  O1  UNL     1      -1.002   0.938  80.412  1.00  0.00    -0.373 OA
ATOM     28  H1  UNL     1      -1.402   1.627  80.930  1.00  0.00     0.212 HD
ENDBRANCH  23  27
ENDBRANCH  22  23
BRANCH  22  29
HETATM   29  O2  UNL     1      -0.327   0.001  83.369  1.00  0.00    -0.371 OA
ATOM     30  H2  UNL     1      -0.285   0.356  84.249  1.00  0.00     0.212 HD
ENDBRANCH  22  29
ENDBRANCH  20  22
ENDBRANCH   1  20
BRANCH  17  31
HETATM   31  C11 UNL     1      -2.246   7.453  83.716  1.00  0.00     0.153 C 
HETATM   32  C12 UNL     1      -2.183   8.229  84.979  1.00  0.00     0.093 C 
HETATM   33  O7  UNL     1      -3.351   7.197  83.273  1.00  0.00    -0.296 OA
ENDBRANCH  17  31
TORSDOF 7
ENDMDL
MODEL 3
REMARK VINA RESULT: -7.450460916      1.715      1.817
REMARK  7 active torsions:
REMARK  status: ('A' for Active; 'I' for Inactive)
REMARK    1  A    between atoms: N1_2  and  C2_4 
REMARK    2  A    between atoms: C2_4  and  O1_5 
REMARK    3  A    between atoms: C2_4  and  C3_7 
REMARK    4  A    between atoms: C3_7  and  O2_8 
REMARK    5  A    between atoms: C3_7  and  N2_10 
REMARK    6  A    between atoms: N2_10  and  N3_12 
REMARK    7  A    between atoms: C10_28  and  C11_29 
ROOT
HETATM    1  N3  UNL     1       0.570   2.387  82.273  1.00  0.00    -0.207 N 
HETATM    2  C4  UNL     1      -0.037   1.644  81.221  1.00  0.00     0.345 C 
HETATM    3  O3  UNL     1      -0.177   0.409  81.057  1.00  0.00    -0.245 OA
HETATM    4  N4  UNL     1      -0.508   2.642  80.287  1.00  0.00    -0.275 N 
ATOM      5  H4  UNL     1      -0.996   2.459  79.411  1.00  0.00     0.173 HD
HETATM    6  C5  UNL     1      -0.169   3.933  80.804  1.00  0.00     0.273 C 
HETATM    7  O4  UNL     1      -0.717   5.028  80.556  1.00  0.00    -0.269 OA
HETATM    8  C6  UNL     1       0.992   3.666  81.711  1.00  0.00     0.280 C 
HETATM    9  C7  UNL     1       1.109   4.740  82.701  1.00  0.00     0.273 C 
HETATM   10  O5  UNL     1       0.075   5.065  83.367  1.00  0.00    -0.269 OA
HETATM   11  N5  UNL     1       2.302   5.473  82.997  1.00  0.00    -0.276 N 
ATOM     12  H5  UNL     1       2.396   5.833  83.947  1.00  0.00     0.173 HD
HETATM   13  C8  UNL     1       3.378   5.753  82.093  1.00  0.00     0.325 C 
HETATM   14  O6  UNL     1       4.333   6.368  82.661  1.00  0.00    -0.247 OA
HETATM   15  N6  UNL     1       3.531   5.459  80.719  1.00  0.00    -0.320 N 
HETATM   16  C9  UNL     1       4.354   6.422  80.003  1.00  0.00     0.155 C 
HETATM   17  C10 UNL     1       2.979   4.358  79.980  1.00  0.00     0.231 C 
HETATM   18  C13 UNL     1       2.216   3.488  80.920  1.00  0.00     0.206 C 
HETATM   19  O8  UNL     1       2.732   2.378  81.059  1.00  0.00    -0.291 OA
ENDROOT
BRANCH   1  20
HETATM   20  N2  UNL     1       0.725   1.961  83.567  1.00  0.00    -0.295 N 
ATOM     21  H2  UNL     1       1.635   1.963  84.027  1.00  0.00     0.183 HD
BRANCH  20  22
HETATM   22  C3  UNL     1      -0.449   1.513  84.235  1.00  0.00     0.281 C 
BRANCH  22  23
HETATM   23  C2  UNL     1      -0.507   2.003  85.677  1.00  0.00     0.263 C 
BRANCH  23  24
HETATM   24  N1  UNL     1      -0.657   3.415  85.802  1.00  0.00    -0.398 N 
HETATM   25  C1  UNL     1      -1.995   3.909  85.815  1.00  0.00     0.142 C 
ATOM     26  H1  UNL     1       0.148   4.037  85.879  1.00  0.00     0.155 HD
ENDBRANCH  23  24
BRANCH  23  27
HETATM   27  O1  UNL     1       0.640   1.605  86.354  1.00  0.00    -0.373 OA
ATOM     28  H1  UNL     1       0.705   0.658  86.326  1.00  0.00     0.212 HD
ENDBRANCH  23  27
ENDBRANCH  22  23
BRANCH  22  29
HETATM   29  O2  UNL     1      -0.414   0.107  84.288  1.00  0.00    -0.371 OA
ATOM     30  H2  UNL     1      -0.225  -0.194  83.408  1.00  0.00     0.212 HD
ENDBRANCH  22  29
ENDBRANCH  20  22
ENDBRANCH   1  20
BRANCH  17  31
HETATM   31  C11 UNL     1       4.035   3.553  79.299  1.00  0.00     0.153 C 
HETATM   32  C12 UNL     1       5.464   3.585  79.696  1.00  0.00     0.093 C 
HETATM   33  O7  UNL     1       3.730   2.827  78.371  1.00  0.00    -0.296 OA
ENDBRANCH  17  31
TORSDOF 7
ENDMDL
MODEL 4
REMARK VINA RESULT: -7.338120135      1.928      5.979
REMARK  7 active torsions:
REMARK  status: ('A' for Active; 'I' for Inactive)
REMARK    1  A    between atoms: N1_2  and  C2_4 
REMARK    2  A    between atoms: C2_4  and  O1_5 
REMARK    3  A    between atoms: C2_4  and  C3_7 
REMARK    4  A    between atoms: C3_7  and  O2_8 
REMARK    5  A    between atoms: C3_7  and  N2_10 
REMARK    6  A    between atoms: N2_10  and  N3_12 
REMARK    7  A    between atoms: C10_28  and  C11_29 
ROOT
HETATM    1  N3  UNL     1       1.364   3.164  81.304  1.00  0.00    -0.207 N 
HETATM    2  C4  UNL     1       0.927   4.000  80.237  1.00  0.00     0.345 C 
HETATM    3  O3  UNL     1       1.548   4.828  79.530  1.00  0.00    -0.245 OA
HETATM    4  N4  UNL     1      -0.482   3.708  80.093  1.00  0.00    -0.275 N 
ATOM      5  H4  UNL     1      -1.113   4.132  79.414  1.00  0.00     0.173 HD
HETATM    6  C5  UNL     1      -0.835   2.721  81.066  1.00  0.00     0.273 C 
HETATM    7  O4  UNL     1      -1.788   1.913  81.031  1.00  0.00    -0.269 OA
HETATM    8  C6  UNL     1       0.200   2.881  82.137  1.00  0.00     0.280 C 
HETATM    9  C7  UNL     1       0.311   1.643  82.912  1.00  0.00     0.273 C 
HETATM   10  O5  UNL     1       0.469   0.548  82.285  1.00  0.00    -0.269 OA
HETATM   11  N5  UNL     1       0.260   1.547  84.339  1.00  0.00    -0.276 N 
ATOM     12  H5  UNL     1       0.780   0.781  84.767  1.00  0.00     0.173 HD
HETATM   13  C8  UNL     1      -0.451   2.418  85.228  1.00  0.00     0.325 C 
HETATM   14  O6  UNL     1      -0.255   2.121  86.447  1.00  0.00    -0.247 OA
HETATM   15  N6  UNL     1      -1.302   3.514  84.963  1.00  0.00    -0.320 N 
HETATM   16  C9  UNL     1      -2.330   3.714  85.973  1.00  0.00     0.155 C 
HETATM   17  C10 UNL     1      -1.268   4.415  83.844  1.00  0.00     0.231 C 
HETATM   18  C13 UNL     1      -0.117   4.047  82.971  1.00  0.00     0.206 C 
HETATM   19  O8  UNL     1       0.756   4.916  82.951  1.00  0.00    -0.291 OA
ENDROOT
BRANCH   1  20
HETATM   20  N2  UNL     1       2.648   2.723  81.499  1.00  0.00    -0.295 N 
ATOM     21  H2  UNL     1       3.205   3.031  82.296  1.00  0.00     0.183 HD
BRANCH  20  22
HETATM   22  C3  UNL     1       3.164   1.814  80.534  1.00  0.00     0.281 C 
BRANCH  22  23
HETATM   23  C2  UNL     1       4.046   2.513  79.506  1.00  0.00     0.263 C 
BRANCH  23  24
HETATM   24  N1  UNL     1       4.428   3.835  79.877  1.00  0.00    -0.398 N 
HETATM   25  C1  UNL     1       5.824   4.127  79.825  1.00  0.00     0.142 C 
ATOM     26  H1  UNL     1       3.743   4.534  80.163  1.00  0.00     0.155 HD
ENDBRANCH  23  24
BRANCH  23  27
HETATM   27  O1  UNL     1       3.395   2.555  78.280  1.00  0.00    -0.373 OA
ATOM     28  H1  UNL     1       3.452   1.701  77.868  1.00  0.00     0.212 HD
ENDBRANCH  23  27
ENDBRANCH  22  23
BRANCH  22  29
HETATM   29  O2  UNL     1       2.077   1.265  79.825  1.00  0.00    -0.371 OA
ATOM     30  H2  UNL     1       2.409   1.011  78.973  1.00  0.00     0.212 HD
ENDBRANCH  22  29
ENDBRANCH  20  22
ENDBRANCH   1  20
BRANCH  17  31
HETATM   31  C11 UNL     1      -1.136   5.838  84.272  1.00  0.00     0.153 C 
HETATM   32  C12 UNL     1      -1.956   6.937  83.707  1.00  0.00     0.093 C 
HETATM   33  O7  UNL     1      -0.322   6.133  85.128  1.00  0.00    -0.296 OA
ENDBRANCH  17  31
TORSDOF 7
ENDMDL
MODEL 5
REMARK VINA RESULT: -7.189006895      2.555      6.635
REMARK  7 active torsions:
REMARK  status: ('A' for Active; 'I' for Inactive)
REMARK    1  A    between atoms: N1_2  and  C2_4 
REMARK    2  A    between atoms: C2_4  and  O1_5 
REMARK    3  A    between atoms: C2_4  and  C3_7 
REMARK    4  A    between atoms: C3_7  and  O2_8 
REMARK    5  A    between atoms: C3_7  and  N2_10 
REMARK    6  A    between atoms: N2_10  and  N3_12 
REMARK    7  A    between atoms: C10_28  and  C11_29 
ROOT
HETATM    1  N3  UNL     1       3.626   4.750  81.514  1.00  0.00    -0.207 N 
HETATM    2  C4  UNL     1       3.085   6.056  81.673  1.00  0.00     0.345 C 
HETATM    3  O3  UNL     1       3.338   6.959  82.506  1.00  0.00    -0.245 OA
HETATM    4  N4  UNL     1       2.106   6.182  80.616  1.00  0.00    -0.275 N 
ATOM      5  H4  UNL     1       1.525   7.000  80.434  1.00  0.00     0.173 HD
HETATM    6  C5  UNL     1       2.093   4.961  79.872  1.00  0.00     0.273 C 
HETATM    7  O4  UNL     1       1.731   4.785  78.688  1.00  0.00    -0.269 OA
HETATM    8  C6  UNL     1       2.616   3.942  80.837  1.00  0.00     0.280 C 
HETATM    9  C7  UNL     1       3.163   2.797  80.107  1.00  0.00     0.273 C 
HETATM   10  O5  UNL     1       4.003   3.016  79.177  1.00  0.00    -0.269 OA
HETATM   11  N5  UNL     1       2.837   1.423  80.346  1.00  0.00    -0.276 N 
ATOM     12  H5  UNL     1       3.561   0.736  80.135  1.00  0.00     0.173 HD
HETATM   13  C8  UNL     1       1.596   0.917  80.853  1.00  0.00     0.325 C 
HETATM   14  O6  UNL     1       1.625  -0.341  81.021  1.00  0.00    -0.247 OA
HETATM   15  N6  UNL     1       0.391   1.580  81.178  1.00  0.00    -0.320 N 
HETATM   16  C9  UNL     1      -0.796   0.757  81.004  1.00  0.00     0.155 C 
HETATM   17  C10 UNL     1       0.218   2.930  81.641  1.00  0.00     0.231 C 
HETATM   18  C13 UNL     1       1.561   3.561  81.784  1.00  0.00     0.206 C 
HETATM   19  O8  UNL     1       1.840   3.813  82.957  1.00  0.00    -0.291 OA
ENDROOT
BRANCH   1  20
HETATM   20  N2  UNL     1       4.867   4.342  81.932  1.00  0.00    -0.295 N 
ATOM     21  H2  UNL     1       5.006   3.452  82.411  1.00  0.00     0.183 HD
BRANCH  20  22
HETATM   22  C3  UNL     1       5.951   5.224  81.665  1.00  0.00     0.281 C 
BRANCH  22  23
HETATM   23  C2  UNL     1       6.474   5.070  80.242  1.00  0.00     0.263 C 
BRANCH  23  24
HETATM   24  N1  UNL     1       5.654   5.690  79.255  1.00  0.00    -0.398 N 
HETATM   25  C1  UNL     1       5.635   7.117  79.255  1.00  0.00     0.142 C 
ATOM     26  H1  UNL     1       5.111   5.145  78.585  1.00  0.00     0.155 HD
ENDBRANCH  23  24
BRANCH  23  27
HETATM   27  O1  UNL     1       6.614   3.722  79.936  1.00  0.00    -0.373 OA
ATOM     28  H1  UNL     1       7.474   3.576  79.560  1.00  0.00     0.212 HD
ENDBRANCH  23  27
ENDBRANCH  22  23
BRANCH  22  29
HETATM   29  O2  UNL     1       7.014   4.884  82.524  1.00  0.00    -0.371 OA
ATOM     30  H2  UNL     1       6.638   4.762  83.387  1.00  0.00     0.212 HD
ENDBRANCH  22  29
ENDBRANCH  20  22
ENDBRANCH   1  20
BRANCH  17  31
HETATM   31  C11 UNL     1      -0.504   2.988  82.945  1.00  0.00     0.153 C 
HETATM   32  C12 UNL     1      -0.234   2.055  84.066  1.00  0.00     0.093 C 
HETATM   33  O7  UNL     1      -1.359   3.837  83.120  1.00  0.00    -0.296 OA
ENDBRANCH  17  31
TORSDOF 7
ENDMDL
