MODEL 1
REMARK VINA RESULT: -7.291200932      0.000      0.000
REMARK  8 active torsions:
REMARK  status: ('A' for Active; 'I' for Inactive)
REMARK       I    between atoms: N1_2  and  C2_3 
REMARK    1  A    between atoms: N1_2  and  C12_27 
REMARK    2  A    between atoms: C2_3  and  C3_5 
REMARK    3  A    between atoms: C3_5  and  C4_6 
REMARK    4  A    between atoms: C4_6  and  N2_7 
REMARK    5  A    between atoms: N2_7  and  C5_9 
REMARK    6  A    between atoms: C6_12  and  N4_13 
REMARK    7  A    between atoms: C14_32  and  C15_33 
REMARK    8  A    between atoms: C15_33  and  N9_34 
ROOT
HETATM    1  N2  UNL     1       2.028   6.420  81.921  1.00  0.00    -0.373 N 
ATOM      2  H2  UNL     1       1.043   6.587  81.717  1.00  0.00     0.161 HD
ENDROOT
BRANCH   1   3
HETATM    3  C4  UNL     1       2.603   7.187  82.978  1.00  0.00     0.130 C 
BRANCH   3   4
HETATM    4  C3  UNL     1       1.807   7.100  84.262  1.00  0.00     0.123 C 
BRANCH   4   5
HETATM    5  C2  UNL     1       1.493   5.696  84.614  1.00  0.00     0.227 C 
HETATM    6  N1  UNL     1       0.169   5.330  84.942  1.00  0.00    -0.294 N 
HETATM    7  C1  UNL     1      -0.860   6.379  84.919  1.00  0.00     0.162 C 
HETATM    8  O1  UNL     1       2.453   4.889  84.596  1.00  0.00    -0.273 OA
BRANCH   6   9
HETATM    9  C12 UNL     1      -0.199   4.001  85.293  1.00  0.00     0.187 C 
HETATM   10  N8  UNL     1       0.593   3.217  85.989  1.00  0.00    -0.297 N 
HETATM   11  C13 UNL     1      -0.020   1.958  86.195  1.00  0.00     0.248 C 
ATOM     12  H8  UNL     1       1.518   3.477  86.331  1.00  0.00     0.172 HD
HETATM   13  O3  UNL     1       0.463   0.849  86.503  1.00  0.00    -0.271 OA
HETATM   14  C14 UNL     1      -1.484   2.214  85.956  1.00  0.00     0.202 C 
HETATM   15  N10 UNL     1      -1.389   3.293  84.998  1.00  0.00    -0.347 N 
ATOM     16  H10 UNL     1      -2.052   3.504  84.252  1.00  0.00     0.163 HD
BRANCH  14  17
HETATM   17  C15 UNL     1      -2.077   2.729  87.228  1.00  0.00     0.264 C 
BRANCH  17  18
HETATM   18  N9  UNL     1      -1.806   1.862  88.360  1.00  0.00    -0.077 N 
ATOM     19  H93 UNL     1      -2.520   1.966  89.081  1.00  0.00     0.274 HD
ATOM     20  H92 UNL     1      -1.958   0.882  88.118  1.00  0.00     0.274 HD
ATOM     21  H91 UNL     1      -0.872   2.003  88.747  1.00  0.00     0.274 HD
ENDBRANCH  17  18
ENDBRANCH  14  17
ENDBRANCH   6   9
ENDBRANCH   4   5
ENDBRANCH   3   4
ENDBRANCH   1   3
BRANCH   1  22
HETATM   22  C5  UNL     1       2.619   5.547  81.205  1.00  0.00     0.146 A 
HETATM   23  N3  UNL     1       3.743   5.829  80.539  1.00  0.00    -0.175 N 
HETATM   24  C6  UNL     1       4.379   4.902  79.774  1.00  0.00     0.678 A 
ATOM     25  H3  UNL     1       4.135   6.769  80.606  1.00  0.00     0.186 HD
HETATM   26  N5  UNL     1       3.855   3.671  79.693  1.00  0.00    -0.184 N 
HETATM   27  C7  UNL     1       2.735   3.306  80.327  1.00  0.00     0.147 A 
ATOM     28  H5  UNL     1       4.334   2.978  79.118  1.00  0.00     0.184 HD
HETATM   29  C8  UNL     1       2.162   2.074  80.278  1.00  0.00     0.278 A 
HETATM   30  C11 UNL     1       2.098   4.282  81.110  1.00  0.00     0.111 A 
HETATM   31  O2  UNL     1       2.722   1.188  79.580  1.00  0.00    -0.265 OA
HETATM   32  N6  UNL     1       1.026   1.753  80.939  1.00  0.00    -0.313 N 
HETATM   33  C9  UNL     1       0.427   0.434  80.877  1.00  0.00     0.160 C 
HETATM   34  C10 UNL     1       0.447   2.727  81.682  1.00  0.00     0.186 A 
HETATM   35  N7  UNL     1       0.972   3.972  81.768  1.00  0.00    -0.347 N 
ATOM     36  H7  UNL     1       0.507   4.680  82.336  1.00  0.00     0.167 HD
BRANCH  24  37
HETATM   37  N4  UNL     1       5.477   5.223  79.139  1.00  0.00    -0.234 N 
ATOM     38  H42 UNL     1       6.367   4.766  79.344  1.00  0.00     0.174 HD
ATOM     39  H41 UNL     1       5.456   5.945  78.419  1.00  0.00     0.174 HD
ENDBRANCH  24  37
ENDBRANCH   1  22
TORSDOF 8
ENDMDL
MODEL 2
REMARK VINA RESULT: -7.251357387      1.683      1.878
REMARK  8 active torsions:
REMARK  status: ('A' for Active; 'I' for Inactive)
REMARK       I    between atoms: N1_2  and  C2_3 
REMARK    1  A    between atoms: N1_2  and  C12_27 
REMARK    2  A    between atoms: C2_3  and  C3_5 
REMARK    3  A    between atoms: C3_5  and  C4_6 
REMARK    4  A    between atoms: C4_6  and  N2_7 
REMARK    5  A    between atoms: N2_7  and  C5_9 
REMARK    6  A    between atoms: C6_12  and  N4_13 
REMARK    7  A    between atoms: C14_32  and  C15_33 
REMARK    8  A    between atoms: C15_33  and  N9_34 
ROOT
HETATM    1  N2  UNL     1      -0.513   5.862  81.088  1.00  0.00    -0.373 N 
ATOM      2  H2  UNL     1      -1.338   5.284  81.248  1.00  0.00     0.161 HD
ENDROOT
BRANCH   1   3
HETATM    3  C4  UNL     1      -0.569   7.205  81.566  1.00  0.00     0.130 C 
BRANCH   3   4
HETATM    4  C3  UNL     1      -0.753   7.284  83.065  1.00  0.00     0.123 C 
BRANCH   4   5
HETATM    5  C2  UNL     1      -1.076   5.959  83.645  1.00  0.00     0.227 C 
HETATM    6  N1  UNL     1      -0.098   5.255  84.383  1.00  0.00    -0.294 N 
HETATM    7  C1  UNL     1       1.221   5.881  84.547  1.00  0.00     0.162 C 
HETATM    8  O1  UNL     1      -2.235   5.529  83.440  1.00  0.00    -0.273 OA
BRANCH   6   9
HETATM    9  C12 UNL     1      -0.341   3.979  84.961  1.00  0.00     0.187 C 
HETATM   10  N8  UNL     1       0.510   3.412  85.787  1.00  0.00    -0.297 N 
HETATM   11  C13 UNL     1       0.020   2.154  86.210  1.00  0.00     0.248 C 
ATOM     12  H8  UNL     1       1.397   3.820  86.082  1.00  0.00     0.172 HD
HETATM   13  O3  UNL     1       0.603   1.171  86.711  1.00  0.00    -0.271 OA
HETATM   14  C14 UNL     1      -1.456   2.215  85.923  1.00  0.00     0.202 C 
HETATM   15  N10 UNL     1      -1.448   3.113  84.790  1.00  0.00    -0.347 N 
ATOM     16  H10 UNL     1      -2.112   3.121  84.016  1.00  0.00     0.163 HD
BRANCH  14  17
HETATM   17  C15 UNL     1      -2.125   2.881  87.082  1.00  0.00     0.264 C 
BRANCH  17  18
HETATM   18  N9  UNL     1      -1.931   2.161  88.328  1.00  0.00    -0.077 N 
ATOM     19  H93 UNL     1      -1.612   1.208  88.154  1.00  0.00     0.274 HD
ATOM     20  H92 UNL     1      -1.119   2.517  88.834  1.00  0.00     0.274 HD
ATOM     21  H91 UNL     1      -2.763   2.168  88.918  1.00  0.00     0.274 HD
ENDBRANCH  17  18
ENDBRANCH  14  17
ENDBRANCH   6   9
ENDBRANCH   4   5
ENDBRANCH   3   4
ENDBRANCH   1   3
BRANCH   1  22
HETATM   22  C5  UNL     1       0.462   5.310  80.481  1.00  0.00     0.146 A 
HETATM   23  N3  UNL     1       1.284   6.008  79.692  1.00  0.00    -0.175 N 
HETATM   24  C6  UNL     1       2.327   5.425  79.042  1.00  0.00     0.678 A 
ATOM     25  H3  UNL     1       1.125   7.009  79.574  1.00  0.00     0.186 HD
HETATM   26  N5  UNL     1       2.526   4.110  79.204  1.00  0.00    -0.184 N 
HETATM   27  C7  UNL     1       1.752   3.338  79.975  1.00  0.00     0.147 A 
ATOM     28  H5  UNL     1       3.309   3.676  78.715  1.00  0.00     0.184 HD
HETATM   29  C8  UNL     1       1.910   2.002  80.173  1.00  0.00     0.278 A 
HETATM   30  C11 UNL     1       0.683   3.965  80.635  1.00  0.00     0.111 A 
HETATM   31  O2  UNL     1       2.865   1.427  79.587  1.00  0.00    -0.265 OA
HETATM   32  N6  UNL     1       1.098   1.264  80.963  1.00  0.00    -0.313 N 
HETATM   33  C9  UNL     1       1.280  -0.160  81.165  1.00  0.00     0.160 C 
HETATM   34  C10 UNL     1       0.080   1.912  81.580  1.00  0.00     0.186 A 
HETATM   35  N7  UNL     1      -0.128   3.241  81.420  1.00  0.00    -0.347 N 
ATOM     36  H7  UNL     1      -0.905   3.694  81.899  1.00  0.00     0.167 HD
BRANCH  24  37
HETATM   37  N4  UNL     1       3.107   6.148  78.280  1.00  0.00    -0.234 N 
ATOM     38  H42 UNL     1       2.752   6.623  77.449  1.00  0.00     0.174 HD
ATOM     39  H41 UNL     1       4.096   6.246  78.511  1.00  0.00     0.174 HD
ENDBRANCH  24  37
ENDBRANCH   1  22
TORSDOF 8
ENDMDL
MODEL 3
REMARK VINA RESULT: -7.180329468      2.065      5.004
REMARK  8 active torsions:
REMARK  status: ('A' for Active; 'I' for Inactive)
REMARK       I    between atoms: N1_2  and  C2_3 
REMARK    1  A    between atoms: N1_2  and  C12_27 
REMARK    2  A    between atoms: C2_3  and  C3_5 
REMARK    3  A    between atoms: C3_5  and  C4_6 
REMARK    4  A    between atoms: C4_6  and  N2_7 
REMARK    5  A    between atoms: N2_7  and  C5_9 
REMARK    6  A    between atoms: C6_12  and  N4_13 
REMARK    7  A    between atoms: C14_32  and  C15_33 
REMARK    8  A    between atoms: C15_33  and  N9_34 
ROOT
HETATM    1  N2  UNL     1      -0.307   1.602  83.833  1.00  0.00    -0.373 N 
ATOM      2  H2  UNL     1      -0.908   2.396  83.614  1.00  0.00     0.161 HD
ENDROOT
BRANCH   1   3
HETATM    3  C4  UNL     1      -0.278   1.178  85.195  1.00  0.00     0.130 C 
BRANCH   3   4
HETATM    4  C3  UNL     1       0.054   2.303  86.151  1.00  0.00     0.123 C 
BRANCH   4   5
HETATM    5  C2  UNL     1      -0.080   3.627  85.499  1.00  0.00     0.227 C 
HETATM    6  N1  UNL     1      -1.309   4.322  85.560  1.00  0.00    -0.294 N 
HETATM    7  C1  UNL     1      -2.421   3.688  86.282  1.00  0.00     0.162 C 
HETATM    8  O1  UNL     1       0.939   4.067  84.916  1.00  0.00    -0.273 OA
BRANCH   6   9
HETATM    9  C12 UNL     1      -1.506   5.593  84.953  1.00  0.00     0.187 C 
HETATM   10  N8  UNL     1      -0.829   6.657  85.323  1.00  0.00    -0.297 N 
HETATM   11  C13 UNL     1      -1.222   7.780  84.557  1.00  0.00     0.248 C 
ATOM     12  H8  UNL     1      -0.122   6.672  86.058  1.00  0.00     0.172 HD
HETATM   13  O3  UNL     1      -1.093   9.004  84.766  1.00  0.00    -0.271 OA
HETATM   14  C14 UNL     1      -1.882   7.188  83.341  1.00  0.00     0.202 C 
HETATM   15  N10 UNL     1      -2.394   5.962  83.914  1.00  0.00    -0.347 N 
ATOM     16  H10 UNL     1      -3.233   5.460  83.624  1.00  0.00     0.163 HD
BRANCH  14  17
HETATM   17  C15 UNL     1      -0.813   6.864  82.347  1.00  0.00     0.264 C 
BRANCH  17  18
HETATM   18  N9  UNL     1       0.126   7.956  82.163  1.00  0.00    -0.077 N 
ATOM     19  H93 UNL     1      -0.358   8.853  82.120  1.00  0.00     0.274 HD
ATOM     20  H92 UNL     1       0.681   8.108  83.005  1.00  0.00     0.274 HD
ATOM     21  H91 UNL     1       0.725   7.824  81.347  1.00  0.00     0.274 HD
ENDBRANCH  17  18
ENDBRANCH  14  17
ENDBRANCH   6   9
ENDBRANCH   4   5
ENDBRANCH   3   4
ENDBRANCH   1   3
BRANCH   1  22
HETATM   22  C5  UNL     1       0.341   1.091  82.863  1.00  0.00     0.146 A 
HETATM   23  N3  UNL     1       0.382  -0.229  82.664  1.00  0.00    -0.175 N 
HETATM   24  C6  UNL     1       1.072  -0.782  81.630  1.00  0.00     0.678 A 
ATOM     25  H3  UNL     1      -0.118  -0.843  83.308  1.00  0.00     0.186 HD
HETATM   26  N5  UNL     1       1.726   0.033  80.791  1.00  0.00    -0.184 N 
HETATM   27  C7  UNL     1       1.736   1.365  80.917  1.00  0.00     0.147 A 
ATOM     28  H5  UNL     1       2.242  -0.384  80.016  1.00  0.00     0.184 HD
HETATM   29  C8  UNL     1       2.382   2.235  80.095  1.00  0.00     0.278 A 
HETATM   30  C11 UNL     1       1.017   1.908  81.992  1.00  0.00     0.111 A 
HETATM   31  O2  UNL     1       3.032   1.761  79.126  1.00  0.00    -0.265 OA
HETATM   32  N6  UNL     1       2.362   3.576  80.266  1.00  0.00    -0.313 N 
HETATM   33  C9  UNL     1       3.056   4.491  79.380  1.00  0.00     0.160 C 
HETATM   34  C10 UNL     1       1.655   4.056  81.318  1.00  0.00     0.186 A 
HETATM   35  N7  UNL     1       0.992   3.238  82.169  1.00  0.00    -0.347 N 
ATOM     36  H7  UNL     1       0.470   3.635  82.951  1.00  0.00     0.167 HD
BRANCH  24  37
HETATM   37  N4  UNL     1       1.085  -2.081  81.474  1.00  0.00    -0.234 N 
ATOM     38  H42 UNL     1       1.946  -2.586  81.263  1.00  0.00     0.174 HD
ATOM     39  H41 UNL     1       0.218  -2.612  81.562  1.00  0.00     0.174 HD
ENDBRANCH  24  37
ENDBRANCH   1  22
TORSDOF 8
ENDMDL
MODEL 4
REMARK VINA RESULT: -7.130458029      2.174      5.077
REMARK  8 active torsions:
REMARK  status: ('A' for Active; 'I' for Inactive)
REMARK       I    between atoms: N1_2  and  C2_3 
REMARK    1  A    between atoms: N1_2  and  C12_27 
REMARK    2  A    between atoms: C2_3  and  C3_5 
REMARK    3  A    between atoms: C3_5  and  C4_6 
REMARK    4  A    between atoms: C4_6  and  N2_7 
REMARK    5  A    between atoms: N2_7  and  C5_9 
REMARK    6  A    between atoms: C6_12  and  N4_13 
REMARK    7  A    between atoms: C14_32  and  C15_33 
REMARK    8  A    between atoms: C15_33  and  N9_34 
ROOT
HETATM    1  N2  UNL     1       0.635   1.992  83.748  1.00  0.00    -0.373 N 
ATOM      2  H2  UNL     1       1.607   1.885  84.035  1.00  0.00     0.161 HD
ENDROOT
BRANCH   1   3
HETATM    3  C4  UNL     1      -0.358   1.755  84.746  1.00  0.00     0.130 C 
BRANCH   3   4
HETATM    4  C3  UNL     1      -0.277   2.736  85.895  1.00  0.00     0.123 C 
BRANCH   4   5
HETATM    5  C2  UNL     1       0.249   4.049  85.452  1.00  0.00     0.227 C 
HETATM    6  N1  UNL     1      -0.642   5.058  85.024  1.00  0.00    -0.294 N 
HETATM    7  C1  UNL     1      -2.080   4.755  85.037  1.00  0.00     0.162 C 
HETATM    8  O1  UNL     1       1.494   4.191  85.488  1.00  0.00    -0.273 OA
BRANCH   6   9
HETATM    9  C12 UNL     1      -0.203   6.337  84.584  1.00  0.00     0.187 C 
HETATM   10  N8  UNL     1      -0.592   7.449  85.166  1.00  0.00    -0.297 N 
HETATM   11  C13 UNL     1      -0.006   8.568  84.530  1.00  0.00     0.248 C 
ATOM     12  H8  UNL     1      -1.227   7.498  85.963  1.00  0.00     0.172 HD
HETATM   13  O3  UNL     1      -0.324   9.775  84.531  1.00  0.00    -0.271 OA
HETATM   14  C14 UNL     1       1.171   7.998  83.784  1.00  0.00     0.202 C 
HETATM   15  N10 UNL     1       0.669   6.668  83.518  1.00  0.00    -0.347 N 
ATOM     16  H10 UNL     1       0.899   6.080  82.716  1.00  0.00     0.163 HD
BRANCH  14  17
HETATM   17  C15 UNL     1       2.323   7.914  84.733  1.00  0.00     0.264 C 
BRANCH  17  18
HETATM   18  N9  UNL     1       2.480   9.120  85.526  1.00  0.00    -0.077 N 
ATOM     19  H93 UNL     1       2.198   9.946  84.998  1.00  0.00     0.274 HD
ATOM     20  H92 UNL     1       1.788   9.160  86.275  1.00  0.00     0.274 HD
ATOM     21  H91 UNL     1       3.426   9.226  85.895  1.00  0.00     0.274 HD
ENDBRANCH  17  18
ENDBRANCH  14  17
ENDBRANCH   6   9
ENDBRANCH   4   5
ENDBRANCH   3   4
ENDBRANCH   1   3
BRANCH   1  22
HETATM   22  C5  UNL     1       0.431   2.323  82.535  1.00  0.00     0.146 A 
HETATM   23  N3  UNL     1      -0.610   1.849  81.843  1.00  0.00    -0.175 N 
HETATM   24  C6  UNL     1      -0.834   2.199  80.548  1.00  0.00     0.678 A 
ATOM     25  H3  UNL     1      -1.256   1.205  82.301  1.00  0.00     0.186 HD
HETATM   26  N5  UNL     1       0.021   3.045  79.958  1.00  0.00    -0.184 N 
HETATM   27  C7  UNL     1       1.087   3.565  80.577  1.00  0.00     0.147 A 
ATOM     28  H5  UNL     1      -0.149   3.305  78.986  1.00  0.00     0.184 HD
HETATM   29  C8  UNL     1       1.983   4.425  80.025  1.00  0.00     0.278 A 
HETATM   30  C11 UNL     1       1.295   3.188  81.913  1.00  0.00     0.111 A 
HETATM   31  O2  UNL     1       1.809   4.772  78.827  1.00  0.00    -0.265 OA
HETATM   32  N6  UNL     1       3.048   4.924  80.694  1.00  0.00    -0.313 N 
HETATM   33  C9  UNL     1       3.995   5.841  80.091  1.00  0.00     0.160 C 
HETATM   34  C10 UNL     1       3.208   4.532  81.981  1.00  0.00     0.186 A 
HETATM   35  N7  UNL     1       2.347   3.677  82.584  1.00  0.00    -0.347 N 
ATOM     36  H7  UNL     1       2.501   3.404  83.554  1.00  0.00     0.167 HD
BRANCH  24  37
HETATM   37  N4  UNL     1      -1.867   1.710  79.910  1.00  0.00    -0.234 N 
ATOM     38  H42 UNL     1      -2.216   0.771  80.098  1.00  0.00     0.174 HD
ATOM     39  H41 UNL     1      -2.341   2.274  79.203  1.00  0.00     0.174 HD
ENDBRANCH  24  37
ENDBRANCH   1  22
TORSDOF 8
ENDMDL
MODEL 5
REMARK VINA RESULT: -7.013540258      2.427      7.561
REMARK  8 active torsions:
REMARK  status: ('A' for Active; 'I' for Inactive)
REMARK       I    between atoms: N1_2  and  C2_3 
REMARK    1  A    between atoms: N1_2  and  C12_27 
REMARK    2  A    between atoms: C2_3  and  C3_5 
REMARK    3  A    between atoms: C3_5  and  C4_6 
REMARK    4  A    between atoms: C4_6  and  N2_7 
REMARK    5  A    between atoms: N2_7  and  C5_9 
REMARK    6  A    between atoms: C6_12  and  N4_13 
REMARK    7  A    between atoms: C14_32  and  C15_33 
REMARK    8  A    between atoms: C15_33  and  N9_34 
ROOT
HETATM    1  N2  UNL     1       0.386   1.204  83.446  1.00  0.00    -0.373 N 
ATOM      2  H2  UNL     1       1.229   1.692  83.144  1.00  0.00     0.161 HD
ENDROOT
BRANCH   1   3
HETATM    3  C4  UNL     1       0.043   0.017  82.732  1.00  0.00     0.130 C 
BRANCH   3   4
HETATM    4  C3  UNL     1       0.226   0.161  81.237  1.00  0.00     0.123 C 
BRANCH   4   5
HETATM    5  C2  UNL     1       0.130   1.577  80.811  1.00  0.00     0.227 C 
HETATM    6  N1  UNL     1       1.287   2.264  80.381  1.00  0.00    -0.294 N 
HETATM    7  C1  UNL     1       2.560   1.529  80.375  1.00  0.00     0.162 C 
HETATM    8  O1  UNL     1      -1.010   2.097  80.857  1.00  0.00    -0.273 OA
BRANCH   6   9
HETATM    9  C12 UNL     1       1.266   3.623  79.964  1.00  0.00     0.187 C 
HETATM   10  N8  UNL     1       1.986   4.549  80.556  1.00  0.00    -0.297 N 
HETATM   11  C13 UNL     1       1.775   5.805  79.941  1.00  0.00     0.248 C 
ATOM     12  H8  UNL     1       2.609   4.385  81.348  1.00  0.00     0.172 HD
HETATM   13  O3  UNL     1       1.985   6.966  80.349  1.00  0.00    -0.271 OA
HETATM   14  C14 UNL     1       1.203   5.465  78.591  1.00  0.00     0.202 C 
HETATM   15  N10 UNL     1       0.530   4.227  78.916  1.00  0.00    -0.347 N 
ATOM     16  H10 UNL     1      -0.313   3.860  78.474  1.00  0.00     0.163 HD
BRANCH  14  17
HETATM   17  C15 UNL     1       2.341   5.185  77.663  1.00  0.00     0.264 C 
BRANCH  17  18
HETATM   18  N9  UNL     1       3.369   6.210  77.715  1.00  0.00    -0.077 N 
ATOM     19  H93 UNL     1       3.092   6.976  78.329  1.00  0.00     0.274 HD
ATOM     20  H92 UNL     1       4.190   5.880  78.224  1.00  0.00     0.274 HD
ATOM     21  H91 UNL     1       3.625   6.555  76.790  1.00  0.00     0.274 HD
ENDBRANCH  17  18
ENDBRANCH  14  17
ENDBRANCH   6   9
ENDBRANCH   4   5
ENDBRANCH   3   4
ENDBRANCH   1   3
BRANCH   1  22
HETATM   22  C5  UNL     1      -0.252   1.717  84.421  1.00  0.00     0.146 A 
HETATM   23  N3  UNL     1      -0.543   1.012  85.518  1.00  0.00    -0.175 N 
HETATM   24  C6  UNL     1      -1.224   1.554  86.564  1.00  0.00     0.678 A 
ATOM     25  H3  UNL     1      -0.245   0.038  85.574  1.00  0.00     0.186 HD
HETATM   26  N5  UNL     1      -1.610   2.834  86.480  1.00  0.00    -0.184 N 
HETATM   27  C7  UNL     1      -1.360   3.611  85.419  1.00  0.00     0.147 A 
ATOM     28  H5  UNL     1      -2.121   3.238  87.266  1.00  0.00     0.184 HD
HETATM   29  C8  UNL     1      -1.729   4.912  85.284  1.00  0.00     0.278 A 
HETATM   30  C11 UNL     1      -0.656   3.026  84.355  1.00  0.00     0.111 A 
HETATM   31  O2  UNL     1      -2.362   5.449  86.232  1.00  0.00    -0.265 OA
HETATM   32  N6  UNL     1      -1.453   5.655  84.188  1.00  0.00    -0.313 N 
HETATM   33  C9  UNL     1      -1.853   7.043  84.060  1.00  0.00     0.160 C 
HETATM   34  C10 UNL     1      -0.771   5.050  83.186  1.00  0.00     0.186 A 
HETATM   35  N7  UNL     1      -0.378   3.756  83.265  1.00  0.00    -0.347 N 
ATOM     36  H7  UNL     1       0.133   3.334  82.490  1.00  0.00     0.167 HD
BRANCH  24  37
HETATM   37  N4  UNL     1      -1.486   0.826  87.619  1.00  0.00    -0.234 N 
ATOM     38  H42 UNL     1      -1.717   1.251  88.518  1.00  0.00     0.174 HD
ATOM     39  H41 UNL     1      -1.462  -0.192  87.554  1.00  0.00     0.174 HD
ENDBRANCH  24  37
ENDBRANCH   1  22
TORSDOF 8
ENDMDL
