MODEL 1
REMARK VINA RESULT: -8.457709232      0.000      0.000
REMARK  7 active torsions:
REMARK  status: ('A' for Active; 'I' for Inactive)
REMARK    1  A    between atoms: N3_4  and  N4_6 
REMARK    2  A    between atoms: C2_8  and  C3_9 
REMARK    3  A    between atoms: N5_11  and  C5_12 
REMARK    4  A    between atoms: C5_12  and  C6_13 
REMARK    5  A    between atoms: C6_13  and  O1_14 
REMARK    6  A    between atoms: C8_17  and  C9_18 
REMARK    7  A    between atoms: N10_33  and  O5_34 
ROOT
HETATM    1  C9  UNL     1       0.483   2.632  81.746  1.00  0.00     0.166 A 
HETATM    2  N6  UNL     1       1.690   3.028  82.153  1.00  0.00    -0.172 N 
ATOM      3  H6  UNL     1       2.267   2.383  82.693  1.00  0.00     0.186 HD
HETATM    4  C10 UNL     1       2.166   4.253  81.871  1.00  0.00     0.702 A 
HETATM    5  N7  UNL     1       3.401   4.617  82.305  1.00  0.00    -0.140 N 
ATOM      6  H7  UNL     1       3.969   3.965  82.845  1.00  0.00     0.189 HD
HETATM    7  C11 UNL     1       3.860   5.822  82.022  1.00  0.00     0.342 A 
HETATM    8  O2  UNL     1       5.010   6.165  82.424  1.00  0.00    -0.246 OA
HETATM    9  N8  UNL     1       3.167   6.741  81.311  1.00  0.00    -0.259 N 
ATOM     10  H8  UNL     1       3.550   7.665  81.108  1.00  0.00     0.175 HD
HETATM   11  C12 UNL     1       1.949   6.370  80.888  1.00  0.00     0.353 A 
HETATM   12  O3  UNL     1       1.236   7.172  80.216  1.00  0.00    -0.245 OA
HETATM   13  N9  UNL     1       1.446   5.142  81.160  1.00  0.00    -0.040 N 
HETATM   14  C13 UNL     1       0.228   4.777  80.733  1.00  0.00     0.377 A 
HETATM   15  O4  UNL     1      -0.455   5.598  80.068  1.00  0.00    -0.243 OA
HETATM   16  N10 UNL     1      -0.240   3.535  81.028  1.00  0.00    -0.153 N 
ENDROOT
BRANCH   1  17
HETATM   17  C8  UNL     1      -0.077   1.308  82.075  1.00  0.00     0.040 A 
HETATM   18  C3  UNL     1      -0.778   0.890  83.166  1.00  0.00     0.012 A 
HETATM   19  C4  UNL     1      -1.106  -0.468  82.926  1.00  0.00     0.104 A 
HETATM   20  N5  UNL     1      -0.632  -0.858  81.753  1.00  0.00    -0.363 N 
HETATM   21  C7  UNL     1      -0.009   0.207  81.234  1.00  0.00     0.106 A 
BRANCH  18  22
HETATM   22  C2  UNL     1      -1.206   1.581  84.351  1.00  0.00     0.121 C 
HETATM   23  N4  UNL     1      -1.590   1.068  85.441  1.00  0.00    -0.309 N 
ATOM     24  H4  UNL     1      -1.604   0.050  85.505  1.00  0.00     0.186 HD
BRANCH  23  25
HETATM   25  N3  UNL     1      -1.996   1.789  86.563  1.00  0.00    -0.276 N 
HETATM   26  C1  UNL     1      -2.567   1.159  87.537  1.00  0.00     0.215 C 
HETATM   27  N1  UNL     1      -2.786  -0.230  87.485  1.00  0.00    -0.065 NA
HETATM   28  N2  UNL     1      -3.000   1.852  88.707  1.00  0.00    -0.065 NA
ATOM     29  H3  UNL     1      -1.845   2.797  86.614  1.00  0.00     0.189 HD
ENDBRANCH  23  25
ENDBRANCH  18  22
BRANCH  20  30
HETATM   30  C5  UNL     1      -0.783  -2.191  81.189  1.00  0.00     0.153 C 
BRANCH  30  31
HETATM   31  C6  UNL     1       0.487  -2.995  81.325  1.00  0.00     0.184 C 
BRANCH  31  32
HETATM   32  O1  UNL     1       0.078  -4.317  81.617  1.00  0.00    -0.399 OA
ATOM     33  H1  UNL     1       0.871  -4.792  81.837  1.00  0.00     0.209 HD
ENDBRANCH  31  32
ENDBRANCH  30  31
ENDBRANCH  20  30
ENDBRANCH   1  17
BRANCH  16  34
HETATM   34  O5  UNL     1      -1.489   3.235  80.598  1.00  0.00    -0.277 OA
ATOM     35  H5  UNL     1      -2.238   3.738  80.895  1.00  0.00     0.245 HD
ENDBRANCH  16  34
TORSDOF 7
ENDMDL
MODEL 2
REMARK VINA RESULT: -7.983589543      2.621      6.802
REMARK  7 active torsions:
REMARK  status: ('A' for Active; 'I' for Inactive)
REMARK    1  A    between atoms: N3_4  and  N4_6 
REMARK    2  A    between atoms: C2_8  and  C3_9 
REMARK    3  A    between atoms: N5_11  and  C5_12 
REMARK    4  A    between atoms: C5_12  and  C6_13 
REMARK    5  A    between atoms: C6_13  and  O1_14 
REMARK    6  A    between atoms: C8_17  and  C9_18 
REMARK    7  A    between atoms: N10_33  and  O5_34 
ROOT
HETATM    1  C9  UNL     1      -0.266   3.187  83.677  1.00  0.00     0.166 A 
HETATM    2  N6  UNL     1      -0.409   2.034  84.331  1.00  0.00    -0.172 N 
ATOM      3  H6  UNL     1       0.228   1.264  84.126  1.00  0.00     0.186 HD
HETATM    4  C10 UNL     1      -1.371   1.857  85.254  1.00  0.00     0.702 A 
HETATM    5  N7  UNL     1      -1.483   0.666  85.898  1.00  0.00    -0.140 N 
ATOM      6  H7  UNL     1      -0.840  -0.096  85.684  1.00  0.00     0.189 HD
HETATM    7  C11 UNL     1      -2.430   0.503  86.803  1.00  0.00     0.342 A 
HETATM    8  O2  UNL     1      -2.537  -0.605  87.405  1.00  0.00    -0.246 OA
HETATM    9  N8  UNL     1      -3.318   1.466  87.142  1.00  0.00    -0.259 N 
ATOM     10  H8  UNL     1      -4.039   1.310  87.847  1.00  0.00     0.175 HD
HETATM   11  C12 UNL     1      -3.197   2.638  86.499  1.00  0.00     0.353 A 
HETATM   12  O3  UNL     1      -3.989   3.591  86.758  1.00  0.00    -0.245 OA
HETATM   13  N9  UNL     1      -2.238   2.840  85.565  1.00  0.00    -0.040 N 
HETATM   14  C13 UNL     1      -2.122   4.015  84.927  1.00  0.00     0.377 A 
HETATM   15  O4  UNL     1      -2.925   4.941  85.207  1.00  0.00    -0.243 OA
HETATM   16  N10 UNL     1      -1.146   4.177  83.995  1.00  0.00    -0.153 N 
ENDROOT
BRANCH   1  17
HETATM   17  C8  UNL     1       0.756   3.393  82.633  1.00  0.00     0.040 A 
HETATM   18  C3  UNL     1       1.264   2.529  81.711  1.00  0.00     0.012 A 
HETATM   19  C4  UNL     1       2.181   3.280  80.932  1.00  0.00     0.104 A 
HETATM   20  N5  UNL     1       2.228   4.533  81.356  1.00  0.00    -0.363 N 
HETATM   21  C7  UNL     1       1.372   4.609  82.382  1.00  0.00     0.106 A 
BRANCH  18  22
HETATM   22  C2  UNL     1       0.988   1.145  81.440  1.00  0.00     0.121 C 
HETATM   23  N4  UNL     1      -0.135   0.623  81.184  1.00  0.00    -0.309 N 
ATOM     24  H4  UNL     1      -0.948   1.239  81.162  1.00  0.00     0.186 HD
BRANCH  23  25
HETATM   25  N3  UNL     1      -0.346  -0.731  80.928  1.00  0.00    -0.276 N 
HETATM   26  C1  UNL     1      -0.831  -1.475  81.868  1.00  0.00     0.215 C 
HETATM   27  N1  UNL     1      -1.146  -0.948  83.135  1.00  0.00    -0.065 NA
HETATM   28  N2  UNL     1      -1.066  -2.867  81.656  1.00  0.00    -0.065 NA
ATOM     29  H3  UNL     1      -0.121  -1.127  80.016  1.00  0.00     0.189 HD
ENDBRANCH  23  25
ENDBRANCH  18  22
BRANCH  20  30
HETATM   30  C5  UNL     1       3.063   5.580  80.785  1.00  0.00     0.153 C 
BRANCH  30  31
HETATM   31  C6  UNL     1       3.940   6.219  81.834  1.00  0.00     0.184 C 
BRANCH  31  32
HETATM   32  O1  UNL     1       4.841   5.211  82.251  1.00  0.00    -0.399 OA
ATOM     33  H1  UNL     1       4.405   4.749  82.957  1.00  0.00     0.209 HD
ENDBRANCH  31  32
ENDBRANCH  30  31
ENDBRANCH  20  30
ENDBRANCH   1  17
BRANCH  16  34
HETATM   34  O5  UNL     1      -1.098   5.373  83.362  1.00  0.00    -0.277 OA
ATOM     35  H5  UNL     1      -0.375   5.588  82.785  1.00  0.00     0.245 HD
ENDBRANCH  16  34
TORSDOF 7
ENDMDL
MODEL 3
REMARK VINA RESULT: -7.743422386      2.927      5.227
REMARK  7 active torsions:
REMARK  status: ('A' for Active; 'I' for Inactive)
REMARK    1  A    between atoms: N3_4  and  N4_6 
REMARK    2  A    between atoms: C2_8  and  C3_9 
REMARK    3  A    between atoms: N5_11  and  C5_12 
REMARK    4  A    between atoms: C5_12  and  C6_13 
REMARK    5  A    between atoms: C6_13  and  O1_14 
REMARK    6  A    between atoms: C8_17  and  C9_18 
REMARK    7  A    between atoms: N10_33  and  O5_34 
ROOT
HETATM    1  C9  UNL     1      -0.411   3.123  83.538  1.00  0.00     0.166 A 
HETATM    2  N6  UNL     1       0.627   3.956  83.612  1.00  0.00    -0.172 N 
ATOM      3  H6  UNL     1       0.669   4.631  84.375  1.00  0.00     0.186 HD
HETATM    4  C10 UNL     1       1.621   3.932  82.707  1.00  0.00     0.702 A 
HETATM    5  N7  UNL     1       2.661   4.798  82.817  1.00  0.00    -0.140 N 
ATOM      6  H7  UNL     1       2.692   5.469  83.585  1.00  0.00     0.189 HD
HETATM    7  C11 UNL     1       3.632   4.766  81.924  1.00  0.00     0.342 A 
HETATM    8  O2  UNL     1       4.603   5.572  82.024  1.00  0.00    -0.246 OA
HETATM    9  N8  UNL     1       3.663   3.906  80.880  1.00  0.00    -0.259 N 
ATOM     10  H8  UNL     1       4.429   3.905  80.206  1.00  0.00     0.175 HD
HETATM   11  C12 UNL     1       2.631   3.056  80.780  1.00  0.00     0.353 A 
HETATM   12  O3  UNL     1       2.583   2.219  79.832  1.00  0.00    -0.245 OA
HETATM   13  N9  UNL     1       1.617   3.061  81.679  1.00  0.00    -0.040 N 
HETATM   14  C13 UNL     1       0.587   2.206  81.574  1.00  0.00     0.377 A 
HETATM   15  O4  UNL     1       0.571   1.388  80.620  1.00  0.00    -0.243 OA
HETATM   16  N10 UNL     1      -0.411   2.245  82.497  1.00  0.00    -0.153 N 
ENDROOT
BRANCH   1  17
HETATM   17  C8  UNL     1      -1.532   3.156  84.496  1.00  0.00     0.040 A 
HETATM   18  C3  UNL     1      -2.506   4.090  84.687  1.00  0.00     0.012 A 
HETATM   19  C4  UNL     1      -3.346   3.579  85.708  1.00  0.00     0.104 A 
HETATM   20  N5  UNL     1      -2.910   2.397  86.117  1.00  0.00    -0.363 N 
HETATM   21  C7  UNL     1      -1.816   2.136  85.391  1.00  0.00     0.106 A 
BRANCH  18  22
HETATM   22  C2  UNL     1      -2.772   5.342  84.035  1.00  0.00     0.121 C 
HETATM   23  N4  UNL     1      -2.553   5.639  82.825  1.00  0.00    -0.309 N 
ATOM     24  H4  UNL     1      -2.141   4.921  82.230  1.00  0.00     0.186 HD
BRANCH  23  25
HETATM   25  N3  UNL     1      -2.832   6.875  82.244  1.00  0.00    -0.276 N 
HETATM   26  C1  UNL     1      -2.816   6.976  80.954  1.00  0.00     0.215 C 
HETATM   27  N1  UNL     1      -2.522   5.870  80.135  1.00  0.00    -0.065 NA
HETATM   28  N2  UNL     1      -3.095   8.219  80.311  1.00  0.00    -0.065 NA
ATOM     29  H3  UNL     1      -3.045   7.685  82.825  1.00  0.00     0.189 HD
ENDBRANCH  23  25
ENDBRANCH  18  22
BRANCH  20  30
HETATM   30  C5  UNL     1      -3.533   1.587  87.153  1.00  0.00     0.153 C 
BRANCH  30  31
HETATM   31  C6  UNL     1      -2.510   0.763  87.897  1.00  0.00     0.184 C 
BRANCH  31  32
HETATM   32  O1  UNL     1      -2.692  -0.569  87.458  1.00  0.00    -0.399 OA
ATOM     33  H1  UNL     1      -3.456  -0.893  87.921  1.00  0.00     0.209 HD
ENDBRANCH  31  32
ENDBRANCH  30  31
ENDBRANCH  20  30
ENDBRANCH   1  17
BRANCH  16  34
HETATM   34  O5  UNL     1      -1.438   1.380  82.321  1.00  0.00    -0.277 OA
ATOM     35  H5  UNL     1      -1.311   0.567  81.848  1.00  0.00     0.245 HD
ENDBRANCH  16  34
TORSDOF 7
ENDMDL
MODEL 4
REMARK VINA RESULT: -7.720104899      3.063      4.995
REMARK  7 active torsions:
REMARK  status: ('A' for Active; 'I' for Inactive)
REMARK    1  A    between atoms: N3_4  and  N4_6 
REMARK    2  A    between atoms: C2_8  and  C3_9 
REMARK    3  A    between atoms: N5_11  and  C5_12 
REMARK    4  A    between atoms: C5_12  and  C6_13 
REMARK    5  A    between atoms: C6_13  and  O1_14 
REMARK    6  A    between atoms: C8_17  and  C9_18 
REMARK    7  A    between atoms: N10_33  and  O5_34 
ROOT
HETATM    1  C9  UNL     1      -0.054   3.497  82.966  1.00  0.00     0.166 A 
HETATM    2  N6  UNL     1       1.245   3.751  83.125  1.00  0.00    -0.172 N 
ATOM      3  H6  UNL     1       1.630   3.793  84.069  1.00  0.00     0.186 HD
HETATM    4  C10 UNL     1       2.062   3.953  82.077  1.00  0.00     0.702 A 
HETATM    5  N7  UNL     1       3.380   4.209  82.283  1.00  0.00    -0.140 N 
ATOM      6  H7  UNL     1       3.754   4.249  83.231  1.00  0.00     0.189 HD
HETATM    7  C11 UNL     1       4.174   4.406  81.247  1.00  0.00     0.342 A 
HETATM    8  O2  UNL     1       5.403   4.645  81.435  1.00  0.00    -0.246 OA
HETATM    9  N8  UNL     1       3.753   4.368  79.962  1.00  0.00    -0.259 N 
ATOM     10  H8  UNL     1       4.392   4.523  79.181  1.00  0.00     0.175 HD
HETATM   11  C12 UNL     1       2.450   4.114  79.771  1.00  0.00     0.353 A 
HETATM   12  O3  UNL     1       1.976   4.061  78.598  1.00  0.00    -0.245 OA
HETATM   13  N9  UNL     1       1.607   3.908  80.810  1.00  0.00    -0.040 N 
HETATM   14  C13 UNL     1       0.304   3.654  80.612  1.00  0.00     0.377 A 
HETATM   15  O4  UNL     1      -0.135   3.609  79.434  1.00  0.00    -0.243 OA
HETATM   16  N10 UNL     1      -0.509   3.453  81.683  1.00  0.00    -0.153 N 
ENDROOT
BRANCH   1  17
HETATM   17  C8  UNL     1      -0.978   3.310  84.101  1.00  0.00     0.040 A 
HETATM   18  C3  UNL     1      -2.103   3.995  84.448  1.00  0.00     0.012 A 
HETATM   19  C4  UNL     1      -2.616   3.350  85.601  1.00  0.00     0.104 A 
HETATM   20  N5  UNL     1      -1.847   2.326  85.938  1.00  0.00    -0.363 N 
HETATM   21  C7  UNL     1      -0.856   2.296  85.038  1.00  0.00     0.106 A 
BRANCH  18  22
HETATM   22  C2  UNL     1      -2.767   5.116  83.841  1.00  0.00     0.121 C 
HETATM   23  N4  UNL     1      -2.361   5.813  82.867  1.00  0.00    -0.309 N 
ATOM     24  H4  UNL     1      -1.463   5.565  82.451  1.00  0.00     0.186 HD
BRANCH  23  25
HETATM   25  N3  UNL     1      -3.048   6.893  82.318  1.00  0.00    -0.276 N 
HETATM   26  C1  UNL     1      -3.136   6.989  81.031  1.00  0.00     0.215 C 
HETATM   27  N1  UNL     1      -2.552   6.030  80.182  1.00  0.00    -0.065 NA
HETATM   28  N2  UNL     1      -3.829   8.076  80.420  1.00  0.00    -0.065 NA
ATOM     29  H3  UNL     1      -3.475   7.597  82.920  1.00  0.00     0.189 HD
ENDBRANCH  23  25
ENDBRANCH  18  22
BRANCH  20  30
HETATM   30  C5  UNL     1      -2.078   1.442  87.071  1.00  0.00     0.153 C 
BRANCH  30  31
HETATM   31  C6  UNL     1      -3.528   1.445  87.487  1.00  0.00     0.184 C 
BRANCH  31  32
HETATM   32  O1  UNL     1      -4.097   0.282  86.916  1.00  0.00    -0.399 OA
ATOM     33  H1  UNL     1      -4.821   0.584  86.380  1.00  0.00     0.209 HD
ENDBRANCH  31  32
ENDBRANCH  30  31
ENDBRANCH  20  30
ENDBRANCH   1  17
BRANCH  16  34
HETATM   34  O5  UNL     1      -1.820   3.232  81.422  1.00  0.00    -0.277 OA
ATOM     35  H5  UNL     1      -2.102   2.955  80.558  1.00  0.00     0.245 HD
ENDBRANCH  16  34
TORSDOF 7
ENDMDL
MODEL 5
REMARK VINA RESULT: -7.677285842      1.707      2.039
REMARK  7 active torsions:
REMARK  status: ('A' for Active; 'I' for Inactive)
REMARK    1  A    between atoms: N3_4  and  N4_6 
REMARK    2  A    between atoms: C2_8  and  C3_9 
REMARK    3  A    between atoms: N5_11  and  C5_12 
REMARK    4  A    between atoms: C5_12  and  C6_13 
REMARK    5  A    between atoms: C6_13  and  O1_14 
REMARK    6  A    between atoms: C8_17  and  C9_18 
REMARK    7  A    between atoms: N10_33  and  O5_34 
ROOT
HETATM    1  C9  UNL     1       1.066   2.466  81.413  1.00  0.00     0.166 A 
HETATM    2  N6  UNL     1       2.303   2.727  81.837  1.00  0.00    -0.172 N 
ATOM      3  H6  UNL     1       2.752   2.080  82.486  1.00  0.00     0.186 HD
HETATM    4  C10 UNL     1       2.976   3.818  81.432  1.00  0.00     0.702 A 
HETATM    5  N7  UNL     1       4.235   4.047  81.888  1.00  0.00    -0.140 N 
ATOM      6  H7  UNL     1       4.673   3.393  82.537  1.00  0.00     0.189 HD
HETATM    7  C11 UNL     1       4.887   5.121  81.485  1.00  0.00     0.342 A 
HETATM    8  O2  UNL     1       6.061   5.338  81.907  1.00  0.00    -0.246 OA
HETATM    9  N8  UNL     1       4.374   6.032  80.626  1.00  0.00    -0.259 N 
ATOM     10  H8  UNL     1       4.904   6.853  80.332  1.00  0.00     0.175 HD
HETATM   11  C12 UNL     1       3.130   5.796  80.183  1.00  0.00     0.353 A 
HETATM   12  O3  UNL     1       2.577   6.600  79.377  1.00  0.00    -0.245 OA
HETATM   13  N9  UNL     1       2.432   4.704  80.576  1.00  0.00    -0.040 N 
HETATM   14  C13 UNL     1       1.188   4.473  80.128  1.00  0.00     0.377 A 
HETATM   15  O4  UNL     1       0.667   5.292  79.329  1.00  0.00    -0.243 OA
HETATM   16  N10 UNL     1       0.520   3.366  80.548  1.00  0.00    -0.153 N 
ENDROOT
BRANCH   1  17
HETATM   17  C8  UNL     1       0.293   1.297  81.872  1.00  0.00     0.040 A 
HETATM   18  C3  UNL     1      -0.551   1.154  82.931  1.00  0.00     0.012 A 
HETATM   19  C4  UNL     1      -1.051  -0.170  82.860  1.00  0.00     0.104 A 
HETATM   20  N5  UNL     1      -0.541  -0.802  81.815  1.00  0.00    -0.363 N 
HETATM   21  C7  UNL     1       0.272   0.076  81.214  1.00  0.00     0.106 A 
BRANCH  18  22
HETATM   22  C2  UNL     1      -0.973   2.076  83.950  1.00  0.00     0.121 C 
HETATM   23  N4  UNL     1      -2.140   2.522  84.145  1.00  0.00    -0.309 N 
ATOM     24  H4  UNL     1      -2.879   2.202  83.518  1.00  0.00     0.186 HD
BRANCH  23  25
HETATM   25  N3  UNL     1      -2.494   3.418  85.152  1.00  0.00    -0.276 N 
HETATM   26  C1  UNL     1      -2.870   4.611  84.823  1.00  0.00     0.215 C 
HETATM   27  N1  UNL     1      -2.927   5.018  83.477  1.00  0.00    -0.065 NA
HETATM   28  N2  UNL     1      -3.243   5.564  85.816  1.00  0.00    -0.065 NA
ATOM     29  H3  UNL     1      -2.457   3.137  86.132  1.00  0.00     0.189 HD
ENDBRANCH  23  25
ENDBRANCH  18  22
BRANCH  20  30
HETATM   30  C5  UNL     1      -0.836  -2.177  81.439  1.00  0.00     0.153 C 
BRANCH  30  31
HETATM   31  C6  UNL     1       0.426  -2.991  81.294  1.00  0.00     0.184 C 
BRANCH  31  32
HETATM   32  O1  UNL     1       0.063  -4.324  81.598  1.00  0.00    -0.399 OA
ATOM     33  H1  UNL     1       0.374  -4.851  80.870  1.00  0.00     0.209 HD
ENDBRANCH  31  32
ENDBRANCH  30  31
ENDBRANCH  20  30
ENDBRANCH   1  17
BRANCH  16  34
HETATM   34  O5  UNL     1      -0.743   3.202  80.087  1.00  0.00    -0.277 OA
ATOM     35  H5  UNL     1      -0.903   3.008  79.171  1.00  0.00     0.245 HD
ENDBRANCH  16  34
TORSDOF 7
ENDMDL
