MODEL 1
REMARK VINA RESULT: -8.322569847      0.000      0.000
REMARK  7 active torsions:
REMARK  status: ('A' for Active; 'I' for Inactive)
REMARK    1  A    between atoms: C1_2  and  C2_4 
REMARK    2  A    between atoms: C2_4  and  N2_5 
REMARK    3  A    between atoms: C2_4  and  C11_20 
REMARK    4  A    between atoms: N2_5  and  C3_7 
REMARK    5  A    between atoms: C10_17  and  O2_18 
REMARK       I    between atoms: C11_20  and  N5_22 
REMARK    6  A    between atoms: N5_22  and  C12_24 
REMARK    7  A    between atoms: N9_31  and  C13_32 
ROOT
HETATM    1  C11 UNL     1      -1.215   5.706  82.426  1.00  0.00     0.267 C 
HETATM    2  O3  UNL     1      -2.398   5.880  82.705  1.00  0.00    -0.270 OA
HETATM    3  N5  UNL     1      -0.277   6.636  82.162  1.00  0.00    -0.154 N 
ATOM      4  H5  UNL     1      -0.525   7.059  81.267  1.00  0.00     0.187 HD
ENDROOT
BRANCH   1   5
HETATM    5  C2  UNL     1      -0.766   4.182  82.374  1.00  0.00     0.265 C 
BRANCH   5   6
HETATM    6  C1  UNL     1      -0.665   3.851  80.963  1.00  0.00     0.263 C 
HETATM    7  N1  UNL     1      -1.384   2.733  80.426  1.00  0.00    -0.060 NA
HETATM    8  O1  UNL     1       0.021   4.529  80.128  1.00  0.00    -0.274 OA
ENDBRANCH   5   6
BRANCH   5   9
HETATM    9  N2  UNL     1      -1.882   3.573  83.063  1.00  0.00    -0.365 N 
ATOM     10  H2  UNL     1      -2.813   3.922  82.835  1.00  0.00     0.161 HD
BRANCH   9  11
HETATM   11  C3  UNL     1      -1.802   2.540  84.026  1.00  0.00     0.093 A 
HETATM   12  C4  UNL     1      -2.390   2.515  85.251  1.00  0.00     0.023 A 
HETATM   13  C5  UNL     1      -3.193   3.424  85.910  1.00  0.00     0.016 A 
HETATM   14  C9  UNL     1      -2.110   1.283  85.809  1.00  0.00     0.071 A 
HETATM   15  C6  UNL     1      -3.757   3.113  87.160  1.00  0.00     0.003 A 
HETATM   16  C7  UNL     1      -3.485   1.911  87.711  1.00  0.00     0.029 A 
HETATM   17  C8  UNL     1      -2.668   0.988  87.044  1.00  0.00     0.074 A 
HETATM   18  N3  UNL     1      -2.439  -0.338  87.591  1.00  0.00    -0.100 NA
HETATM   19  N4  UNL     1      -1.382   0.566  85.045  1.00  0.00    -0.333 N 
HETATM   20  C10 UNL     1      -1.135   1.263  83.866  1.00  0.00     0.168 A 
ATOM     21  H4  UNL     1      -1.036  -0.369  85.264  1.00  0.00     0.168 HD
BRANCH  20  22
HETATM   22  O2  UNL     1      -0.456   0.913  82.808  1.00  0.00    -0.344 OA
ATOM     23  H2  UNL     1       0.382   1.285  82.561  1.00  0.00     0.219 HD
ENDBRANCH  20  22
ENDBRANCH   9  11
ENDBRANCH   5   9
ENDBRANCH   1   5
BRANCH   3  24
HETATM   24  C12 UNL     1       0.767   7.198  82.547  1.00  0.00     0.738 A 
HETATM   25  N6  UNL     1       0.895   8.453  83.042  1.00  0.00    -0.114 N 
HETATM   26  N7  UNL     1       2.127   8.676  83.433  1.00  0.00    -0.212 N 
ATOM     27  H6  UNL     1       0.135   9.131  83.103  1.00  0.00     0.207 HD
HETATM   28  N8  UNL     1       2.818   7.614  83.232  1.00  0.00    -0.191 N 
ATOM     29  H7  UNL     1       2.477   9.549  83.830  1.00  0.00     0.210 HD
HETATM   30  N9  UNL     1       1.999   6.682  82.675  1.00  0.00     0.109 N 
ATOM     31  H8  UNL     1       3.806   7.490  83.451  1.00  0.00     0.211 HD
BRANCH  30  32
HETATM   32  C13 UNL     1       2.561   5.419  82.258  1.00  0.00     0.735 A 
HETATM   33  N10 UNL     1       2.968   5.086  81.046  1.00  0.00    -0.183 N 
HETATM   34  C14 UNL     1       3.332   3.768  81.039  1.00  0.00     0.215 A 
ATOM     35  H10 UNL     1       3.005   5.714  80.244  1.00  0.00     0.185 HD
HETATM   36  N11 UNL     1       3.149   3.276  82.274  1.00  0.00    -0.281 N 
HETATM   37  N12 UNL     1       2.674   4.300  83.003  1.00  0.00    -0.129 N 
ATOM     38  H11 UNL     1       3.333   2.325  82.592  1.00  0.00     0.188 HD
ATOM     39  H12 UNL     1       2.431   4.239  83.992  1.00  0.00     0.205 HD
ENDBRANCH  30  32
ENDBRANCH   3  24
TORSDOF 7
ENDMDL
MODEL 2
REMARK VINA RESULT: -8.124150362      2.371      3.592
REMARK  7 active torsions:
REMARK  status: ('A' for Active; 'I' for Inactive)
REMARK    1  A    between atoms: C1_2  and  C2_4 
REMARK    2  A    between atoms: C2_4  and  N2_5 
REMARK    3  A    between atoms: C2_4  and  C11_20 
REMARK    4  A    between atoms: N2_5  and  C3_7 
REMARK    5  A    between atoms: C10_17  and  O2_18 
REMARK       I    between atoms: C11_20  and  N5_22 
REMARK    6  A    between atoms: N5_22  and  C12_24 
REMARK    7  A    between atoms: N9_31  and  C13_32 
ROOT
HETATM    1  C11 UNL     1       1.002   1.074  81.222  1.00  0.00     0.267 C 
HETATM    2  O3  UNL     1       1.158   0.343  80.247  1.00  0.00    -0.270 OA
HETATM    3  N5  UNL     1       1.859   1.979  81.730  1.00  0.00    -0.154 N 
ATOM      4  H5  UNL     1       2.639   1.454  82.127  1.00  0.00     0.187 HD
ENDROOT
BRANCH   1   5
HETATM    5  C2  UNL     1      -0.398   0.903  81.957  1.00  0.00     0.265 C 
BRANCH   5   6
HETATM    6  C1  UNL     1      -1.322   1.769  81.246  1.00  0.00     0.263 C 
HETATM    7  N1  UNL     1      -0.833   2.753  80.325  1.00  0.00    -0.060 NA
HETATM    8  O1  UNL     1      -2.590   1.695  81.364  1.00  0.00    -0.274 OA
ENDBRANCH   5   6
BRANCH   5   9
HETATM    9  N2  UNL     1      -0.037   1.355  83.282  1.00  0.00    -0.365 N 
ATOM     10  H2  UNL     1       0.958   1.471  83.477  1.00  0.00     0.161 HD
BRANCH   9  11
HETATM   11  C3  UNL     1      -0.935   1.651  84.334  1.00  0.00     0.093 A 
HETATM   12  C4  UNL     1      -1.478   2.861  84.630  1.00  0.00     0.023 A 
HETATM   13  C5  UNL     1      -1.338   4.105  84.049  1.00  0.00     0.016 A 
HETATM   14  C9  UNL     1      -2.357   2.664  85.678  1.00  0.00     0.071 A 
HETATM   15  C6  UNL     1      -2.095   5.201  84.500  1.00  0.00     0.003 A 
HETATM   16  C7  UNL     1      -2.954   5.015  85.525  1.00  0.00     0.029 A 
HETATM   17  C8  UNL     1      -3.096   3.752  86.117  1.00  0.00     0.074 A 
HETATM   18  N3  UNL     1      -4.078   3.525  87.164  1.00  0.00    -0.100 NA
HETATM   19  N4  UNL     1      -2.378   1.448  86.064  1.00  0.00    -0.333 N 
HETATM   20  C10 UNL     1      -1.517   0.703  85.263  1.00  0.00     0.168 A 
ATOM     21  H4  UNL     1      -2.936   1.081  86.835  1.00  0.00     0.168 HD
BRANCH  20  22
HETATM   22  O2  UNL     1      -1.237  -0.571  85.288  1.00  0.00    -0.344 OA
ATOM     23  H2  UNL     1      -1.821  -1.243  85.620  1.00  0.00     0.219 HD
ENDBRANCH  20  22
ENDBRANCH   9  11
ENDBRANCH   5   9
ENDBRANCH   1   5
BRANCH   3  24
HETATM   24  C12 UNL     1       2.105   3.186  81.922  1.00  0.00     0.738 A 
HETATM   25  N6  UNL     1       2.252   3.821  83.109  1.00  0.00    -0.114 N 
HETATM   26  N7  UNL     1       2.597   5.074  82.927  1.00  0.00    -0.212 N 
ATOM     27  H6  UNL     1       2.113   3.384  84.020  1.00  0.00     0.207 HD
HETATM   28  N8  UNL     1       2.701   5.290  81.667  1.00  0.00    -0.191 N 
ATOM     29  H7  UNL     1       2.756   5.761  83.665  1.00  0.00     0.210 HD
HETATM   30  N9  UNL     1       2.393   4.136  81.018  1.00  0.00     0.109 N 
ATOM     31  H8  UNL     1       2.968   6.171  81.229  1.00  0.00     0.211 HD
BRANCH  30  32
HETATM   32  C13 UNL     1       2.340   4.138  79.576  1.00  0.00     0.735 A 
HETATM   33  N10 UNL     1       3.276   3.722  78.741  1.00  0.00    -0.183 N 
HETATM   34  C14 UNL     1       2.889   3.993  77.457  1.00  0.00     0.215 A 
ATOM     35  H10 UNL     1       4.149   3.270  79.011  1.00  0.00     0.185 HD
HETATM   36  N11 UNL     1       1.686   4.586  77.500  1.00  0.00    -0.281 N 
HETATM   37  N12 UNL     1       1.370   4.669  78.803  1.00  0.00    -0.129 N 
ATOM     38  H11 UNL     1       1.128   4.907  76.708  1.00  0.00     0.188 HD
ATOM     39  H12 UNL     1       0.508   5.080  79.162  1.00  0.00     0.205 HD
ENDBRANCH  30  32
ENDBRANCH   3  24
TORSDOF 7
ENDMDL
MODEL 3
REMARK VINA RESULT: -8.038348375      2.128      3.462
REMARK  7 active torsions:
REMARK  status: ('A' for Active; 'I' for Inactive)
REMARK    1  A    between atoms: C1_2  and  C2_4 
REMARK    2  A    between atoms: C2_4  and  N2_5 
REMARK    3  A    between atoms: C2_4  and  C11_20 
REMARK    4  A    between atoms: N2_5  and  C3_7 
REMARK    5  A    between atoms: C10_17  and  O2_18 
REMARK       I    between atoms: C11_20  and  N5_22 
REMARK    6  A    between atoms: N5_22  and  C12_24 
REMARK    7  A    between atoms: N9_31  and  C13_32 
ROOT
HETATM    1  C11 UNL     1       1.069   1.331  81.393  1.00  0.00     0.267 C 
HETATM    2  O3  UNL     1       1.315   0.570  80.461  1.00  0.00    -0.270 OA
HETATM    3  N5  UNL     1       1.836   2.324  81.883  1.00  0.00    -0.154 N 
ATOM      4  H5  UNL     1       2.641   1.882  82.328  1.00  0.00     0.187 HD
ENDROOT
BRANCH   1   5
HETATM    5  C2  UNL     1      -0.337   1.083  82.093  1.00  0.00     0.265 C 
BRANCH   5   6
HETATM    6  C1  UNL     1      -1.319   1.731  81.240  1.00  0.00     0.263 C 
HETATM    7  N1  UNL     1      -0.935   2.817  80.386  1.00  0.00    -0.060 NA
HETATM    8  O1  UNL     1      -2.540   1.369  81.171  1.00  0.00    -0.274 OA
ENDBRANCH   5   6
BRANCH   5   9
HETATM    9  N2  UNL     1      -0.101   1.742  83.359  1.00  0.00    -0.365 N 
ATOM     10  H2  UNL     1       0.850   1.711  83.727  1.00  0.00     0.161 HD
BRANCH   9  11
HETATM   11  C3  UNL     1      -1.067   2.425  84.134  1.00  0.00     0.093 A 
HETATM   12  C4  UNL     1      -1.758   1.935  85.197  1.00  0.00     0.023 A 
HETATM   13  C5  UNL     1      -1.747   0.704  85.819  1.00  0.00     0.016 A 
HETATM   14  C9  UNL     1      -2.525   2.972  85.693  1.00  0.00     0.071 A 
HETATM   15  C6  UNL     1      -2.507   0.476  86.981  1.00  0.00     0.003 A 
HETATM   16  C7  UNL     1      -3.260   1.485  87.469  1.00  0.00     0.029 A 
HETATM   17  C8  UNL     1      -3.273   2.736  86.836  1.00  0.00     0.074 A 
HETATM   18  N3  UNL     1      -4.014   3.851  87.402  1.00  0.00    -0.100 NA
HETATM   19  N4  UNL     1      -2.383   4.041  85.011  1.00  0.00    -0.333 N 
HETATM   20  C10 UNL     1      -1.460   3.813  83.994  1.00  0.00     0.168 A 
ATOM     21  H4  UNL     1      -2.869   4.922  85.183  1.00  0.00     0.168 HD
BRANCH  20  22
HETATM   22  O2  UNL     1      -1.003   4.619  83.076  1.00  0.00    -0.344 OA
ATOM     23  H2  UNL     1      -1.548   5.176  82.532  1.00  0.00     0.219 HD
ENDBRANCH  20  22
ENDBRANCH   9  11
ENDBRANCH   5   9
ENDBRANCH   1   5
BRANCH   3  24
HETATM   24  C12 UNL     1       1.980   3.555  82.022  1.00  0.00     0.738 A 
HETATM   25  N6  UNL     1       2.082   4.248  83.180  1.00  0.00    -0.114 N 
HETATM   26  N7  UNL     1       2.318   5.517  82.944  1.00  0.00    -0.212 N 
ATOM     27  H6  UNL     1       1.987   3.839  84.110  1.00  0.00     0.207 HD
HETATM   28  N8  UNL     1       2.394   5.689  81.675  1.00  0.00    -0.191 N 
ATOM     29  H7  UNL     1       2.424   6.245  83.652  1.00  0.00     0.210 HD
HETATM   30  N9  UNL     1       2.180   4.486  81.077  1.00  0.00     0.109 N 
ATOM     31  H8  UNL     1       2.582   6.570  81.199  1.00  0.00     0.211 HD
BRANCH  30  32
HETATM   32  C13 UNL     1       2.115   4.425  79.636  1.00  0.00     0.735 A 
HETATM   33  N10 UNL     1       3.088   4.091  78.807  1.00  0.00    -0.183 N 
HETATM   34  C14 UNL     1       2.661   4.262  77.519  1.00  0.00     0.215 A 
ATOM     35  H10 UNL     1       4.011   3.757  79.084  1.00  0.00     0.185 HD
HETATM   36  N11 UNL     1       1.396   4.708  77.553  1.00  0.00    -0.281 N 
HETATM   37  N12 UNL     1       1.082   4.804  78.856  1.00  0.00    -0.129 N 
ATOM     38  H11 UNL     1       0.797   4.927  76.757  1.00  0.00     0.188 HD
ATOM     39  H12 UNL     1       0.180   5.123  79.210  1.00  0.00     0.205 HD
ENDBRANCH  30  32
ENDBRANCH   3  24
TORSDOF 7
ENDMDL
MODEL 4
REMARK VINA RESULT: -8.007798108      2.921      6.341
REMARK  7 active torsions:
REMARK  status: ('A' for Active; 'I' for Inactive)
REMARK    1  A    between atoms: C1_2  and  C2_4 
REMARK    2  A    between atoms: C2_4  and  N2_5 
REMARK    3  A    between atoms: C2_4  and  C11_20 
REMARK    4  A    between atoms: N2_5  and  C3_7 
REMARK    5  A    between atoms: C10_17  and  O2_18 
REMARK       I    between atoms: C11_20  and  N5_22 
REMARK    6  A    between atoms: N5_22  and  C12_24 
REMARK    7  A    between atoms: N9_31  and  C13_32 
ROOT
HETATM    1  C11 UNL     1      -1.730   2.026  83.672  1.00  0.00     0.267 C 
HETATM    2  O3  UNL     1      -2.813   2.565  83.463  1.00  0.00    -0.270 OA
HETATM    3  N5  UNL     1      -0.979   1.305  82.817  1.00  0.00    -0.154 N 
ATOM      4  H5  UNL     1      -1.486   0.438  82.640  1.00  0.00     0.187 HD
ENDROOT
BRANCH   1   5
HETATM    5  C2  UNL     1      -1.172   2.218  85.148  1.00  0.00     0.265 C 
BRANCH   5   6
HETATM    6  C1  UNL     1      -2.166   1.621  86.023  1.00  0.00     0.263 C 
HETATM    7  N1  UNL     1      -2.172   0.206  86.259  1.00  0.00    -0.060 NA
HETATM    8  O1  UNL     1      -3.052   2.296  86.646  1.00  0.00    -0.274 OA
ENDBRANCH   5   6
BRANCH   5   9
HETATM    9  N2  UNL     1      -1.103   3.661  85.200  1.00  0.00    -0.365 N 
ATOM     10  H2  UNL     1      -1.771   4.136  85.806  1.00  0.00     0.161 HD
BRANCH   9  11
HETATM   11  C3  UNL     1      -0.193   4.476  84.486  1.00  0.00     0.093 A 
HETATM   12  C4  UNL     1      -0.494   5.397  83.533  1.00  0.00     0.023 A 
HETATM   13  C5  UNL     1      -1.694   5.804  82.986  1.00  0.00     0.016 A 
HETATM   14  C9  UNL     1       0.691   6.009  83.173  1.00  0.00     0.071 A 
HETATM   15  C6  UNL     1      -1.743   6.860  82.059  1.00  0.00     0.003 A 
HETATM   16  C7  UNL     1      -0.587   7.461  81.702  1.00  0.00     0.029 A 
HETATM   17  C8  UNL     1       0.633   7.047  82.256  1.00  0.00     0.074 A 
HETATM   18  N3  UNL     1       1.869   7.743  81.941  1.00  0.00    -0.100 NA
HETATM   19  N4  UNL     1       1.690   5.525  83.803  1.00  0.00    -0.333 N 
HETATM   20  C10 UNL     1       1.241   4.546  84.684  1.00  0.00     0.168 A 
ATOM     21  H4  UNL     1       2.662   5.811  83.680  1.00  0.00     0.168 HD
BRANCH  20  22
HETATM   22  O2  UNL     1       1.905   3.806  85.529  1.00  0.00    -0.344 OA
ATOM     23  H2  UNL     1       1.770   3.812  86.469  1.00  0.00     0.219 HD
ENDBRANCH  20  22
ENDBRANCH   9  11
ENDBRANCH   5   9
ENDBRANCH   1   5
BRANCH   3  24
HETATM   24  C12 UNL     1       0.072   1.249  82.149  1.00  0.00     0.738 A 
HETATM   25  N6  UNL     1       0.938   2.256  81.886  1.00  0.00    -0.114 N 
HETATM   26  N7  UNL     1       1.985   1.812  81.231  1.00  0.00    -0.212 N 
ATOM     27  H6  UNL     1       0.796   3.229  82.160  1.00  0.00     0.207 HD
HETATM   28  N8  UNL     1       1.854   0.547  81.064  1.00  0.00    -0.191 N 
ATOM     29  H7  UNL     1       2.770   2.378  80.908  1.00  0.00     0.210 HD
HETATM   30  N9  UNL     1       0.671   0.172  81.618  1.00  0.00     0.109 N 
ATOM     31  H8  UNL     1       2.520  -0.069  80.599  1.00  0.00     0.211 HD
BRANCH  30  32
HETATM   32  C13 UNL     1       0.238  -1.198  81.479  1.00  0.00     0.735 A 
HETATM   33  N10 UNL     1      -1.003  -1.652  81.514  1.00  0.00    -0.183 N 
HETATM   34  C14 UNL     1      -0.986  -3.018  81.455  1.00  0.00     0.215 A 
ATOM     35  H10 UNL     1      -1.841  -1.074  81.575  1.00  0.00     0.185 HD
HETATM   36  N11 UNL     1       0.293  -3.417  81.378  1.00  0.00    -0.281 N 
HETATM   37  N12 UNL     1       1.025  -2.291  81.397  1.00  0.00    -0.129 N 
ATOM     38  H11 UNL     1       0.637  -4.375  81.316  1.00  0.00     0.188 HD
ATOM     39  H12 UNL     1       2.045  -2.265  81.357  1.00  0.00     0.205 HD
ENDBRANCH  30  32
ENDBRANCH   3  24
TORSDOF 7
ENDMDL
MODEL 5
REMARK VINA RESULT: -7.990385638      3.221      5.142
REMARK  7 active torsions:
REMARK  status: ('A' for Active; 'I' for Inactive)
REMARK    1  A    between atoms: C1_2  and  C2_4 
REMARK    2  A    between atoms: C2_4  and  N2_5 
REMARK    3  A    between atoms: C2_4  and  C11_20 
REMARK    4  A    between atoms: N2_5  and  C3_7 
REMARK    5  A    between atoms: C10_17  and  O2_18 
REMARK       I    between atoms: C11_20  and  N5_22 
REMARK    6  A    between atoms: N5_22  and  C12_24 
REMARK    7  A    between atoms: N9_31  and  C13_32 
ROOT
HETATM    1  C11 UNL     1      -0.130   4.893  79.156  1.00  0.00     0.267 C 
HETATM    2  O3  UNL     1       0.896   4.254  78.942  1.00  0.00    -0.270 OA
HETATM    3  N5  UNL     1      -0.601   5.963  78.486  1.00  0.00    -0.154 N 
ATOM      4  H5  UNL     1       0.037   6.736  78.681  1.00  0.00     0.187 HD
ENDROOT
BRANCH   1   5
HETATM    5  C2  UNL     1      -0.988   4.371  80.388  1.00  0.00     0.265 C 
BRANCH   5   6
HETATM    6  C1  UNL     1      -1.144   5.514  81.271  1.00  0.00     0.263 C 
HETATM    7  N1  UNL     1      -2.198   5.543  82.243  1.00  0.00    -0.060 NA
HETATM    8  O1  UNL     1      -0.362   6.522  81.262  1.00  0.00    -0.274 OA
ENDBRANCH   5   6
BRANCH   5   9
HETATM    9  N2  UNL     1      -0.105   3.337  80.882  1.00  0.00    -0.365 N 
ATOM     10  H2  UNL     1       0.863   3.364  80.563  1.00  0.00     0.161 HD
BRANCH   9  11
HETATM   11  C3  UNL     1      -0.460   2.291  81.765  1.00  0.00     0.093 A 
HETATM   12  C4  UNL     1      -0.395   2.309  83.122  1.00  0.00     0.023 A 
HETATM   13  C5  UNL     1       0.015   3.278  84.016  1.00  0.00     0.016 A 
HETATM   14  C9  UNL     1      -0.918   1.111  83.569  1.00  0.00     0.071 A 
HETATM   15  C6  UNL     1      -0.102   3.075  85.403  1.00  0.00     0.003 A 
HETATM   16  C7  UNL     1      -0.611   1.905  85.844  1.00  0.00     0.029 A 
HETATM   17  C8  UNL     1      -1.025   0.919  84.938  1.00  0.00     0.074 A 
HETATM   18  N3  UNL     1      -1.651  -0.307  85.403  1.00  0.00    -0.100 NA
HETATM   19  N4  UNL     1      -1.272   0.354  82.604  1.00  0.00    -0.333 N 
HETATM   20  C10 UNL     1      -1.040   1.014  81.400  1.00  0.00     0.168 A 
ATOM     21  H4  UNL     1      -1.662  -0.584  82.700  1.00  0.00     0.168 HD
BRANCH  20  22
HETATM   22  O2  UNL     1      -1.263   0.629  80.174  1.00  0.00    -0.344 OA
ATOM     23  H2  UNL     1      -2.125   0.555  79.783  1.00  0.00     0.219 HD
ENDBRANCH  20  22
ENDBRANCH   9  11
ENDBRANCH   5   9
ENDBRANCH   1   5
BRANCH   3  24
HETATM   24  C12 UNL     1      -1.484   6.409  77.727  1.00  0.00     0.738 A 
HETATM   25  N6  UNL     1      -1.571   6.261  76.384  1.00  0.00    -0.114 N 
HETATM   26  N7  UNL     1      -2.685   6.785  75.929  1.00  0.00    -0.212 N 
ATOM     27  H6  UNL     1      -0.867   5.804  75.805  1.00  0.00     0.207 HD
HETATM   28  N8  UNL     1      -3.347   7.259  76.920  1.00  0.00    -0.191 N 
ATOM     29  H7  UNL     1      -2.974   6.811  74.951  1.00  0.00     0.210 HD
HETATM   30  N9  UNL     1      -2.620   7.046  78.049  1.00  0.00     0.109 N 
ATOM     31  H8  UNL     1      -4.257   7.716  76.870  1.00  0.00     0.211 HD
BRANCH  30  32
HETATM   32  C13 UNL     1      -3.104   7.577  79.301  1.00  0.00     0.735 A 
HETATM   33  N10 UNL     1      -2.604   8.591  79.986  1.00  0.00    -0.183 N 
HETATM   34  C14 UNL     1      -3.277   8.711  81.170  1.00  0.00     0.215 A 
ATOM     35  H10 UNL     1      -1.837   9.189  79.679  1.00  0.00     0.185 HD
HETATM   36  N11 UNL     1      -4.217   7.754  81.216  1.00  0.00    -0.281 N 
HETATM   37  N12 UNL     1      -4.092   7.070  80.067  1.00  0.00    -0.129 N 
ATOM     38  H11 UNL     1      -4.886   7.583  81.966  1.00  0.00     0.188 HD
ATOM     39  H12 UNL     1      -4.670   6.269  79.807  1.00  0.00     0.205 HD
ENDBRANCH  30  32
ENDBRANCH   3  24
TORSDOF 7
ENDMDL
