MODEL 1
REMARK VINA RESULT: -7.765001537      0.000      0.000
REMARK  8 active torsions:
REMARK  status: ('A' for Active; 'I' for Inactive)
REMARK    1  A    between atoms: C2_2  and  O1_3 
REMARK    2  A    between atoms: C2_2  and  C3_5 
REMARK    3  A    between atoms: C3_5  and  O2_6 
REMARK    4  A    between atoms: C3_5  and  C4_8 
REMARK    5  A    between atoms: C3_5  and  N4_16 
REMARK    6  A    between atoms: C4_8  and  N1_9 
REMARK    7  A    between atoms: N5_21  and  O3_22 
REMARK    8  A    between atoms: C11_24  and  N6_25 
ROOT
HETATM    1  N4  UNL     1      -1.453   2.767  83.537  1.00  0.00    -0.229 N 
HETATM    2  C7  UNL     1      -1.866   4.019  83.830  1.00  0.00     0.158 A 
HETATM    3  C8  UNL     1      -1.865   5.238  83.065  1.00  0.00     0.096 A 
HETATM    4  C9  UNL     1      -3.052   5.789  82.658  1.00  0.00     0.054 A 
HETATM    5  C10 UNL     1      -3.103   6.979  81.954  1.00  0.00     0.144 A 
HETATM    6  N5  UNL     1      -1.927   7.588  81.677  1.00  0.00    -0.064 N 
HETATM    7  C11 UNL     1      -0.770   7.057  82.071  1.00  0.00     0.702 A 
HETATM    8  N7  UNL     1      -0.750   5.880  82.765  1.00  0.00    -0.186 N 
ATOM      9  H7  UNL     1       0.145   5.488  83.058  1.00  0.00     0.184 HD
HETATM   10  N8  UNL     1      -2.367   4.069  85.108  1.00  0.00    -0.305 N 
HETATM   11  C12 UNL     1      -2.915   5.239  85.804  1.00  0.00     0.161 C 
HETATM   12  C13 UNL     1      -2.257   2.843  85.591  1.00  0.00     0.207 A 
HETATM   13  N9  UNL     1      -1.721   2.076  84.672  1.00  0.00    -0.246 N 
HETATM   14  C14 UNL     1      -1.595   0.714  85.194  1.00  0.00     0.255 A 
HETATM   15  C15 UNL     1      -2.118   0.771  86.574  1.00  0.00     0.244 A 
HETATM   16  O4  UNL     1      -2.195  -0.170  87.417  1.00  0.00    -0.271 OA
HETATM   17  N10 UNL     1      -2.533   2.105  86.802  1.00  0.00    -0.296 N 
ATOM     18  H10 UNL     1      -2.948   2.474  87.658  1.00  0.00     0.172 HD
ENDROOT
BRANCH   1  19
HETATM   19  C3  UNL     1      -0.852   2.245  82.326  1.00  0.00     0.198 C 
BRANCH  19  20
HETATM   20  C2  UNL     1      -1.452   1.064  81.694  1.00  0.00     0.173 C 
HETATM   21  C1  UNL     1      -0.674   0.042  81.009  1.00  0.00     0.044 C 
BRANCH  20  22
HETATM   22  O1  UNL     1      -2.594   1.470  80.986  1.00  0.00    -0.391 OA
ATOM     23  H1  UNL     1      -2.783   2.397  81.069  1.00  0.00     0.210 HD
ENDBRANCH  20  22
ENDBRANCH  19  20
BRANCH  19  24
HETATM   24  O2  UNL     1       0.410   1.706  82.812  1.00  0.00    -0.366 OA
ATOM     25  H2  UNL     1       0.214   1.559  83.729  1.00  0.00     0.212 HD
ENDBRANCH  19  24
BRANCH  19  26
HETATM   26  C4  UNL     1      -0.319   3.311  81.418  1.00  0.00     0.215 C 
BRANCH  26  27
HETATM   27  N1  UNL     1       1.136   3.310  81.456  1.00  0.00    -0.283 N 
HETATM   28  C5  UNL     1       2.036   2.979  80.520  1.00  0.00     0.130 A 
HETATM   29  C6  UNL     1       3.308   3.144  81.040  1.00  0.00     0.127 A 
HETATM   30  N2  UNL     1       3.121   3.577  82.298  1.00  0.00    -0.296 N 
HETATM   31  N3  UNL     1       1.839   3.664  82.512  1.00  0.00    -0.241 N 
ATOM     32  H2  UNL     1       3.856   3.799  82.969  1.00  0.00     0.187 HD
ATOM     33  H3  UNL     1       1.428   3.969  83.394  1.00  0.00     0.208 HD
ENDBRANCH  26  27
ENDBRANCH  19  26
ENDBRANCH   1  19
BRANCH   7  34
HETATM   34  N6  UNL     1       0.337   7.650  81.799  1.00  0.00    -0.232 N 
ATOM     35  H62 UNL     1       0.968   7.910  82.557  1.00  0.00     0.174 HD
ATOM     36  H61 UNL     1       0.579   7.858  80.830  1.00  0.00     0.174 HD
ENDBRANCH   7  34
BRANCH   6  37
HETATM   37  O3  UNL     1      -2.013   8.776  80.971  1.00  0.00    -0.270 OA
ATOM     38  H3  UNL     1      -1.306   8.947  80.361  1.00  0.00     0.245 HD
ENDBRANCH   6  37
TORSDOF 8
ENDMDL
MODEL 2
REMARK VINA RESULT: -7.576392766      1.966      5.493
REMARK  8 active torsions:
REMARK  status: ('A' for Active; 'I' for Inactive)
REMARK    1  A    between atoms: C2_2  and  O1_3 
REMARK    2  A    between atoms: C2_2  and  C3_5 
REMARK    3  A    between atoms: C3_5  and  O2_6 
REMARK    4  A    between atoms: C3_5  and  C4_8 
REMARK    5  A    between atoms: C3_5  and  N4_16 
REMARK    6  A    between atoms: C4_8  and  N1_9 
REMARK    7  A    between atoms: N5_21  and  O3_22 
REMARK    8  A    between atoms: C11_24  and  N6_25 
ROOT
HETATM    1  N4  UNL     1      -0.415   5.331  81.951  1.00  0.00    -0.229 N 
HETATM    2  C7  UNL     1      -1.174   4.738  82.898  1.00  0.00     0.158 A 
HETATM    3  C8  UNL     1      -0.973   3.555  83.692  1.00  0.00     0.096 A 
HETATM    4  C9  UNL     1      -0.771   3.665  85.043  1.00  0.00     0.054 A 
HETATM    5  C10 UNL     1      -0.612   2.555  85.853  1.00  0.00     0.144 A 
HETATM    6  N5  UNL     1      -0.662   1.341  85.258  1.00  0.00    -0.064 N 
HETATM    7  C11 UNL     1      -0.858   1.227  83.945  1.00  0.00     0.702 A 
HETATM    8  N7  UNL     1      -1.012   2.342  83.170  1.00  0.00    -0.186 N 
ATOM      9  H7  UNL     1      -1.160   2.235  82.167  1.00  0.00     0.184 HD
HETATM   10  N8  UNL     1      -2.336   5.444  83.088  1.00  0.00    -0.305 N 
HETATM   11  C12 UNL     1      -3.423   5.133  84.024  1.00  0.00     0.161 C 
HETATM   12  C13 UNL     1      -2.282   6.468  82.254  1.00  0.00     0.207 A 
HETATM   13  N9  UNL     1      -1.156   6.405  81.584  1.00  0.00    -0.246 N 
HETATM   14  C14 UNL     1      -1.083   7.536  80.657  1.00  0.00     0.255 A 
HETATM   15  C15 UNL     1      -2.340   8.285  80.850  1.00  0.00     0.244 A 
HETATM   16  O4  UNL     1      -2.722   9.333  80.251  1.00  0.00    -0.271 OA
HETATM   17  N10 UNL     1      -3.073   7.609  81.854  1.00  0.00    -0.296 N 
ATOM     18  H10 UNL     1      -3.985   7.877  82.225  1.00  0.00     0.172 HD
ENDROOT
BRANCH   1  19
HETATM   19  C3  UNL     1       0.874   4.944  81.415  1.00  0.00     0.198 C 
BRANCH  19  20
HETATM   20  C2  UNL     1       0.915   4.154  80.179  1.00  0.00     0.173 C 
HETATM   21  C1  UNL     1       0.522   4.679  78.879  1.00  0.00     0.044 C 
BRANCH  20  22
HETATM   22  O1  UNL     1       0.396   2.878  80.450  1.00  0.00    -0.391 OA
ATOM     23  H1  UNL     1       0.918   2.378  81.066  1.00  0.00     0.210 HD
ENDBRANCH  20  22
ENDBRANCH  19  20
BRANCH  19  24
HETATM   24  O2  UNL     1       1.342   3.975  82.396  1.00  0.00    -0.366 OA
ATOM     25  H2  UNL     1       2.184   4.344  82.639  1.00  0.00     0.212 HD
ENDBRANCH  19  24
BRANCH  19  26
HETATM   26  C4  UNL     1       1.933   5.989  81.594  1.00  0.00     0.215 C 
BRANCH  26  27
HETATM   27  N1  UNL     1       3.248   5.398  81.398  1.00  0.00    -0.283 N 
HETATM   28  C5  UNL     1       3.970   5.219  80.283  1.00  0.00     0.130 A 
HETATM   29  C6  UNL     1       5.166   4.607  80.615  1.00  0.00     0.127 A 
HETATM   30  N2  UNL     1       5.118   4.437  81.946  1.00  0.00    -0.296 N 
HETATM   31  N3  UNL     1       3.983   4.910  82.376  1.00  0.00    -0.241 N 
ATOM     32  H2  UNL     1       5.845   4.011  82.521  1.00  0.00     0.187 HD
ATOM     33  H3  UNL     1       3.697   4.903  83.355  1.00  0.00     0.208 HD
ENDBRANCH  26  27
ENDBRANCH  19  26
ENDBRANCH   1  19
BRANCH   7  34
HETATM   34  N6  UNL     1      -0.903   0.065  83.400  1.00  0.00    -0.232 N 
ATOM     35  H62 UNL     1      -1.647  -0.584  83.656  1.00  0.00     0.174 HD
ATOM     36  H61 UNL     1      -0.197  -0.205  82.714  1.00  0.00     0.174 HD
ENDBRANCH   7  34
BRANCH   6  37
HETATM   37  O3  UNL     1      -0.498   0.251  86.097  1.00  0.00    -0.270 OA
ATOM     38  H3  UNL     1       0.399  -0.011  86.264  1.00  0.00     0.245 HD
ENDBRANCH   6  37
TORSDOF 8
ENDMDL
MODEL 3
REMARK VINA RESULT: -7.512530236      2.436      5.939
REMARK  8 active torsions:
REMARK  status: ('A' for Active; 'I' for Inactive)
REMARK    1  A    between atoms: C2_2  and  O1_3 
REMARK    2  A    between atoms: C2_2  and  C3_5 
REMARK    3  A    between atoms: C3_5  and  O2_6 
REMARK    4  A    between atoms: C3_5  and  C4_8 
REMARK    5  A    between atoms: C3_5  and  N4_16 
REMARK    6  A    between atoms: C4_8  and  N1_9 
REMARK    7  A    between atoms: N5_21  and  O3_22 
REMARK    8  A    between atoms: C11_24  and  N6_25 
ROOT
HETATM    1  N4  UNL     1      -0.173   4.984  82.220  1.00  0.00    -0.229 N 
HETATM    2  C7  UNL     1       0.632   5.195  81.156  1.00  0.00     0.158 A 
HETATM    3  C8  UNL     1       1.931   4.680  80.814  1.00  0.00     0.096 A 
HETATM    4  C9  UNL     1       2.069   3.826  79.751  1.00  0.00     0.054 A 
HETATM    5  C10 UNL     1       3.301   3.336  79.360  1.00  0.00     0.144 A 
HETATM    6  N5  UNL     1       4.382   3.732  80.072  1.00  0.00    -0.064 N 
HETATM    7  C11 UNL     1       4.254   4.563  81.106  1.00  0.00     0.702 A 
HETATM    8  N7  UNL     1       3.023   5.031  81.469  1.00  0.00    -0.186 N 
ATOM      9  H7  UNL     1       2.945   5.665  82.265  1.00  0.00     0.184 HD
HETATM   10  N8  UNL     1       0.043   6.073  80.280  1.00  0.00    -0.305 N 
HETATM   11  C12 UNL     1       0.588   6.561  79.008  1.00  0.00     0.161 C 
HETATM   12  C13 UNL     1      -1.123   6.396  80.815  1.00  0.00     0.207 A 
HETATM   13  N9  UNL     1      -1.253   5.758  81.954  1.00  0.00    -0.246 N 
HETATM   14  C14 UNL     1      -2.542   6.105  82.555  1.00  0.00     0.255 A 
HETATM   15  C15 UNL     1      -3.168   7.063  81.621  1.00  0.00     0.244 A 
HETATM   16  O4  UNL     1      -4.287   7.643  81.735  1.00  0.00    -0.271 OA
HETATM   17  N10 UNL     1      -2.272   7.226  80.538  1.00  0.00    -0.296 N 
ATOM     18  H10 UNL     1      -2.411   7.818  79.718  1.00  0.00     0.172 HD
ENDROOT
BRANCH   1  19
HETATM   19  C3  UNL     1       0.030   4.154  83.390  1.00  0.00     0.198 C 
BRANCH  19  20
HETATM   20  C2  UNL     1       0.866   4.668  84.482  1.00  0.00     0.173 C 
HETATM   21  C1  UNL     1       0.907   6.071  84.867  1.00  0.00     0.044 C 
BRANCH  20  22
HETATM   22  O1  UNL     1       2.134   4.072  84.389  1.00  0.00    -0.391 OA
ATOM     23  H1  UNL     1       2.666   4.419  83.683  1.00  0.00     0.210 HD
ENDBRANCH  20  22
ENDBRANCH  19  20
BRANCH  19  24
HETATM   24  O2  UNL     1       0.862   3.078  82.869  1.00  0.00    -0.366 OA
ATOM     25  H2  UNL     1       0.809   2.441  83.572  1.00  0.00     0.212 HD
ENDBRANCH  19  24
BRANCH  19  26
HETATM   26  C4  UNL     1      -1.177   3.353  83.771  1.00  0.00     0.215 C 
BRANCH  26  27
HETATM   27  N1  UNL     1      -1.245   2.146  82.962  1.00  0.00    -0.283 N 
HETATM   28  C5  UNL     1      -1.662   1.959  81.702  1.00  0.00     0.130 A 
HETATM   29  C6  UNL     1      -1.533   0.620  81.379  1.00  0.00     0.127 A 
HETATM   30  N2  UNL     1      -1.033   0.038  82.481  1.00  0.00    -0.296 N 
HETATM   31  N3  UNL     1      -0.876   0.957  83.391  1.00  0.00    -0.241 N 
ATOM     32  H2  UNL     1      -0.814  -0.953  82.587  1.00  0.00     0.187 HD
ATOM     33  H3  UNL     1      -0.509   0.777  84.325  1.00  0.00     0.208 HD
ENDBRANCH  26  27
ENDBRANCH  19  26
ENDBRANCH   1  19
BRANCH   7  34
HETATM   34  N6  UNL     1       5.292   4.927  81.770  1.00  0.00    -0.232 N 
ATOM     35  H62 UNL     1       5.908   5.645  81.388  1.00  0.00     0.174 HD
ATOM     36  H61 UNL     1       5.496   4.501  82.674  1.00  0.00     0.174 HD
ENDBRANCH   7  34
BRANCH   6  37
HETATM   37  O3  UNL     1       5.599   3.223  79.655  1.00  0.00    -0.270 OA
ATOM     38  H3  UNL     1       6.176   2.913  80.344  1.00  0.00     0.245 HD
ENDBRANCH   6  37
TORSDOF 8
ENDMDL
MODEL 4
REMARK VINA RESULT: -7.469345788      2.287      6.256
REMARK  8 active torsions:
REMARK  status: ('A' for Active; 'I' for Inactive)
REMARK    1  A    between atoms: C2_2  and  O1_3 
REMARK    2  A    between atoms: C2_2  and  C3_5 
REMARK    3  A    between atoms: C3_5  and  O2_6 
REMARK    4  A    between atoms: C3_5  and  C4_8 
REMARK    5  A    between atoms: C3_5  and  N4_16 
REMARK    6  A    between atoms: C4_8  and  N1_9 
REMARK    7  A    between atoms: N5_21  and  O3_22 
REMARK    8  A    between atoms: C11_24  and  N6_25 
ROOT
HETATM    1  N4  UNL     1      -0.007   5.075  81.953  1.00  0.00    -0.229 N 
HETATM    2  C7  UNL     1       0.882   5.344  80.973  1.00  0.00     0.158 A 
HETATM    3  C8  UNL     1       2.166   4.778  80.654  1.00  0.00     0.096 A 
HETATM    4  C9  UNL     1       2.321   4.040  79.509  1.00  0.00     0.054 A 
HETATM    5  C10 UNL     1       3.544   3.508  79.142  1.00  0.00     0.144 A 
HETATM    6  N5  UNL     1       4.595   3.743  79.961  1.00  0.00    -0.064 N 
HETATM    7  C11 UNL     1       4.450   4.460  81.075  1.00  0.00     0.702 A 
HETATM    8  N7  UNL     1       3.230   4.972  81.413  1.00  0.00    -0.186 N 
ATOM      9  H7  UNL     1       3.138   5.518  82.270  1.00  0.00     0.184 HD
HETATM   10  N8  UNL     1       0.414   6.356  80.170  1.00  0.00    -0.305 N 
HETATM   11  C12 UNL     1       1.078   6.942  78.999  1.00  0.00     0.161 C 
HETATM   12  C13 UNL     1      -0.762   6.700  80.665  1.00  0.00     0.207 A 
HETATM   13  N9  UNL     1      -1.013   5.951  81.712  1.00  0.00    -0.246 N 
HETATM   14  C14 UNL     1      -2.316   6.321  82.268  1.00  0.00     0.255 A 
HETATM   15  C15 UNL     1      -2.811   7.420  81.415  1.00  0.00     0.244 A 
HETATM   16  O4  UNL     1      -3.895   8.064  81.526  1.00  0.00    -0.271 OA
HETATM   17  N10 UNL     1      -1.833   7.638  80.416  1.00  0.00    -0.296 N 
ATOM     18  H10 UNL     1      -1.876   8.326  79.664  1.00  0.00     0.172 HD
ENDROOT
BRANCH   1  19
HETATM   19  C3  UNL     1       0.059   4.107  83.029  1.00  0.00     0.198 C 
BRANCH  19  20
HETATM   20  C2  UNL     1       0.681   4.504  84.297  1.00  0.00     0.173 C 
HETATM   21  C1  UNL     1       0.525   5.827  84.886  1.00  0.00     0.044 C 
BRANCH  20  22
HETATM   22  O1  UNL     1       2.005   4.036  84.309  1.00  0.00    -0.391 OA
ATOM     23  H1  UNL     1       2.509   4.300  83.549  1.00  0.00     0.210 HD
ENDBRANCH  20  22
ENDBRANCH  19  20
BRANCH  19  24
HETATM   24  O2  UNL     1       1.024   3.142  82.521  1.00  0.00    -0.366 OA
ATOM     25  H2  UNL     1       0.481   2.370  82.413  1.00  0.00     0.212 HD
ENDBRANCH  19  24
BRANCH  19  26
HETATM   26  C4  UNL     1      -1.144   3.217  83.106  1.00  0.00     0.215 C 
BRANCH  26  27
HETATM   27  N1  UNL     1      -1.170   2.532  84.390  1.00  0.00    -0.283 N 
HETATM   28  C5  UNL     1      -2.033   2.621  85.411  1.00  0.00     0.130 A 
HETATM   29  C6  UNL     1      -1.627   1.764  86.419  1.00  0.00     0.127 A 
HETATM   30  N2  UNL     1      -0.510   1.180  85.957  1.00  0.00    -0.296 N 
HETATM   31  N3  UNL     1      -0.268   1.650  84.766  1.00  0.00    -0.241 N 
ATOM     32  H2  UNL     1       0.052   0.487  86.452  1.00  0.00     0.187 HD
ATOM     33  H3  UNL     1       0.527   1.369  84.193  1.00  0.00     0.208 HD
ENDBRANCH  26  27
ENDBRANCH  19  26
ENDBRANCH   1  19
BRANCH   7  34
HETATM   34  N6  UNL     1       5.460   4.671  81.840  1.00  0.00    -0.232 N 
ATOM     35  H62 UNL     1       6.315   5.067  81.447  1.00  0.00     0.174 HD
ATOM     36  H61 UNL     1       5.406   4.445  82.833  1.00  0.00     0.174 HD
ENDBRANCH   7  34
BRANCH   6  37
HETATM   37  O3  UNL     1       5.803   3.196  79.564  1.00  0.00    -0.270 OA
ATOM     38  H3  UNL     1       6.137   2.492  80.107  1.00  0.00     0.245 HD
ENDBRANCH   6  37
TORSDOF 8
ENDMDL
MODEL 5
REMARK VINA RESULT: -7.326388694      2.540      4.529
REMARK  8 active torsions:
REMARK  status: ('A' for Active; 'I' for Inactive)
REMARK    1  A    between atoms: C2_2  and  O1_3 
REMARK    2  A    between atoms: C2_2  and  C3_5 
REMARK    3  A    between atoms: C3_5  and  O2_6 
REMARK    4  A    between atoms: C3_5  and  C4_8 
REMARK    5  A    between atoms: C3_5  and  N4_16 
REMARK    6  A    between atoms: C4_8  and  N1_9 
REMARK    7  A    between atoms: N5_21  and  O3_22 
REMARK    8  A    between atoms: C11_24  and  N6_25 
ROOT
HETATM    1  N4  UNL     1      -0.409   3.404  83.252  1.00  0.00    -0.229 N 
HETATM    2  C7  UNL     1       0.108   2.852  82.133  1.00  0.00     0.158 A 
HETATM    3  C8  UNL     1       0.700   3.432  80.957  1.00  0.00     0.096 A 
HETATM    4  C9  UNL     1       2.037   3.262  80.711  1.00  0.00     0.054 A 
HETATM    5  C10 UNL     1       2.643   3.768  79.576  1.00  0.00     0.144 A 
HETATM    6  N5  UNL     1       1.861   4.448  78.705  1.00  0.00    -0.064 N 
HETATM    7  C11 UNL     1       0.560   4.617  78.939  1.00  0.00     0.702 A 
HETATM    8  N7  UNL     1      -0.011   4.105  80.069  1.00  0.00    -0.186 N 
ATOM      9  H7  UNL     1      -1.008   4.245  80.232  1.00  0.00     0.184 HD
HETATM   10  N8  UNL     1       0.019   1.483  82.192  1.00  0.00    -0.305 N 
HETATM   11  C12 UNL     1       0.465   0.517  81.181  1.00  0.00     0.161 C 
HETATM   12  C13 UNL     1      -0.554   1.204  83.351  1.00  0.00     0.207 A 
HETATM   13  N9  UNL     1      -0.807   2.329  83.976  1.00  0.00    -0.246 N 
HETATM   14  C14 UNL     1      -1.439   2.033  85.263  1.00  0.00     0.255 A 
HETATM   15  C15 UNL     1      -1.551   0.562  85.318  1.00  0.00     0.244 A 
HETATM   16  O4  UNL     1      -2.047  -0.147  86.242  1.00  0.00    -0.271 OA
HETATM   17  N10 UNL     1      -0.987   0.061  84.121  1.00  0.00    -0.296 N 
ATOM     18  H10 UNL     1      -0.902  -0.920  83.854  1.00  0.00     0.172 HD
ENDROOT
BRANCH   1  19
HETATM   19  C3  UNL     1      -0.541   4.797  83.627  1.00  0.00     0.198 C 
BRANCH  19  20
HETATM   20  C2  UNL     1      -1.868   5.422  83.562  1.00  0.00     0.173 C 
HETATM   21  C1  UNL     1      -2.941   5.120  84.499  1.00  0.00     0.044 C 
BRANCH  20  22
HETATM   22  O1  UNL     1      -2.283   5.446  82.221  1.00  0.00    -0.391 OA
ATOM     23  H1  UNL     1      -1.565   5.498  81.601  1.00  0.00     0.210 HD
ENDBRANCH  20  22
ENDBRANCH  19  20
BRANCH  19  24
HETATM   24  O2  UNL     1       0.154   5.479  82.544  1.00  0.00    -0.366 OA
ATOM     25  H2  UNL     1       0.133   4.820  81.860  1.00  0.00     0.212 HD
ENDBRANCH  19  24
BRANCH  19  26
HETATM   26  C4  UNL     1       0.348   5.196  84.765  1.00  0.00     0.215 C 
BRANCH  26  27
HETATM   27  N1  UNL     1       1.050   6.427  84.434  1.00  0.00    -0.283 N 
HETATM   28  C5  UNL     1       0.840   7.689  84.834  1.00  0.00     0.130 A 
HETATM   29  C6  UNL     1       1.779   8.512  84.239  1.00  0.00     0.127 A 
HETATM   30  N2  UNL     1       2.536   7.697  83.486  1.00  0.00    -0.296 N 
HETATM   31  N3  UNL     1       2.085   6.483  83.621  1.00  0.00    -0.241 N 
ATOM     32  H2  UNL     1       3.328   7.980  82.909  1.00  0.00     0.187 HD
ATOM     33  H3  UNL     1       2.485   5.670  83.153  1.00  0.00     0.208 HD
ENDBRANCH  26  27
ENDBRANCH  19  26
ENDBRANCH   1  19
BRANCH   7  34
HETATM   34  N6  UNL     1      -0.165   5.265  78.100  1.00  0.00    -0.232 N 
ATOM     35  H62 UNL     1      -0.557   6.168  78.366  1.00  0.00     0.174 HD
ATOM     36  H61 UNL     1      -0.345   4.877  77.174  1.00  0.00     0.174 HD
ENDBRANCH   7  34
BRANCH   6  37
HETATM   37  O3  UNL     1       2.499   4.942  77.580  1.00  0.00    -0.270 OA
ATOM     38  H3  UNL     1       2.112   4.703  76.746  1.00  0.00     0.245 HD
ENDBRANCH   6  37
TORSDOF 8
ENDMDL
