MODEL 1
REMARK VINA RESULT: -5.385349092      0.000      0.000
REMARK  4 active torsions:
REMARK  status: ('A' for Active; 'I' for Inactive)
REMARK    1  A    between atoms: C2_2  and  S1_3 
REMARK    2  A    between atoms: S1_3  and  C3_4 
REMARK    3  A    between atoms: C3_4  and  C4_5 
REMARK    4  A    between atoms: C10_11  and  O1_12 
ROOT
HETATM    1  C4  UNL     1     135.832  -4.081 -54.291  1.00  0.00     0.032 C 
HETATM    2  C5  UNL     1     137.003  -3.597 -53.433  1.00  0.00     0.195 C 
HETATM    3  C6  UNL     1     136.797  -2.164 -53.011  1.00  0.00     0.069 C 
HETATM    4  C7  UNL     1     136.684  -1.327 -54.264  1.00  0.00     0.227 C 
HETATM    5  C8  UNL     1     135.384  -1.699 -54.923  1.00  0.00     0.043 C 
HETATM    6  C9  UNL     1     135.489  -3.135 -55.360  1.00  0.00     0.025 C 
HETATM    7  C10 UNL     1     136.559  -3.179 -56.447  1.00  0.00     0.151 C 
HETATM    8  C11 UNL     1     137.503  -2.031 -56.413  1.00  0.00     0.307 C 
HETATM    9  N1  UNL     1     137.836  -1.594 -55.080  1.00  0.00     0.121 N 
HETATM   10  C12 UNL     1     138.806  -2.460 -54.442  1.00  0.00     0.503 C 
HETATM   11  N2  UNL     1     138.271  -3.764 -54.121  1.00  0.00    -0.044 N 
ATOM     12  H21 UNL     1     138.192  -4.365 -54.941  1.00  0.00     0.279 HD
ATOM     13  H22 UNL     1     138.929  -4.334 -53.590  1.00  0.00     0.279 HD
ENDROOT
BRANCH   1  14
HETATM   14  C3  UNL     1     134.740  -4.435 -53.342  1.00  0.00     0.081 C 
BRANCH  14  15
HETATM   15  S1  UNL     1     134.575  -6.116 -52.912  1.00  0.00    -0.169 SA
BRANCH  15  16
HETATM   16  C2  UNL     1     135.577  -7.360 -53.640  1.00  0.00     0.069 C 
HETATM   17  C1  UNL     1     135.752  -8.469 -52.553  1.00  0.00     0.016 C 
ENDBRANCH  15  16
ENDBRANCH  14  15
ENDBRANCH   1  14
BRANCH   7  18
HETATM   18  O1  UNL     1     135.917  -3.191 -57.707  1.00  0.00    -0.393 OA
ATOM     19  H1  UNL     1     135.985  -4.066 -58.071  1.00  0.00     0.210 HD
ENDBRANCH   7  18
TORSDOF 4
ENDMDL
MODEL 2
REMARK VINA RESULT: -5.297670266      1.187      1.430
REMARK  4 active torsions:
REMARK  status: ('A' for Active; 'I' for Inactive)
REMARK    1  A    between atoms: C2_2  and  S1_3 
REMARK    2  A    between atoms: S1_3  and  C3_4 
REMARK    3  A    between atoms: C3_4  and  C4_5 
REMARK    4  A    between atoms: C10_11  and  O1_12 
ROOT
HETATM    1  C4  UNL     1     137.027  -3.587 -54.898  1.00  0.00     0.032 C 
HETATM    2  C5  UNL     1     137.921  -2.468 -54.357  1.00  0.00     0.195 C 
HETATM    3  C6  UNL     1     137.096  -1.422 -53.651  1.00  0.00     0.069 C 
HETATM    4  C7  UNL     1     136.107  -0.865 -54.649  1.00  0.00     0.227 C 
HETATM    5  C8  UNL     1     135.121  -1.962 -54.947  1.00  0.00     0.043 C 
HETATM    6  C9  UNL     1     135.867  -3.071 -55.637  1.00  0.00     0.025 C 
HETATM    7  C10 UNL     1     136.322  -2.515 -56.983  1.00  0.00     0.151 C 
HETATM    8  C11 UNL     1     136.387  -1.030 -57.033  1.00  0.00     0.307 C 
HETATM    9  N1  UNL     1     136.842  -0.428 -55.804  1.00  0.00     0.121 N 
HETATM   10  C12 UNL     1     138.278  -0.524 -55.643  1.00  0.00     0.503 C 
HETATM   11  N2  UNL     1     138.729  -1.877 -55.408  1.00  0.00    -0.044 N 
ATOM     12  H21 UNL     1     138.732  -2.440 -56.259  1.00  0.00     0.279 HD
ATOM     13  H22 UNL     1     139.728  -1.924 -55.204  1.00  0.00     0.279 HD
ENDROOT
BRANCH   1  14
HETATM   14  C3  UNL     1     136.735  -4.481 -53.744  1.00  0.00     0.081 C 
BRANCH  14  15
HETATM   15  S1  UNL     1     135.550  -5.735 -53.992  1.00  0.00    -0.169 SA
BRANCH  15  16
HETATM   16  C2  UNL     1     135.246  -6.973 -52.786  1.00  0.00     0.069 C 
HETATM   17  C1  UNL     1     135.998  -8.252 -53.277  1.00  0.00     0.016 C 
ENDBRANCH  15  16
ENDBRANCH  14  15
ENDBRANCH   1  14
BRANCH   7  18
HETATM   18  O1  UNL     1     135.418  -2.955 -57.978  1.00  0.00    -0.393 OA
ATOM     19  H1  UNL     1     134.551  -2.636 -57.760  1.00  0.00     0.210 HD
ENDBRANCH   7  18
TORSDOF 4
ENDMDL
MODEL 3
REMARK VINA RESULT: -5.265470007      3.125      4.949
REMARK  4 active torsions:
REMARK  status: ('A' for Active; 'I' for Inactive)
REMARK    1  A    between atoms: C2_2  and  S1_3 
REMARK    2  A    between atoms: S1_3  and  C3_4 
REMARK    3  A    between atoms: C3_4  and  C4_5 
REMARK    4  A    between atoms: C10_11  and  O1_12 
ROOT
HETATM    1  C4  UNL     1     136.710  -0.191 -55.232  1.00  0.00     0.032 C 
HETATM    2  C5  UNL     1     136.268  -1.098 -54.081  1.00  0.00     0.195 C 
HETATM    3  C6  UNL     1     137.246  -2.230 -53.890  1.00  0.00     0.069 C 
HETATM    4  C7  UNL     1     137.302  -3.013 -55.181  1.00  0.00     0.227 C 
HETATM    5  C8  UNL     1     137.968  -2.129 -56.200  1.00  0.00     0.043 C 
HETATM    6  C9  UNL     1     137.067  -0.948 -56.438  1.00  0.00     0.025 C 
HETATM    7  C10 UNL     1     135.803  -1.495 -57.094  1.00  0.00     0.151 C 
HETATM    8  C11 UNL     1     135.575  -2.944 -56.854  1.00  0.00     0.307 C 
HETATM    9  N1  UNL     1     135.959  -3.381 -55.534  1.00  0.00     0.121 N 
HETATM   10  C12 UNL     1     134.980  -3.022 -54.529  1.00  0.00     0.503 C 
HETATM   11  N2  UNL     1     134.920  -1.598 -54.285  1.00  0.00    -0.044 N 
ATOM     12  H21 UNL     1     134.427  -1.097 -55.023  1.00  0.00     0.279 HD
ATOM     13  H22 UNL     1     134.297  -1.362 -53.512  1.00  0.00     0.279 HD
ENDROOT
BRANCH   1  14
HETATM   14  C3  UNL     1     137.760   0.705 -54.675  1.00  0.00     0.081 C 
BRANCH  14  15
HETATM   15  S1  UNL     1     137.348   1.621 -53.250  1.00  0.00    -0.169 SA
BRANCH  15  16
HETATM   16  C2  UNL     1     138.310   1.536 -51.785  1.00  0.00     0.069 C 
HETATM   17  C1  UNL     1     139.611   0.758 -52.163  1.00  0.00     0.016 C 
ENDBRANCH  15  16
ENDBRANCH  14  15
ENDBRANCH   1  14
BRANCH   7  18
HETATM   18  O1  UNL     1     135.894  -1.283 -58.490  1.00  0.00    -0.393 OA
ATOM     19  H1  UNL     1     135.211  -0.675 -58.747  1.00  0.00     0.210 HD
ENDBRANCH   7  18
TORSDOF 4
ENDMDL
MODEL 4
REMARK VINA RESULT: -5.143820072      3.188      5.028
REMARK  4 active torsions:
REMARK  status: ('A' for Active; 'I' for Inactive)
REMARK    1  A    between atoms: C2_2  and  S1_3 
REMARK    2  A    between atoms: S1_3  and  C3_4 
REMARK    3  A    between atoms: C3_4  and  C4_5 
REMARK    4  A    between atoms: C10_11  and  O1_12 
ROOT
HETATM    1  C4  UNL     1     136.895  -0.494 -55.613  1.00  0.00     0.032 C 
HETATM    2  C5  UNL     1     136.269  -0.590 -54.219  1.00  0.00     0.195 C 
HETATM    3  C6  UNL     1     136.916  -1.691 -53.419  1.00  0.00     0.069 C 
HETATM    4  C7  UNL     1     136.717  -2.986 -54.172  1.00  0.00     0.227 C 
HETATM    5  C8  UNL     1     137.558  -2.902 -55.416  1.00  0.00     0.043 C 
HETATM    6  C9  UNL     1     136.996  -1.801 -56.274  1.00  0.00     0.025 C 
HETATM    7  C10 UNL     1     135.609  -2.262 -56.714  1.00  0.00     0.151 C 
HETATM    8  C11 UNL     1     135.012  -3.306 -55.839  1.00  0.00     0.307 C 
HETATM    9  N1  UNL     1     135.313  -3.130 -54.440  1.00  0.00     0.121 N 
HETATM   10  C12 UNL     1     134.501  -2.100 -53.828  1.00  0.00     0.503 C 
HETATM   11  N2  UNL     1     134.830  -0.771 -54.294  1.00  0.00    -0.044 N 
ATOM     12  H21 UNL     1     134.462  -0.584 -55.227  1.00  0.00     0.279 HD
ATOM     13  H22 UNL     1     134.320  -0.045 -53.792  1.00  0.00     0.279 HD
ENDROOT
BRANCH   1  14
HETATM   14  C3  UNL     1     138.165   0.265 -55.447  1.00  0.00     0.081 C 
BRANCH  14  15
HETATM   15  S1  UNL     1     138.217   1.457 -54.176  1.00  0.00    -0.169 SA
BRANCH  15  16
HETATM   16  C2  UNL     1     139.230   1.255 -52.757  1.00  0.00     0.069 C 
HETATM   17  C1  UNL     1     138.294   1.452 -51.522  1.00  0.00     0.016 C 
ENDBRANCH  15  16
ENDBRANCH  14  15
ENDBRANCH   1  14
BRANCH   7  18
HETATM   18  O1  UNL     1     135.704  -2.781 -58.026  1.00  0.00    -0.393 OA
ATOM     19  H1  UNL     1     134.882  -3.205 -58.243  1.00  0.00     0.210 HD
ENDBRANCH   7  18
TORSDOF 4
ENDMDL
MODEL 5
REMARK VINA RESULT: -5.120356617      2.854      4.737
REMARK  4 active torsions:
REMARK  status: ('A' for Active; 'I' for Inactive)
REMARK    1  A    between atoms: C2_2  and  S1_3 
REMARK    2  A    between atoms: S1_3  and  C3_4 
REMARK    3  A    between atoms: C3_4  and  C4_5 
REMARK    4  A    between atoms: C10_11  and  O1_12 
ROOT
HETATM    1  C4  UNL     1     135.764  -0.897 -54.120  1.00  0.00     0.032 C 
HETATM    2  C5  UNL     1     135.723  -2.299 -53.507  1.00  0.00     0.195 C 
HETATM    3  C6  UNL     1     137.115  -2.865 -53.380  1.00  0.00     0.069 C 
HETATM    4  C7  UNL     1     137.719  -2.916 -54.764  1.00  0.00     0.227 C 
HETATM    5  C8  UNL     1     137.946  -1.493 -55.195  1.00  0.00     0.043 C 
HETATM    6  C9  UNL     1     136.600  -0.835 -55.326  1.00  0.00     0.025 C 
HETATM    7  C10 UNL     1     135.888  -1.534 -56.481  1.00  0.00     0.151 C 
HETATM    8  C11 UNL     1     136.416  -2.889 -56.786  1.00  0.00     0.307 C 
HETATM    9  N1  UNL     1     136.812  -3.634 -55.616  1.00  0.00     0.121 N 
HETATM   10  C12 UNL     1     135.679  -4.194 -54.910  1.00  0.00     0.503 C 
HETATM   11  N2  UNL     1     134.863  -3.187 -54.267  1.00  0.00    -0.044 N 
ATOM     12  H21 UNL     1     134.272  -2.685 -54.930  1.00  0.00     0.279 HD
ATOM     13  H22 UNL     1     134.122  -3.594 -53.696  1.00  0.00     0.279 HD
ENDROOT
BRANCH   1  14
HETATM   14  C3  UNL     1     136.126   0.031 -53.013  1.00  0.00     0.081 C 
BRANCH  14  15
HETATM   15  S1  UNL     1     136.670   1.626 -53.461  1.00  0.00    -0.169 SA
BRANCH  15  16
HETATM   16  C2  UNL     1     138.348   1.953 -53.857  1.00  0.00     0.069 C 
HETATM   17  C1  UNL     1     139.203   1.173 -52.807  1.00  0.00     0.016 C 
ENDBRANCH  15  16
ENDBRANCH  14  15
ENDBRANCH   1  14
BRANCH   7  18
HETATM   18  O1  UNL     1     136.019  -0.733 -57.639  1.00  0.00    -0.393 OA
ATOM     19  H1  UNL     1     135.198  -0.277 -57.785  1.00  0.00     0.210 HD
ENDBRANCH   7  18
TORSDOF 4
ENDMDL
