MODEL 1
REMARK VINA RESULT: -8.705922898      0.000      0.000
REMARK  6 active torsions:
REMARK  status: ('A' for Active; 'I' for Inactive)
REMARK    1  A    between atoms: C3_4  and  N1_5 
REMARK    2  A    between atoms: C4_6  and  N2_7 
REMARK    3  A    between atoms: C6_13  and  S1_14 
REMARK    4  A    between atoms: S1_14  and  C7_15 
REMARK    5  A    between atoms: C7_15  and  C8_16 
REMARK    6  A    between atoms: C16_25  and  O3_26 
ROOT
HETATM    1  N1  UNL     1      15.179   9.224  11.079  1.00  0.00    -0.119 N 
HETATM    2  C4  UNL     1      15.085  10.489  10.629  1.00  0.00     0.683 A 
HETATM    3  N3  UNL     1      14.514  11.465  11.369  1.00  0.00    -0.200 N 
ATOM      4  H3  UNL     1      14.463  12.410  10.990  1.00  0.00     0.183 HD
HETATM    5  C5  UNL     1      14.013  11.225  12.584  1.00  0.00     0.130 A 
HETATM    6  C6  UNL     1      14.078   9.955  13.102  1.00  0.00     0.085 A 
HETATM    7  C14 UNL     1      14.682   8.978  12.292  1.00  0.00     0.282 A 
HETATM    8  O2  UNL     1      14.759   7.788  12.738  1.00  0.00    -0.266 OA
ENDROOT
BRANCH   1   9
HETATM    9  C3  UNL     1      15.799   8.224  10.248  1.00  0.00     0.252 C 
HETATM   10  O1  UNL     1      17.101   8.589   9.979  1.00  0.00    -0.358 OA
HETATM   11  C2  UNL     1      17.467   7.644   9.019  1.00  0.00     0.148 C 
HETATM   12  C1  UNL     1      17.726   6.326   9.728  1.00  0.00     0.042 C 
HETATM   13  C16 UNL     1      16.315   7.562   8.058  1.00  0.00     0.150 C 
HETATM   14  C15 UNL     1      15.146   8.054   8.907  1.00  0.00     0.089 C 
BRANCH  13  15
HETATM   15  O3  UNL     1      16.554   8.463   7.021  1.00  0.00    -0.393 OA
ATOM     16  H3  UNL     1      15.960   8.256   6.310  1.00  0.00     0.210 HD
ENDBRANCH  13  15
ENDBRANCH   1   9
BRANCH   2  17
HETATM   17  N2  UNL     1      15.560  10.756   9.456  1.00  0.00    -0.234 N 
ATOM     18  H22 UNL     1      15.271  11.602   8.966  1.00  0.00     0.174 HD
ATOM     19  H21 UNL     1      16.223  10.099   9.044  1.00  0.00     0.174 HD
ENDBRANCH   2  17
BRANCH   6  20
HETATM   20  S1  UNL     1      13.494   9.492  14.684  1.00  0.00    -0.123 SA
BRANCH  20  21
HETATM   21  C7  UNL     1      13.049  10.741  15.832  1.00  0.00     0.084 C 
BRANCH  21  22
HETATM   22  C8  UNL     1      12.158  10.394  16.976  1.00  0.00    -0.005 C 
HETATM   23  C9  UNL     1      11.531  11.559  17.609  1.00  0.00     0.005 C 
HETATM   24  C10 UNL     1      10.573  11.167  18.738  1.00  0.00     0.000 C 
HETATM   25  C11 UNL     1      11.509  10.557  19.793  1.00  0.00     0.000 C 
HETATM   26  C12 UNL     1      11.992   9.270  19.214  1.00  0.00     0.000 C 
HETATM   27  C13 UNL     1      12.782   9.412  17.937  1.00  0.00     0.005 C 
ENDBRANCH  21  22
ENDBRANCH  20  21
ENDBRANCH   6  20
TORSDOF 6
ENDMDL
MODEL 2
REMARK VINA RESULT: -8.418196945      2.050      3.099
REMARK  6 active torsions:
REMARK  status: ('A' for Active; 'I' for Inactive)
REMARK    1  A    between atoms: C3_4  and  N1_5 
REMARK    2  A    between atoms: C4_6  and  N2_7 
REMARK    3  A    between atoms: C6_13  and  S1_14 
REMARK    4  A    between atoms: S1_14  and  C7_15 
REMARK    5  A    between atoms: C7_15  and  C8_16 
REMARK    6  A    between atoms: C16_25  and  O3_26 
ROOT
HETATM    1  N1  UNL     1      15.976   7.747   9.368  1.00  0.00    -0.119 N 
HETATM    2  C4  UNL     1      16.262   8.694   8.456  1.00  0.00     0.683 A 
HETATM    3  N3  UNL     1      16.207  10.011   8.757  1.00  0.00    -0.200 N 
ATOM      4  H3  UNL     1      16.432  10.695   8.036  1.00  0.00     0.183 HD
HETATM    5  C5  UNL     1      15.866  10.439   9.976  1.00  0.00     0.130 A 
HETATM    6  C6  UNL     1      15.562   9.523  10.953  1.00  0.00     0.085 A 
HETATM    7  C14 UNL     1      15.635   8.168  10.586  1.00  0.00     0.282 A 
HETATM    8  O2  UNL     1      15.359   7.290  11.466  1.00  0.00    -0.266 OA
ENDROOT
BRANCH   1   9
HETATM    9  C3  UNL     1      16.052   6.359   8.992  1.00  0.00     0.252 C 
HETATM   10  O1  UNL     1      17.341   6.053   8.611  1.00  0.00    -0.358 OA
HETATM   11  C2  UNL     1      17.185   4.766   8.092  1.00  0.00     0.148 C 
HETATM   12  C1  UNL     1      17.040   3.802   9.257  1.00  0.00     0.042 C 
HETATM   13  C16 UNL     1      15.956   4.814   7.229  1.00  0.00     0.150 C 
HETATM   14  C15 UNL     1      15.191   5.997   7.815  1.00  0.00     0.089 C 
BRANCH  13  15
HETATM   15  O3  UNL     1      16.356   5.111   5.927  1.00  0.00    -0.393 OA
ATOM     16  H3  UNL     1      15.733   4.710   5.331  1.00  0.00     0.210 HD
ENDBRANCH  13  15
ENDBRANCH   1   9
BRANCH   2  17
HETATM   17  N2  UNL     1      16.597   8.313   7.265  1.00  0.00    -0.234 N 
ATOM     18  H22 UNL     1      16.253   7.427   6.896  1.00  0.00     0.174 HD
ATOM     19  H21 UNL     1      17.207   8.921   6.719  1.00  0.00     0.174 HD
ENDBRANCH   2  17
BRANCH   6  20
HETATM   20  S1  UNL     1      15.127   9.927  12.598  1.00  0.00    -0.123 SA
BRANCH  20  21
HETATM   21  C7  UNL     1      13.524  10.559  12.930  1.00  0.00     0.084 C 
BRANCH  21  22
HETATM   22  C8  UNL     1      13.234  11.138  14.273  1.00  0.00    -0.005 C 
HETATM   23  C9  UNL     1      13.019  10.130  15.316  1.00  0.00     0.005 C 
HETATM   24  C10 UNL     1      12.788  10.754  16.695  1.00  0.00     0.000 C 
HETATM   25  C11 UNL     1      11.448  11.487  16.524  1.00  0.00     0.000 C 
HETATM   26  C12 UNL     1      11.723  12.632  15.608  1.00  0.00     0.000 C 
HETATM   27  C13 UNL     1      12.200  12.236  14.233  1.00  0.00     0.005 C 
ENDBRANCH  21  22
ENDBRANCH  20  21
ENDBRANCH   6  20
TORSDOF 6
ENDMDL
MODEL 3
REMARK VINA RESULT: -8.375165294      2.010      2.875
REMARK  6 active torsions:
REMARK  status: ('A' for Active; 'I' for Inactive)
REMARK    1  A    between atoms: C3_4  and  N1_5 
REMARK    2  A    between atoms: C4_6  and  N2_7 
REMARK    3  A    between atoms: C6_13  and  S1_14 
REMARK    4  A    between atoms: S1_14  and  C7_15 
REMARK    5  A    between atoms: C7_15  and  C8_16 
REMARK    6  A    between atoms: C16_25  and  O3_26 
ROOT
HETATM    1  N1  UNL     1      15.936   7.655   9.402  1.00  0.00    -0.119 N 
HETATM    2  C4  UNL     1      16.206   8.631   8.516  1.00  0.00     0.683 A 
HETATM    3  N3  UNL     1      16.053   9.937   8.830  1.00  0.00    -0.200 N 
ATOM      4  H3  UNL     1      16.269  10.645   8.129  1.00  0.00     0.183 HD
HETATM    5  C5  UNL     1      15.625  10.325  10.035  1.00  0.00     0.130 A 
HETATM    6  C6  UNL     1      15.333   9.378  10.985  1.00  0.00     0.085 A 
HETATM    7  C14 UNL     1      15.510   8.036  10.607  1.00  0.00     0.282 A 
HETATM    8  O2  UNL     1      15.247   7.129  11.461  1.00  0.00    -0.266 OA
ENDROOT
BRANCH   1   9
HETATM    9  C3  UNL     1      16.119   6.280   9.014  1.00  0.00     0.252 C 
HETATM   10  O1  UNL     1      17.431   6.074   8.642  1.00  0.00    -0.358 OA
HETATM   11  C2  UNL     1      17.375   4.785   8.111  1.00  0.00     0.148 C 
HETATM   12  C1  UNL     1      17.293   3.801   9.266  1.00  0.00     0.042 C 
HETATM   13  C16 UNL     1      16.153   4.748   7.238  1.00  0.00     0.150 C 
HETATM   14  C15 UNL     1      15.297   5.866   7.826  1.00  0.00     0.089 C 
BRANCH  13  15
HETATM   15  O3  UNL     1      16.541   5.087   5.941  1.00  0.00    -0.393 OA
ATOM     16  H3  UNL     1      15.866   4.783   5.345  1.00  0.00     0.210 HD
ENDBRANCH  13  15
ENDBRANCH   1   9
BRANCH   2  17
HETATM   17  N2  UNL     1      16.622   8.289   7.340  1.00  0.00    -0.234 N 
ATOM     18  H22 UNL     1      17.579   7.962   7.210  1.00  0.00     0.174 HD
ATOM     19  H21 UNL     1      15.969   8.358   6.560  1.00  0.00     0.174 HD
ENDBRANCH   2  17
BRANCH   6  20
HETATM   20  S1  UNL     1      14.793   9.730  12.610  1.00  0.00    -0.123 SA
BRANCH  20  21
HETATM   21  C7  UNL     1      13.611  11.000  12.864  1.00  0.00     0.084 C 
BRANCH  21  22
HETATM   22  C8  UNL     1      12.807  11.006  14.120  1.00  0.00    -0.005 C 
HETATM   23  C9  UNL     1      12.554  12.349  14.652  1.00  0.00     0.005 C 
HETATM   24  C10 UNL     1      11.672  12.327  15.904  1.00  0.00     0.000 C 
HETATM   25  C11 UNL     1      12.557  11.615  16.940  1.00  0.00     0.000 C 
HETATM   26  C12 UNL     1      12.650  10.195  16.490  1.00  0.00     0.000 C 
HETATM   27  C13 UNL     1      13.292  10.004  15.138  1.00  0.00     0.005 C 
ENDBRANCH  21  22
ENDBRANCH  20  21
ENDBRANCH   6  20
TORSDOF 6
ENDMDL
MODEL 4
REMARK VINA RESULT: -8.337536650      1.863      2.415
REMARK  6 active torsions:
REMARK  status: ('A' for Active; 'I' for Inactive)
REMARK    1  A    between atoms: C3_4  and  N1_5 
REMARK    2  A    between atoms: C4_6  and  N2_7 
REMARK    3  A    between atoms: C6_13  and  S1_14 
REMARK    4  A    between atoms: S1_14  and  C7_15 
REMARK    5  A    between atoms: C7_15  and  C8_16 
REMARK    6  A    between atoms: C16_25  and  O3_26 
ROOT
HETATM    1  N1  UNL     1      14.655  10.110  11.899  1.00  0.00    -0.119 N 
HETATM    2  C4  UNL     1      14.789  10.871  10.798  1.00  0.00     0.683 A 
HETATM    3  N3  UNL     1      13.945  11.894  10.535  1.00  0.00    -0.200 N 
ATOM      4  H3  UNL     1      14.082  12.446   9.689  1.00  0.00     0.183 HD
HETATM    5  C5  UNL     1      12.936  12.201  11.355  1.00  0.00     0.130 A 
HETATM    6  C6  UNL     1      12.745  11.463  12.497  1.00  0.00     0.085 A 
HETATM    7  C14 UNL     1      13.650  10.412  12.722  1.00  0.00     0.282 A 
HETATM    8  O2  UNL     1      13.504   9.704  13.770  1.00  0.00    -0.266 OA
ENDROOT
BRANCH   1   9
HETATM    9  C3  UNL     1      15.584   9.033  12.129  1.00  0.00     0.252 C 
HETATM   10  O1  UNL     1      16.846   9.548  12.338  1.00  0.00    -0.358 OA
HETATM   11  C2  UNL     1      17.628   8.391  12.331  1.00  0.00     0.148 C 
HETATM   12  C1  UNL     1      17.433   7.681  13.659  1.00  0.00     0.042 C 
HETATM   13  C16 UNL     1      17.147   7.573  11.166  1.00  0.00     0.150 C 
HETATM   14  C15 UNL     1      15.724   8.089  10.969  1.00  0.00     0.089 C 
BRANCH  13  15
HETATM   15  O3  UNL     1      17.924   7.906  10.057  1.00  0.00    -0.393 OA
ATOM     16  H3  UNL     1      17.337   8.093   9.333  1.00  0.00     0.210 HD
ENDBRANCH  13  15
ENDBRANCH   1   9
BRANCH   2  17
HETATM   17  N2  UNL     1      15.756  10.600   9.982  1.00  0.00    -0.234 N 
ATOM     18  H22 UNL     1      16.432   9.873  10.214  1.00  0.00     0.174 HD
ATOM     19  H21 UNL     1      15.817  11.132   9.114  1.00  0.00     0.174 HD
ENDBRANCH   2  17
BRANCH   6  20
HETATM   20  S1  UNL     1      11.490  11.760  13.678  1.00  0.00    -0.123 SA
BRANCH  20  21
HETATM   21  C7  UNL     1      11.869  12.694  15.114  1.00  0.00     0.084 C 
BRANCH  21  22
HETATM   22  C8  UNL     1      12.312  11.983  16.348  1.00  0.00    -0.005 C 
HETATM   23  C9  UNL     1      11.205  11.494  17.176  1.00  0.00     0.005 C 
HETATM   24  C10 UNL     1      11.690  10.713  18.401  1.00  0.00     0.000 C 
HETATM   25  C11 UNL     1      12.407  11.787  19.235  1.00  0.00     0.000 C 
HETATM   26  C12 UNL     1      13.640  12.140  18.472  1.00  0.00     0.000 C 
HETATM   27  C13 UNL     1      13.387  12.724  17.104  1.00  0.00     0.005 C 
ENDBRANCH  21  22
ENDBRANCH  20  21
ENDBRANCH   6  20
TORSDOF 6
ENDMDL
MODEL 5
REMARK VINA RESULT: -8.337517753      2.280      3.575
REMARK  6 active torsions:
REMARK  status: ('A' for Active; 'I' for Inactive)
REMARK    1  A    between atoms: C3_4  and  N1_5 
REMARK    2  A    between atoms: C4_6  and  N2_7 
REMARK    3  A    between atoms: C6_13  and  S1_14 
REMARK    4  A    between atoms: S1_14  and  C7_15 
REMARK    5  A    between atoms: C7_15  and  C8_16 
REMARK    6  A    between atoms: C16_25  and  O3_26 
ROOT
HETATM    1  N1  UNL     1      16.274   7.849   8.852  1.00  0.00    -0.119 N 
HETATM    2  C4  UNL     1      16.583   8.952   8.146  1.00  0.00     0.683 A 
HETATM    3  N3  UNL     1      16.354  10.193   8.630  1.00  0.00    -0.200 N 
ATOM      4  H3  UNL     1      16.603  11.001   8.062  1.00  0.00     0.183 HD
HETATM    5  C5  UNL     1      15.809  10.388   9.835  1.00  0.00     0.130 A 
HETATM    6  C6  UNL     1      15.472   9.303  10.606  1.00  0.00     0.085 A 
HETATM    7  C14 UNL     1      15.730   8.037  10.055  1.00  0.00     0.282 A 
HETATM    8  O2  UNL     1      15.429   7.008  10.741  1.00  0.00    -0.266 OA
ENDROOT
BRANCH   1   9
HETATM    9  C3  UNL     1      16.541   6.551   8.287  1.00  0.00     0.252 C 
HETATM   10  O1  UNL     1      15.356   5.967   7.889  1.00  0.00    -0.358 OA
HETATM   11  C2  UNL     1      15.771   4.672   7.574  1.00  0.00     0.148 C 
HETATM   12  C1  UNL     1      16.483   4.717   6.232  1.00  0.00     0.042 C 
HETATM   13  C16 UNL     1      16.680   4.245   8.692  1.00  0.00     0.150 C 
HETATM   14  C15 UNL     1      17.160   5.581   9.252  1.00  0.00     0.089 C 
BRANCH  13  15
HETATM   15  O3  UNL     1      15.906   3.586   9.647  1.00  0.00    -0.393 OA
ATOM     16  H3  UNL     1      15.576   4.237  10.255  1.00  0.00     0.210 HD
ENDBRANCH  13  15
ENDBRANCH   1   9
BRANCH   2  17
HETATM   17  N2  UNL     1      17.112   8.798   6.975  1.00  0.00    -0.234 N 
ATOM     18  H22 UNL     1      16.914   7.959   6.430  1.00  0.00     0.174 HD
ATOM     19  H21 UNL     1      17.723   9.534   6.622  1.00  0.00     0.174 HD
ENDBRANCH   2  17
BRANCH   6  20
HETATM   20  S1  UNL     1      14.780   9.398  12.210  1.00  0.00    -0.123 SA
BRANCH  20  21
HETATM   21  C7  UNL     1      13.684  10.713  12.594  1.00  0.00     0.084 C 
BRANCH  21  22
HETATM   22  C8  UNL     1      13.478  11.095  14.020  1.00  0.00    -0.005 C 
HETATM   23  C9  UNL     1      13.038   9.984  14.871  1.00  0.00     0.005 C 
HETATM   24  C10 UNL     1      12.897  10.391  16.340  1.00  0.00     0.000 C 
HETATM   25  C11 UNL     1      11.735  11.396  16.313  1.00  0.00     0.000 C 
HETATM   26  C12 UNL     1      12.257  12.604  15.611  1.00  0.00     0.000 C 
HETATM   27  C13 UNL     1      12.684  12.368  14.184  1.00  0.00     0.005 C 
ENDBRANCH  21  22
ENDBRANCH  20  21
ENDBRANCH   6  20
TORSDOF 6
ENDMDL
