MODEL 1
REMARK VINA RESULT: -7.653701175      0.000      0.000
REMARK  6 active torsions:
REMARK  status: ('A' for Active; 'I' for Inactive)
REMARK    1  A    between atoms: O1_2  and  N1_3 
REMARK       I    between atoms: N1_3  and  C2_5 
REMARK       I    between atoms: C2_5  and  N2_7 
REMARK    2  A    between atoms: N2_7  and  C3_9 
REMARK    3  A    between atoms: C3_9  and  O3_10 
REMARK    4  A    between atoms: C3_9  and  C4_12 
REMARK    5  A    between atoms: C6_15  and  N4_16 
REMARK    6  A    between atoms: N7_25  and  N8_26 
ROOT
HETATM    1  C4  UNL     1      11.929  24.482  49.238  1.00  0.00     0.152 A 
HETATM    2  C5  UNL     1      11.718  25.736  49.832  1.00  0.00     0.124 A 
HETATM    3  N3  UNL     1      10.426  26.133  50.260  1.00  0.00    -0.096 NA
HETATM    4  C6  UNL     1      12.744  26.632  50.025  1.00  0.00     0.141 A 
HETATM    5  N5  UNL     1      13.971  26.294  49.634  1.00  0.00    -0.174 N 
ATOM      6  H5  UNL     1      14.742  26.949  49.770  1.00  0.00     0.186 HD
HETATM    7  C7  UNL     1      14.208  25.091  49.056  1.00  0.00     0.699 A 
HETATM    8  N6  UNL     1      15.385  24.765  48.682  1.00  0.00    -0.233 N 
ATOM      9  H61 UNL     1      15.563  23.860  48.247  1.00  0.00     0.174 HD
ATOM     10  H62 UNL     1      16.160  25.415  48.815  1.00  0.00     0.174 HD
HETATM   11  N7  UNL     1      13.165  24.216  48.876  1.00  0.00    -0.087 N 
ENDROOT
BRANCH   1  12
HETATM   12  C3  UNL     1      10.792  23.597  49.074  1.00  0.00     0.176 C 
BRANCH  12  13
HETATM   13  N2  UNL     1      10.248  22.643  49.899  1.00  0.00    -0.286 N 
HETATM   14  C2  UNL     1       8.877  22.333  50.006  1.00  0.00     0.345 C 
HETATM   15  N1  UNL     1       7.787  22.872  49.339  1.00  0.00    -0.217 N 
HETATM   16  O2  UNL     1       8.600  21.399  50.865  1.00  0.00    -0.245 OA
ATOM     17  H1  UNL     1       7.912  23.609  48.644  1.00  0.00     0.199 HD
ATOM     18  H2  UNL     1      10.893  22.113  50.485  1.00  0.00     0.172 HD
BRANCH  15  19
HETATM   19  O1  UNL     1       6.526  22.385  49.639  1.00  0.00    -0.281 OA
HETATM   20  C1  UNL     1       5.625  23.438  49.641  1.00  0.00     0.237 C 
ENDBRANCH  15  19
ENDBRANCH  12  13
BRANCH  12  21
HETATM   21  O3  UNL     1      10.170  23.735  47.937  1.00  0.00    -0.344 OA
ATOM     22  H3  UNL     1      10.229  24.607  47.565  1.00  0.00     0.219 HD
ENDBRANCH  12  21
ENDBRANCH   1  12
BRANCH  11  23
HETATM   23  N8  UNL     1      13.508  23.011  48.246  1.00  0.00    -0.324 N 
ATOM     24  H82 UNL     1      13.612  23.072  47.233  1.00  0.00     0.178 HD
ATOM     25  H81 UNL     1      13.623  22.143  48.771  1.00  0.00     0.178 HD
ENDBRANCH  11  23
BRANCH   4  26
HETATM   26  N4  UNL     1      12.502  27.787  50.581  1.00  0.00    -0.383 N 
ATOM     27  H42 UNL     1      11.558  28.055  50.859  1.00  0.00     0.157 HD
ATOM     28  H41 UNL     1      13.266  28.442  50.746  1.00  0.00     0.157 HD
ENDBRANCH   4  26
TORSDOF 6
ENDMDL
MODEL 2
REMARK VINA RESULT: -7.215027563      0.455      2.476
REMARK  6 active torsions:
REMARK  status: ('A' for Active; 'I' for Inactive)
REMARK    1  A    between atoms: O1_2  and  N1_3 
REMARK       I    between atoms: N1_3  and  C2_5 
REMARK       I    between atoms: C2_5  and  N2_7 
REMARK    2  A    between atoms: N2_7  and  C3_9 
REMARK    3  A    between atoms: C3_9  and  O3_10 
REMARK    4  A    between atoms: C3_9  and  C4_12 
REMARK    5  A    between atoms: C6_15  and  N4_16 
REMARK    6  A    between atoms: N7_25  and  N8_26 
ROOT
HETATM    1  C4  UNL     1      11.831  24.662  49.362  1.00  0.00     0.152 A 
HETATM    2  C5  UNL     1      13.143  24.284  49.036  1.00  0.00     0.124 A 
HETATM    3  N3  UNL     1      13.422  23.000  48.503  1.00  0.00    -0.096 NA
HETATM    4  C6  UNL     1      14.211  25.132  49.217  1.00  0.00     0.141 A 
HETATM    5  N5  UNL     1      13.988  26.346  49.718  1.00  0.00    -0.174 N 
ATOM      6  H5  UNL     1      14.770  26.985  49.859  1.00  0.00     0.186 HD
HETATM    7  C7  UNL     1      12.732  26.741  50.043  1.00  0.00     0.699 A 
HETATM    8  N6  UNL     1      12.516  27.906  50.522  1.00  0.00    -0.233 N 
ATOM      9  H61 UNL     1      11.572  28.203  50.766  1.00  0.00     0.174 HD
ATOM     10  H62 UNL     1      13.294  28.550  50.664  1.00  0.00     0.174 HD
HETATM   11  N7  UNL     1      11.685  25.873  49.851  1.00  0.00    -0.087 N 
ENDROOT
BRANCH   1  12
HETATM   12  C3  UNL     1      10.763  23.707  49.136  1.00  0.00     0.176 C 
BRANCH  12  13
HETATM   13  N2  UNL     1      10.249  22.706  49.923  1.00  0.00    -0.286 N 
HETATM   14  C2  UNL     1       8.887  22.353  50.020  1.00  0.00     0.345 C 
HETATM   15  N1  UNL     1       7.781  22.888  49.376  1.00  0.00    -0.217 N 
HETATM   16  O2  UNL     1       8.638  21.378  50.842  1.00  0.00    -0.245 OA
ATOM     17  H1  UNL     1       7.883  23.655  48.711  1.00  0.00     0.199 HD
ATOM     18  H2  UNL     1      10.910  22.171  50.486  1.00  0.00     0.172 HD
BRANCH  15  19
HETATM   19  O1  UNL     1       6.534  22.354  49.659  1.00  0.00    -0.281 OA
HETATM   20  C1  UNL     1       5.601  23.377  49.683  1.00  0.00     0.237 C 
ENDBRANCH  15  19
ENDBRANCH  12  13
BRANCH  12  21
HETATM   21  O3  UNL     1      10.183  23.823  47.974  1.00  0.00    -0.344 OA
ATOM     22  H3  UNL     1       9.976  24.718  47.731  1.00  0.00     0.219 HD
ENDBRANCH  12  21
ENDBRANCH   1  12
BRANCH  11  23
HETATM   23  N8  UNL     1      10.432  26.367  50.243  1.00  0.00    -0.324 N 
ATOM     24  H82 UNL     1      10.398  26.746  51.189  1.00  0.00     0.178 HD
ATOM     25  H81 UNL     1       9.620  26.325  49.627  1.00  0.00     0.178 HD
ENDBRANCH  11  23
BRANCH   4  26
HETATM   26  N4  UNL     1      15.414  24.738  48.902  1.00  0.00    -0.383 N 
ATOM     27  H42 UNL     1      15.602  24.263  48.019  1.00  0.00     0.157 HD
ATOM     28  H41 UNL     1      16.188  24.906  49.544  1.00  0.00     0.157 HD
ENDBRANCH   4  26
TORSDOF 6
ENDMDL
MODEL 3
REMARK VINA RESULT: -7.125070599      3.100      5.357
REMARK  6 active torsions:
REMARK  status: ('A' for Active; 'I' for Inactive)
REMARK    1  A    between atoms: O1_2  and  N1_3 
REMARK       I    between atoms: N1_3  and  C2_5 
REMARK       I    between atoms: C2_5  and  N2_7 
REMARK    2  A    between atoms: N2_7  and  C3_9 
REMARK    3  A    between atoms: C3_9  and  O3_10 
REMARK    4  A    between atoms: C3_9  and  C4_12 
REMARK    5  A    between atoms: C6_15  and  N4_16 
REMARK    6  A    between atoms: N7_25  and  N8_26 
ROOT
HETATM    1  C4  UNL     1      11.829  25.358  48.816  1.00  0.00     0.152 A 
HETATM    2  C5  UNL     1      12.899  24.486  48.560  1.00  0.00     0.124 A 
HETATM    3  N3  UNL     1      14.203  24.984  48.314  1.00  0.00    -0.096 NA
HETATM    4  C6  UNL     1      12.735  23.121  48.535  1.00  0.00     0.141 A 
HETATM    5  N5  UNL     1      11.523  22.616  48.760  1.00  0.00    -0.174 N 
ATOM      6  H5  UNL     1      11.386  21.606  48.744  1.00  0.00     0.186 HD
HETATM    7  C7  UNL     1      10.469  23.431  49.010  1.00  0.00     0.699 A 
HETATM    8  N6  UNL     1       9.306  22.949  49.227  1.00  0.00    -0.233 N 
ATOM      9  H61 UNL     1       8.513  23.562  49.415  1.00  0.00     0.174 HD
ATOM     10  H62 UNL     1       9.163  21.939  49.213  1.00  0.00     0.174 HD
HETATM   11  N7  UNL     1      10.662  24.791  49.029  1.00  0.00    -0.087 N 
ENDROOT
BRANCH   1  12
HETATM   12  C3  UNL     1      12.090  26.784  48.826  1.00  0.00     0.176 C 
BRANCH  12  13
HETATM   13  N2  UNL     1      12.798  27.579  49.694  1.00  0.00    -0.286 N 
HETATM   14  C2  UNL     1      12.422  27.891  51.016  1.00  0.00     0.345 C 
HETATM   15  N1  UNL     1      11.312  27.492  51.744  1.00  0.00    -0.217 N 
HETATM   16  O2  UNL     1      13.248  28.675  51.642  1.00  0.00    -0.245 OA
ATOM     17  H1  UNL     1      10.612  26.874  51.333  1.00  0.00     0.199 HD
ATOM     18  H2  UNL     1      13.672  27.978  49.351  1.00  0.00     0.172 HD
BRANCH  15  19
HETATM   19  O1  UNL     1      11.176  27.953  53.043  1.00  0.00    -0.281 OA
HETATM   20  C1  UNL     1      10.142  27.267  53.660  1.00  0.00     0.237 C 
ENDBRANCH  15  19
ENDBRANCH  12  13
BRANCH  12  21
HETATM   21  O3  UNL     1      11.556  27.430  47.827  1.00  0.00    -0.344 OA
ATOM     22  H3  UNL     1      12.186  27.757  47.195  1.00  0.00     0.219 HD
ENDBRANCH  12  21
ENDBRANCH   1  12
BRANCH  11  23
HETATM   23  N8  UNL     1       9.505  25.547  49.269  1.00  0.00    -0.324 N 
ATOM     24  H82 UNL     1       9.278  26.225  48.542  1.00  0.00     0.178 HD
ATOM     25  H81 UNL     1       8.953  25.430  50.119  1.00  0.00     0.178 HD
ENDBRANCH  11  23
BRANCH   4  26
HETATM   26  N4  UNL     1      13.758  22.348  48.292  1.00  0.00    -0.383 N 
ATOM     27  H42 UNL     1      14.497  22.213  48.982  1.00  0.00     0.157 HD
ATOM     28  H41 UNL     1      13.827  21.863  47.398  1.00  0.00     0.157 HD
ENDBRANCH   4  26
TORSDOF 6
ENDMDL
MODEL 4
REMARK VINA RESULT: -6.927705381      3.157      4.664
REMARK  6 active torsions:
REMARK  status: ('A' for Active; 'I' for Inactive)
REMARK    1  A    between atoms: O1_2  and  N1_3 
REMARK       I    between atoms: N1_3  and  C2_5 
REMARK       I    between atoms: C2_5  and  N2_7 
REMARK    2  A    between atoms: N2_7  and  C3_9 
REMARK    3  A    between atoms: C3_9  and  O3_10 
REMARK    4  A    between atoms: C3_9  and  C4_12 
REMARK    5  A    between atoms: C6_15  and  N4_16 
REMARK    6  A    between atoms: N7_25  and  N8_26 
ROOT
HETATM    1  C4  UNL     1      12.383  25.578  49.568  1.00  0.00     0.152 A 
HETATM    2  C5  UNL     1      13.729  25.944  49.415  1.00  0.00     0.124 A 
HETATM    3  N3  UNL     1      14.212  27.179  49.917  1.00  0.00    -0.096 NA
HETATM    4  C6  UNL     1      14.636  25.131  48.775  1.00  0.00     0.141 A 
HETATM    5  N5  UNL     1      14.219  23.964  48.288  1.00  0.00    -0.174 N 
ATOM      6  H5  UNL     1      14.880  23.351  47.811  1.00  0.00     0.186 HD
HETATM    7  C7  UNL     1      12.925  23.581  48.420  1.00  0.00     0.699 A 
HETATM    8  N6  UNL     1      12.523  22.461  47.955  1.00  0.00    -0.233 N 
ATOM      9  H61 UNL     1      11.550  22.173  48.054  1.00  0.00     0.174 HD
ATOM     10  H62 UNL     1      13.180  21.843  47.477  1.00  0.00     0.174 HD
HETATM   11  N7  UNL     1      12.042  24.413  49.064  1.00  0.00    -0.087 N 
ENDROOT
BRANCH   1  12
HETATM   12  C3  UNL     1      11.494  26.493  50.258  1.00  0.00     0.176 C 
BRANCH  12  13
HETATM   13  N2  UNL     1      11.742  27.557  51.090  1.00  0.00    -0.286 N 
HETATM   14  C2  UNL     1      11.288  27.686  52.418  1.00  0.00     0.345 C 
HETATM   15  N1  UNL     1      10.527  26.818  53.187  1.00  0.00    -0.217 N 
HETATM   16  O2  UNL     1      11.639  28.790  53.005  1.00  0.00    -0.245 OA
ATOM     17  H1  UNL     1      10.210  25.925  52.808  1.00  0.00     0.199 HD
ATOM     18  H2  UNL     1      12.304  28.321  50.714  1.00  0.00     0.172 HD
BRANCH  15  19
HETATM   19  O1  UNL     1      10.210  27.192  54.482  1.00  0.00    -0.281 OA
HETATM   20  C1  UNL     1       8.847  27.429  54.562  1.00  0.00     0.237 C 
ENDBRANCH  15  19
ENDBRANCH  12  13
BRANCH  12  21
HETATM   21  O3  UNL     1      10.228  26.265  50.046  1.00  0.00    -0.344 OA
ATOM     22  H3  UNL     1       9.732  26.067  50.832  1.00  0.00     0.219 HD
ENDBRANCH  12  21
ENDBRANCH   1  12
BRANCH  11  23
HETATM   23  N8  UNL     1      10.723  23.938  49.123  1.00  0.00    -0.324 N 
ATOM     24  H82 UNL     1      10.465  23.500  50.007  1.00  0.00     0.178 HD
ATOM     25  H81 UNL     1      10.087  24.015  48.329  1.00  0.00     0.178 HD
ENDBRANCH  11  23
BRANCH   4  26
HETATM   26  N4  UNL     1      15.878  25.512  48.654  1.00  0.00    -0.383 N 
ATOM     27  H42 UNL     1      16.404  25.342  47.797  1.00  0.00     0.157 HD
ATOM     28  H41 UNL     1      16.340  25.992  49.426  1.00  0.00     0.157 HD
ENDBRANCH   4  26
TORSDOF 6
ENDMDL
MODEL 5
REMARK VINA RESULT: -6.884212010      3.648      5.170
REMARK  6 active torsions:
REMARK  status: ('A' for Active; 'I' for Inactive)
REMARK    1  A    between atoms: O1_2  and  N1_3 
REMARK       I    between atoms: N1_3  and  C2_5 
REMARK       I    between atoms: C2_5  and  N2_7 
REMARK    2  A    between atoms: N2_7  and  C3_9 
REMARK    3  A    between atoms: C3_9  and  O3_10 
REMARK    4  A    between atoms: C3_9  and  C4_12 
REMARK    5  A    between atoms: C6_15  and  N4_16 
REMARK    6  A    between atoms: N7_25  and  N8_26 
ROOT
HETATM    1  C4  UNL     1      12.403  26.226  49.829  1.00  0.00     0.152 A 
HETATM    2  C5  UNL     1      13.793  26.351  49.681  1.00  0.00     0.124 A 
HETATM    3  N3  UNL     1      14.537  27.242  50.496  1.00  0.00    -0.096 NA
HETATM    4  C6  UNL     1      14.495  25.623  48.748  1.00  0.00     0.141 A 
HETATM    5  N5  UNL     1      13.829  24.777  47.963  1.00  0.00    -0.174 N 
ATOM      6  H5  UNL     1      14.336  24.232  47.266  1.00  0.00     0.186 HD
HETATM    7  C7  UNL     1      12.487  24.633  48.080  1.00  0.00     0.699 A 
HETATM    8  N6  UNL     1      11.848  23.821  47.329  1.00  0.00    -0.233 N 
ATOM      9  H61 UNL     1      10.837  23.714  47.417  1.00  0.00     0.174 HD
ATOM     10  H62 UNL     1      12.348  23.272  46.631  1.00  0.00     0.174 HD
HETATM   11  N7  UNL     1      11.813  25.373  49.021  1.00  0.00    -0.087 N 
ENDROOT
BRANCH   1  12
HETATM   12  C3  UNL     1      11.743  27.029  50.839  1.00  0.00     0.176 C 
BRANCH  12  13
HETATM   13  N2  UNL     1      10.931  26.688  51.893  1.00  0.00    -0.286 N 
HETATM   14  C2  UNL     1      10.737  27.451  53.063  1.00  0.00     0.345 C 
HETATM   15  N1  UNL     1      11.277  28.675  53.427  1.00  0.00    -0.217 N 
HETATM   16  O2  UNL     1       9.929  26.917  53.929  1.00  0.00    -0.245 OA
ATOM     17  H1  UNL     1      11.919  29.169  52.806  1.00  0.00     0.199 HD
ATOM     18  H2  UNL     1      10.424  25.806  51.823  1.00  0.00     0.172 HD
BRANCH  15  19
HETATM   19  O1  UNL     1      10.922  29.212  54.653  1.00  0.00    -0.281 OA
HETATM   20  C1  UNL     1       9.843  30.063  54.478  1.00  0.00     0.237 C 
ENDBRANCH  15  19
ENDBRANCH  12  13
BRANCH  12  21
HETATM   21  O3  UNL     1      11.963  28.310  50.729  1.00  0.00    -0.344 OA
ATOM     22  H3  UNL     1      12.443  28.555  49.947  1.00  0.00     0.219 HD
ENDBRANCH  12  21
ENDBRANCH   1  12
BRANCH  11  23
HETATM   23  N8  UNL     1      10.424  25.172  49.044  1.00  0.00    -0.324 N 
ATOM     24  H82 UNL     1       9.868  26.026  49.019  1.00  0.00     0.178 HD
ATOM     25  H81 UNL     1      10.017  24.238  49.101  1.00  0.00     0.178 HD
ENDBRANCH  11  23
BRANCH   4  26
HETATM   26  N4  UNL     1      15.787  25.772  48.645  1.00  0.00    -0.383 N 
ATOM     27  H42 UNL     1      16.206  26.216  47.828  1.00  0.00     0.157 HD
ATOM     28  H41 UNL     1      16.397  25.443  49.392  1.00  0.00     0.157 HD
ENDBRANCH   4  26
TORSDOF 6
ENDMDL
