MODEL 1
REMARK VINA RESULT: -7.027517102      0.000      0.000
REMARK  4 active torsions:
REMARK  status: ('A' for Active; 'I' for Inactive)
REMARK    1  A    between atoms: C1_4  and  C2_6 
REMARK    2  A    between atoms: N4_10  and  N5_12 
REMARK    3  A    between atoms: C4_14  and  C5_15 
REMARK       I    between atoms: C5_15  and  N6_17 
REMARK    4  A    between atoms: N6_17  and  N7_19 
ROOT
HETATM    1  C2  UNL     1      12.025  24.576  49.177  1.00  0.00     0.149 A 
HETATM    2  N3  UNL     1      11.273  25.219  50.119  1.00  0.00    -0.323 N 
ATOM      3  H3  UNL     1      10.380  24.806  50.388  1.00  0.00     0.169 HD
HETATM    4  C3  UNL     1      11.647  26.361  50.707  1.00  0.00     0.149 A 
HETATM    5  N4  UNL     1      10.902  26.942  51.599  1.00  0.00    -0.284 N 
ATOM      6  H4  UNL     1      10.010  26.525  51.862  1.00  0.00     0.188 HD
HETATM    7  C6  UNL     1      12.838  26.930  50.363  1.00  0.00     0.132 A 
HETATM    8  N8  UNL     1      13.292  28.143  50.954  1.00  0.00    -0.095 NA
HETATM    9  C7  UNL     1      13.628  26.316  49.419  1.00  0.00     0.146 A 
HETATM   10  N9  UNL     1      14.871  26.899  49.052  1.00  0.00    -0.080 NA
HETATM   11  N10 UNL     1      13.183  25.169  48.873  1.00  0.00    -0.326 N 
ATOM     12  H10 UNL     1      13.774  24.719  48.174  1.00  0.00     0.168 HD
ENDROOT
BRANCH   5  13
HETATM   13  N5  UNL     1      11.308  28.115  52.190  1.00  0.00    -0.305 N 
HETATM   14  C4  UNL     1      10.951  28.512  53.361  1.00  0.00     0.182 C 
ATOM     15  H5  UNL     1      11.941  28.716  51.661  1.00  0.00     0.186 HD
BRANCH  14  16
HETATM   16  C5  UNL     1      10.065  27.744  54.193  1.00  0.00     0.276 C 
HETATM   17  O1  UNL     1      10.272  26.514  54.328  1.00  0.00    -0.265 OA
HETATM   18  N6  UNL     1       8.957  28.295  54.879  1.00  0.00    -0.272 N 
ATOM     19  H6  UNL     1       8.776  29.294  54.777  1.00  0.00     0.189 HD
BRANCH  18  20
HETATM   20  N7  UNL     1       8.102  27.553  55.683  1.00  0.00    -0.342 N 
ATOM     21  H72 UNL     1       7.377  27.010  55.213  1.00  0.00     0.176 HD
ATOM     22  H71 UNL     1       8.163  27.526  56.701  1.00  0.00     0.176 HD
ENDBRANCH  18  20
ENDBRANCH  14  16
ENDBRANCH   5  13
BRANCH   1  23
HETATM   23  C1  UNL     1      11.549  23.338  48.585  1.00  0.00     0.154 C 
HETATM   24  N1  UNL     1      12.349  22.520  48.043  1.00  0.00    -0.385 N 
ATOM     25  H12 UNL     1      12.015  21.651  47.627  1.00  0.00     0.157 HD
ATOM     26  H11 UNL     1      13.339  22.763  48.039  1.00  0.00     0.157 HD
HETATM   27  N2  UNL     1      10.165  22.998  48.589  1.00  0.00    -0.079 NA
ENDBRANCH   1  23
TORSDOF 4
ENDMDL
MODEL 2
REMARK VINA RESULT: -7.011054875      3.989      5.877
REMARK  4 active torsions:
REMARK  status: ('A' for Active; 'I' for Inactive)
REMARK    1  A    between atoms: C1_4  and  C2_6 
REMARK    2  A    between atoms: N4_10  and  N5_12 
REMARK    3  A    between atoms: C4_14  and  C5_15 
REMARK       I    between atoms: C5_15  and  N6_17 
REMARK    4  A    between atoms: N6_17  and  N7_19 
ROOT
HETATM    1  C2  UNL     1      11.735  25.495  48.635  1.00  0.00     0.149 A 
HETATM    2  N3  UNL     1      10.430  25.121  48.785  1.00  0.00    -0.323 N 
ATOM      3  H3  UNL     1       9.704  25.793  48.536  1.00  0.00     0.169 HD
HETATM    4  C3  UNL     1      10.054  23.920  49.240  1.00  0.00     0.149 A 
HETATM    5  N4  UNL     1       8.801  23.604  49.369  1.00  0.00    -0.284 N 
ATOM      6  H4  UNL     1       8.080  24.281  49.120  1.00  0.00     0.188 HD
HETATM    7  C6  UNL     1      11.008  23.006  49.578  1.00  0.00     0.132 A 
HETATM    8  N8  UNL     1      10.672  21.712  50.067  1.00  0.00    -0.095 NA
HETATM    9  C7  UNL     1      12.336  23.339  49.442  1.00  0.00     0.146 A 
HETATM   10  N9  UNL     1      13.340  22.396  49.790  1.00  0.00    -0.080 NA
HETATM   11  N10 UNL     1      12.634  24.567  48.977  1.00  0.00    -0.326 N 
ATOM     12  H10 UNL     1      13.620  24.807  48.878  1.00  0.00     0.168 HD
ENDROOT
BRANCH   5  13
HETATM   13  N5  UNL     1       8.439  22.363  49.839  1.00  0.00    -0.305 N 
HETATM   14  C4  UNL     1       7.238  21.903  49.854  1.00  0.00     0.182 C 
ATOM     15  H5  UNL     1       9.179  21.761  50.202  1.00  0.00     0.186 HD
BRANCH  14  16
HETATM   16  C5  UNL     1       6.119  22.664  49.367  1.00  0.00     0.276 C 
HETATM   17  O1  UNL     1       5.577  23.501  50.127  1.00  0.00    -0.265 OA
HETATM   18  N6  UNL     1       5.583  22.526  48.065  1.00  0.00    -0.272 N 
ATOM     19  H6  UNL     1       6.014  21.849  47.437  1.00  0.00     0.189 HD
BRANCH  18  20
HETATM   20  N7  UNL     1       4.502  23.262  47.595  1.00  0.00    -0.342 N 
ATOM     21  H72 UNL     1       3.575  22.981  47.914  1.00  0.00     0.176 HD
ATOM     22  H71 UNL     1       4.591  24.053  46.958  1.00  0.00     0.176 HD
ENDBRANCH  18  20
ENDBRANCH  14  16
ENDBRANCH   5  13
BRANCH   1  23
HETATM   23  C1  UNL     1      12.062  26.818  48.134  1.00  0.00     0.154 C 
HETATM   24  N1  UNL     1      11.591  27.239  47.037  1.00  0.00    -0.385 N 
ATOM     25  H12 UNL     1      11.821  28.168  46.685  1.00  0.00     0.157 HD
ATOM     26  H11 UNL     1      10.973  26.614  46.520  1.00  0.00     0.157 HD
HETATM   27  N2  UNL     1      12.926  27.692  48.856  1.00  0.00    -0.079 NA
ENDBRANCH   1  23
TORSDOF 4
ENDMDL
MODEL 3
REMARK VINA RESULT: -6.483588260      3.476      4.537
REMARK  4 active torsions:
REMARK  status: ('A' for Active; 'I' for Inactive)
REMARK    1  A    between atoms: C1_4  and  C2_6 
REMARK    2  A    between atoms: N4_10  and  N5_12 
REMARK    3  A    between atoms: C4_14  and  C5_15 
REMARK       I    between atoms: C5_15  and  N6_17 
REMARK    4  A    between atoms: N6_17  and  N7_19 
ROOT
HETATM    1  C2  UNL     1      11.572  24.492  49.111  1.00  0.00     0.149 A 
HETATM    2  N3  UNL     1      12.179  25.697  49.322  1.00  0.00    -0.323 N 
ATOM      3  H3  UNL     1      11.592  26.502  49.539  1.00  0.00     0.169 HD
HETATM    4  C3  UNL     1      13.504  25.877  49.259  1.00  0.00     0.149 A 
HETATM    5  N4  UNL     1      14.042  27.040  49.466  1.00  0.00    -0.284 N 
ATOM      6  H4  UNL     1      13.450  27.842  49.682  1.00  0.00     0.188 HD
HETATM    7  C6  UNL     1      14.308  24.814  48.971  1.00  0.00     0.132 A 
HETATM    8  N8  UNL     1      15.724  24.940  48.892  1.00  0.00    -0.095 NA
HETATM    9  C7  UNL     1      13.740  23.581  48.752  1.00  0.00     0.146 A 
HETATM   10  N9  UNL     1      14.567  22.465  48.451  1.00  0.00    -0.080 NA
HETATM   11  N10 UNL     1      12.400  23.480  48.833  1.00  0.00    -0.326 N 
ATOM     12  H10 UNL     1      11.985  22.563  48.669  1.00  0.00     0.168 HD
ENDROOT
BRANCH   5  13
HETATM   13  N5  UNL     1      15.407  27.200  49.397  1.00  0.00    -0.305 N 
HETATM   14  C4  UNL     1      16.099  27.960  50.171  1.00  0.00     0.182 C 
ATOM     15  H5  UNL     1      15.907  26.677  48.678  1.00  0.00     0.186 HD
BRANCH  14  16
HETATM   16  C5  UNL     1      15.497  28.740  51.218  1.00  0.00     0.276 C 
HETATM   17  O1  UNL     1      14.263  28.640  51.417  1.00  0.00    -0.265 OA
HETATM   18  N6  UNL     1      16.219  29.628  52.050  1.00  0.00    -0.272 N 
ATOM     19  H6  UNL     1      17.223  29.720  51.899  1.00  0.00     0.189 HD
BRANCH  18  20
HETATM   20  N7  UNL     1      15.637  30.381  53.061  1.00  0.00    -0.342 N 
ATOM     21  H72 UNL     1      15.703  31.396  52.981  1.00  0.00     0.176 HD
ATOM     22  H71 UNL     1      15.156  29.975  53.864  1.00  0.00     0.176 HD
ENDBRANCH  18  20
ENDBRANCH  14  16
ENDBRANCH   5  13
BRANCH   1  23
HETATM   23  C1  UNL     1      10.127  24.378  49.197  1.00  0.00     0.154 C 
HETATM   24  N1  UNL     1       9.404  25.385  49.454  1.00  0.00    -0.385 N 
ATOM     25  H12 UNL     1       8.389  25.305  49.515  1.00  0.00     0.157 HD
ATOM     26  H11 UNL     1       9.875  26.278  49.597  1.00  0.00     0.157 HD
HETATM   27  N2  UNL     1       9.468  23.130  48.997  1.00  0.00    -0.079 NA
ENDBRANCH   1  23
TORSDOF 4
ENDMDL
MODEL 4
REMARK VINA RESULT: -5.941228733      3.530      6.385
REMARK  4 active torsions:
REMARK  status: ('A' for Active; 'I' for Inactive)
REMARK    1  A    between atoms: C1_4  and  C2_6 
REMARK    2  A    between atoms: N4_10  and  N5_12 
REMARK    3  A    between atoms: C4_14  and  C5_15 
REMARK       I    between atoms: C5_15  and  N6_17 
REMARK    4  A    between atoms: N6_17  and  N7_19 
ROOT
HETATM    1  C2  UNL     1      10.486  27.844  53.353  1.00  0.00     0.149 A 
HETATM    2  N3  UNL     1      10.933  28.968  53.988  1.00  0.00    -0.323 N 
ATOM      3  H3  UNL     1      11.731  29.462  53.589  1.00  0.00     0.169 HD
HETATM    4  C3  UNL     1      10.379  29.455  55.105  1.00  0.00     0.149 A 
HETATM    5  N4  UNL     1      10.836  30.527  55.678  1.00  0.00    -0.284 N 
ATOM      6  H4  UNL     1      11.635  31.015  55.275  1.00  0.00     0.188 HD
HETATM    7  C6  UNL     1       9.311  28.810  55.654  1.00  0.00     0.132 A 
HETATM    8  N8  UNL     1       8.677  29.279  56.840  1.00  0.00    -0.095 NA
HETATM    9  C7  UNL     1       8.826  27.675  55.048  1.00  0.00     0.146 A 
HETATM   10  N9  UNL     1       7.713  26.994  55.612  1.00  0.00    -0.080 NA
HETATM   11  N10 UNL     1       9.437  27.247  53.927  1.00  0.00    -0.326 N 
ATOM     12  H10 UNL     1       9.072  26.405  53.483  1.00  0.00     0.168 HD
ENDROOT
BRANCH   5  13
HETATM   13  N5  UNL     1      10.249  31.009  56.825  1.00  0.00    -0.305 N 
HETATM   14  C4  UNL     1       9.729  32.178  56.950  1.00  0.00     0.182 C 
ATOM     15  H5  UNL     1      10.225  30.392  57.637  1.00  0.00     0.186 HD
BRANCH  14  16
HETATM   16  C5  UNL     1       9.707  33.128  55.869  1.00  0.00     0.276 C 
HETATM   17  O1  UNL     1      10.795  33.556  55.416  1.00  0.00    -0.265 OA
HETATM   18  N6  UNL     1       8.519  33.616  55.277  1.00  0.00    -0.272 N 
ATOM     19  H6  UNL     1       7.627  33.277  55.637  1.00  0.00     0.189 HD
BRANCH  18  20
HETATM   20  N7  UNL     1       8.499  34.533  54.234  1.00  0.00    -0.342 N 
ATOM     21  H72 UNL     1       8.370  34.163  53.293  1.00  0.00     0.176 HD
ATOM     22  H71 UNL     1       8.604  35.539  54.364  1.00  0.00     0.176 HD
ENDBRANCH  18  20
ENDBRANCH  14  16
ENDBRANCH   5  13
BRANCH   1  23
HETATM   23  C1  UNL     1      11.142  27.379  52.144  1.00  0.00     0.154 C 
HETATM   24  N1  UNL     1      10.959  26.205  51.708  1.00  0.00    -0.385 N 
ATOM     25  H12 UNL     1      11.419  25.878  50.859  1.00  0.00     0.157 HD
ATOM     26  H11 UNL     1      10.333  25.598  52.238  1.00  0.00     0.157 HD
HETATM   27  N2  UNL     1      12.017  28.226  51.403  1.00  0.00    -0.079 NA
ENDBRANCH   1  23
TORSDOF 4
ENDMDL
MODEL 5
REMARK VINA RESULT: -5.794079860      1.421      3.272
REMARK  4 active torsions:
REMARK  status: ('A' for Active; 'I' for Inactive)
REMARK    1  A    between atoms: C1_4  and  C2_6 
REMARK    2  A    between atoms: N4_10  and  N5_12 
REMARK    3  A    between atoms: C4_14  and  C5_15 
REMARK       I    between atoms: C5_15  and  N6_17 
REMARK    4  A    between atoms: N6_17  and  N7_19 
ROOT
HETATM    1  C2  UNL     1      13.992  26.211  49.200  1.00  0.00     0.149 A 
HETATM    2  N3  UNL     1      13.383  26.730  50.308  1.00  0.00    -0.323 N 
ATOM      3  H3  UNL     1      13.940  27.304  50.941  1.00  0.00     0.169 HD
HETATM    4  C3  UNL     1      12.095  26.524  50.606  1.00  0.00     0.149 A 
HETATM    5  N4  UNL     1      11.554  27.035  51.670  1.00  0.00    -0.284 N 
ATOM      6  H4  UNL     1      12.117  27.607  52.300  1.00  0.00     0.188 HD
HETATM    7  C6  UNL     1      11.331  25.761  49.773  1.00  0.00     0.132 A 
HETATM    8  N8  UNL     1       9.955  25.507  50.034  1.00  0.00    -0.095 NA
HETATM    9  C7  UNL     1      11.903  25.219  48.645  1.00  0.00     0.146 A 
HETATM   10  N9  UNL     1      11.118  24.422  47.769  1.00  0.00    -0.080 NA
HETATM   11  N10 UNL     1      13.205  25.471  48.413  1.00  0.00    -0.326 N 
ATOM     12  H10 UNL     1      13.622  25.067  47.575  1.00  0.00     0.168 HD
ENDROOT
BRANCH   5  13
HETATM   13  N5  UNL     1      10.227  26.811  51.955  1.00  0.00    -0.305 N 
HETATM   14  C4  UNL     1       9.613  27.251  52.996  1.00  0.00     0.182 C 
ATOM     15  H5  UNL     1       9.690  26.254  51.290  1.00  0.00     0.186 HD
BRANCH  14  16
HETATM   16  C5  UNL     1      10.272  28.046  53.996  1.00  0.00     0.276 C 
HETATM   17  O1  UNL     1      11.125  28.891  53.634  1.00  0.00    -0.265 OA
HETATM   18  N6  UNL     1      10.017  27.934  55.383  1.00  0.00    -0.272 N 
ATOM     19  H6  UNL     1       9.326  27.249  55.691  1.00  0.00     0.189 HD
BRANCH  18  20
HETATM   20  N7  UNL     1      10.654  28.702  56.348  1.00  0.00    -0.342 N 
ATOM     21  H72 UNL     1      11.557  29.105  56.100  1.00  0.00     0.176 HD
ATOM     22  H71 UNL     1      10.268  28.878  57.276  1.00  0.00     0.176 HD
ENDBRANCH  18  20
ENDBRANCH  14  16
ENDBRANCH   5  13
BRANCH   1  23
HETATM   23  C1  UNL     1      15.397  26.480  48.947  1.00  0.00     0.154 C 
HETATM   24  N1  UNL     1      16.189  25.557  48.599  1.00  0.00    -0.385 N 
ATOM     25  H12 UNL     1      17.175  25.745  48.421  1.00  0.00     0.157 HD
ATOM     26  H11 UNL     1      15.804  24.617  48.503  1.00  0.00     0.157 HD
HETATM   27  N2  UNL     1      15.936  27.793  49.081  1.00  0.00    -0.079 NA
ENDBRANCH   1  23
TORSDOF 4
ENDMDL
