MODEL 1
REMARK VINA RESULT: -7.849169048      0.000      0.000
REMARK  7 active torsions:
REMARK  status: ('A' for Active; 'I' for Inactive)
REMARK    1  A    between atoms: N1_1  and  N2_4 
REMARK    2  A    between atoms: N2_4  and  C1_6 
REMARK    3  A    between atoms: C2_7  and  C3_8 
REMARK    4  A    between atoms: N3_9  and  N4_11 
REMARK       I    between atoms: N4_11  and  C4_13 
REMARK    5  A    between atoms: C5_18  and  C6_19 
REMARK       I    between atoms: C6_19  and  N7_21 
REMARK    6  A    between atoms: N7_21  and  N8_23 
REMARK    7  A    between atoms: N9_27  and  N10_28 
ROOT
HETATM    1  C1  UNL     1      -7.373  22.402  -9.190  1.00  0.00     0.169 A 
HETATM    2  C2  UNL     1      -8.647  22.144  -9.652  1.00  0.00     0.097 A 
HETATM    3  N6  UNL     1      -8.811  21.251 -10.634  1.00  0.00    -0.346 N 
ATOM      4  H6  UNL     1      -9.757  21.068 -10.969  1.00  0.00     0.166 HD
HETATM    5  C5  UNL     1      -7.800  20.586 -11.197  1.00  0.00     0.120 A 
HETATM    6  C7  UNL     1      -6.535  20.870 -10.708  1.00  0.00     0.153 A 
HETATM    7  N9  UNL     1      -6.306  21.764  -9.718  1.00  0.00    -0.252 N 
ENDROOT
BRANCH   2   8
HETATM    8  C3  UNL     1      -9.816  22.831  -9.087  1.00  0.00     0.140 C 
HETATM    9  N3  UNL     1     -10.654  23.467  -9.830  1.00  0.00    -0.306 N 
ATOM     10  H3  UNL     1     -10.503  23.494 -10.838  1.00  0.00     0.186 HD
BRANCH   9  11
HETATM   11  N4  UNL     1     -11.764  24.120  -9.293  1.00  0.00    -0.254 N 
HETATM   12  C4  UNL     1     -12.408  25.167 -10.045  1.00  0.00     0.347 C 
HETATM   13  N5  UNL     1     -13.537  25.832  -9.499  1.00  0.00    -0.038 NA
HETATM   14  O1  UNL     1     -11.968  25.478 -11.170  1.00  0.00    -0.249 OA
ATOM     15  H4  UNL     1     -12.118  23.858  -8.373  1.00  0.00     0.191 HD
ENDBRANCH   9  11
ENDBRANCH   2   8
BRANCH   1  16
HETATM   16  N2  UNL     1      -7.270  23.273  -8.242  1.00  0.00    -0.289 N 
ATOM     17  H2  UNL     1      -7.300  22.934  -7.281  1.00  0.00     0.188 HD
BRANCH  16  18
HETATM   18  N1  UNL     1      -7.120  24.635  -8.441  1.00  0.00    -0.344 N 
ATOM     19  H12 UNL     1      -6.171  25.004  -8.382  1.00  0.00     0.176 HD
ATOM     20  H11 UNL     1      -7.887  25.278  -8.638  1.00  0.00     0.176 HD
ENDBRANCH  16  18
ENDBRANCH   1  16
BRANCH   7  21
HETATM   21  N10 UNL     1      -5.030  22.039  -9.237  1.00  0.00    -0.337 N 
ATOM     22 2H10 UNL     1      -4.235  22.205  -9.853  1.00  0.00     0.177 HD
ATOM     23 1H10 UNL     1      -4.866  22.079  -8.231  1.00  0.00     0.177 HD
ENDBRANCH   7  21
BRANCH   5  24
HETATM   24  C6  UNL     1      -8.053  19.627 -12.261  1.00  0.00     0.287 C 
HETATM   25  O2  UNL     1      -7.024  19.093 -12.803  1.00  0.00    -0.264 OA
HETATM   26  N7  UNL     1      -9.361  19.276 -12.704  1.00  0.00    -0.271 N 
ATOM     27  H7  UNL     1     -10.174  19.708 -12.265  1.00  0.00     0.189 HD
BRANCH  26  28
HETATM   28  N8  UNL     1      -9.543  18.356 -13.721  1.00  0.00    -0.342 N 
ATOM     29  H82 UNL     1      -8.720  17.993 -14.202  1.00  0.00     0.176 HD
ATOM     30  H81 UNL     1     -10.478  18.047 -13.986  1.00  0.00     0.176 HD
ENDBRANCH  26  28
ENDBRANCH   5  24
TORSDOF 7
ENDMDL
MODEL 2
REMARK VINA RESULT: -7.814299847      2.854      4.614
REMARK  7 active torsions:
REMARK  status: ('A' for Active; 'I' for Inactive)
REMARK    1  A    between atoms: N1_1  and  N2_4 
REMARK    2  A    between atoms: N2_4  and  C1_6 
REMARK    3  A    between atoms: C2_7  and  C3_8 
REMARK    4  A    between atoms: N3_9  and  N4_11 
REMARK       I    between atoms: N4_11  and  C4_13 
REMARK    5  A    between atoms: C5_18  and  C6_19 
REMARK       I    between atoms: C6_19  and  N7_21 
REMARK    6  A    between atoms: N7_21  and  N8_23 
REMARK    7  A    between atoms: N9_27  and  N10_28 
ROOT
HETATM    1  C1  UNL     1      -8.636  22.312 -10.286  1.00  0.00     0.169 A 
HETATM    2  C2  UNL     1      -8.697  21.324 -11.248  1.00  0.00     0.097 A 
HETATM    3  N6  UNL     1      -7.635  20.532 -11.431  1.00  0.00    -0.346 N 
ATOM      4  H6  UNL     1      -7.690  19.805 -12.145  1.00  0.00     0.166 HD
HETATM    5  C5  UNL     1      -6.506  20.644 -10.726  1.00  0.00     0.120 A 
HETATM    6  C7  UNL     1      -6.480  21.645  -9.770  1.00  0.00     0.153 A 
HETATM    7  N9  UNL     1      -7.522  22.478  -9.539  1.00  0.00    -0.252 N 
ENDROOT
BRANCH   2   8
HETATM    8  C3  UNL     1      -9.900  21.133 -12.066  1.00  0.00     0.140 C 
HETATM    9  N3  UNL     1      -9.968  20.219 -12.970  1.00  0.00    -0.306 N 
ATOM     10  H3  UNL     1      -9.164  19.610 -13.122  1.00  0.00     0.186 HD
BRANCH   9  11
HETATM   11  N4  UNL     1     -11.112  20.038 -13.749  1.00  0.00    -0.254 N 
HETATM   12  C4  UNL     1     -11.090  19.097 -14.841  1.00  0.00     0.347 C 
HETATM   13  N5  UNL     1     -12.253  18.912 -15.633  1.00  0.00    -0.038 NA
HETATM   14  O1  UNL     1     -10.049  18.451 -15.078  1.00  0.00    -0.249 OA
ATOM     15  H4  UNL     1     -11.959  20.568 -13.547  1.00  0.00     0.191 HD
ENDBRANCH   9  11
ENDBRANCH   2   8
BRANCH   1  16
HETATM   16  N2  UNL     1      -9.687  23.049 -10.150  1.00  0.00    -0.289 N 
ATOM     17  H2  UNL     1      -9.774  23.867 -10.752  1.00  0.00     0.188 HD
BRANCH  16  18
HETATM   18  N1  UNL     1     -10.704  22.806  -9.242  1.00  0.00    -0.344 N 
ATOM     19  H12 UNL     1     -10.457  22.856  -8.254  1.00  0.00     0.176 HD
ATOM     20  H11 UNL     1     -11.665  22.583  -9.498  1.00  0.00     0.176 HD
ENDBRANCH  16  18
ENDBRANCH   1  16
BRANCH   7  21
HETATM   21  N10 UNL     1      -7.481  23.479  -8.574  1.00  0.00    -0.337 N 
ATOM     22 2H10 UNL     1      -8.295  24.048  -8.338  1.00  0.00     0.177 HD
ATOM     23 1H10 UNL     1      -6.612  23.665  -8.074  1.00  0.00     0.177 HD
ENDBRANCH   7  21
BRANCH   5  24
HETATM   24  C6  UNL     1      -5.391  19.746 -10.979  1.00  0.00     0.287 C 
HETATM   25  O2  UNL     1      -4.242  20.133 -10.569  1.00  0.00    -0.264 OA
HETATM   26  N7  UNL     1      -5.529  18.493 -11.646  1.00  0.00    -0.271 N 
ATOM     27  H7  UNL     1      -6.448  18.194 -11.970  1.00  0.00     0.189 HD
BRANCH  26  28
HETATM   28  N8  UNL     1      -4.432  17.678 -11.860  1.00  0.00    -0.342 N 
ATOM     29  H82 UNL     1      -4.580  16.673 -11.940  1.00  0.00     0.176 HD
ATOM     30  H81 UNL     1      -3.494  18.073 -11.936  1.00  0.00     0.176 HD
ENDBRANCH  26  28
ENDBRANCH   5  24
TORSDOF 7
ENDMDL
MODEL 3
REMARK VINA RESULT: -7.675544038      1.671      5.625
REMARK  7 active torsions:
REMARK  status: ('A' for Active; 'I' for Inactive)
REMARK    1  A    between atoms: N1_1  and  N2_4 
REMARK    2  A    between atoms: N2_4  and  C1_6 
REMARK    3  A    between atoms: C2_7  and  C3_8 
REMARK    4  A    between atoms: N3_9  and  N4_11 
REMARK       I    between atoms: N4_11  and  C4_13 
REMARK    5  A    between atoms: C5_18  and  C6_19 
REMARK       I    between atoms: C6_19  and  N7_21 
REMARK    6  A    between atoms: N7_21  and  N8_23 
REMARK    7  A    between atoms: N9_27  and  N10_28 
ROOT
HETATM    1  C1  UNL     1      -8.029  23.013  -9.884  1.00  0.00     0.169 A 
HETATM    2  C2  UNL     1      -9.047  22.447 -10.624  1.00  0.00     0.097 A 
HETATM    3  N6  UNL     1     -10.224  23.079 -10.695  1.00  0.00    -0.346 N 
ATOM      4  H6  UNL     1     -10.970  22.651 -11.244  1.00  0.00     0.166 HD
HETATM    5  C5  UNL     1     -10.471  24.240 -10.085  1.00  0.00     0.120 A 
HETATM    6  C7  UNL     1      -9.426  24.779  -9.353  1.00  0.00     0.153 A 
HETATM    7  N9  UNL     1      -8.214  24.187  -9.242  1.00  0.00    -0.252 N 
ENDROOT
BRANCH   2   8
HETATM    8  C3  UNL     1      -8.859  21.171 -11.326  1.00  0.00     0.140 C 
HETATM    9  N3  UNL     1      -9.715  20.736 -12.184  1.00  0.00    -0.306 N 
ATOM     10  H3  UNL     1     -10.547  21.293 -12.381  1.00  0.00     0.186 HD
BRANCH   9  11
HETATM   11  N4  UNL     1      -9.537  19.524 -12.850  1.00  0.00    -0.254 N 
HETATM   12  C4  UNL     1     -10.437  19.156 -13.915  1.00  0.00     0.347 C 
HETATM   13  N5  UNL     1     -10.256  17.922 -14.593  1.00  0.00    -0.038 NA
HETATM   14  O1  UNL     1     -11.366  19.926 -14.231  1.00  0.00    -0.249 OA
ATOM     15  H4  UNL     1      -8.774  18.901 -12.587  1.00  0.00     0.191 HD
ENDBRANCH   9  11
ENDBRANCH   2   8
BRANCH   1  16
HETATM   16  N2  UNL     1      -6.914  22.363  -9.847  1.00  0.00    -0.289 N 
ATOM     17  H2  UNL     1      -6.262  22.494 -10.620  1.00  0.00     0.188 HD
BRANCH  16  18
HETATM   18  N1  UNL     1      -6.542  21.500  -8.830  1.00  0.00    -0.344 N 
ATOM     19  H12 UNL     1      -7.134  21.491  -7.999  1.00  0.00     0.176 HD
ATOM     20  H11 UNL     1      -5.729  20.886  -8.861  1.00  0.00     0.176 HD
ENDBRANCH  16  18
ENDBRANCH   1  16
BRANCH   7  21
HETATM   21  N10 UNL     1      -7.174  24.741  -8.503  1.00  0.00    -0.337 N 
ATOM     22 2H10 UNL     1      -6.231  24.848  -8.876  1.00  0.00     0.177 HD
ATOM     23 1H10 UNL     1      -7.344  25.057  -7.548  1.00  0.00     0.177 HD
ENDBRANCH   7  21
BRANCH   5  24
HETATM   24  C6  UNL     1     -11.775  24.871 -10.208  1.00  0.00     0.287 C 
HETATM   25  O2  UNL     1     -11.921  25.696 -11.176  1.00  0.00    -0.264 OA
HETATM   26  N7  UNL     1     -12.858  24.612  -9.318  1.00  0.00    -0.271 N 
ATOM     27  H7  UNL     1     -12.732  23.953  -8.550  1.00  0.00     0.189 HD
BRANCH  26  28
HETATM   28  N8  UNL     1     -14.078  25.242  -9.483  1.00  0.00    -0.342 N 
ATOM     29  H82 UNL     1     -14.210  26.165  -9.070  1.00  0.00     0.176 HD
ATOM     30  H81 UNL     1     -14.832  24.794 -10.006  1.00  0.00     0.176 HD
ENDBRANCH  26  28
ENDBRANCH   5  24
TORSDOF 7
ENDMDL
MODEL 4
REMARK VINA RESULT: -7.666929233      1.690      5.405
REMARK  7 active torsions:
REMARK  status: ('A' for Active; 'I' for Inactive)
REMARK    1  A    between atoms: N1_1  and  N2_4 
REMARK    2  A    between atoms: N2_4  and  C1_6 
REMARK    3  A    between atoms: C2_7  and  C3_8 
REMARK    4  A    between atoms: N3_9  and  N4_11 
REMARK       I    between atoms: N4_11  and  C4_13 
REMARK    5  A    between atoms: C5_18  and  C6_19 
REMARK       I    between atoms: C6_19  and  N7_21 
REMARK    6  A    between atoms: N7_21  and  N8_23 
REMARK    7  A    between atoms: N9_27  and  N10_28 
ROOT
HETATM    1  C1  UNL     1      -6.578  21.449 -10.120  1.00  0.00     0.169 A 
HETATM    2  C2  UNL     1      -7.758  21.234 -10.802  1.00  0.00     0.097 A 
HETATM    3  N6  UNL     1      -8.762  22.105 -10.649  1.00  0.00    -0.346 N 
ATOM      4  H6  UNL     1      -9.631  21.936 -11.156  1.00  0.00     0.166 HD
HETATM    5  C5  UNL     1      -8.685  23.183  -9.865  1.00  0.00     0.120 A 
HETATM    6  C7  UNL     1      -7.486  23.368  -9.197  1.00  0.00     0.153 A 
HETATM    7  N9  UNL     1      -6.435  22.522  -9.311  1.00  0.00    -0.252 N 
ENDROOT
BRANCH   2   8
HETATM    8  C3  UNL     1      -7.927  20.073 -11.684  1.00  0.00     0.140 C 
HETATM    9  N3  UNL     1      -9.070  19.765 -12.189  1.00  0.00    -0.306 N 
ATOM     10  H3  UNL     1      -9.882  20.344 -11.971  1.00  0.00     0.186 HD
BRANCH   9  11
HETATM   11  N4  UNL     1      -9.231  18.661 -13.027  1.00  0.00    -0.254 N 
HETATM   12  C4  UNL     1     -10.153  18.732 -14.133  1.00  0.00     0.347 C 
HETATM   13  N5  UNL     1     -10.317  17.609 -14.985  1.00  0.00    -0.038 NA
HETATM   14  O1  UNL     1     -10.798  19.781 -14.331  1.00  0.00    -0.249 OA
ATOM     15  H4  UNL     1      -8.698  17.808 -12.859  1.00  0.00     0.191 HD
ENDBRANCH   9  11
ENDBRANCH   2   8
BRANCH   1  16
HETATM   16  N2  UNL     1      -5.641  20.580 -10.302  1.00  0.00    -0.289 N 
ATOM     17  H2  UNL     1      -5.105  20.634 -11.168  1.00  0.00     0.188 HD
BRANCH  16  18
HETATM   18  N1  UNL     1      -5.314  19.579  -9.403  1.00  0.00    -0.344 N 
ATOM     19  H12 UNL     1      -5.937  19.460  -8.604  1.00  0.00     0.176 HD
ATOM     20  H11 UNL     1      -4.503  18.967  -9.489  1.00  0.00     0.176 HD
ENDBRANCH  16  18
ENDBRANCH   1  16
BRANCH   7  21
HETATM   21  N10 UNL     1      -5.237  22.720  -8.633  1.00  0.00    -0.337 N 
ATOM     22 2H10 UNL     1      -4.625  23.515  -8.820  1.00  0.00     0.177 HD
ATOM     23 1H10 UNL     1      -4.943  22.054  -7.919  1.00  0.00     0.177 HD
ENDBRANCH   7  21
BRANCH   5  24
HETATM   24  C6  UNL     1      -9.818  24.088  -9.747  1.00  0.00     0.287 C 
HETATM   25  O2  UNL     1      -9.562  25.338  -9.847  1.00  0.00    -0.264 OA
HETATM   26  N7  UNL     1     -11.155  23.645  -9.531  1.00  0.00    -0.271 N 
ATOM     27  H7  UNL     1     -11.348  22.647  -9.452  1.00  0.00     0.189 HD
BRANCH  26  28
HETATM   28  N8  UNL     1     -12.195  24.552  -9.427  1.00  0.00    -0.342 N 
ATOM     29  H82 UNL     1     -11.978  25.547  -9.462  1.00  0.00     0.176 HD
ATOM     30  H81 UNL     1     -13.158  24.233  -9.317  1.00  0.00     0.176 HD
ENDBRANCH  26  28
ENDBRANCH   5  24
TORSDOF 7
ENDMDL
MODEL 5
REMARK VINA RESULT: -7.632583819      1.244      1.244
REMARK  7 active torsions:
REMARK  status: ('A' for Active; 'I' for Inactive)
REMARK    1  A    between atoms: N1_1  and  N2_4 
REMARK    2  A    between atoms: N2_4  and  C1_6 
REMARK    3  A    between atoms: C2_7  and  C3_8 
REMARK    4  A    between atoms: N3_9  and  N4_11 
REMARK       I    between atoms: N4_11  and  C4_13 
REMARK    5  A    between atoms: C5_18  and  C6_19 
REMARK       I    between atoms: C6_19  and  N7_21 
REMARK    6  A    between atoms: N7_21  and  N8_23 
REMARK    7  A    between atoms: N9_27  and  N10_28 
ROOT
HETATM    1  C1  UNL     1      -7.329  22.431  -9.067  1.00  0.00     0.169 A 
HETATM    2  C2  UNL     1      -8.480  21.930  -9.639  1.00  0.00     0.097 A 
HETATM    3  N6  UNL     1      -8.378  20.988 -10.584  1.00  0.00    -0.346 N 
ATOM      4  H6  UNL     1      -9.235  20.626 -11.001  1.00  0.00     0.166 HD
HETATM    5  C5  UNL     1      -7.210  20.499 -11.008  1.00  0.00     0.120 A 
HETATM    6  C7  UNL     1      -6.075  21.024 -10.411  1.00  0.00     0.153 A 
HETATM    7  N9  UNL     1      -6.115  21.978  -9.451  1.00  0.00    -0.252 N 
ENDROOT
BRANCH   2   8
HETATM    8  C3  UNL     1      -9.805  22.413  -9.231  1.00  0.00     0.140 C 
HETATM    9  N3  UNL     1     -10.386  23.392  -9.833  1.00  0.00    -0.306 N 
ATOM     10  H3  UNL     1      -9.913  23.845 -10.615  1.00  0.00     0.186 HD
BRANCH   9  11
HETATM   11  N4  UNL     1     -11.645  23.852  -9.444  1.00  0.00    -0.254 N 
HETATM   12  C4  UNL     1     -12.218  25.002 -10.098  1.00  0.00     0.347 C 
HETATM   13  N5  UNL     1     -13.498  25.469  -9.702  1.00  0.00    -0.038 NA
HETATM   14  O1  UNL     1     -11.583  25.574 -11.007  1.00  0.00    -0.249 OA
ATOM     15  H4  UNL     1     -12.157  23.376  -8.701  1.00  0.00     0.191 HD
ENDBRANCH   9  11
ENDBRANCH   2   8
BRANCH   1  16
HETATM   16  N2  UNL     1      -7.483  23.338  -8.161  1.00  0.00    -0.289 N 
ATOM     17  H2  UNL     1      -7.654  23.030  -7.205  1.00  0.00     0.188 HD
BRANCH  16  18
HETATM   18  N1  UNL     1      -7.431  24.701  -8.400  1.00  0.00    -0.344 N 
ATOM     19  H12 UNL     1      -8.051  25.063  -9.124  1.00  0.00     0.176 HD
ATOM     20  H11 UNL     1      -6.822  25.351  -7.904  1.00  0.00     0.176 HD
ENDBRANCH  16  18
ENDBRANCH   1  16
BRANCH   7  21
HETATM   21  N10 UNL     1      -4.967  22.496  -8.861  1.00  0.00    -0.337 N 
ATOM     22 2H10 UNL     1      -4.961  23.381  -8.355  1.00  0.00     0.177 HD
ATOM     23 1H10 UNL     1      -4.088  21.983  -8.928  1.00  0.00     0.177 HD
ENDBRANCH   7  21
BRANCH   5  24
HETATM   24  C6  UNL     1      -7.174  19.474 -12.038  1.00  0.00     0.287 C 
HETATM   25  O2  UNL     1      -8.252  19.298 -12.706  1.00  0.00    -0.264 OA
HETATM   26  N7  UNL     1      -6.020  18.686 -12.320  1.00  0.00    -0.271 N 
ATOM     27  H7  UNL     1      -5.166  18.834 -11.782  1.00  0.00     0.189 HD
BRANCH  26  28
HETATM   28  N8  UNL     1      -6.043  17.724 -13.313  1.00  0.00    -0.342 N 
ATOM     29  H82 UNL     1      -5.270  17.691 -13.978  1.00  0.00     0.176 HD
ATOM     30  H81 UNL     1      -6.815  17.060 -13.381  1.00  0.00     0.176 HD
ENDBRANCH  26  28
ENDBRANCH   5  24
TORSDOF 7
ENDMDL
