MODEL 1
REMARK VINA RESULT: -6.705071862      0.000      0.000
REMARK  6 active torsions:
REMARK  status: ('A' for Active; 'I' for Inactive)
REMARK    1  A    between atoms: S1_2  and  C2_3 
REMARK    2  A    between atoms: C2_3  and  C3_4 
REMARK    3  A    between atoms: C6_13  and  C7_14 
REMARK    4  A    between atoms: C7_14  and  C8_15 
REMARK    5  A    between atoms: C9_16  and  N3_17 
REMARK    6  A    between atoms: C12_22  and  N5_23 
ROOT
HETATM    1  C8  UNL     1      88.513  72.957  31.453  1.00  0.00     0.032 A 
HETATM    2  C9  UNL     1      87.479  73.625  30.820  1.00  0.00     0.130 A 
HETATM    3  N4  UNL     1      87.611  74.915  30.401  1.00  0.00    -0.176 N 
ATOM      4  H4  UNL     1      86.830  75.384  29.940  1.00  0.00     0.186 HD
HETATM    5  C12 UNL     1      88.750  75.561  30.590  1.00  0.00     0.677 A 
HETATM    6  N6  UNL     1      89.753  74.925  31.196  1.00  0.00    -0.195 N 
ATOM      7  H6  UNL     1      90.625  75.435  31.335  1.00  0.00     0.184 HD
HETATM    8  C13 UNL     1      89.693  73.655  31.638  1.00  0.00     0.036 A 
HETATM    9  C14 UNL     1      90.885  73.045  32.313  1.00  0.00     0.070 C 
ENDROOT
BRANCH   1  10
HETATM   10  C7  UNL     1      88.287  71.626  31.980  1.00  0.00     0.036 C 
BRANCH  10  11
HETATM   11  C6  UNL     1      89.242  70.559  31.844  1.00  0.00     0.056 A 
HETATM   12  C3  UNL     1      89.829  70.147  30.684  1.00  0.00     0.036 A 
HETATM   13  N1  UNL     1      90.744  69.161  30.766  1.00  0.00    -0.335 N 
HETATM   14  C4  UNL     1      91.116  68.559  31.916  1.00  0.00     0.178 A 
ATOM     15  H1  UNL     1      91.184  68.847  29.900  1.00  0.00     0.168 HD
HETATM   16  S2  UNL     1      92.226  67.376  31.941  1.00  0.00    -0.040 SA
HETATM   17  N2  UNL     1      90.554  68.952  33.063  1.00  0.00    -0.299 N 
HETATM   18  C5  UNL     1      89.649  69.920  33.016  1.00  0.00     0.259 A 
ATOM     19  H2  UNL     1      90.813  68.519  33.950  1.00  0.00     0.171 HD
HETATM   20  O1  UNL     1      89.149  70.257  34.153  1.00  0.00    -0.267 OA
BRANCH  12  21
HETATM   21  C2  UNL     1      89.475  70.743  29.364  1.00  0.00     0.131 C 
BRANCH  21  22
HETATM   22  S1  UNL     1      90.957  70.995  28.405  1.00  0.00    -0.168 SA
HETATM   23  C1  UNL     1      92.079  72.247  28.997  1.00  0.00     0.090 C 
ENDBRANCH  21  22
ENDBRANCH  12  21
ENDBRANCH  10  11
ENDBRANCH   1  10
BRANCH   2  24
HETATM   24  N3  UNL     1      86.239  73.052  30.432  1.00  0.00    -0.375 N 
HETATM   25  C10 UNL     1      85.051  73.859  30.461  1.00  0.00     0.150 C 
HETATM   26  C11 UNL     1      86.165  71.675  30.062  1.00  0.00     0.150 C 
ENDBRANCH   2  24
BRANCH   5  27
HETATM   27  N5  UNL     1      88.842  76.798  30.178  1.00  0.00    -0.234 N 
ATOM     28  H52 UNL     1      88.505  77.103  29.265  1.00  0.00     0.174 HD
ATOM     29  H51 UNL     1      89.272  77.487  30.796  1.00  0.00     0.174 HD
ENDBRANCH   5  27
TORSDOF 6
ENDMDL
MODEL 2
REMARK VINA RESULT: -6.673016790      3.138      5.553
REMARK  6 active torsions:
REMARK  status: ('A' for Active; 'I' for Inactive)
REMARK    1  A    between atoms: S1_2  and  C2_3 
REMARK    2  A    between atoms: C2_3  and  C3_4 
REMARK    3  A    between atoms: C6_13  and  C7_14 
REMARK    4  A    between atoms: C7_14  and  C8_15 
REMARK    5  A    between atoms: C9_16  and  N3_17 
REMARK    6  A    between atoms: C12_22  and  N5_23 
ROOT
HETATM    1  C8  UNL     1      84.680  71.305  30.352  1.00  0.00     0.032 A 
HETATM    2  C9  UNL     1      84.012  72.337  30.989  1.00  0.00     0.130 A 
HETATM    3  N4  UNL     1      82.816  72.139  31.611  1.00  0.00    -0.176 N 
ATOM      4  H4  UNL     1      82.344  72.919  32.070  1.00  0.00     0.186 HD
HETATM    5  C12 UNL     1      82.264  70.937  31.621  1.00  0.00     0.677 A 
HETATM    6  N6  UNL     1      82.901  69.936  31.012  1.00  0.00    -0.195 N 
ATOM      7  H6  UNL     1      82.464  69.014  31.028  1.00  0.00     0.184 HD
HETATM    8  C13 UNL     1      84.081  70.058  30.378  1.00  0.00     0.036 A 
HETATM    9  C14 UNL     1      84.701  68.862  29.721  1.00  0.00     0.070 C 
ENDROOT
BRANCH   1  10
HETATM   10  C7  UNL     1      85.891  71.590  29.609  1.00  0.00     0.036 C 
BRANCH  10  11
HETATM   11  C6  UNL     1      87.153  71.860  30.246  1.00  0.00     0.056 A 
HETATM   12  C3  UNL     1      87.838  71.011  31.065  1.00  0.00     0.036 A 
HETATM   13  N1  UNL     1      89.036  71.424  31.526  1.00  0.00    -0.335 N 
HETATM   14  C4  UNL     1      89.598  72.615  31.229  1.00  0.00     0.178 A 
ATOM     15  H1  UNL     1      89.552  70.794  32.141  1.00  0.00     0.168 HD
HETATM   16  S2  UNL     1      91.045  73.048  31.820  1.00  0.00    -0.040 SA
HETATM   17  N2  UNL     1      88.942  73.458  30.425  1.00  0.00    -0.299 N 
HETATM   18  C5  UNL     1      87.760  73.081  29.956  1.00  0.00     0.259 A 
ATOM     19  H2  UNL     1      89.339  74.366  30.180  1.00  0.00     0.171 HD
HETATM   20  O1  UNL     1      87.182  73.933  29.184  1.00  0.00    -0.267 OA
BRANCH  12  21
HETATM   21  C2  UNL     1      87.294  69.680  31.458  1.00  0.00     0.131 C 
BRANCH  21  22
HETATM   22  S1  UNL     1      88.426  68.880  32.580  1.00  0.00    -0.168 SA
HETATM   23  C1  UNL     1      87.871  67.348  33.305  1.00  0.00     0.090 C 
ENDBRANCH  21  22
ENDBRANCH  12  21
ENDBRANCH  10  11
ENDBRANCH   1  10
BRANCH   2  24
HETATM   24  N3  UNL     1      84.511  73.653  31.178  1.00  0.00    -0.375 N 
HETATM   25  C10 UNL     1      85.161  73.989  32.414  1.00  0.00     0.150 C 
HETATM   26  C11 UNL     1      84.327  74.646  30.169  1.00  0.00     0.150 C 
ENDBRANCH   2  24
BRANCH   5  27
HETATM   27  N5  UNL     1      81.115  70.781  32.224  1.00  0.00    -0.234 N 
ATOM     28  H52 UNL     1      80.461  70.035  31.985  1.00  0.00     0.174 HD
ATOM     29  H51 UNL     1      80.860  71.436  32.964  1.00  0.00     0.174 HD
ENDBRANCH   5  27
TORSDOF 6
ENDMDL
MODEL 3
REMARK VINA RESULT: -6.653714890      3.076      5.763
REMARK  6 active torsions:
REMARK  status: ('A' for Active; 'I' for Inactive)
REMARK    1  A    between atoms: S1_2  and  C2_3 
REMARK    2  A    between atoms: C2_3  and  C3_4 
REMARK    3  A    between atoms: C6_13  and  C7_14 
REMARK    4  A    between atoms: C7_14  and  C8_15 
REMARK    5  A    between atoms: C9_16  and  N3_17 
REMARK    6  A    between atoms: C12_22  and  N5_23 
ROOT
HETATM    1  C8  UNL     1      88.449  71.010  29.900  1.00  0.00     0.032 A 
HETATM    2  C9  UNL     1      89.578  70.628  29.195  1.00  0.00     0.130 A 
HETATM    3  N4  UNL     1      89.492  69.902  28.045  1.00  0.00    -0.176 N 
ATOM      4  H4  UNL     1      90.342  69.631  27.549  1.00  0.00     0.186 HD
HETATM    5  C12 UNL     1      88.309  69.546  27.572  1.00  0.00     0.677 A 
HETATM    6  N6  UNL     1      87.216  69.912  28.243  1.00  0.00    -0.195 N 
ATOM      7  H6  UNL     1      86.311  69.631  27.866  1.00  0.00     0.184 HD
HETATM    8  C13 UNL     1      87.225  70.625  29.383  1.00  0.00     0.036 A 
HETATM    9  C14 UNL     1      85.930  70.973  30.055  1.00  0.00     0.070 C 
ENDROOT
BRANCH   1  10
HETATM   10  C7  UNL     1      88.597  71.683  31.175  1.00  0.00     0.036 C 
BRANCH  10  11
HETATM   11  C6  UNL     1      89.037  73.048  31.292  1.00  0.00     0.056 A 
HETATM   12  C3  UNL     1      88.459  74.133  30.698  1.00  0.00     0.036 A 
HETATM   13  N1  UNL     1      88.985  75.343  30.970  1.00  0.00    -0.335 N 
HETATM   14  C4  UNL     1      90.038  75.551  31.790  1.00  0.00     0.178 A 
ATOM     15  H1  UNL     1      88.558  76.158  30.528  1.00  0.00     0.168 HD
HETATM   16  S2  UNL     1      90.620  77.038  32.073  1.00  0.00    -0.040 SA
HETATM   17  N2  UNL     1      90.615  74.500  32.382  1.00  0.00    -0.299 N 
HETATM   18  C5  UNL     1      90.121  73.295  32.133  1.00  0.00     0.259 A 
ATOM     19  H2  UNL     1      91.412  74.622  33.007  1.00  0.00     0.171 HD
HETATM   20  O1  UNL     1      90.715  72.326  32.737  1.00  0.00    -0.267 OA
BRANCH  12  21
HETATM   21  C2  UNL     1      87.300  74.002  29.771  1.00  0.00     0.131 C 
BRANCH  21  22
HETATM   22  S1  UNL     1      85.867  74.780  30.492  1.00  0.00    -0.168 SA
HETATM   23  C1  UNL     1      85.272  74.080  32.020  1.00  0.00     0.090 C 
ENDBRANCH  21  22
ENDBRANCH  12  21
ENDBRANCH  10  11
ENDBRANCH   1  10
BRANCH   2  24
HETATM   24  N3  UNL     1      90.910  71.021  29.491  1.00  0.00    -0.375 N 
HETATM   25  C10 UNL     1      91.460  72.184  28.850  1.00  0.00     0.150 C 
HETATM   26  C11 UNL     1      91.711  70.243  30.380  1.00  0.00     0.150 C 
ENDBRANCH   2  24
BRANCH   5  27
HETATM   27  N5  UNL     1      88.262  68.848  26.468  1.00  0.00    -0.234 N 
ATOM     28  H52 UNL     1      87.508  68.192  26.261  1.00  0.00     0.174 HD
ATOM     29  H51 UNL     1      89.012  68.962  25.787  1.00  0.00     0.174 HD
ENDBRANCH   5  27
TORSDOF 6
ENDMDL
MODEL 4
REMARK VINA RESULT: -6.639467852      2.482      6.181
REMARK  6 active torsions:
REMARK  status: ('A' for Active; 'I' for Inactive)
REMARK    1  A    between atoms: S1_2  and  C2_3 
REMARK    2  A    between atoms: C2_3  and  C3_4 
REMARK    3  A    between atoms: C6_13  and  C7_14 
REMARK    4  A    between atoms: C7_14  and  C8_15 
REMARK    5  A    between atoms: C9_16  and  N3_17 
REMARK    6  A    between atoms: C12_22  and  N5_23 
ROOT
HETATM    1  C8  UNL     1      91.430  70.522  31.419  1.00  0.00     0.032 A 
HETATM    2  C9  UNL     1      92.245  69.543  30.876  1.00  0.00     0.130 A 
HETATM    3  N4  UNL     1      92.355  68.308  31.442  1.00  0.00    -0.176 N 
ATOM      4  H4  UNL     1      92.966  67.607  31.022  1.00  0.00     0.186 HD
HETATM    5  C12 UNL     1      91.670  68.016  32.536  1.00  0.00     0.677 A 
HETATM    6  N6  UNL     1      90.880  68.952  33.064  1.00  0.00    -0.195 N 
ATOM      7  H6  UNL     1      90.358  68.713  33.906  1.00  0.00     0.184 HD
HETATM    8  C13 UNL     1      90.725  70.190  32.562  1.00  0.00     0.036 A 
HETATM    9  C14 UNL     1      89.813  71.163  33.247  1.00  0.00     0.070 C 
ENDROOT
BRANCH   1  10
HETATM   10  C7  UNL     1      91.435  71.853  30.846  1.00  0.00     0.036 C 
BRANCH  10  11
HETATM   11  C6  UNL     1      90.230  72.592  30.577  1.00  0.00     0.056 A 
HETATM   12  C3  UNL     1      89.185  72.174  29.805  1.00  0.00     0.036 A 
HETATM   13  N1  UNL     1      88.115  72.989  29.715  1.00  0.00    -0.335 N 
HETATM   14  C4  UNL     1      88.010  74.183  30.337  1.00  0.00     0.178 A 
ATOM     15  H1  UNL     1      87.331  72.683  29.137  1.00  0.00     0.168 HD
HETATM   16  S2  UNL     1      86.691  75.114  30.184  1.00  0.00    -0.040 SA
HETATM   17  N2  UNL     1      89.023  74.607  31.099  1.00  0.00    -0.299 N 
HETATM   18  C5  UNL     1      90.091  73.828  31.208  1.00  0.00     0.259 A 
ATOM     19  H2  UNL     1      88.976  75.503  31.584  1.00  0.00     0.171 HD
HETATM   20  O1  UNL     1      91.029  74.288  31.960  1.00  0.00    -0.267 OA
BRANCH  12  21
HETATM   21  C2  UNL     1      89.213  70.878  29.072  1.00  0.00     0.131 C 
BRANCH  21  22
HETATM   22  S1  UNL     1      88.062  69.742  29.822  1.00  0.00    -0.168 SA
HETATM   23  C1  UNL     1      88.688  68.117  30.202  1.00  0.00     0.090 C 
ENDBRANCH  21  22
ENDBRANCH  12  21
ENDBRANCH  10  11
ENDBRANCH   1  10
BRANCH   2  24
HETATM   24  N3  UNL     1      92.953  69.643  29.649  1.00  0.00    -0.375 N 
HETATM   25  C10 UNL     1      92.351  69.139  28.446  1.00  0.00     0.150 C 
HETATM   26  C11 UNL     1      94.269  70.195  29.619  1.00  0.00     0.150 C 
ENDBRANCH   2  24
BRANCH   5  27
HETATM   27  N5  UNL     1      91.799  66.823  33.054  1.00  0.00    -0.234 N 
ATOM     28  H52 UNL     1      91.655  66.633  34.046  1.00  0.00     0.174 HD
ATOM     29  H51 UNL     1      92.058  66.050  32.441  1.00  0.00     0.174 HD
ENDBRANCH   5  27
TORSDOF 6
ENDMDL
MODEL 5
REMARK VINA RESULT: -6.609402669      3.023      4.926
REMARK  6 active torsions:
REMARK  status: ('A' for Active; 'I' for Inactive)
REMARK    1  A    between atoms: S1_2  and  C2_3 
REMARK    2  A    between atoms: C2_3  and  C3_4 
REMARK    3  A    between atoms: C6_13  and  C7_14 
REMARK    4  A    between atoms: C7_14  and  C8_15 
REMARK    5  A    between atoms: C9_16  and  N3_17 
REMARK    6  A    between atoms: C12_22  and  N5_23 
ROOT
HETATM    1  C8  UNL     1      85.782  71.648  30.896  1.00  0.00     0.032 A 
HETATM    2  C9  UNL     1      86.779  72.598  30.745  1.00  0.00     0.130 A 
HETATM    3  N4  UNL     1      86.494  73.929  30.673  1.00  0.00    -0.176 N 
ATOM      4  H4  UNL     1      87.249  74.605  30.557  1.00  0.00     0.186 HD
HETATM    5  C12 UNL     1      85.241  74.344  30.751  1.00  0.00     0.677 A 
HETATM    6  N6  UNL     1      84.274  73.437  30.900  1.00  0.00    -0.195 N 
ATOM      7  H6  UNL     1      83.313  73.773  30.959  1.00  0.00     0.184 HD
HETATM    8  C13 UNL     1      84.480  72.110  30.976  1.00  0.00     0.036 A 
HETATM    9  C14 UNL     1      83.313  71.184  31.136  1.00  0.00     0.070 C 
ENDROOT
BRANCH   1  10
HETATM   10  C7  UNL     1      86.124  70.241  30.854  1.00  0.00     0.036 C 
BRANCH  10  11
HETATM   11  C6  UNL     1      86.787  69.631  29.731  1.00  0.00     0.056 A 
HETATM   12  C3  UNL     1      87.933  68.893  29.777  1.00  0.00     0.036 A 
HETATM   13  N1  UNL     1      88.374  68.357  28.622  1.00  0.00    -0.335 N 
HETATM   14  C4  UNL     1      87.756  68.500  27.430  1.00  0.00     0.178 A 
ATOM     15  H1  UNL     1      89.233  67.806  28.650  1.00  0.00     0.168 HD
HETATM   16  S2  UNL     1      88.343  67.826  26.076  1.00  0.00    -0.040 SA
HETATM   17  N2  UNL     1      86.630  69.217  27.367  1.00  0.00    -0.299 N 
HETATM   18  C5  UNL     1      86.170  69.759  28.487  1.00  0.00     0.259 A 
ATOM     19  H2  UNL     1      86.137  69.345  26.482  1.00  0.00     0.171 HD
HETATM   20  O1  UNL     1      85.081  70.432  28.362  1.00  0.00    -0.267 OA
BRANCH  12  21
HETATM   21  C2  UNL     1      88.691  68.689  31.044  1.00  0.00     0.131 C 
BRANCH  21  22
HETATM   22  S1  UNL     1      88.257  67.111  31.752  1.00  0.00    -0.168 SA
HETATM   23  C1  UNL     1      86.841  67.093  32.835  1.00  0.00     0.090 C 
ENDBRANCH  21  22
ENDBRANCH  12  21
ENDBRANCH  10  11
ENDBRANCH   1  10
BRANCH   2  24
HETATM   24  N3  UNL     1      88.175  72.341  30.762  1.00  0.00    -0.375 N 
HETATM   25  C10 UNL     1      88.845  72.183  32.023  1.00  0.00     0.150 C 
HETATM   26  C11 UNL     1      88.914  72.285  29.542  1.00  0.00     0.150 C 
ENDBRANCH   2  24
BRANCH   5  27
HETATM   27  N5  UNL     1      85.002  75.627  30.676  1.00  0.00    -0.234 N 
ATOM     28  H52 UNL     1      85.673  76.333  30.981  1.00  0.00     0.174 HD
ATOM     29  H51 UNL     1      84.106  75.936  30.299  1.00  0.00     0.174 HD
ENDBRANCH   5  27
TORSDOF 6
ENDMDL
