MODEL 1
REMARK VINA RESULT: -6.829358268      0.000      0.000
REMARK  12 active torsions:
REMARK  status: ('A' for Active; 'I' for Inactive)
REMARK    1  A    between atoms: C2_2  and  O2_4 
REMARK    2  A    between atoms: O2_4  and  C3_5 
REMARK    3  A    between atoms: C3_5  and  C4_6 
REMARK    4  A    between atoms: C4_6  and  O3_7 
REMARK    5  A    between atoms: C4_6  and  O4_9 
REMARK    6  A    between atoms: O4_9  and  C5_10 
REMARK    7  A    between atoms: C5_10  and  C6_12 
REMARK    8  A    between atoms: C6_12  and  N1_13 
REMARK    9  A    between atoms: N1_13  and  C8_15 
REMARK   10  A    between atoms: C11_21  and  N4_22 
REMARK   11  A    between atoms: C12_25  and  O6_26 
REMARK       I    between atoms: N7_35  and  C15_37 
REMARK       I    between atoms: C15_37  and  N8_38 
REMARK       I    between atoms: C15_37  and  N9_42 
REMARK   12  A    between atoms: C16_46  and  N10_47 
ROOT
HETATM    1  C6  UNL     1     -32.673 -21.985  22.172  1.00  0.00     0.199 C 
HETATM    2  C12 UNL     1     -32.523 -20.756  23.046  1.00  0.00     0.260 C 
HETATM    3  N5  UNL     1     -33.673 -20.485  23.875  1.00  0.00    -0.346 N 
ATOM      4  H5  UNL     1     -33.636 -20.432  24.894  1.00  0.00     0.163 HD
HETATM    5  C13 UNL     1     -34.889 -20.295  23.106  1.00  0.00     0.121 C 
HETATM    6  N6  UNL     1     -35.968 -19.966  23.643  1.00  0.00    -0.384 N 
ATOM      7  H61 UNL     1     -36.822 -19.833  23.103  1.00  0.00     0.157 HD
ATOM      8  H62 UNL     1     -36.115 -19.788  24.637  1.00  0.00     0.157 HD
HETATM    9  C14 UNL     1     -34.676 -20.553  21.670  1.00  0.00     0.085 C 
HETATM   10  N7  UNL     1     -35.110 -19.780  20.799  1.00  0.00    -0.340 N 
ATOM     11  H7  UNL     1     -34.861 -20.138  19.878  1.00  0.00     0.163 HD
HETATM   12  C15 UNL     1     -35.815 -18.602  20.652  1.00  0.00     0.480 C 
HETATM   13  N8  UNL     1     -35.630 -17.586  21.689  1.00  0.00    -0.033 N 
ATOM     14  H81 UNL     1     -36.150 -16.715  21.580  1.00  0.00     0.278 HD
ATOM     15  H82 UNL     1     -34.636 -17.379  21.789  1.00  0.00     0.278 HD
ATOM     16  H83 UNL     1     -35.831 -17.991  22.603  1.00  0.00     0.278 HD
HETATM   17  N9  UNL     1     -37.265 -18.809  20.521  1.00  0.00    -0.033 N 
ATOM     18  H91 UNL     1     -37.786 -17.938  20.412  1.00  0.00     0.278 HD
ATOM     19  H92 UNL     1     -37.627 -19.353  21.303  1.00  0.00     0.278 HD
ATOM     20  H93 UNL     1     -37.472 -19.454  19.758  1.00  0.00     0.278 HD
HETATM   21  C16 UNL     1     -33.894 -21.801  21.284  1.00  0.00     0.279 C 
ENDROOT
BRANCH   1  22
HETATM   22  C5  UNL     1     -31.520 -21.984  21.251  1.00  0.00     0.297 C 
HETATM   23  O5  UNL     1     -31.385 -22.897  20.358  1.00  0.00    -0.262 OA
BRANCH  22  24
HETATM   24  O4  UNL     1     -30.514 -21.050  21.254  1.00  0.00    -0.285 OA
BRANCH  24  25
HETATM   25  C4  UNL     1     -30.102 -20.334  20.112  1.00  0.00     0.290 C 
BRANCH  25  26
HETATM   26  C3  UNL     1     -29.511 -18.990  20.467  1.00  0.00     0.239 C 
BRANCH  26  27
HETATM   27  O2  UNL     1     -28.984 -18.392  19.283  1.00  0.00    -0.317 OA
BRANCH  27  28
HETATM   28  C2  UNL     1     -29.639 -17.367  18.632  1.00  0.00     0.254 C 
HETATM   29  C1  UNL     1     -30.312 -16.268  19.364  1.00  0.00     0.126 C 
HETATM   30  O1  UNL     1     -29.652 -17.391  17.378  1.00  0.00    -0.266 OA
ENDBRANCH  27  28
ENDBRANCH  26  27
ENDBRANCH  25  26
BRANCH  25  31
HETATM   31  O3  UNL     1     -31.246 -20.084  19.321  1.00  0.00    -0.369 OA
ATOM     32  H3  UNL     1     -30.978 -20.172  18.414  1.00  0.00     0.212 HD
ENDBRANCH  25  31
ENDBRANCH  24  25
ENDBRANCH  22  24
ENDBRANCH   1  22
BRANCH   1  33
HETATM   33  N1  UNL     1     -32.742 -23.219  22.908  1.00  0.00    -0.357 N 
HETATM   34  C7  UNL     1     -33.944 -24.088  22.773  1.00  0.00     0.151 C 
BRANCH  33  35
HETATM   35  C8  UNL     1     -31.804 -23.758  23.818  1.00  0.00     0.093 A 
HETATM   36  C9  UNL     1     -31.775 -23.541  25.210  1.00  0.00     0.140 A 
HETATM   37  N2  UNL     1     -30.746 -24.213  25.735  1.00  0.00    -0.306 N 
HETATM   38  N3  UNL     1     -30.108 -24.847  24.777  1.00  0.00    -0.280 N 
ATOM     39  H2  UNL     1     -30.494 -24.230  26.723  1.00  0.00     0.186 HD
HETATM   40  C10 UNL     1     -28.931 -25.699  24.884  1.00  0.00     0.179 C 
HETATM   41  C11 UNL     1     -30.731 -24.590  23.590  1.00  0.00     0.144 A 
BRANCH  41  42
HETATM   42  N4  UNL     1     -30.313 -25.068  22.498  1.00  0.00    -0.382 N 
ATOM     43  H42 UNL     1     -30.861 -25.735  21.955  1.00  0.00     0.157 HD
ATOM     44  H41 UNL     1     -29.430 -24.895  22.018  1.00  0.00     0.157 HD
ENDBRANCH  41  42
ENDBRANCH  33  35
ENDBRANCH   1  33
BRANCH   2  45
HETATM   45  O6  UNL     1     -32.442 -19.658  22.173  1.00  0.00    -0.374 OA
ATOM     46  H6  UNL     1     -32.017 -18.962  22.659  1.00  0.00     0.212 HD
ENDBRANCH   2  45
BRANCH  21  47
HETATM   47  N10 UNL     1     -33.537 -21.623  19.892  1.00  0.00    -0.066 N 
ATOM     48 3H10 UNL     1     -32.525 -21.558  19.776  1.00  0.00     0.275 HD
ATOM     49 2H10 UNL     1     -33.707 -22.473  19.356  1.00  0.00     0.275 HD
ATOM     50 1H10 UNL     1     -34.008 -20.822  19.473  1.00  0.00     0.275 HD
ENDBRANCH  21  47
TORSDOF 12
ENDMDL
MODEL 2
REMARK VINA RESULT: -6.598881022      2.570      4.539
REMARK  12 active torsions:
REMARK  status: ('A' for Active; 'I' for Inactive)
REMARK    1  A    between atoms: C2_2  and  O2_4 
REMARK    2  A    between atoms: O2_4  and  C3_5 
REMARK    3  A    between atoms: C3_5  and  C4_6 
REMARK    4  A    between atoms: C4_6  and  O3_7 
REMARK    5  A    between atoms: C4_6  and  O4_9 
REMARK    6  A    between atoms: O4_9  and  C5_10 
REMARK    7  A    between atoms: C5_10  and  C6_12 
REMARK    8  A    between atoms: C6_12  and  N1_13 
REMARK    9  A    between atoms: N1_13  and  C8_15 
REMARK   10  A    between atoms: C11_21  and  N4_22 
REMARK   11  A    between atoms: C12_25  and  O6_26 
REMARK       I    between atoms: N7_35  and  C15_37 
REMARK       I    between atoms: C15_37  and  N8_38 
REMARK       I    between atoms: C15_37  and  N9_42 
REMARK   12  A    between atoms: C16_46  and  N10_47 
ROOT
HETATM    1  C6  UNL     1     -32.922 -21.446  20.274  1.00  0.00     0.199 C 
HETATM    2  C12 UNL     1     -33.513 -21.344  18.882  1.00  0.00     0.260 C 
HETATM    3  N5  UNL     1     -34.862 -21.851  18.780  1.00  0.00    -0.346 N 
ATOM      4  H5  UNL     1     -35.654 -21.289  18.467  1.00  0.00     0.163 HD
HETATM    5  C13 UNL     1     -34.970 -23.244  19.171  1.00  0.00     0.121 C 
HETATM    6  N6  UNL     1     -36.041 -23.879  19.067  1.00  0.00    -0.384 N 
ATOM      7  H61 UNL     1     -36.117 -24.859  19.342  1.00  0.00     0.157 HD
ATOM      8  H62 UNL     1     -36.922 -23.517  18.702  1.00  0.00     0.157 HD
HETATM    9  C14 UNL     1     -33.697 -23.767  19.698  1.00  0.00     0.085 C 
HETATM   10  N7  UNL     1     -33.246 -24.868  19.338  1.00  0.00    -0.340 N 
ATOM     11  H7  UNL     1     -32.365 -25.044  19.819  1.00  0.00     0.163 HD
HETATM   12  C15 UNL     1     -33.532 -25.934  18.509  1.00  0.00     0.480 C 
HETATM   13  N8  UNL     1     -34.235 -25.634  17.262  1.00  0.00    -0.033 N 
ATOM     14  H81 UNL     1     -34.445 -26.422  16.650  1.00  0.00     0.278 HD
ATOM     15  H82 UNL     1     -33.717 -24.926  16.741  1.00  0.00     0.278 HD
ATOM     16  H83 UNL     1     -35.094 -25.125  17.469  1.00  0.00     0.278 HD
HETATM   17  N9  UNL     1     -34.298 -26.997  19.178  1.00  0.00    -0.033 N 
ATOM     18  H91 UNL     1     -34.509 -27.785  18.566  1.00  0.00     0.278 HD
ATOM     19  H92 UNL     1     -35.150 -26.623  19.595  1.00  0.00     0.278 HD
ATOM     20  H93 UNL     1     -33.821 -27.311  20.024  1.00  0.00     0.278 HD
HETATM   21  C16 UNL     1     -32.939 -22.906  20.700  1.00  0.00     0.279 C 
ENDROOT
BRANCH   1  22
HETATM   22  C5  UNL     1     -31.495 -21.096  20.146  1.00  0.00     0.297 C 
HETATM   23  O5  UNL     1     -30.957 -20.923  18.993  1.00  0.00    -0.262 OA
BRANCH  22  24
HETATM   24  O4  UNL     1     -30.630 -20.928  21.199  1.00  0.00    -0.285 OA
BRANCH  24  25
HETATM   25  C4  UNL     1     -29.547 -20.026  21.192  1.00  0.00     0.290 C 
BRANCH  25  26
HETATM   26  C3  UNL     1     -29.991 -18.608  20.917  1.00  0.00     0.239 C 
BRANCH  26  27
HETATM   27  O2  UNL     1     -29.228 -18.090  19.828  1.00  0.00    -0.317 OA
BRANCH  27  28
HETATM   28  C2  UNL     1     -29.768 -17.202  18.920  1.00  0.00     0.254 C 
HETATM   29  C1  UNL     1     -30.443 -15.953  19.341  1.00  0.00     0.126 C 
HETATM   30  O1  UNL     1     -29.670 -17.488  17.702  1.00  0.00    -0.266 OA
ENDBRANCH  27  28
ENDBRANCH  26  27
ENDBRANCH  25  26
BRANCH  25  31
HETATM   31  O3  UNL     1     -28.682 -20.397  20.138  1.00  0.00    -0.369 OA
ATOM     32  H3  UNL     1     -28.414 -21.293  20.304  1.00  0.00     0.212 HD
ENDBRANCH  25  31
ENDBRANCH  24  25
ENDBRANCH  22  24
ENDBRANCH   1  22
BRANCH   1  33
HETATM   33  N1  UNL     1     -33.573 -20.609  21.246  1.00  0.00    -0.357 N 
HETATM   34  C7  UNL     1     -33.950 -19.215  20.880  1.00  0.00     0.151 C 
BRANCH  33  35
HETATM   35  C8  UNL     1     -33.907 -20.908  22.587  1.00  0.00     0.093 A 
HETATM   36  C9  UNL     1     -35.098 -21.514  23.033  1.00  0.00     0.140 A 
HETATM   37  N2  UNL     1     -35.054 -21.633  24.364  1.00  0.00    -0.306 N 
HETATM   38  N3  UNL     1     -33.917 -21.145  24.806  1.00  0.00    -0.280 N 
ATOM     39  H2  UNL     1     -35.787 -22.039  24.945  1.00  0.00     0.186 HD
HETATM   40  C10 UNL     1     -33.440 -21.065  26.180  1.00  0.00     0.179 C 
HETATM   41  C11 UNL     1     -33.191 -20.692  23.743  1.00  0.00     0.144 A 
BRANCH  41  42
HETATM   42  N4  UNL     1     -32.055 -20.158  23.887  1.00  0.00    -0.382 N 
ATOM     43  H42 UNL     1     -31.361 -20.154  23.140  1.00  0.00     0.157 HD
ATOM     44  H41 UNL     1     -31.664 -19.691  24.705  1.00  0.00     0.157 HD
ENDBRANCH  41  42
ENDBRANCH  33  35
ENDBRANCH   1  33
BRANCH   2  45
HETATM   45  O6  UNL     1     -32.748 -22.194  18.065  1.00  0.00    -0.374 OA
ATOM     46  H6  UNL     1     -31.923 -21.748  17.915  1.00  0.00     0.212 HD
ENDBRANCH   2  45
BRANCH  21  47
HETATM   47  N10 UNL     1     -31.608 -23.470  20.772  1.00  0.00    -0.066 N 
ATOM     48 3H10 UNL     1     -31.345 -23.675  21.737  1.00  0.00     0.275 HD
ATOM     49 2H10 UNL     1     -31.587 -24.417  20.395  1.00  0.00     0.275 HD
ATOM     50 1H10 UNL     1     -30.914 -22.877  20.319  1.00  0.00     0.275 HD
ENDBRANCH  21  47
TORSDOF 12
ENDMDL
MODEL 3
REMARK VINA RESULT: -6.540492191      2.600      4.782
REMARK  12 active torsions:
REMARK  status: ('A' for Active; 'I' for Inactive)
REMARK    1  A    between atoms: C2_2  and  O2_4 
REMARK    2  A    between atoms: O2_4  and  C3_5 
REMARK    3  A    between atoms: C3_5  and  C4_6 
REMARK    4  A    between atoms: C4_6  and  O3_7 
REMARK    5  A    between atoms: C4_6  and  O4_9 
REMARK    6  A    between atoms: O4_9  and  C5_10 
REMARK    7  A    between atoms: C5_10  and  C6_12 
REMARK    8  A    between atoms: C6_12  and  N1_13 
REMARK    9  A    between atoms: N1_13  and  C8_15 
REMARK   10  A    between atoms: C11_21  and  N4_22 
REMARK   11  A    between atoms: C12_25  and  O6_26 
REMARK       I    between atoms: N7_35  and  C15_37 
REMARK       I    between atoms: C15_37  and  N8_38 
REMARK       I    between atoms: C15_37  and  N9_42 
REMARK   12  A    between atoms: C16_46  and  N10_47 
ROOT
HETATM    1  C6  UNL     1     -32.732 -20.553  20.785  1.00  0.00     0.199 C 
HETATM    2  C12 UNL     1     -33.081 -20.602  19.311  1.00  0.00     0.260 C 
HETATM    3  N5  UNL     1     -33.928 -21.714  18.947  1.00  0.00    -0.346 N 
ATOM      4  H5  UNL     1     -34.842 -21.607  18.508  1.00  0.00     0.163 HD
HETATM    5  C13 UNL     1     -33.338 -22.999  19.271  1.00  0.00     0.121 C 
HETATM    6  N6  UNL     1     -33.883 -24.077  18.953  1.00  0.00    -0.384 N 
ATOM      7  H61 UNL     1     -33.468 -24.981  19.181  1.00  0.00     0.157 HD
ATOM      8  H62 UNL     1     -34.760 -24.179  18.441  1.00  0.00     0.157 HD
HETATM    9  C14 UNL     1     -32.071 -22.851  20.011  1.00  0.00     0.085 C 
HETATM   10  N7  UNL     1     -31.061 -23.510  19.710  1.00  0.00    -0.340 N 
ATOM     11  H7  UNL     1     -30.299 -23.263  20.342  1.00  0.00     0.163 HD
HETATM   12  C15 UNL     1     -30.618 -24.460  18.813  1.00  0.00     0.480 C 
HETATM   13  N8  UNL     1     -31.186 -24.416  17.466  1.00  0.00    -0.033 N 
ATOM     14  H81 UNL     1     -30.858 -25.119  16.803  1.00  0.00     0.278 HD
ATOM     15  H82 UNL     1     -31.052 -23.486  17.070  1.00  0.00     0.278 HD
ATOM     16  H83 UNL     1     -32.204 -24.452  17.525  1.00  0.00     0.278 HD
HETATM   17  N9  UNL     1     -30.793 -25.838  19.298  1.00  0.00    -0.033 N 
ATOM     18  H91 UNL     1     -30.465 -26.541  18.636  1.00  0.00     0.278 HD
ATOM     19  H92 UNL     1     -31.763 -26.010  19.561  1.00  0.00     0.278 HD
ATOM     20  H93 UNL     1     -30.349 -25.962  20.208  1.00  0.00     0.278 HD
HETATM   21  C16 UNL     1     -32.035 -21.852  21.160  1.00  0.00     0.279 C 
ENDROOT
BRANCH   1  22
HETATM   22  C5  UNL     1     -31.704 -19.505  20.935  1.00  0.00     0.297 C 
HETATM   23  O5  UNL     1     -31.404 -19.033  22.090  1.00  0.00    -0.262 OA
BRANCH  22  24
HETATM   24  O4  UNL     1     -30.996 -18.947  19.900  1.00  0.00    -0.285 OA
BRANCH  24  25
HETATM   25  C4  UNL     1     -29.685 -18.443  20.025  1.00  0.00     0.290 C 
BRANCH  25  26
HETATM   26  C3  UNL     1     -29.389 -17.370  19.004  1.00  0.00     0.239 C 
BRANCH  26  27
HETATM   27  O2  UNL     1     -30.495 -16.469  18.950  1.00  0.00    -0.317 OA
BRANCH  27  28
HETATM   28  C2  UNL     1     -30.497 -15.278  19.645  1.00  0.00     0.254 C 
HETATM   29  C1  UNL     1     -30.846 -13.988  19.004  1.00  0.00     0.126 C 
HETATM   30  O1  UNL     1     -30.187 -15.315  20.861  1.00  0.00    -0.266 OA
ENDBRANCH  27  28
ENDBRANCH  26  27
ENDBRANCH  25  26
BRANCH  25  31
HETATM   31  O3  UNL     1     -28.788 -19.506  19.776  1.00  0.00    -0.369 OA
ATOM     32  H3  UNL     1     -28.895 -20.129  20.485  1.00  0.00     0.212 HD
ENDBRANCH  25  31
ENDBRANCH  24  25
ENDBRANCH  22  24
ENDBRANCH   1  22
BRANCH   1  33
HETATM   33  N1  UNL     1     -33.858 -20.296  21.642  1.00  0.00    -0.357 N 
HETATM   34  C7  UNL     1     -34.821 -19.217  21.287  1.00  0.00     0.151 C 
BRANCH  33  35
HETATM   35  C8  UNL     1     -34.202 -20.925  22.861  1.00  0.00     0.093 A 
HETATM   36  C9  UNL     1     -35.316 -21.758  23.082  1.00  0.00     0.140 A 
HETATM   37  N2  UNL     1     -35.311 -22.165  24.356  1.00  0.00    -0.306 N 
HETATM   38  N3  UNL     1     -34.270 -21.650  24.971  1.00  0.00    -0.280 N 
ATOM     39  H2  UNL     1     -36.004 -22.778  24.783  1.00  0.00     0.186 HD
HETATM   40  C10 UNL     1     -33.865 -21.819  26.360  1.00  0.00     0.179 C 
HETATM   41  C11 UNL     1     -33.570 -20.885  24.084  1.00  0.00     0.144 A 
BRANCH  41  42
HETATM   42  N4  UNL     1     -32.524 -20.259  24.418  1.00  0.00    -0.382 N 
ATOM     43  H42 UNL     1     -31.755 -20.106  23.767  1.00  0.00     0.157 HD
ATOM     44  H41 UNL     1     -32.284 -19.847  25.319  1.00  0.00     0.157 HD
ENDBRANCH  41  42
ENDBRANCH  33  35
ENDBRANCH   1  33
BRANCH   2  45
HETATM   45  O6  UNL     1     -31.875 -20.829  18.627  1.00  0.00    -0.374 OA
ATOM     46  H6  UNL     1     -31.683 -20.029  18.152  1.00  0.00     0.212 HD
ENDBRANCH   2  45
BRANCH  21  47
HETATM   47  N10 UNL     1     -30.633 -21.654  21.462  1.00  0.00    -0.066 N 
ATOM     48 3H10 UNL     1     -30.072 -21.628  20.611  1.00  0.00     0.275 HD
ATOM     49 2H10 UNL     1     -30.459 -20.707  21.799  1.00  0.00     0.275 HD
ATOM     50 1H10 UNL     1     -30.279 -22.350  22.117  1.00  0.00     0.275 HD
ENDBRANCH  21  47
TORSDOF 12
ENDMDL
MODEL 4
REMARK VINA RESULT: -6.520577436      2.679      3.559
REMARK  12 active torsions:
REMARK  status: ('A' for Active; 'I' for Inactive)
REMARK    1  A    between atoms: C2_2  and  O2_4 
REMARK    2  A    between atoms: O2_4  and  C3_5 
REMARK    3  A    between atoms: C3_5  and  C4_6 
REMARK    4  A    between atoms: C4_6  and  O3_7 
REMARK    5  A    between atoms: C4_6  and  O4_9 
REMARK    6  A    between atoms: O4_9  and  C5_10 
REMARK    7  A    between atoms: C5_10  and  C6_12 
REMARK    8  A    between atoms: C6_12  and  N1_13 
REMARK    9  A    between atoms: N1_13  and  C8_15 
REMARK   10  A    between atoms: C11_21  and  N4_22 
REMARK   11  A    between atoms: C12_25  and  O6_26 
REMARK       I    between atoms: N7_35  and  C15_37 
REMARK       I    between atoms: C15_37  and  N8_38 
REMARK       I    between atoms: C15_37  and  N9_42 
REMARK   12  A    between atoms: C16_46  and  N10_47 
ROOT
HETATM    1  C6  UNL     1     -32.416 -22.650  20.473  1.00  0.00     0.199 C 
HETATM    2  C12 UNL     1     -32.712 -22.124  21.863  1.00  0.00     0.260 C 
HETATM    3  N5  UNL     1     -33.928 -22.646  22.440  1.00  0.00    -0.346 N 
ATOM      4  H5  UNL     1     -33.960 -23.162  23.320  1.00  0.00     0.163 HD
HETATM    5  C13 UNL     1     -35.101 -22.359  21.635  1.00  0.00     0.121 C 
HETATM    6  N6  UNL     1     -36.254 -22.656  22.015  1.00  0.00    -0.384 N 
ATOM      7  H61 UNL     1     -37.078 -22.454  21.449  1.00  0.00     0.157 HD
ATOM      8  H62 UNL     1     -36.499 -23.103  22.898  1.00  0.00     0.157 HD
HETATM    9  C14 UNL     1     -34.746 -21.713  20.359  1.00  0.00     0.085 C 
HETATM   10  N7  UNL     1     -35.361 -20.718  19.940  1.00  0.00    -0.340 N 
ATOM     11  H7  UNL     1     -34.965 -20.430  19.046  1.00  0.00     0.163 HD
HETATM   12  C15 UNL     1     -36.398 -19.869  20.271  1.00  0.00     0.480 C 
HETATM   13  N8  UNL     1     -36.600 -19.594  21.694  1.00  0.00    -0.033 N 
ATOM     14  H81 UNL     1     -37.366 -18.966  21.938  1.00  0.00     0.278 HD
ATOM     15  H82 UNL     1     -35.732 -19.246  22.100  1.00  0.00     0.278 HD
ATOM     16  H83 UNL     1     -36.705 -20.474  22.199  1.00  0.00     0.278 HD
HETATM   17  N9  UNL     1     -37.697 -20.309  19.740  1.00  0.00    -0.033 N 
ATOM     18  H91 UNL     1     -38.463 -19.681  19.984  1.00  0.00     0.278 HD
ATOM     19  H92 UNL     1     -37.903 -21.264  20.029  1.00  0.00     0.278 HD
ATOM     20  H93 UNL     1     -37.649 -20.446  18.730  1.00  0.00     0.278 HD
HETATM   21  C16 UNL     1     -33.587 -22.302  19.566  1.00  0.00     0.279 C 
ENDROOT
BRANCH   1  22
HETATM   22  C5  UNL     1     -31.281 -21.859  19.962  1.00  0.00     0.297 C 
HETATM   23  O5  UNL     1     -30.419 -22.378  19.164  1.00  0.00    -0.262 OA
BRANCH  22  24
HETATM   24  O4  UNL     1     -31.036 -20.545  20.274  1.00  0.00    -0.285 OA
BRANCH  24  25
HETATM   25  C4  UNL     1     -29.864 -20.093  20.915  1.00  0.00     0.290 C 
BRANCH  25  26
HETATM   26  C3  UNL     1     -29.812 -18.587  21.008  1.00  0.00     0.239 C 
BRANCH  26  27
HETATM   27  O2  UNL     1     -29.138 -18.078  19.857  1.00  0.00    -0.317 OA
BRANCH  27  28
HETATM   28  C2  UNL     1     -29.764 -17.236  18.961  1.00  0.00     0.254 C 
HETATM   29  C1  UNL     1     -30.506 -16.029  19.394  1.00  0.00     0.126 C 
HETATM   30  O1  UNL     1     -29.688 -17.527  17.742  1.00  0.00    -0.266 OA
ENDBRANCH  27  28
ENDBRANCH  26  27
ENDBRANCH  25  26
BRANCH  25  31
HETATM   31  O3  UNL     1     -28.760 -20.495  20.130  1.00  0.00    -0.369 OA
ATOM     32  H3  UNL     1     -29.031 -21.267  19.647  1.00  0.00     0.212 HD
ENDBRANCH  25  31
ENDBRANCH  24  25
ENDBRANCH  22  24
ENDBRANCH   1  22
BRANCH   1  33
HETATM   33  N1  UNL     1     -32.123 -24.057  20.433  1.00  0.00    -0.357 N 
HETATM   34  C7  UNL     1     -31.358 -24.680  21.549  1.00  0.00     0.151 C 
BRANCH  33  35
HETATM   35  C8  UNL     1     -32.439 -24.997  19.425  1.00  0.00     0.093 A 
HETATM   36  C9  UNL     1     -33.645 -25.716  19.306  1.00  0.00     0.140 A 
HETATM   37  N2  UNL     1     -33.576 -26.508  18.231  1.00  0.00    -0.306 N 
HETATM   38  N3  UNL     1     -32.408 -26.350  17.650  1.00  0.00    -0.280 N 
ATOM     39  H2  UNL     1     -34.313 -27.137  17.913  1.00  0.00     0.186 HD
HETATM   40  C10 UNL     1     -31.896 -27.007  16.454  1.00  0.00     0.179 C 
HETATM   41  C11 UNL     1     -31.687 -25.431  18.356  1.00  0.00     0.144 A 
BRANCH  41  42
HETATM   42  N4  UNL     1     -30.515 -25.099  18.022  1.00  0.00    -0.382 N 
ATOM     43  H42 UNL     1     -29.903 -24.575  18.647  1.00  0.00     0.157 HD
ATOM     44  H41 UNL     1     -30.026 -25.269  17.143  1.00  0.00     0.157 HD
ENDBRANCH  41  42
ENDBRANCH  33  35
ENDBRANCH   1  33
BRANCH   2  45
HETATM   45  O6  UNL     1     -32.944 -20.745  21.723  1.00  0.00    -0.374 OA
ATOM     46  H6  UNL     1     -32.099 -20.322  21.814  1.00  0.00     0.212 HD
ENDBRANCH   2  45
BRANCH  21  47
HETATM   47  N10 UNL     1     -33.237 -21.300  18.582  1.00  0.00    -0.066 N 
ATOM     48 3H10 UNL     1     -32.815 -21.725  17.756  1.00  0.00     0.275 HD
ATOM     49 2H10 UNL     1     -34.070 -20.899  18.150  1.00  0.00     0.275 HD
ATOM     50 1H10 UNL     1     -32.636 -20.573  18.970  1.00  0.00     0.275 HD
ENDBRANCH  21  47
TORSDOF 12
ENDMDL
MODEL 5
REMARK VINA RESULT: -6.498975276      2.399      4.064
REMARK  12 active torsions:
REMARK  status: ('A' for Active; 'I' for Inactive)
REMARK    1  A    between atoms: C2_2  and  O2_4 
REMARK    2  A    between atoms: O2_4  and  C3_5 
REMARK    3  A    between atoms: C3_5  and  C4_6 
REMARK    4  A    between atoms: C4_6  and  O3_7 
REMARK    5  A    between atoms: C4_6  and  O4_9 
REMARK    6  A    between atoms: O4_9  and  C5_10 
REMARK    7  A    between atoms: C5_10  and  C6_12 
REMARK    8  A    between atoms: C6_12  and  N1_13 
REMARK    9  A    between atoms: N1_13  and  C8_15 
REMARK   10  A    between atoms: C11_21  and  N4_22 
REMARK   11  A    between atoms: C12_25  and  O6_26 
REMARK       I    between atoms: N7_35  and  C15_37 
REMARK       I    between atoms: C15_37  and  N8_38 
REMARK       I    between atoms: C15_37  and  N9_42 
REMARK   12  A    between atoms: C16_46  and  N10_47 
ROOT
HETATM    1  C6  UNL     1     -32.719 -21.937  20.783  1.00  0.00     0.199 C 
HETATM    2  C12 UNL     1     -32.235 -22.976  21.774  1.00  0.00     0.260 C 
HETATM    3  N5  UNL     1     -33.276 -23.849  22.262  1.00  0.00    -0.346 N 
ATOM      4  H5  UNL     1     -33.258 -24.864  22.158  1.00  0.00     0.163 HD
HETATM    5  C13 UNL     1     -34.352 -23.129  22.917  1.00  0.00     0.121 C 
HETATM    6  N6  UNL     1     -35.298 -23.720  23.479  1.00  0.00    -0.384 N 
ATOM      7  H61 UNL     1     -36.054 -23.214  23.940  1.00  0.00     0.157 HD
ATOM      8  H62 UNL     1     -35.417 -24.731  23.552  1.00  0.00     0.157 HD
HETATM    9  C14 UNL     1     -34.180 -21.669  22.811  1.00  0.00     0.085 C 
HETATM   10  N7  UNL     1     -34.332 -20.923  23.794  1.00  0.00    -0.340 N 
ATOM     11  H7  UNL     1     -34.172 -19.957  23.509  1.00  0.00     0.163 HD
HETATM   12  C15 UNL     1     -34.643 -20.955  25.138  1.00  0.00     0.480 C 
HETATM   13  N8  UNL     1     -34.194 -22.124  25.894  1.00  0.00    -0.033 N 
ATOM     14  H81 UNL     1     -34.424 -22.147  26.888  1.00  0.00     0.278 HD
ATOM     15  H82 UNL     1     -33.188 -22.242  25.774  1.00  0.00     0.278 HD
ATOM     16  H83 UNL     1     -34.538 -22.973  25.445  1.00  0.00     0.278 HD
HETATM   17  N9  UNL     1     -36.083 -20.812  25.401  1.00  0.00    -0.033 N 
ATOM     18  H91 UNL     1     -36.313 -20.835  26.395  1.00  0.00     0.278 HD
ATOM     19  H92 UNL     1     -36.617 -21.512  24.888  1.00  0.00     0.278 HD
ATOM     20  H93 UNL     1     -36.450 -19.966  24.963  1.00  0.00     0.278 HD
HETATM   21  C16 UNL     1     -33.799 -21.099  21.452  1.00  0.00     0.279 C 
ENDROOT
BRANCH   1  22
HETATM   22  C5  UNL     1     -31.590 -21.012  20.564  1.00  0.00     0.297 C 
HETATM   23  O5  UNL     1     -31.503 -20.319  19.488  1.00  0.00    -0.262 OA
BRANCH  22  24
HETATM   24  O4  UNL     1     -30.560 -20.809  21.448  1.00  0.00    -0.285 OA
BRANCH  24  25
HETATM   25  C4  UNL     1     -29.428 -20.018  21.167  1.00  0.00     0.290 C 
BRANCH  25  26
HETATM   26  C3  UNL     1     -29.789 -18.568  20.943  1.00  0.00     0.239 C 
BRANCH  26  27
HETATM   27  O2  UNL     1     -29.119 -18.103  19.772  1.00  0.00    -0.317 OA
BRANCH  27  28
HETATM   28  C2  UNL     1     -29.721 -17.232  18.888  1.00  0.00     0.254 C 
HETATM   29  C1  UNL     1     -30.427 -16.010  19.338  1.00  0.00     0.126 C 
HETATM   30  O1  UNL     1     -29.654 -17.509  17.665  1.00  0.00    -0.266 OA
ENDBRANCH  27  28
ENDBRANCH  26  27
ENDBRANCH  25  26
BRANCH  25  31
HETATM   31  O3  UNL     1     -28.857 -20.490  19.964  1.00  0.00    -0.369 OA
ATOM     32  H3  UNL     1     -29.522 -21.011  19.529  1.00  0.00     0.212 HD
ENDBRANCH  25  31
ENDBRANCH  24  25
ENDBRANCH  22  24
ENDBRANCH   1  22
BRANCH   1  33
HETATM   33  N1  UNL     1     -33.182 -22.489  19.538  1.00  0.00    -0.357 N 
HETATM   34  C7  UNL     1     -34.379 -21.903  18.875  1.00  0.00     0.151 C 
BRANCH  33  35
HETATM   35  C8  UNL     1     -32.665 -23.587  18.813  1.00  0.00     0.093 A 
HETATM   36  C9  UNL     1     -33.388 -24.720  18.391  1.00  0.00     0.140 A 
HETATM   37  N2  UNL     1     -32.564 -25.544  17.735  1.00  0.00    -0.306 N 
HETATM   38  N3  UNL     1     -31.360 -25.020  17.707  1.00  0.00    -0.280 N 
ATOM     39  H2  UNL     1     -32.828 -26.438  17.322  1.00  0.00     0.186 HD
HETATM   40  C10 UNL     1     -30.150 -25.564  17.103  1.00  0.00     0.179 C 
HETATM   41  C11 UNL     1     -31.387 -23.821  18.358  1.00  0.00     0.144 A 
BRANCH  41  42
HETATM   42  N4  UNL     1     -30.352 -23.108  18.491  1.00  0.00    -0.382 N 
ATOM     43  H42 UNL     1     -30.293 -22.165  18.106  1.00  0.00     0.157 HD
ATOM     44  H41 UNL     1     -29.472 -23.334  18.953  1.00  0.00     0.157 HD
ENDBRANCH  41  42
ENDBRANCH  33  35
ENDBRANCH   1  33
BRANCH   2  45
HETATM   45  O6  UNL     1     -31.798 -22.269  22.906  1.00  0.00    -0.374 OA
ATOM     46  H6  UNL     1     -31.085 -22.775  23.278  1.00  0.00     0.212 HD
ENDBRANCH   2  45
BRANCH  21  47
HETATM   47  N10 UNL     1     -33.359 -19.743  21.706  1.00  0.00    -0.066 N 
ATOM     48 3H10 UNL     1     -32.782 -19.693  22.547  1.00  0.00     0.275 HD
ATOM     49 2H10 UNL     1     -32.667 -19.444  21.019  1.00  0.00     0.275 HD
ATOM     50 1H10 UNL     1     -34.139 -19.088  21.755  1.00  0.00     0.275 HD
ENDBRANCH  21  47
TORSDOF 12
ENDMDL
