MODEL 1
REMARK VINA RESULT: -5.704746360      0.000      0.000
REMARK  5 active torsions:
REMARK  status: ('A' for Active; 'I' for Inactive)
REMARK    1  A    between atoms: O1_2  and  C2_3 
REMARK    2  A    between atoms: C2_3  and  C3_5 
REMARK    3  A    between atoms: C5_8  and  N2_9 
REMARK    4  A    between atoms: C6_11  and  C7_12 
REMARK    5  A    between atoms: C10_18  and  N4_19 
ROOT
HETATM    1  N2  UNL     1      -9.480 -29.583  10.306  1.00  0.00    -0.354 N 
ATOM      2  H2  UNL     1      -8.979 -29.936   9.491  1.00  0.00     0.166 HD
HETATM    3  C6  UNL     1      -8.911 -29.607  11.452  1.00  0.00     0.071 C 
ENDROOT
BRANCH   1   4
HETATM    4  C5  UNL     1     -10.809 -29.069  10.147  1.00  0.00     0.136 A 
HETATM    5  C4  UNL     1     -11.970 -29.741  10.458  1.00  0.00     0.110 A 
HETATM    6  C3  UNL     1     -13.052 -28.939  10.175  1.00  0.00     0.111 A 
HETATM    7  N1  UNL     1     -12.056 -31.073  10.995  1.00  0.00    -0.097 NA
HETATM    8  C11 UNL     1     -12.531 -27.750   9.680  1.00  0.00     0.126 A 
HETATM    9  N5  UNL     1     -11.179 -27.866   9.677  1.00  0.00    -0.300 N 
HETATM   10  N6  UNL     1     -12.538 -26.433   9.151  1.00  0.00    -0.358 N 
HETATM   11  C12 UNL     1     -11.095 -26.519   9.134  1.00  0.00     0.256 A 
ATOM     12  H6  UNL     1     -13.242 -25.740   8.898  1.00  0.00     0.162 HD
BRANCH   6  13
HETATM   13  C2  UNL     1     -14.458 -29.276  10.360  1.00  0.00     0.298 C 
HETATM   14  O2  UNL     1     -15.323 -28.632   9.717  1.00  0.00    -0.259 OA
BRANCH  13  15
HETATM   15  O1  UNL     1     -14.900 -30.266  11.203  1.00  0.00    -0.322 OA
HETATM   16  C1  UNL     1     -15.541 -29.944  12.422  1.00  0.00     0.213 C 
ENDBRANCH  13  15
ENDBRANCH   6  13
ENDBRANCH   1   4
BRANCH   3  17
HETATM   17  C7  UNL     1      -9.639 -29.099  12.626  1.00  0.00     0.082 C 
HETATM   18  C8  UNL     1      -8.674 -28.272  13.464  1.00  0.00     0.244 C 
HETATM   19  N3  UNL     1      -8.409 -29.023  14.656  1.00  0.00    -0.072 N 
HETATM   20  C9  UNL     1      -8.665 -30.408  14.312  1.00  0.00     0.265 C 
ATOM     21  H32 UNL     1      -7.479 -28.863  15.042  1.00  0.00     0.277 HD
ATOM     22  H31 UNL     1      -8.935 -28.700  15.468  1.00  0.00     0.277 HD
HETATM   23  C10 UNL     1      -9.950 -30.291  13.516  1.00  0.00     0.219 C 
BRANCH  23  24
HETATM   24  N4  UNL     1     -11.080 -30.004  14.379  1.00  0.00    -0.073 N 
ATOM     25  H43 UNL     1     -11.478 -29.085  14.188  1.00  0.00     0.274 HD
ATOM     26  H42 UNL     1     -11.892 -30.575  14.142  1.00  0.00     0.274 HD
ATOM     27  H41 UNL     1     -10.820 -30.107  15.360  1.00  0.00     0.274 HD
ENDBRANCH  23  24
ENDBRANCH   3  17
TORSDOF 5
ENDMDL
MODEL 2
REMARK VINA RESULT: -5.315606104      3.229      4.818
REMARK  5 active torsions:
REMARK  status: ('A' for Active; 'I' for Inactive)
REMARK    1  A    between atoms: O1_2  and  C2_3 
REMARK    2  A    between atoms: C2_3  and  C3_5 
REMARK    3  A    between atoms: C5_8  and  N2_9 
REMARK    4  A    between atoms: C6_11  and  C7_12 
REMARK    5  A    between atoms: C10_18  and  N4_19 
ROOT
HETATM    1  N2  UNL     1      -7.036 -32.343  11.599  1.00  0.00    -0.354 N 
ATOM      2  H2  UNL     1      -7.181 -33.346  11.716  1.00  0.00     0.166 HD
HETATM    3  C6  UNL     1      -5.873 -31.908  11.290  1.00  0.00     0.071 C 
ENDROOT
BRANCH   1   4
HETATM    4  C5  UNL     1      -8.139 -31.446  11.785  1.00  0.00     0.136 A 
HETATM    5  C4  UNL     1      -9.205 -31.298  10.925  1.00  0.00     0.110 A 
HETATM    6  C3  UNL     1     -10.068 -30.352  11.426  1.00  0.00     0.111 A 
HETATM    7  N1  UNL     1      -9.398 -32.013   9.691  1.00  0.00    -0.097 NA
HETATM    8  C11 UNL     1      -9.511 -29.916  12.622  1.00  0.00     0.126 A 
HETATM    9  N5  UNL     1      -8.351 -30.597  12.804  1.00  0.00    -0.300 N 
HETATM   10  N6  UNL     1      -9.398 -29.168  13.823  1.00  0.00    -0.358 N 
HETATM   11  C12 UNL     1      -8.158 -29.873  14.051  1.00  0.00     0.256 A 
ATOM     12  H6  UNL     1      -9.946 -28.455  14.305  1.00  0.00     0.162 HD
BRANCH   6  13
HETATM   13  C2  UNL     1     -11.315 -29.902  10.820  1.00  0.00     0.298 C 
HETATM   14  O2  UNL     1     -12.345 -30.606  10.961  1.00  0.00    -0.259 OA
BRANCH  13  15
HETATM   15  O1  UNL     1     -11.434 -28.740  10.097  1.00  0.00    -0.322 OA
HETATM   16  C1  UNL     1     -12.704 -28.274   9.682  1.00  0.00     0.213 C 
ENDBRANCH  13  15
ENDBRANCH   6  13
ENDBRANCH   1   4
BRANCH   3  17
HETATM   17  C7  UNL     1      -5.668 -30.460  11.126  1.00  0.00     0.082 C 
HETATM   18  C8  UNL     1      -4.738 -30.242   9.941  1.00  0.00     0.244 C 
HETATM   19  N3  UNL     1      -3.486 -29.789  10.473  1.00  0.00    -0.072 N 
HETATM   20  C9  UNL     1      -3.440 -30.277  11.837  1.00  0.00     0.265 C 
ATOM     21  H32 UNL     1      -2.679 -30.065   9.912  1.00  0.00     0.277 HD
ATOM     22  H31 UNL     1      -3.349 -28.781  10.395  1.00  0.00     0.277 HD
HETATM   23  C10 UNL     1      -4.849 -29.981  12.313  1.00  0.00     0.219 C 
BRANCH  23  24
HETATM   24  N4  UNL     1      -5.044 -28.561  12.531  1.00  0.00    -0.073 N 
ATOM     25  H43 UNL     1      -4.283 -28.009  12.137  1.00  0.00     0.274 HD
ATOM     26  H42 UNL     1      -5.808 -28.193  11.964  1.00  0.00     0.274 HD
ATOM     27  H41 UNL     1      -5.180 -28.364  13.523  1.00  0.00     0.274 HD
ENDBRANCH  23  24
ENDBRANCH   3  17
TORSDOF 5
ENDMDL
MODEL 3
REMARK VINA RESULT: -5.313384640      4.496      6.761
REMARK  5 active torsions:
REMARK  status: ('A' for Active; 'I' for Inactive)
REMARK    1  A    between atoms: O1_2  and  C2_3 
REMARK    2  A    between atoms: C2_3  and  C3_5 
REMARK    3  A    between atoms: C5_8  and  N2_9 
REMARK    4  A    between atoms: C6_11  and  C7_12 
REMARK    5  A    between atoms: C10_18  and  N4_19 
ROOT
HETATM    1  N2  UNL     1      -7.912 -29.266  12.763  1.00  0.00    -0.354 N 
ATOM      2  H2  UNL     1      -7.706 -28.935  13.705  1.00  0.00     0.166 HD
HETATM    3  C6  UNL     1      -9.039 -28.979  12.229  1.00  0.00     0.071 C 
ENDROOT
BRANCH   1   4
HETATM    4  C5  UNL     1      -6.934 -30.044  12.061  1.00  0.00     0.136 A 
HETATM    5  C4  UNL     1      -6.725 -31.397  12.217  1.00  0.00     0.110 A 
HETATM    6  C3  UNL     1      -5.708 -31.801  11.383  1.00  0.00     0.111 A 
HETATM    7  N1  UNL     1      -7.447 -32.265  13.109  1.00  0.00    -0.097 NA
HETATM    8  C11 UNL     1      -5.291 -30.663  10.703  1.00  0.00     0.126 A 
HETATM    9  N5  UNL     1      -6.051 -29.626  11.138  1.00  0.00    -0.300 N 
HETATM   10  N6  UNL     1      -4.529 -29.879   9.798  1.00  0.00    -0.358 N 
HETATM   11  C12 UNL     1      -5.319 -28.751  10.236  1.00  0.00     0.256 A 
ATOM     12  H6  UNL     1      -3.769 -30.040   9.137  1.00  0.00     0.162 HD
BRANCH   6  13
HETATM   13  C2  UNL     1      -5.180 -33.152  11.244  1.00  0.00     0.298 C 
HETATM   14  O2  UNL     1      -4.041 -33.406  11.707  1.00  0.00    -0.259 OA
BRANCH  13  15
HETATM   15  O1  UNL     1      -5.860 -34.178  10.633  1.00  0.00    -0.322 OA
HETATM   16  C1  UNL     1      -6.712 -33.924   9.532  1.00  0.00     0.213 C 
ENDBRANCH  13  15
ENDBRANCH   6  13
ENDBRANCH   1   4
BRANCH   3  17
HETATM   17  C7  UNL     1      -9.333 -29.462  10.869  1.00  0.00     0.082 C 
HETATM   18  C8  UNL     1     -10.346 -28.518  10.237  1.00  0.00     0.244 C 
HETATM   19  N3  UNL     1     -11.585 -29.234  10.153  1.00  0.00    -0.072 N 
HETATM   20  C9  UNL     1     -11.519 -30.256  11.180  1.00  0.00     0.265 C 
ATOM     21  H32 UNL     1     -12.409 -28.636  10.223  1.00  0.00     0.277 HD
ATOM     22  H31 UNL     1     -11.782 -29.602   9.223  1.00  0.00     0.277 HD
HETATM   23  C10 UNL     1     -10.102 -30.766  11.009  1.00  0.00     0.219 C 
BRANCH  23  24
HETATM   24  N4  UNL     1      -9.972 -31.568   9.808  1.00  0.00    -0.073 N 
ATOM     25  H43 UNL     1      -9.201 -31.250   9.222  1.00  0.00     0.274 HD
ATOM     26  H42 UNL     1      -9.628 -32.506  10.016  1.00  0.00     0.274 HD
ATOM     27  H41 UNL     1     -10.852 -31.593   9.294  1.00  0.00     0.274 HD
ENDBRANCH  23  24
ENDBRANCH   3  17
TORSDOF 5
ENDMDL
MODEL 4
REMARK VINA RESULT: -5.254861866      5.144      7.434
REMARK  5 active torsions:
REMARK  status: ('A' for Active; 'I' for Inactive)
REMARK    1  A    between atoms: O1_2  and  C2_3 
REMARK    2  A    between atoms: C2_3  and  C3_5 
REMARK    3  A    between atoms: C5_8  and  N2_9 
REMARK    4  A    between atoms: C6_11  and  C7_12 
REMARK    5  A    between atoms: C10_18  and  N4_19 
ROOT
HETATM    1  N2  UNL     1      -6.079 -31.040  10.837  1.00  0.00    -0.354 N 
ATOM      2  H2  UNL     1      -5.168 -30.733  10.496  1.00  0.00     0.166 HD
HETATM    3  C6  UNL     1      -7.032 -30.192  10.934  1.00  0.00     0.071 C 
ENDROOT
BRANCH   1   4
HETATM    4  C5  UNL     1      -6.267 -32.414  11.199  1.00  0.00     0.136 A 
HETATM    5  C4  UNL     1      -6.642 -33.425  10.341  1.00  0.00     0.110 A 
HETATM    6  C3  UNL     1      -6.723 -34.608  11.036  1.00  0.00     0.111 A 
HETATM    7  N1  UNL     1      -6.911 -33.280   8.934  1.00  0.00    -0.097 NA
HETATM    8  C11 UNL     1      -6.388 -34.307  12.351  1.00  0.00     0.126 A 
HETATM    9  N5  UNL     1      -6.121 -32.978  12.410  1.00  0.00    -0.300 N 
HETATM   10  N6  UNL     1      -6.142 -34.538  13.729  1.00  0.00    -0.358 N 
HETATM   11  C12 UNL     1      -5.850 -33.127  13.831  1.00  0.00     0.256 A 
ATOM     12  H6  UNL     1      -6.163 -35.339  14.362  1.00  0.00     0.162 HD
BRANCH   6  13
HETATM   13  C2  UNL     1      -7.088 -35.912  10.498  1.00  0.00     0.298 C 
HETATM   14  O2  UNL     1      -8.131 -36.470  10.918  1.00  0.00    -0.259 OA
BRANCH  13  15
HETATM   15  O1  UNL     1      -6.353 -36.576   9.546  1.00  0.00    -0.322 OA
HETATM   16  C1  UNL     1      -6.909 -36.867   8.277  1.00  0.00     0.213 C 
ENDBRANCH  13  15
ENDBRANCH   6  13
ENDBRANCH   1   4
BRANCH   3  17
HETATM   17  C7  UNL     1      -8.344 -30.639  11.430  1.00  0.00     0.082 C 
HETATM   18  C8  UNL     1      -9.251 -30.873  10.231  1.00  0.00     0.244 C 
HETATM   19  N3  UNL     1     -10.233 -29.828  10.242  1.00  0.00    -0.072 N 
HETATM   20  C9  UNL     1      -9.629 -28.730  10.971  1.00  0.00     0.265 C 
ATOM     21  H32 UNL     1     -10.564 -29.569   9.312  1.00  0.00     0.277 HD
ATOM     22  H31 UNL     1     -11.136 -30.119  10.616  1.00  0.00     0.277 HD
HETATM   23  C10 UNL     1      -8.987 -29.457  12.137  1.00  0.00     0.219 C 
BRANCH  23  24
HETATM   24  N4  UNL     1      -9.983 -29.910  13.089  1.00  0.00    -0.073 N 
ATOM     25  H43 UNL     1     -10.797 -29.296  13.105  1.00  0.00     0.274 HD
ATOM     26  H42 UNL     1     -10.443 -30.765  12.776  1.00  0.00     0.274 HD
ATOM     27  H41 UNL     1      -9.572 -30.019  14.016  1.00  0.00     0.274 HD
ENDBRANCH  23  24
ENDBRANCH   3  17
TORSDOF 5
ENDMDL
MODEL 5
REMARK VINA RESULT: -5.174676828      5.113      7.730
REMARK  5 active torsions:
REMARK  status: ('A' for Active; 'I' for Inactive)
REMARK    1  A    between atoms: O1_2  and  C2_3 
REMARK    2  A    between atoms: C2_3  and  C3_5 
REMARK    3  A    between atoms: C5_8  and  N2_9 
REMARK    4  A    between atoms: C6_11  and  C7_12 
REMARK    5  A    between atoms: C10_18  and  N4_19 
ROOT
HETATM    1  N2  UNL     1      -7.676 -29.855  13.053  1.00  0.00    -0.354 N 
ATOM      2  H2  UNL     1      -7.527 -29.701  14.051  1.00  0.00     0.166 HD
HETATM    3  C6  UNL     1      -8.749 -29.424  12.505  1.00  0.00     0.071 C 
ENDROOT
BRANCH   1   4
HETATM    4  C5  UNL     1      -6.681 -30.552  12.293  1.00  0.00     0.136 A 
HETATM    5  C4  UNL     1      -5.564 -29.981  11.722  1.00  0.00     0.110 A 
HETATM    6  C3  UNL     1      -4.837 -30.951  11.072  1.00  0.00     0.111 A 
HETATM    7  N1  UNL     1      -5.201 -28.590  11.787  1.00  0.00    -0.097 NA
HETATM    8  C11 UNL     1      -5.532 -32.141  11.253  1.00  0.00     0.126 A 
HETATM    9  N5  UNL     1      -6.635 -31.860  11.992  1.00  0.00    -0.300 N 
HETATM   10  N6  UNL     1      -5.815 -33.526  11.139  1.00  0.00    -0.358 N 
HETATM   11  C12 UNL     1      -7.000 -33.267  11.924  1.00  0.00     0.256 A 
ATOM     12  H6  UNL     1      -5.379 -34.338  10.701  1.00  0.00     0.162 HD
BRANCH   6  13
HETATM   13  C2  UNL     1      -3.591 -30.762  10.340  1.00  0.00     0.298 C 
HETATM   14  O2  UNL     1      -2.552 -31.329  10.759  1.00  0.00    -0.259 OA
BRANCH  13  15
HETATM   15  O1  UNL     1      -3.482 -29.994   9.207  1.00  0.00    -0.322 OA
HETATM   16  C1  UNL     1      -2.220 -29.523   8.772  1.00  0.00     0.213 C 
ENDBRANCH  13  15
ENDBRANCH   6  13
ENDBRANCH   1   4
BRANCH   3  17
HETATM   17  C7  UNL     1      -8.962 -29.652  11.066  1.00  0.00     0.082 C 
HETATM   18  C8  UNL     1      -9.855 -28.540  10.535  1.00  0.00     0.244 C 
HETATM   19  N3  UNL     1     -11.127 -29.133  10.243  1.00  0.00    -0.072 N 
HETATM   20  C9  UNL     1     -11.213 -30.311  11.083  1.00  0.00     0.265 C 
ATOM     21  H32 UNL     1     -11.913 -28.491  10.356  1.00  0.00     0.277 HD
ATOM     22  H31 UNL     1     -11.270 -29.326   9.252  1.00  0.00     0.277 HD
HETATM   23  C10 UNL     1      -9.823 -30.897  10.928  1.00  0.00     0.219 C 
BRANCH  23  24
HETATM   24  N4  UNL     1      -9.648 -31.498   9.620  1.00  0.00    -0.073 N 
ATOM     25  H43 UNL     1      -9.984 -32.460   9.597  1.00  0.00     0.274 HD
ATOM     26  H42 UNL     1     -10.284 -31.097   8.931  1.00  0.00     0.274 HD
ATOM     27  H41 UNL     1      -8.675 -31.430   9.320  1.00  0.00     0.274 HD
ENDBRANCH  23  24
ENDBRANCH   3  17
TORSDOF 5
ENDMDL
