MODEL 1
REMARK VINA RESULT: -7.513863708      0.000      0.000
REMARK  8 active torsions:
REMARK  status: ('A' for Active; 'I' for Inactive)
REMARK    1  A    between atoms: C2_5  and  N2_6 
REMARK    2  A    between atoms: N2_6  and  C3_8 
REMARK    3  A    between atoms: N5_16  and  C7_17 
REMARK    4  A    between atoms: C7_17  and  C8_18 
REMARK    5  A    between atoms: C8_18  and  O2_19 
REMARK    6  A    between atoms: O2_19  and  C9_20 
REMARK    7  A    between atoms: C9_20  and  C10_21 
REMARK    8  A    between atoms: C10_21  and  C11_22 
ROOT
HETATM    1  O1  UNL     1      15.593   6.289  13.336  1.00  0.00    -0.267 OA
HETATM    2  C1  UNL     1      16.345   5.551  14.016  1.00  0.00     0.275 A 
HETATM    3  N1  UNL     1      15.894   4.615  14.871  1.00  0.00    -0.155 N 
ATOM      4  H1  UNL     1      14.887   4.492  14.978  1.00  0.00     0.187 HD
HETATM    5  C2  UNL     1      16.716   3.838  15.589  1.00  0.00     0.683 A 
HETATM    6  N3  UNL     1      18.037   4.000  15.449  1.00  0.00    -0.174 N 
ATOM      7  H3  UNL     1      18.667   3.411  15.994  1.00  0.00     0.186 HD
HETATM    8  C6  UNL     1      18.568   4.922  14.608  1.00  0.00     0.152 A 
HETATM    9  N4  UNL     1      19.807   5.307  14.263  1.00  0.00    -0.282 N 
ATOM     10  H4  UNL     1      20.669   4.907  14.636  1.00  0.00     0.189 HD
HETATM   11  N5  UNL     1      19.751   6.281  13.370  1.00  0.00    -0.299 N 
HETATM   12  C17 UNL     1      18.485   6.565  13.102  1.00  0.00     0.131 A 
HETATM   13  C18 UNL     1      17.705   5.716  13.874  1.00  0.00     0.095 A 
ENDROOT
BRANCH  11  14
HETATM   14  C7  UNL     1      20.893   6.986  12.738  1.00  0.00     0.174 C 
BRANCH  14  15
HETATM   15  C8  UNL     1      21.522   6.082  11.704  1.00  0.00     0.189 C 
BRANCH  15  16
HETATM   16  O2  UNL     1      21.131   4.840  11.638  1.00  0.00    -0.389 OA
BRANCH  16  17
HETATM   17  C9  UNL     1      20.750   4.040  10.680  1.00  0.00     0.168 C 
BRANCH  17  18
HETATM   18  C10 UNL     1      19.313   3.656  10.501  1.00  0.00     0.031 C 
BRANCH  18  19
HETATM   19  C11 UNL     1      18.880   2.722  11.670  1.00  0.00    -0.013 C 
HETATM   20  C12 UNL     1      19.358   1.348  11.280  1.00  0.00     0.005 C 
HETATM   21  C13 UNL     1      18.205   0.669  10.536  1.00  0.00     0.000 C 
HETATM   22  C14 UNL     1      17.165   0.337  11.575  1.00  0.00     0.000 C 
HETATM   23  C15 UNL     1      16.722   1.587  12.275  1.00  0.00     0.000 C 
HETATM   24  C16 UNL     1      17.399   2.833  11.768  1.00  0.00     0.005 C 
ENDBRANCH  18  19
ENDBRANCH  17  18
ENDBRANCH  16  17
ENDBRANCH  15  16
ENDBRANCH  14  15
ENDBRANCH  11  14
BRANCH   5  25
HETATM   25  N2  UNL     1      16.275   2.950  16.399  1.00  0.00    -0.221 N 
ATOM     26  H2  UNL     1      16.846   2.132  16.613  1.00  0.00     0.178 HD
BRANCH  25  27
HETATM   27  C3  UNL     1      14.971   3.096  17.017  1.00  0.00     0.099 A 
HETATM   28  C4  UNL     1      14.900   2.549  18.430  1.00  0.00     0.028 A 
HETATM   29  C5  UNL     1      14.155   1.894  17.327  1.00  0.00     0.028 A 
ENDBRANCH  25  27
ENDBRANCH   5  25
TORSDOF 8
ENDMDL
MODEL 2
REMARK VINA RESULT: -7.127986394      2.407      5.777
REMARK  8 active torsions:
REMARK  status: ('A' for Active; 'I' for Inactive)
REMARK    1  A    between atoms: C2_5  and  N2_6 
REMARK    2  A    between atoms: N2_6  and  C3_8 
REMARK    3  A    between atoms: N5_16  and  C7_17 
REMARK    4  A    between atoms: C7_17  and  C8_18 
REMARK    5  A    between atoms: C8_18  and  O2_19 
REMARK    6  A    between atoms: O2_19  and  C9_20 
REMARK    7  A    between atoms: C9_20  and  C10_21 
REMARK    8  A    between atoms: C10_21  and  C11_22 
ROOT
HETATM    1  O1  UNL     1      15.997   5.872  10.486  1.00  0.00    -0.267 OA
HETATM    2  C1  UNL     1      17.039   5.696  11.161  1.00  0.00     0.275 A 
HETATM    3  N1  UNL     1      17.810   6.701  11.615  1.00  0.00    -0.155 N 
ATOM      4  H1  UNL     1      17.539   7.661  11.403  1.00  0.00     0.187 HD
HETATM    5  C2  UNL     1      18.920   6.490  12.335  1.00  0.00     0.683 A 
HETATM    6  N3  UNL     1      19.274   5.230  12.612  1.00  0.00    -0.174 N 
ATOM      7  H3  UNL     1      20.119   5.064  13.160  1.00  0.00     0.186 HD
HETATM    8  C6  UNL     1      18.550   4.165  12.190  1.00  0.00     0.152 A 
HETATM    9  N4  UNL     1      18.646   2.830  12.305  1.00  0.00    -0.282 N 
ATOM     10  H4  UNL     1      19.390   2.339  12.801  1.00  0.00     0.189 HD
HETATM   11  N5  UNL     1      17.638   2.243  11.682  1.00  0.00    -0.299 N 
HETATM   12  C17 UNL     1      16.853   3.164  11.142  1.00  0.00     0.131 A 
HETATM   13  C18 UNL     1      17.406   4.400  11.448  1.00  0.00     0.095 A 
ENDROOT
BRANCH  11  14
HETATM   14  C7  UNL     1      17.378   0.787  11.568  1.00  0.00     0.174 C 
BRANCH  14  15
HETATM   15  C8  UNL     1      17.152   0.215  12.947  1.00  0.00     0.189 C 
BRANCH  15  16
HETATM   16  O2  UNL     1      16.699   1.001  13.884  1.00  0.00    -0.389 OA
BRANCH  16  17
HETATM   17  C9  UNL     1      16.994   1.211  15.137  1.00  0.00     0.168 C 
BRANCH  17  18
HETATM   18  C10 UNL     1      15.952   1.625  16.131  1.00  0.00     0.031 C 
BRANCH  18  19
HETATM   19  C11 UNL     1      16.195   3.107  16.545  1.00  0.00    -0.013 C 
HETATM   20  C12 UNL     1      14.896   3.816  16.267  1.00  0.00     0.005 C 
HETATM   21  C13 UNL     1      14.987   4.376  14.846  1.00  0.00     0.000 C 
HETATM   22  C14 UNL     1      15.951   5.534  14.906  1.00  0.00     0.000 C 
HETATM   23  C15 UNL     1      17.283   5.068  15.412  1.00  0.00     0.000 C 
HETATM   24  C16 UNL     1      17.330   3.593  15.713  1.00  0.00     0.005 C 
ENDBRANCH  18  19
ENDBRANCH  17  18
ENDBRANCH  16  17
ENDBRANCH  15  16
ENDBRANCH  14  15
ENDBRANCH  11  14
BRANCH   5  25
HETATM   25  N2  UNL     1      19.645   7.455  12.762  1.00  0.00    -0.221 N 
ATOM     26  H2  UNL     1      20.642   7.473  12.544  1.00  0.00     0.178 HD
BRANCH  25  27
HETATM   27  C3  UNL     1      19.065   8.522  13.554  1.00  0.00     0.099 A 
HETATM   28  C4  UNL     1      20.051   9.194  14.491  1.00  0.00     0.028 A 
HETATM   29  C5  UNL     1      18.938   8.374  15.026  1.00  0.00     0.028 A 
ENDBRANCH  25  27
ENDBRANCH   5  25
TORSDOF 8
ENDMDL
MODEL 3
REMARK VINA RESULT: -7.002958992      2.354      5.367
REMARK  8 active torsions:
REMARK  status: ('A' for Active; 'I' for Inactive)
REMARK    1  A    between atoms: C2_5  and  N2_6 
REMARK    2  A    between atoms: N2_6  and  C3_8 
REMARK    3  A    between atoms: N5_16  and  C7_17 
REMARK    4  A    between atoms: C7_17  and  C8_18 
REMARK    5  A    between atoms: C8_18  and  O2_19 
REMARK    6  A    between atoms: O2_19  and  C9_20 
REMARK    7  A    between atoms: C9_20  and  C10_21 
REMARK    8  A    between atoms: C10_21  and  C11_22 
ROOT
HETATM    1  O1  UNL     1      15.966   6.569  11.475  1.00  0.00    -0.267 OA
HETATM    2  C1  UNL     1      16.932   6.441  12.263  1.00  0.00     0.275 A 
HETATM    3  N1  UNL     1      17.242   7.343  13.213  1.00  0.00    -0.155 N 
ATOM      4  H1  UNL     1      16.665   8.179  13.303  1.00  0.00     0.187 HD
HETATM    5  C2  UNL     1      18.280   7.186  14.045  1.00  0.00     0.683 A 
HETATM    6  N3  UNL     1      19.037   6.089  13.926  1.00  0.00    -0.174 N 
ATOM      7  H3  UNL     1      19.829   5.966  14.558  1.00  0.00     0.186 HD
HETATM    8  C6  UNL     1      18.789   5.136  12.995  1.00  0.00     0.152 A 
HETATM    9  N4  UNL     1      19.349   3.967  12.642  1.00  0.00    -0.282 N 
ATOM     10  H4  UNL     1      20.170   3.555  13.087  1.00  0.00     0.189 HD
HETATM   11  N5  UNL     1      18.684   3.427  11.635  1.00  0.00    -0.299 N 
HETATM   12  C17 UNL     1      17.675   4.215  11.296  1.00  0.00     0.131 A 
HETATM   13  C18 UNL     1      17.713   5.313  12.143  1.00  0.00     0.095 A 
ENDROOT
BRANCH  11  14
HETATM   14  C7  UNL     1      18.979   2.145  10.950  1.00  0.00     0.174 C 
BRANCH  14  15
HETATM   15  C8  UNL     1      18.117   1.056  11.542  1.00  0.00     0.189 C 
BRANCH  15  16
HETATM   16  O2  UNL     1      17.871   1.080  12.823  1.00  0.00    -0.389 OA
BRANCH  16  17
HETATM   17  C9  UNL     1      16.868   1.460  13.565  1.00  0.00     0.168 C 
BRANCH  17  18
HETATM   18  C10 UNL     1      16.868   1.259  15.050  1.00  0.00     0.031 C 
BRANCH  18  19
HETATM   19  C11 UNL     1      16.840   2.646  15.758  1.00  0.00    -0.013 C 
HETATM   20  C12 UNL     1      16.141   2.410  17.070  1.00  0.00     0.005 C 
HETATM   21  C13 UNL     1      14.653   2.686  16.841  1.00  0.00     0.000 C 
HETATM   22  C14 UNL     1      14.515   4.181  16.696  1.00  0.00     0.000 C 
HETATM   23  C15 UNL     1      15.359   4.666  15.556  1.00  0.00     0.000 C 
HETATM   24  C16 UNL     1      16.104   3.565  14.847  1.00  0.00     0.005 C 
ENDBRANCH  18  19
ENDBRANCH  17  18
ENDBRANCH  16  17
ENDBRANCH  15  16
ENDBRANCH  14  15
ENDBRANCH  11  14
BRANCH   5  25
HETATM   25  N2  UNL     1      18.565   8.051  14.945  1.00  0.00    -0.221 N 
ATOM     26  H2  UNL     1      17.955   8.156  15.757  1.00  0.00     0.178 HD
BRANCH  25  27
HETATM   27  C3  UNL     1      19.746   8.884  14.823  1.00  0.00     0.099 A 
HETATM   28  C4  UNL     1      20.123   9.602  16.105  1.00  0.00     0.028 A 
HETATM   29  C5  UNL     1      19.631  10.360  14.930  1.00  0.00     0.028 A 
ENDBRANCH  25  27
ENDBRANCH   5  25
TORSDOF 8
ENDMDL
MODEL 4
REMARK VINA RESULT: -6.894015787      2.319      6.240
REMARK  8 active torsions:
REMARK  status: ('A' for Active; 'I' for Inactive)
REMARK    1  A    between atoms: C2_5  and  N2_6 
REMARK    2  A    between atoms: N2_6  and  C3_8 
REMARK    3  A    between atoms: N5_16  and  C7_17 
REMARK    4  A    between atoms: C7_17  and  C8_18 
REMARK    5  A    between atoms: C8_18  and  O2_19 
REMARK    6  A    between atoms: O2_19  and  C9_20 
REMARK    7  A    between atoms: C9_20  and  C10_21 
REMARK    8  A    between atoms: C10_21  and  C11_22 
ROOT
HETATM    1  O1  UNL     1      22.331   4.374  10.212  1.00  0.00    -0.267 OA
HETATM    2  C1  UNL     1      21.455   4.745  11.029  1.00  0.00     0.275 A 
HETATM    3  N1  UNL     1      21.476   5.938  11.652  1.00  0.00    -0.155 N 
ATOM      4  H1  UNL     1      22.242   6.581  11.455  1.00  0.00     0.187 HD
HETATM    5  C2  UNL     1      20.528   6.313  12.521  1.00  0.00     0.683 A 
HETATM    6  N3  UNL     1      19.523   5.468  12.780  1.00  0.00    -0.174 N 
ATOM      7  H3  UNL     1      18.800   5.750  13.442  1.00  0.00     0.186 HD
HETATM    8  C6  UNL     1      19.434   4.250  12.193  1.00  0.00     0.152 A 
HETATM    9  N4  UNL     1      18.576   3.217  12.247  1.00  0.00    -0.282 N 
ATOM     10  H4  UNL     1      17.735   3.186  12.824  1.00  0.00     0.189 HD
HETATM   11  N5  UNL     1      18.978   2.247  11.444  1.00  0.00    -0.299 N 
HETATM   12  C17 UNL     1      20.103   2.605  10.842  1.00  0.00     0.131 A 
HETATM   13  C18 UNL     1      20.420   3.877  11.297  1.00  0.00     0.095 A 
ENDROOT
BRANCH  11  14
HETATM   14  C7  UNL     1      18.318   0.938  11.218  1.00  0.00     0.174 C 
BRANCH  14  15
HETATM   15  C8  UNL     1      16.990   0.921  11.938  1.00  0.00     0.189 C 
BRANCH  15  16
HETATM   16  O2  UNL     1      16.983   0.767  13.232  1.00  0.00    -0.389 OA
BRANCH  16  17
HETATM   17  C9  UNL     1      16.788   1.551  14.256  1.00  0.00     0.168 C 
BRANCH  17  18
HETATM   18  C10 UNL     1      16.858   1.040  15.663  1.00  0.00     0.031 C 
BRANCH  18  19
HETATM   19  C11 UNL     1      16.496   2.191  16.648  1.00  0.00    -0.013 C 
HETATM   20  C12 UNL     1      15.582   1.568  17.669  1.00  0.00     0.005 C 
HETATM   21  C13 UNL     1      14.149   1.771  17.171  1.00  0.00     0.000 C 
HETATM   22  C14 UNL     1      13.840   3.236  17.351  1.00  0.00     0.000 C 
HETATM   23  C15 UNL     1      14.824   4.066  16.584  1.00  0.00     0.000 C 
HETATM   24  C16 UNL     1      15.843   3.250  15.831  1.00  0.00     0.005 C 
ENDBRANCH  18  19
ENDBRANCH  17  18
ENDBRANCH  16  17
ENDBRANCH  15  16
ENDBRANCH  14  15
ENDBRANCH  11  14
BRANCH   5  25
HETATM   25  N2  UNL     1      20.558   7.451  13.108  1.00  0.00    -0.221 N 
ATOM     26  H2  UNL     1      21.452   7.920  13.257  1.00  0.00     0.178 HD
BRANCH  25  27
HETATM   27  C3  UNL     1      19.333   8.082  13.562  1.00  0.00     0.099 A 
HETATM   28  C4  UNL     1      19.537   9.471  14.137  1.00  0.00     0.028 A 
HETATM   29  C5  UNL     1      19.122   8.345  15.008  1.00  0.00     0.028 A 
ENDBRANCH  25  27
ENDBRANCH   5  25
TORSDOF 8
ENDMDL
MODEL 5
REMARK VINA RESULT: -6.874479003      2.774      5.941
REMARK  8 active torsions:
REMARK  status: ('A' for Active; 'I' for Inactive)
REMARK    1  A    between atoms: C2_5  and  N2_6 
REMARK    2  A    between atoms: N2_6  and  C3_8 
REMARK    3  A    between atoms: N5_16  and  C7_17 
REMARK    4  A    between atoms: C7_17  and  C8_18 
REMARK    5  A    between atoms: C8_18  and  O2_19 
REMARK    6  A    between atoms: O2_19  and  C9_20 
REMARK    7  A    between atoms: C9_20  and  C10_21 
REMARK    8  A    between atoms: C10_21  and  C11_22 
ROOT
HETATM    1  O1  UNL     1      20.481   5.685  12.152  1.00  0.00    -0.267 OA
HETATM    2  C1  UNL     1      19.248   5.748  11.933  1.00  0.00     0.275 A 
HETATM    3  N1  UNL     1      18.553   6.901  11.916  1.00  0.00    -0.155 N 
ATOM      4  H1  UNL     1      19.049   7.775  12.091  1.00  0.00     0.187 HD
HETATM    5  C2  UNL     1      17.235   6.945  11.679  1.00  0.00     0.683 A 
HETATM    6  N3  UNL     1      16.586   5.797  11.450  1.00  0.00    -0.174 N 
ATOM      7  H3  UNL     1      15.582   5.826  11.269  1.00  0.00     0.186 HD
HETATM    8  C6  UNL     1      17.216   4.597  11.451  1.00  0.00     0.152 A 
HETATM    9  N4  UNL     1      16.849   3.319  11.261  1.00  0.00    -0.282 N 
ATOM     10  H4  UNL     1      15.899   3.008  11.058  1.00  0.00     0.189 HD
HETATM   11  N5  UNL     1      17.897   2.521  11.377  1.00  0.00    -0.299 N 
HETATM   12  C17 UNL     1      18.977   3.241  11.644  1.00  0.00     0.131 A 
HETATM   13  C18 UNL     1      18.577   4.569  11.697  1.00  0.00     0.095 A 
ENDROOT
BRANCH  11  14
HETATM   14  C7  UNL     1      17.919   1.044  11.244  1.00  0.00     0.174 C 
BRANCH  14  15
HETATM   15  C8  UNL     1      17.112   0.433  12.365  1.00  0.00     0.189 C 
BRANCH  15  16
HETATM   16  O2  UNL     1      16.654   1.214  13.303  1.00  0.00    -0.389 OA
BRANCH  16  17
HETATM   17  C9  UNL     1      17.089   1.616  14.466  1.00  0.00     0.168 C 
BRANCH  17  18
HETATM   18  C10 UNL     1      16.154   1.876  15.608  1.00  0.00     0.031 C 
BRANCH  18  19
HETATM   19  C11 UNL     1      16.426   3.298  16.182  1.00  0.00    -0.013 C 
HETATM   20  C12 UNL     1      15.082   3.975  16.223  1.00  0.00     0.005 C 
HETATM   21  C13 UNL     1      14.919   4.726  14.899  1.00  0.00     0.000 C 
HETATM   22  C14 UNL     1      15.849   5.910  14.964  1.00  0.00     0.000 C 
HETATM   23  C15 UNL     1      17.259   5.445  15.176  1.00  0.00     0.000 C 
HETATM   24  C16 UNL     1      17.392   3.946  15.254  1.00  0.00     0.005 C 
ENDBRANCH  18  19
ENDBRANCH  17  18
ENDBRANCH  16  17
ENDBRANCH  15  16
ENDBRANCH  14  15
ENDBRANCH  11  14
BRANCH   5  25
HETATM   25  N2  UNL     1      16.585   8.048  11.665  1.00  0.00    -0.221 N 
ATOM     26  H2  UNL     1      16.958   8.861  12.156  1.00  0.00     0.178 HD
BRANCH  25  27
HETATM   27  C3  UNL     1      15.323   8.154  10.958  1.00  0.00     0.099 A 
HETATM   28  C4  UNL     1      14.729   9.550  10.972  1.00  0.00     0.028 A 
HETATM   29  C5  UNL     1      14.072   8.441  11.705  1.00  0.00     0.028 A 
ENDBRANCH  25  27
ENDBRANCH   5  25
TORSDOF 8
ENDMDL
