MODEL 1
REMARK VINA RESULT: -5.862044747      0.000      0.000
REMARK  6 active torsions:
REMARK  status: ('A' for Active; 'I' for Inactive)
REMARK    1  A    between atoms: C2_2  and  O1_3 
REMARK    2  A    between atoms: C2_2  and  C3_5 
REMARK    3  A    between atoms: C3_5  and  N1_7 
REMARK    4  A    between atoms: S1_14  and  C8_15 
REMARK    5  A    between atoms: C8_15  and  C9_16 
REMARK    6  A    between atoms: C9_16  and  N3_17 
ROOT
HETATM    1  N1  UNL     1      -1.580   5.198  85.248  1.00  0.00    -0.365 N 
ATOM      2  H1  UNL     1      -2.476   5.081  84.773  1.00  0.00     0.162 HD
HETATM    3  C5  UNL     1      -0.828   6.111  84.792  1.00  0.00     0.126 C 
HETATM    4  N2  UNL     1       0.454   6.502  85.236  1.00  0.00    -0.371 N 
ATOM      5  H2  UNL     1       0.834   6.260  86.151  1.00  0.00     0.161 HD
HETATM    6  C6  UNL     1       1.162   7.272  84.266  1.00  0.00     0.131 C 
HETATM    7  C7  UNL     1       0.185   8.285  83.665  1.00  0.00     0.091 C 
HETATM    8  S1  UNL     1      -1.209   7.153  83.444  1.00  0.00    -0.150 SA
ENDROOT
BRANCH   1   9
HETATM    9  C3  UNL     1      -1.333   4.313  86.342  1.00  0.00     0.107 C 
HETATM   10  C4  UNL     1      -0.912   2.974  85.826  1.00  0.00     0.035 C 
BRANCH   9  11
HETATM   11  C2  UNL     1      -2.617   4.117  87.118  1.00  0.00     0.136 C 
HETATM   12  C1  UNL     1      -3.491   5.346  86.974  1.00  0.00     0.041 C 
BRANCH  11  13
HETATM   13  O1  UNL     1      -3.349   3.038  86.621  1.00  0.00    -0.394 OA
ATOM     14  H1  UNL     1      -2.798   2.601  85.983  1.00  0.00     0.210 HD
ENDBRANCH  11  13
ENDBRANCH   9  11
ENDBRANCH   1   9
BRANCH   8  15
HETATM   15  C8  UNL     1      -0.873   6.260  81.944  1.00  0.00     0.101 C 
BRANCH  15  16
HETATM   16  C9  UNL     1      -0.328   4.900  82.290  1.00  0.00     0.281 C 
BRANCH  16  17
HETATM   17  N3  UNL     1      -1.307   3.859  82.061  1.00  0.00     0.080 N 
HETATM   18  C10 UNL     1      -1.739   3.830  80.675  1.00  0.00     0.309 C 
HETATM   19  C11 UNL     1      -0.776   2.541  82.357  1.00  0.00     0.309 C 
ENDBRANCH  16  17
ENDBRANCH  15  16
ENDBRANCH   8  15
TORSDOF 6
ENDMDL
MODEL 2
REMARK VINA RESULT: -5.784284815      2.417      4.658
REMARK  6 active torsions:
REMARK  status: ('A' for Active; 'I' for Inactive)
REMARK    1  A    between atoms: C2_2  and  O1_3 
REMARK    2  A    between atoms: C2_2  and  C3_5 
REMARK    3  A    between atoms: C3_5  and  N1_7 
REMARK    4  A    between atoms: S1_14  and  C8_15 
REMARK    5  A    between atoms: C8_15  and  C9_16 
REMARK    6  A    between atoms: C9_16  and  N3_17 
ROOT
HETATM    1  N1  UNL     1      -0.748   6.161  85.365  1.00  0.00    -0.365 N 
ATOM      2  H1  UNL     1      -0.605   6.776  86.166  1.00  0.00     0.162 HD
HETATM    3  C5  UNL     1      -0.030   6.399  84.348  1.00  0.00     0.126 C 
HETATM    4  N2  UNL     1      -0.005   5.725  83.107  1.00  0.00    -0.371 N 
ATOM      5  H2  UNL     1      -0.392   4.792  82.962  1.00  0.00     0.161 HD
HETATM    6  C6  UNL     1       0.620   6.490  82.077  1.00  0.00     0.131 C 
HETATM    7  C7  UNL     1       1.883   7.125  82.664  1.00  0.00     0.091 C 
HETATM    8  S1  UNL     1       1.157   7.673  84.228  1.00  0.00    -0.150 SA
ENDROOT
BRANCH   1   9
HETATM    9  C3  UNL     1      -1.734   5.140  85.531  1.00  0.00     0.107 C 
HETATM   10  C4  UNL     1      -3.024   5.749  85.980  1.00  0.00     0.035 C 
BRANCH   9  11
HETATM   11  C2  UNL     1      -1.279   4.188  86.616  1.00  0.00     0.136 C 
HETATM   12  C1  UNL     1      -2.444   3.327  87.059  1.00  0.00     0.041 C 
BRANCH  11  13
HETATM   13  O1  UNL     1      -0.290   3.323  86.147  1.00  0.00    -0.394 OA
ATOM     14  H1  UNL     1      -0.422   3.233  85.211  1.00  0.00     0.210 HD
ENDBRANCH  11  13
ENDBRANCH   9  11
ENDBRANCH   1   9
BRANCH   8  15
HETATM   15  C8  UNL     1       0.305   9.188  83.859  1.00  0.00     0.101 C 
BRANCH  15  16
HETATM   16  C9  UNL     1       1.279  10.172  83.269  1.00  0.00     0.281 C 
BRANCH  16  17
HETATM   17  N3  UNL     1       2.286  10.567  84.229  1.00  0.00     0.080 N 
HETATM   18  C10 UNL     1       3.283  11.435  83.628  1.00  0.00     0.309 C 
HETATM   19  C11 UNL     1       1.715  11.304  85.343  1.00  0.00     0.309 C 
ENDBRANCH  16  17
ENDBRANCH  15  16
ENDBRANCH   8  15
TORSDOF 6
ENDMDL
MODEL 3
REMARK VINA RESULT: -5.718842382      1.795      2.561
REMARK  6 active torsions:
REMARK  status: ('A' for Active; 'I' for Inactive)
REMARK    1  A    between atoms: C2_2  and  O1_3 
REMARK    2  A    between atoms: C2_2  and  C3_5 
REMARK    3  A    between atoms: C3_5  and  N1_7 
REMARK    4  A    between atoms: S1_14  and  C8_15 
REMARK    5  A    between atoms: C8_15  and  C9_16 
REMARK    6  A    between atoms: C9_16  and  N3_17 
ROOT
HETATM    1  N1  UNL     1      -1.516   5.426  85.738  1.00  0.00    -0.365 N 
ATOM      2  H1  UNL     1      -2.509   5.656  85.708  1.00  0.00     0.162 HD
HETATM    3  C5  UNL     1      -0.728   6.314  85.295  1.00  0.00     0.126 C 
HETATM    4  N2  UNL     1       0.681   6.282  85.209  1.00  0.00    -0.371 N 
ATOM      5  H2  UNL     1       1.265   5.629  85.733  1.00  0.00     0.161 HD
HETATM    6  C6  UNL     1       1.201   7.261  84.311  1.00  0.00     0.131 C 
HETATM    7  C7  UNL     1       0.448   8.571  84.555  1.00  0.00     0.091 C 
HETATM    8  S1  UNL     1      -1.214   7.863  84.653  1.00  0.00    -0.150 SA
ENDROOT
BRANCH   1   9
HETATM    9  C3  UNL     1      -1.189   4.142  86.276  1.00  0.00     0.107 C 
HETATM   10  C4  UNL     1      -1.103   3.138  85.172  1.00  0.00     0.035 C 
BRANCH   9  11
HETATM   11  C2  UNL     1      -2.296   3.701  87.207  1.00  0.00     0.136 C 
HETATM   12  C1  UNL     1      -3.597   4.365  86.803  1.00  0.00     0.041 C 
BRANCH  11  13
HETATM   13  O1  UNL     1      -2.503   2.324  87.131  1.00  0.00    -0.394 OA
ATOM     14  H1  UNL     1      -1.660   1.928  86.947  1.00  0.00     0.210 HD
ENDBRANCH  11  13
ENDBRANCH   9  11
ENDBRANCH   1   9
BRANCH   8  15
HETATM   15  C8  UNL     1      -1.736   7.624  82.971  1.00  0.00     0.101 C 
BRANCH  15  16
HETATM   16  C9  UNL     1      -1.343   8.827  82.156  1.00  0.00     0.281 C 
BRANCH  16  17
HETATM   17  N3  UNL     1      -0.688   8.446  80.924  1.00  0.00     0.080 N 
HETATM   18  C10 UNL     1       0.635   9.036  80.820  1.00  0.00     0.309 C 
HETATM   19  C11 UNL     1      -0.509   7.009  80.826  1.00  0.00     0.309 C 
ENDBRANCH  16  17
ENDBRANCH  15  16
ENDBRANCH   8  15
TORSDOF 6
ENDMDL
MODEL 4
REMARK VINA RESULT: -5.676338775      2.251      3.119
REMARK  6 active torsions:
REMARK  status: ('A' for Active; 'I' for Inactive)
REMARK    1  A    between atoms: C2_2  and  O1_3 
REMARK    2  A    between atoms: C2_2  and  C3_5 
REMARK    3  A    between atoms: C3_5  and  N1_7 
REMARK    4  A    between atoms: S1_14  and  C8_15 
REMARK    5  A    between atoms: C8_15  and  C9_16 
REMARK    6  A    between atoms: C9_16  and  N3_17 
ROOT
HETATM    1  N1  UNL     1      -1.449   5.480  85.594  1.00  0.00    -0.365 N 
ATOM      2  H1  UNL     1      -2.441   5.704  85.515  1.00  0.00     0.162 HD
HETATM    3  C5  UNL     1      -0.646   6.375  85.194  1.00  0.00     0.126 C 
HETATM    4  N2  UNL     1       0.766   6.352  85.180  1.00  0.00    -0.371 N 
ATOM      5  H2  UNL     1       1.327   5.700  85.730  1.00  0.00     0.161 HD
HETATM    6  C6  UNL     1       1.325   7.337  84.312  1.00  0.00     0.131 C 
HETATM    7  C7  UNL     1       0.552   8.641  84.523  1.00  0.00     0.091 C 
HETATM    8  S1  UNL     1      -1.108   7.924  84.535  1.00  0.00    -0.150 SA
ENDROOT
BRANCH   1   9
HETATM    9  C3  UNL     1      -1.142   4.197  86.143  1.00  0.00     0.107 C 
HETATM   10  C4  UNL     1      -1.090   3.178  85.050  1.00  0.00     0.035 C 
BRANCH   9  11
HETATM   11  C2  UNL     1      -2.246   3.789  87.093  1.00  0.00     0.136 C 
HETATM   12  C1  UNL     1      -3.532   4.495  86.713  1.00  0.00     0.041 C 
BRANCH  11  13
HETATM   13  O1  UNL     1      -2.498   2.419  87.018  1.00  0.00    -0.394 OA
ATOM     14  H1  UNL     1      -3.231   2.305  86.425  1.00  0.00     0.210 HD
ENDBRANCH  11  13
ENDBRANCH   9  11
ENDBRANCH   1   9
BRANCH   8  15
HETATM   15  C8  UNL     1      -1.543   7.688  82.827  1.00  0.00     0.101 C 
BRANCH  15  16
HETATM   16  C9  UNL     1      -1.254   8.953  82.064  1.00  0.00     0.281 C 
BRANCH  16  17
HETATM   17  N3  UNL     1      -2.174   9.134  80.962  1.00  0.00     0.080 N 
HETATM   18  C10 UNL     1      -3.155  10.165  81.251  1.00  0.00     0.309 C 
HETATM   19  C11 UNL     1      -1.490   9.541  79.747  1.00  0.00     0.309 C 
ENDBRANCH  16  17
ENDBRANCH  15  16
ENDBRANCH   8  15
TORSDOF 6
ENDMDL
MODEL 5
REMARK VINA RESULT: -5.604583267      1.703      4.015
REMARK  6 active torsions:
REMARK  status: ('A' for Active; 'I' for Inactive)
REMARK    1  A    between atoms: C2_2  and  O1_3 
REMARK    2  A    between atoms: C2_2  and  C3_5 
REMARK    3  A    between atoms: C3_5  and  N1_7 
REMARK    4  A    between atoms: S1_14  and  C8_15 
REMARK    5  A    between atoms: C8_15  and  C9_16 
REMARK    6  A    between atoms: C9_16  and  N3_17 
ROOT
HETATM    1  N1  UNL     1      -1.628   5.745  85.380  1.00  0.00    -0.365 N 
ATOM      2  H1  UNL     1      -1.367   6.498  86.017  1.00  0.00     0.162 HD
HETATM    3  C5  UNL     1      -1.065   5.760  84.244  1.00  0.00     0.126 C 
HETATM    4  N2  UNL     1      -1.224   4.860  83.168  1.00  0.00    -0.371 N 
ATOM      5  H2  UNL     1      -1.631   3.929  83.265  1.00  0.00     0.161 HD
HETATM    6  C6  UNL     1      -0.754   5.392  81.931  1.00  0.00     0.131 C 
HETATM    7  C7  UNL     1       0.582   6.089  82.195  1.00  0.00     0.091 C 
HETATM    8  S1  UNL     1       0.095   6.950  83.710  1.00  0.00    -0.150 SA
ENDROOT
BRANCH   1   9
HETATM    9  C3  UNL     1      -2.581   4.806  85.882  1.00  0.00     0.107 C 
HETATM   10  C4  UNL     1      -3.383   5.433  86.977  1.00  0.00     0.035 C 
BRANCH   9  11
HETATM   11  C2  UNL     1      -1.845   3.626  86.477  1.00  0.00     0.136 C 
HETATM   12  C1  UNL     1      -2.666   3.026  87.600  1.00  0.00     0.041 C 
BRANCH  11  13
HETATM   13  O1  UNL     1      -1.654   2.619  85.531  1.00  0.00    -0.394 OA
ATOM     14  H1  UNL     1      -2.501   2.446  85.137  1.00  0.00     0.210 HD
ENDBRANCH  11  13
ENDBRANCH   9  11
ENDBRANCH   1   9
BRANCH   8  15
HETATM   15  C8  UNL     1      -0.799   8.391  83.178  1.00  0.00     0.101 C 
BRANCH  15  16
HETATM   16  C9  UNL     1       0.181   9.480  82.832  1.00  0.00     0.281 C 
BRANCH  16  17
HETATM   17  N3  UNL     1       1.356   9.429  83.673  1.00  0.00     0.080 N 
HETATM   18  C10 UNL     1       2.567   9.679  82.912  1.00  0.00     0.309 C 
HETATM   19  C11 UNL     1       1.315  10.429  84.725  1.00  0.00     0.309 C 
ENDBRANCH  16  17
ENDBRANCH  15  16
ENDBRANCH   8  15
TORSDOF 6
ENDMDL
