MODEL 1
REMARK VINA RESULT: -8.161429695      0.000      0.000
REMARK  8 active torsions:
REMARK  status: ('A' for Active; 'I' for Inactive)
REMARK    1  A    between atoms: C2_4  and  C3_5 
REMARK    2  A    between atoms: C2_4  and  N5_24 
REMARK    3  A    between atoms: C3_5  and  N2_6 
REMARK    4  A    between atoms: N2_6  and  C4_8 
REMARK    5  A    between atoms: C8_15  and  N4_16 
REMARK    6  A    between atoms: N5_24  and  C13_26 
REMARK    7  A    between atoms: C18_33  and  O3_34 
REMARK    8  A    between atoms: C20_36  and  O4_37 
ROOT
HETATM    1  C1  UNL     1      25.781  -6.532   6.287  1.00  0.00     0.147 C 
HETATM    2  N1  UNL     1      25.331  -5.951   7.521  1.00  0.00    -0.383 N 
ATOM      3  H1  UNL     1      25.797  -6.236   8.383  1.00  0.00     0.160 HD
HETATM    4  C2  UNL     1      24.375  -5.092   7.605  1.00  0.00     0.095 C 
ENDROOT
BRANCH   4   5
HETATM    5  C3  UNL     1      23.712  -4.692   6.332  1.00  0.00     0.196 C 
BRANCH   5   6
HETATM    6  N2  UNL     1      22.523  -3.949   6.609  1.00  0.00    -0.382 N 
ATOM      7  H2  UNL     1      21.706  -4.396   7.026  1.00  0.00     0.160 HD
BRANCH   6   8
HETATM    8  C4  UNL     1      22.519  -2.684   6.309  1.00  0.00     0.044 A 
HETATM    9  C5  UNL     1      23.681  -2.013   6.021  1.00  0.00     0.072 A 
HETATM   10  C6  UNL     1      23.616  -0.678   5.714  1.00  0.00     0.106 A 
HETATM   11 CL1  UNL     1      25.059   0.256   5.333  1.00  0.00    -0.064 Cl
HETATM   12  N3  UNL     1      22.431   0.004   5.685  1.00  0.00    -0.344 N 
HETATM   13  C7  UNL     1      21.286  -0.636   5.963  1.00  0.00     0.079 A 
ATOM     14  H3  UNL     1      22.418   0.997   5.454  1.00  0.00     0.167 HD
HETATM   15  C8  UNL     1      20.067   0.023   5.950  1.00  0.00     0.132 A 
HETATM   16  C12 UNL     1      21.307  -1.984   6.278  1.00  0.00     0.021 A 
HETATM   17  C9  UNL     1      18.911  -0.685   6.255  1.00  0.00     0.062 A 
HETATM   18  C10 UNL     1      18.958  -2.022   6.566  1.00  0.00     0.037 A 
HETATM   19 CL2  UNL     1      17.464  -2.883   6.948  1.00  0.00    -0.084 Cl
HETATM   20  C11 UNL     1      20.168  -2.674   6.578  1.00  0.00     0.040 A 
BRANCH  15  21
HETATM   21  N4  UNL     1      19.913   1.380   5.647  1.00  0.00    -0.113 N 
HETATM   22  O1  UNL     1      19.109   1.651   4.678  1.00  0.00    -0.532 OA
HETATM   23  O2  UNL     1      20.476   2.468   6.222  1.00  0.00    -0.532 OA
ENDBRANCH  15  21
ENDBRANCH   6   8
ENDBRANCH   5   6
ENDBRANCH   4   5
BRANCH   4  24
HETATM   24  N5  UNL     1      23.925  -4.497   8.801  1.00  0.00    -0.344 N 
ATOM     25  H5  UNL     1      23.521  -3.561   8.766  1.00  0.00     0.167 HD
BRANCH  24  26
HETATM   26  C13 UNL     1      24.007  -5.091   9.924  1.00  0.00     0.047 A 
HETATM   27  C14 UNL     1      23.402  -6.284  10.233  1.00  0.00     0.047 A 
HETATM   28  C15 UNL     1      23.605  -6.796  11.510  1.00  0.00     0.090 A 
HETATM   29  N6  UNL     1      24.355  -6.189  12.444  1.00  0.00    -0.365 N 
HETATM   30  C16 UNL     1      24.957  -5.030  12.173  1.00  0.00     0.047 A 
ATOM     31  H6  UNL     1      24.465  -6.616  13.364  1.00  0.00     0.165 HD
HETATM   32  C17 UNL     1      25.735  -4.372  13.114  1.00  0.00     0.070 A 
HETATM   33  C23 UNL     1      24.786  -4.471  10.906  1.00  0.00     0.020 A 
HETATM   34  C18 UNL     1      26.334  -3.172  12.792  1.00  0.00     0.103 A 
HETATM   35  C20 UNL     1      26.185  -2.595  11.552  1.00  0.00     0.102 A 
HETATM   36  C22 UNL     1      25.405  -3.267  10.629  1.00  0.00     0.055 A 
BRANCH  34  37
HETATM   37  O3  UNL     1      27.099  -2.530  13.727  1.00  0.00    -0.353 OA
HETATM   38  C19 UNL     1      27.389  -3.073  15.016  1.00  0.00     0.210 C 
ENDBRANCH  34  37
BRANCH  35  39
HETATM   39  O4  UNL     1      26.786  -1.380  11.214  1.00  0.00    -0.353 OA
HETATM   40  C21 UNL     1      27.907  -1.351  10.347  1.00  0.00     0.210 C 
ENDBRANCH  35  39
ENDBRANCH  24  26
ENDBRANCH   4  24
TORSDOF 8
ENDMDL
MODEL 2
REMARK VINA RESULT: -7.803321580      3.978      8.646
REMARK  8 active torsions:
REMARK  status: ('A' for Active; 'I' for Inactive)
REMARK    1  A    between atoms: C2_4  and  C3_5 
REMARK    2  A    between atoms: C2_4  and  N5_24 
REMARK    3  A    between atoms: C3_5  and  N2_6 
REMARK    4  A    between atoms: N2_6  and  C4_8 
REMARK    5  A    between atoms: C8_15  and  N4_16 
REMARK    6  A    between atoms: N5_24  and  C13_26 
REMARK    7  A    between atoms: C18_33  and  O3_34 
REMARK    8  A    between atoms: C20_36  and  O4_37 
ROOT
HETATM    1  C1  UNL     1      25.274  -0.096   5.880  1.00  0.00     0.147 C 
HETATM    2  N1  UNL     1      24.009   0.247   6.465  1.00  0.00    -0.383 N 
ATOM      3  H1  UNL     1      23.889   1.192   6.830  1.00  0.00     0.160 HD
HETATM    4  C2  UNL     1      23.015  -0.568   6.557  1.00  0.00     0.095 C 
ENDROOT
BRANCH   4   5
HETATM    5  C3  UNL     1      23.216  -1.942   6.017  1.00  0.00     0.196 C 
BRANCH   5   6
HETATM    6  N2  UNL     1      23.571  -2.838   7.072  1.00  0.00    -0.382 N 
ATOM      7  H2  UNL     1      23.885  -2.489   7.977  1.00  0.00     0.160 HD
BRANCH   6   8
HETATM    8  C4  UNL     1      23.481  -4.114   6.836  1.00  0.00     0.044 A 
HETATM    9  C5  UNL     1      23.466  -4.605   5.554  1.00  0.00     0.072 A 
HETATM   10  C6  UNL     1      23.367  -5.960   5.365  1.00  0.00     0.106 A 
HETATM   11 CL1  UNL     1      23.341  -6.671   3.756  1.00  0.00    -0.064 Cl
HETATM   12  N3  UNL     1      23.283  -6.834   6.414  1.00  0.00    -0.344 N 
HETATM   13  C7  UNL     1      23.297  -6.372   7.672  1.00  0.00     0.079 A 
ATOM     14  H3  UNL     1      23.209  -7.836   6.239  1.00  0.00     0.167 HD
HETATM   15  C8  UNL     1      23.206  -7.227   8.758  1.00  0.00     0.132 A 
HETATM   16  C12 UNL     1      23.395  -5.010   7.906  1.00  0.00     0.021 A 
HETATM   17  C9  UNL     1      23.215  -6.695  10.042  1.00  0.00     0.062 A 
HETATM   18  C10 UNL     1      23.313  -5.341  10.248  1.00  0.00     0.037 A 
HETATM   19 CL2  UNL     1      23.320  -4.707  11.897  1.00  0.00    -0.084 Cl
HETATM   20  C11 UNL     1      23.403  -4.494   9.170  1.00  0.00     0.040 A 
BRANCH  15  21
HETATM   21  N4  UNL     1      23.103  -8.619   8.654  1.00  0.00    -0.113 N 
HETATM   22  O1  UNL     1      22.122  -9.057   7.945  1.00  0.00    -0.532 OA
HETATM   23  O2  UNL     1      23.885  -9.589   9.182  1.00  0.00    -0.532 OA
ENDBRANCH  15  21
ENDBRANCH   6   8
ENDBRANCH   5   6
ENDBRANCH   4   5
BRANCH   4  24
HETATM   24  N5  UNL     1      21.759  -0.252   7.113  1.00  0.00    -0.344 N 
ATOM     25  H5  UNL     1      21.597  -0.434   8.103  1.00  0.00     0.167 HD
BRANCH  24  26
HETATM   26  C13 UNL     1      20.820   0.254   6.418  1.00  0.00     0.047 A 
HETATM   27  C14 UNL     1      20.769   1.556   5.987  1.00  0.00     0.047 A 
HETATM   28  C15 UNL     1      19.669   1.940   5.227  1.00  0.00     0.090 A 
HETATM   29  N6  UNL     1      18.667   1.108   4.896  1.00  0.00    -0.365 N 
HETATM   30  C16 UNL     1      18.690  -0.163   5.299  1.00  0.00     0.047 A 
ATOM     31  H6  UNL     1      17.887   1.451   4.336  1.00  0.00     0.165 HD
HETATM   32  C17 UNL     1      17.671  -1.049   4.980  1.00  0.00     0.070 A 
HETATM   33  C23 UNL     1      19.771  -0.600   6.065  1.00  0.00     0.020 A 
HETATM   34  C18 UNL     1      17.732  -2.354   5.423  1.00  0.00     0.103 A 
HETATM   35  C20 UNL     1      18.784  -2.816   6.180  1.00  0.00     0.102 A 
HETATM   36  C22 UNL     1      19.789  -1.917   6.486  1.00  0.00     0.055 A 
BRANCH  34  37
HETATM   37  O3  UNL     1      16.722  -3.221   5.105  1.00  0.00    -0.353 OA
HETATM   38  C19 UNL     1      16.442  -3.647   3.771  1.00  0.00     0.210 C 
ENDBRANCH  34  37
BRANCH  35  39
HETATM   39  O4  UNL     1      18.858  -4.135   6.634  1.00  0.00    -0.353 OA
HETATM   40  C21 UNL     1      19.934  -4.551   7.457  1.00  0.00     0.210 C 
ENDBRANCH  35  39
ENDBRANCH  24  26
ENDBRANCH   4  24
TORSDOF 8
ENDMDL
MODEL 3
REMARK VINA RESULT: -7.797761094      2.916      9.109
REMARK  8 active torsions:
REMARK  status: ('A' for Active; 'I' for Inactive)
REMARK    1  A    between atoms: C2_4  and  C3_5 
REMARK    2  A    between atoms: C2_4  and  N5_24 
REMARK    3  A    between atoms: C3_5  and  N2_6 
REMARK    4  A    between atoms: N2_6  and  C4_8 
REMARK    5  A    between atoms: C8_15  and  N4_16 
REMARK    6  A    between atoms: N5_24  and  C13_26 
REMARK    7  A    between atoms: C18_33  and  O3_34 
REMARK    8  A    between atoms: C20_36  and  O4_37 
ROOT
HETATM    1  C1  UNL     1      24.956  -0.265   5.072  1.00  0.00     0.147 C 
HETATM    2  N1  UNL     1      23.732   0.177   5.679  1.00  0.00    -0.383 N 
ATOM      3  H1  UNL     1      23.389   1.108   5.443  1.00  0.00     0.160 HD
HETATM    4  C2  UNL     1      23.040  -0.533   6.502  1.00  0.00     0.095 C 
ENDROOT
BRANCH   4   5
HETATM    5  C3  UNL     1      23.563  -1.890   6.829  1.00  0.00     0.196 C 
BRANCH   5   6
HETATM    6  N2  UNL     1      24.559  -1.800   7.850  1.00  0.00    -0.382 N 
ATOM      7  H2  UNL     1      25.312  -1.114   7.794  1.00  0.00     0.160 HD
BRANCH   6   8
HETATM    8  C4  UNL     1      24.472  -2.624   8.852  1.00  0.00     0.044 A 
HETATM    9  C5  UNL     1      23.421  -3.499   8.968  1.00  0.00     0.072 A 
HETATM   10  C6  UNL     1      23.380  -4.345  10.048  1.00  0.00     0.106 A 
HETATM   11 CL1  UNL     1      22.069  -5.497  10.273  1.00  0.00    -0.064 Cl
HETATM   12  N3  UNL     1      24.352  -4.341  11.010  1.00  0.00    -0.344 N 
HETATM   13  C7  UNL     1      25.386  -3.493  10.911  1.00  0.00     0.079 A 
ATOM     14  H3  UNL     1      24.291  -4.981  11.801  1.00  0.00     0.167 HD
HETATM   15  C8  UNL     1      26.386  -3.456  11.870  1.00  0.00     0.132 A 
HETATM   16  C12 UNL     1      25.465  -2.623   9.837  1.00  0.00     0.021 A 
HETATM   17  C9  UNL     1      27.430  -2.550  11.725  1.00  0.00     0.062 A 
HETATM   18  C10 UNL     1      27.486  -1.698  10.651  1.00  0.00     0.037 A 
HETATM   19 CL2  UNL     1      28.831  -0.562  10.507  1.00  0.00    -0.084 Cl
HETATM   20  C11 UNL     1      26.494  -1.735   9.701  1.00  0.00     0.040 A 
BRANCH  15  21
HETATM   21  N4  UNL     1      26.420  -4.282  12.999  1.00  0.00    -0.113 N 
HETATM   22  O1  UNL     1      27.581  -4.731  13.330  1.00  0.00    -0.532 OA
HETATM   23  O2  UNL     1      25.417  -4.683  13.813  1.00  0.00    -0.532 OA
ENDBRANCH  15  21
ENDBRANCH   6   8
ENDBRANCH   5   6
ENDBRANCH   4   5
BRANCH   4  24
HETATM   24  N5  UNL     1      21.829  -0.129   7.099  1.00  0.00    -0.344 N 
ATOM     25  H5  UNL     1      21.722  -0.217   8.109  1.00  0.00     0.167 HD
BRANCH  24  26
HETATM   26  C13 UNL     1      20.863   0.343   6.416  1.00  0.00     0.047 A 
HETATM   27  C14 UNL     1      20.769   1.638   5.972  1.00  0.00     0.047 A 
HETATM   28  C15 UNL     1      19.645   1.983   5.228  1.00  0.00     0.090 A 
HETATM   29  N6  UNL     1      18.660   1.121   4.927  1.00  0.00    -0.365 N 
HETATM   30  C16 UNL     1      18.725  -0.145   5.344  1.00  0.00     0.047 A 
ATOM     31  H6  UNL     1      17.860   1.435   4.378  1.00  0.00     0.165 HD
HETATM   32  C17 UNL     1      17.724  -1.061   5.056  1.00  0.00     0.070 A 
HETATM   33  C23 UNL     1      19.831  -0.543   6.094  1.00  0.00     0.020 A 
HETATM   34  C18 UNL     1      17.829  -2.358   5.512  1.00  0.00     0.103 A 
HETATM   35  C20 UNL     1      18.907  -2.783   6.254  1.00  0.00     0.102 A 
HETATM   36  C22 UNL     1      19.893  -1.853   6.530  1.00  0.00     0.055 A 
BRANCH  34  37
HETATM   37  O3  UNL     1      16.837  -3.256   5.224  1.00  0.00    -0.353 OA
HETATM   38  C19 UNL     1      16.453  -3.605   3.893  1.00  0.00     0.210 C 
ENDBRANCH  34  37
BRANCH  35  39
HETATM   39  O4  UNL     1      19.025  -4.094   6.721  1.00  0.00    -0.353 OA
HETATM   40  C21 UNL     1      20.227  -4.532   7.333  1.00  0.00     0.210 C 
ENDBRANCH  35  39
ENDBRANCH  24  26
ENDBRANCH   4  24
TORSDOF 8
ENDMDL
MODEL 4
REMARK VINA RESULT: -7.750162103      2.558      8.095
REMARK  8 active torsions:
REMARK  status: ('A' for Active; 'I' for Inactive)
REMARK    1  A    between atoms: C2_4  and  C3_5 
REMARK    2  A    between atoms: C2_4  and  N5_24 
REMARK    3  A    between atoms: C3_5  and  N2_6 
REMARK    4  A    between atoms: N2_6  and  C4_8 
REMARK    5  A    between atoms: C8_15  and  N4_16 
REMARK    6  A    between atoms: N5_24  and  C13_26 
REMARK    7  A    between atoms: C18_33  and  O3_34 
REMARK    8  A    between atoms: C20_36  and  O4_37 
ROOT
HETATM    1  C1  UNL     1      25.482  -3.723   4.367  1.00  0.00     0.147 C 
HETATM    2  N1  UNL     1      24.276  -3.044   4.751  1.00  0.00    -0.383 N 
ATOM      3  H1  UNL     1      23.550  -2.919   4.044  1.00  0.00     0.160 HD
HETATM    4  C2  UNL     1      24.054  -2.584   5.934  1.00  0.00     0.095 C 
ENDROOT
BRANCH   4   5
HETATM    5  C3  UNL     1      25.130  -2.781   6.946  1.00  0.00     0.196 C 
BRANCH   5   6
HETATM    6  N2  UNL     1      24.819  -2.060   8.141  1.00  0.00    -0.382 N 
ATOM      7  H2  UNL     1      24.107  -1.329   8.146  1.00  0.00     0.160 HD
BRANCH   6   8
HETATM    8  C4  UNL     1      25.474  -2.369   9.220  1.00  0.00     0.044 A 
HETATM    9  C5  UNL     1      26.712  -1.837   9.482  1.00  0.00     0.072 A 
HETATM   10  C6  UNL     1      27.359  -2.201  10.636  1.00  0.00     0.106 A 
HETATM   11 CL1  UNL     1      28.948  -1.566  11.048  1.00  0.00    -0.064 Cl
HETATM   12  N3  UNL     1      26.808  -3.077  11.531  1.00  0.00    -0.344 N 
HETATM   13  C7  UNL     1      25.600  -3.605  11.291  1.00  0.00     0.079 A 
ATOM     14  H3  UNL     1      27.316  -3.328  12.379  1.00  0.00     0.167 HD
HETATM   15  C8  UNL     1      25.014  -4.501  12.171  1.00  0.00     0.132 A 
HETATM   16  C12 UNL     1      24.913  -3.264  10.138  1.00  0.00     0.021 A 
HETATM   17  C9  UNL     1      23.763  -5.027  11.870  1.00  0.00     0.062 A 
HETATM   18  C10 UNL     1      23.103  -4.674  10.719  1.00  0.00     0.037 A 
HETATM   19 CL2  UNL     1      21.516  -5.367  10.375  1.00  0.00    -0.084 Cl
HETATM   20  C11 UNL     1      23.685  -3.785   9.847  1.00  0.00     0.040 A 
BRANCH  15  21
HETATM   21  N4  UNL     1      25.603  -4.924  13.368  1.00  0.00    -0.113 N 
HETATM   22  O1  UNL     1      25.329  -6.127  13.734  1.00  0.00    -0.532 OA
HETATM   23  O2  UNL     1      26.432  -4.263  14.209  1.00  0.00    -0.532 OA
ENDBRANCH  15  21
ENDBRANCH   6   8
ENDBRANCH   5   6
ENDBRANCH   4   5
BRANCH   4  24
HETATM   24  N5  UNL     1      22.875  -1.929   6.339  1.00  0.00    -0.344 N 
ATOM     25  H5  UNL     1      22.887  -0.916   6.455  1.00  0.00     0.167 HD
BRANCH  24  26
HETATM   26  C13 UNL     1      21.793  -2.562   6.565  1.00  0.00     0.047 A 
HETATM   27  C14 UNL     1      21.714  -3.860   7.001  1.00  0.00     0.047 A 
HETATM   28  C15 UNL     1      20.446  -4.394   7.206  1.00  0.00     0.090 A 
HETATM   29  N6  UNL     1      19.309  -3.709   7.001  1.00  0.00    -0.365 N 
HETATM   30  C16 UNL     1      19.355  -2.444   6.579  1.00  0.00     0.047 A 
ATOM     31  H6  UNL     1      18.408  -4.157   7.169  1.00  0.00     0.165 HD
HETATM   32  C17 UNL     1      18.201  -1.707   6.354  1.00  0.00     0.070 A 
HETATM   33  C23 UNL     1      20.602  -1.860   6.358  1.00  0.00     0.020 A 
HETATM   34  C18 UNL     1      18.294  -0.404   5.912  1.00  0.00     0.103 A 
HETATM   35  C20 UNL     1      19.509   0.201   5.684  1.00  0.00     0.102 A 
HETATM   36  C22 UNL     1      20.646  -0.551   5.915  1.00  0.00     0.055 A 
BRANCH  34  37
HETATM   37  O3  UNL     1      17.151   0.315   5.690  1.00  0.00    -0.353 OA
HETATM   38  C19 UNL     1      16.443   0.306   4.450  1.00  0.00     0.210 C 
ENDBRANCH  34  37
BRANCH  35  39
HETATM   39  O4  UNL     1      19.617   1.520   5.236  1.00  0.00    -0.353 OA
HETATM   40  C21 UNL     1      19.659   2.591   6.164  1.00  0.00     0.210 C 
ENDBRANCH  35  39
ENDBRANCH  24  26
ENDBRANCH   4  24
TORSDOF 8
ENDMDL
MODEL 5
REMARK VINA RESULT: -7.730846585      3.960     10.121
REMARK  8 active torsions:
REMARK  status: ('A' for Active; 'I' for Inactive)
REMARK    1  A    between atoms: C2_4  and  C3_5 
REMARK    2  A    between atoms: C2_4  and  N5_24 
REMARK    3  A    between atoms: C3_5  and  N2_6 
REMARK    4  A    between atoms: N2_6  and  C4_8 
REMARK    5  A    between atoms: C8_15  and  N4_16 
REMARK    6  A    between atoms: N5_24  and  C13_26 
REMARK    7  A    between atoms: C18_33  and  O3_34 
REMARK    8  A    between atoms: C20_36  and  O4_37 
ROOT
HETATM    1  C1  UNL     1      17.787  -3.182   6.230  1.00  0.00     0.147 C 
HETATM    2  N1  UNL     1      17.796  -2.001   5.413  1.00  0.00    -0.383 N 
ATOM      3  H1  UNL     1      17.033  -1.873   4.748  1.00  0.00     0.160 HD
HETATM    4  C2  UNL     1      18.709  -1.094   5.470  1.00  0.00     0.095 C 
ENDROOT
BRANCH   4   5
HETATM    5  C3  UNL     1      19.812  -1.306   6.450  1.00  0.00     0.196 C 
BRANCH   5   6
HETATM    6  N2  UNL     1      21.039  -1.557   5.763  1.00  0.00    -0.382 N 
ATOM      7  H2  UNL     1      21.260  -1.084   4.887  1.00  0.00     0.160 HD
BRANCH   6   8
HETATM    8  C4  UNL     1      21.864  -2.412   6.293  1.00  0.00     0.044 A 
HETATM    9  C5  UNL     1      21.411  -3.506   6.987  1.00  0.00     0.072 A 
HETATM   10  C6  UNL     1      22.327  -4.373   7.527  1.00  0.00     0.106 A 
HETATM   11 CL1  UNL     1      21.832  -5.799   8.431  1.00  0.00    -0.064 Cl
HETATM   12  N3  UNL     1      23.675  -4.179   7.396  1.00  0.00    -0.344 N 
HETATM   13  C7  UNL     1      24.134  -3.115   6.721  1.00  0.00     0.079 A 
ATOM     14  H3  UNL     1      24.329  -4.841   7.811  1.00  0.00     0.167 HD
HETATM   15  C8  UNL     1      25.492  -2.883   6.574  1.00  0.00     0.132 A 
HETATM   16  C12 UNL     1      23.242  -2.216   6.160  1.00  0.00     0.021 A 
HETATM   17  C9  UNL     1      25.915  -1.760   5.873  1.00  0.00     0.062 A 
HETATM   18  C10 UNL     1      25.011  -0.882   5.326  1.00  0.00     0.037 A 
HETATM   19 CL2  UNL     1      25.592   0.533   4.444  1.00  0.00    -0.084 Cl
HETATM   20  C11 UNL     1      23.664  -1.114   5.473  1.00  0.00     0.040 A 
BRANCH  15  21
HETATM   21  N4  UNL     1      26.491  -3.715   7.091  1.00  0.00    -0.113 N 
HETATM   22  O1  UNL     1      27.487  -3.117   7.645  1.00  0.00    -0.532 OA
HETATM   23  O2  UNL     1      26.573  -5.065   7.109  1.00  0.00    -0.532 OA
ENDBRANCH  15  21
ENDBRANCH   6   8
ENDBRANCH   5   6
ENDBRANCH   4   5
BRANCH   4  24
HETATM   24  N5  UNL     1      18.733   0.080   4.690  1.00  0.00    -0.344 N 
ATOM     25  H5  UNL     1      18.727  -0.002   3.674  1.00  0.00     0.167 HD
BRANCH  24  26
HETATM   26  C13 UNL     1      18.760   1.240   5.215  1.00  0.00     0.047 A 
HETATM   27  C14 UNL     1      19.876   1.844   5.738  1.00  0.00     0.047 A 
HETATM   28  C15 UNL     1      19.727   3.122   6.267  1.00  0.00     0.090 A 
HETATM   29  N6  UNL     1      18.560   3.786   6.289  1.00  0.00    -0.365 N 
HETATM   30  C16 UNL     1      17.459   3.225   5.786  1.00  0.00     0.047 A 
ATOM     31  H6  UNL     1      18.516   4.722   6.691  1.00  0.00     0.165 HD
HETATM   32  C17 UNL     1      16.236   3.879   5.796  1.00  0.00     0.070 A 
HETATM   33  C23 UNL     1      17.552   1.944   5.244  1.00  0.00     0.020 A 
HETATM   34  C18 UNL     1      15.121   3.259   5.271  1.00  0.00     0.103 A 
HETATM   35  C20 UNL     1      15.180   1.996   4.730  1.00  0.00     0.102 A 
HETATM   36  C22 UNL     1      16.409   1.362   4.730  1.00  0.00     0.055 A 
BRANCH  34  37
HETATM   37  O3  UNL     1      13.918   3.912   5.286  1.00  0.00    -0.353 OA
HETATM   38  C19 UNL     1      13.237   4.279   6.487  1.00  0.00     0.210 C 
ENDBRANCH  34  37
BRANCH  35  39
HETATM   39  O4  UNL     1      14.058   1.357   4.195  1.00  0.00    -0.353 OA
HETATM   40  C21 UNL     1      13.358   1.931   3.104  1.00  0.00     0.210 C 
ENDBRANCH  35  39
ENDBRANCH  24  26
ENDBRANCH   4  24
TORSDOF 8
ENDMDL
