MODEL 1
REMARK VINA RESULT: -7.029269918      0.000      0.000
REMARK  8 active torsions:
REMARK  status: ('A' for Active; 'I' for Inactive)
REMARK    1  A    between atoms: C5_10  and  N3_11 
REMARK    2  A    between atoms: C7_16  and  N4_17 
REMARK    3  A    between atoms: C7_16  and  C8_21 
REMARK    4  A    between atoms: C8_21  and  O3_23 
REMARK    5  A    between atoms: O3_23  and  N5_24 
REMARK       I    between atoms: N5_24  and  C9_26 
REMARK    6  A    between atoms: C9_26  and  C10_28 
REMARK    7  A    between atoms: C10_28  and  C11_30 
REMARK    8  A    between atoms: C14_37  and  C15_38 
ROOT
HETATM    1  C1  UNL     1      -1.812  11.349  79.563  1.00  0.00     0.148 C 
HETATM    2  N1  UNL     1      -1.186  10.999  80.813  1.00  0.00    -0.374 N 
ATOM      3  H1  UNL     1      -1.091  11.730  81.518  1.00  0.00     0.161 HD
HETATM    4  C2  UNL     1      -0.751   9.858  81.092  1.00  0.00     0.162 C 
HETATM    5  N2  UNL     1      -0.126   9.428  82.286  1.00  0.00    -0.243 N 
ATOM      6  H2  UNL     1       0.429  10.032  82.892  1.00  0.00     0.196 HD
HETATM    7  O1  UNL     1      -0.354   8.116  82.525  1.00  0.00    -0.255 OA
HETATM    8  C3  UNL     1       0.106   7.386  81.400  1.00  0.00     0.162 C 
HETATM    9  C4  UNL     1       1.568   7.551  81.346  1.00  0.00     0.086 C 
HETATM   10  C5  UNL     1       2.315   6.455  80.660  1.00  0.00     0.190 C 
HETATM   11  C6  UNL     1       1.756   5.086  80.942  1.00  0.00     0.083 C 
HETATM   12  C7  UNL     1       0.283   5.018  80.657  1.00  0.00     0.230 C 
HETATM   13  C14 UNL     1      -0.439   6.013  81.491  1.00  0.00     0.181 C 
HETATM   14  S1  UNL     1      -0.762   8.375  80.095  1.00  0.00    -0.050 SA
ENDROOT
BRANCH  12  15
HETATM   15  N4  UNL     1       0.038   5.333  79.245  1.00  0.00    -0.060 N 
ATOM     16  H43 UNL     1       0.590   6.130  78.928  1.00  0.00     0.275 HD
ATOM     17  H42 UNL     1       0.427   4.627  78.621  1.00  0.00     0.275 HD
ATOM     18  H41 UNL     1      -0.961   5.472  79.093  1.00  0.00     0.275 HD
ENDBRANCH  12  15
BRANCH  12  19
HETATM   19  C8  UNL     1      -0.172   3.632  80.928  1.00  0.00     0.318 C 
HETATM   20  O2  UNL     1      -1.244   3.189  80.447  1.00  0.00    -0.260 OA
BRANCH  19  21
HETATM   21  O3  UNL     1       0.565   2.764  81.721  1.00  0.00    -0.194 OA
BRANCH  21  22
HETATM   22  N5  UNL     1       0.413   2.680  83.070  1.00  0.00    -0.219 N 
HETATM   23  C9  UNL     1      -0.124   1.539  83.730  1.00  0.00     0.319 C 
HETATM   24  O4  UNL     1      -0.485   0.543  83.058  1.00  0.00    -0.262 OA
ATOM     25  H5  UNL     1       0.700   3.477  83.639  1.00  0.00     0.198 HD
BRANCH  23  26
HETATM   26  C10 UNL     1      -0.274   1.475  85.172  1.00  0.00     0.284 C 
HETATM   27  O5  UNL     1       0.610   0.857  85.832  1.00  0.00    -0.278 OA
BRANCH  26  28
HETATM   28  C11 UNL     1      -1.400   2.102  85.819  1.00  0.00     0.162 A 
HETATM   29  N6  UNL     1      -1.673   3.413  85.802  1.00  0.00    -0.348 N 
HETATM   30  C12 UNL     1      -2.789   3.664  86.496  1.00  0.00     0.107 A 
ATOM     31  H6  UNL     1      -1.111   4.120  85.326  1.00  0.00     0.167 HD
HETATM   32  C13 UNL     1      -3.222   2.421  86.966  1.00  0.00     0.107 A 
HETATM   33  N7  UNL     1      -2.365   1.485  86.545  1.00  0.00    -0.348 N 
ATOM     34  H7  UNL     1      -2.426   0.486  86.736  1.00  0.00     0.167 HD
ENDBRANCH  26  28
ENDBRANCH  23  26
ENDBRANCH  21  22
ENDBRANCH  19  21
ENDBRANCH  12  19
BRANCH  13  35
HETATM   35  C15 UNL     1      -0.583   5.596  82.905  1.00  0.00     0.184 C 
HETATM   36  O6  UNL     1       0.395   5.603  83.715  1.00  0.00    -0.648 OA
HETATM   37  O7  UNL     1      -1.815   5.181  83.377  1.00  0.00    -0.648 OA
ENDBRANCH  13  35
BRANCH  10  38
HETATM   38  N3  UNL     1       2.366   6.615  79.225  1.00  0.00    -0.075 N 
ATOM     39  H33 UNL     1       1.486   6.327  78.796  1.00  0.00     0.274 HD
ATOM     40  H32 UNL     1       2.362   7.602  78.968  1.00  0.00     0.274 HD
ATOM     41  H31 UNL     1       3.155   6.131  78.795  1.00  0.00     0.274 HD
ENDBRANCH  10  38
TORSDOF 8
ENDMDL
MODEL 2
REMARK VINA RESULT: -6.909974907      1.551      1.645
REMARK  8 active torsions:
REMARK  status: ('A' for Active; 'I' for Inactive)
REMARK    1  A    between atoms: C5_10  and  N3_11 
REMARK    2  A    between atoms: C7_16  and  N4_17 
REMARK    3  A    between atoms: C7_16  and  C8_21 
REMARK    4  A    between atoms: C8_21  and  O3_23 
REMARK    5  A    between atoms: O3_23  and  N5_24 
REMARK       I    between atoms: N5_24  and  C9_26 
REMARK    6  A    between atoms: C9_26  and  C10_28 
REMARK    7  A    between atoms: C10_28  and  C11_30 
REMARK    8  A    between atoms: C14_37  and  C15_38 
ROOT
HETATM    1  C1  UNL     1       0.608  12.501  81.554  1.00  0.00     0.148 C 
HETATM    2  N1  UNL     1       0.630  11.787  82.806  1.00  0.00    -0.374 N 
ATOM      3  H1  UNL     1       0.540  12.329  83.665  1.00  0.00     0.161 HD
HETATM    4  C2  UNL     1       0.754  10.544  82.909  1.00  0.00     0.162 C 
HETATM    5  N2  UNL     1       0.786   9.763  84.088  1.00  0.00    -0.243 N 
ATOM      6  H2  UNL     1       1.134  10.097  84.987  1.00  0.00     0.196 HD
HETATM    7  O1  UNL     1       0.299   8.519  83.877  1.00  0.00    -0.255 OA
HETATM    8  C3  UNL     1       1.059   7.929  82.837  1.00  0.00     0.162 C 
HETATM    9  C4  UNL     1       2.430   7.759  83.346  1.00  0.00     0.086 C 
HETATM   10  C5  UNL     1       3.226   6.670  82.704  1.00  0.00     0.190 C 
HETATM   11  C6  UNL     1       2.413   5.439  82.400  1.00  0.00     0.083 C 
HETATM   12  C7  UNL     1       1.181   5.768  81.608  1.00  0.00     0.230 C 
HETATM   13  C14 UNL     1       0.335   6.728  82.365  1.00  0.00     0.181 C 
HETATM   14  S1  UNL     1       0.929   9.320  81.618  1.00  0.00    -0.050 SA
ENDROOT
BRANCH  12  15
HETATM   15  N4  UNL     1       1.563   6.393  80.337  1.00  0.00    -0.060 N 
ATOM     16  H43 UNL     1       1.853   5.704  79.643  1.00  0.00     0.275 HD
ATOM     17  H42 UNL     1       0.758   6.774  79.838  1.00  0.00     0.275 HD
ATOM     18  H41 UNL     1       2.281   7.098  80.502  1.00  0.00     0.275 HD
ENDBRANCH  12  15
BRANCH  12  19
HETATM   19  C8  UNL     1       0.465   4.499  81.326  1.00  0.00     0.318 C 
HETATM   20  O2  UNL     1      -0.550   4.471  80.587  1.00  0.00    -0.260 OA
BRANCH  19  21
HETATM   21  O3  UNL     1       0.884   3.290  81.864  1.00  0.00    -0.194 OA
BRANCH  21  22
HETATM   22  N5  UNL     1       0.542   2.874  83.112  1.00  0.00    -0.219 N 
HETATM   23  C9  UNL     1      -0.148   1.656  83.371  1.00  0.00     0.319 C 
HETATM   24  O4  UNL     1      -0.471   0.907  82.418  1.00  0.00    -0.262 OA
ATOM     25  H5  UNL     1       0.793   3.464  83.905  1.00  0.00     0.198 HD
BRANCH  23  26
HETATM   26  C10 UNL     1      -0.501   1.234  84.714  1.00  0.00     0.284 C 
HETATM   27  O5  UNL     1      -0.127   0.085  85.090  1.00  0.00    -0.278 OA
BRANCH  26  28
HETATM   28  C11 UNL     1      -1.252   2.106  85.582  1.00  0.00     0.162 A 
HETATM   29  N6  UNL     1      -1.744   3.304  85.240  1.00  0.00    -0.348 N 
HETATM   30  C12 UNL     1      -2.391   3.852  86.275  1.00  0.00     0.107 A 
ATOM     31  H6  UNL     1      -1.640   3.737  84.322  1.00  0.00     0.167 HD
HETATM   32  C13 UNL     1      -2.286   2.924  87.315  1.00  0.00     0.107 A 
HETATM   33  N7  UNL     1      -1.590   1.871  86.874  1.00  0.00    -0.348 N 
ATOM     34  H7  UNL     1      -1.355   1.039  87.414  1.00  0.00     0.167 HD
ENDBRANCH  26  28
ENDBRANCH  23  26
ENDBRANCH  21  22
ENDBRANCH  19  21
ENDBRANCH  12  19
BRANCH  13  35
HETATM   35  C15 UNL     1      -0.415   6.095  83.475  1.00  0.00     0.184 C 
HETATM   36  O6  UNL     1       0.165   5.622  84.500  1.00  0.00    -0.648 OA
HETATM   37  O7  UNL     1      -1.794   6.007  83.410  1.00  0.00    -0.648 OA
ENDBRANCH  13  35
BRANCH  10  38
HETATM   38  N3  UNL     1       3.863   7.081  81.475  1.00  0.00    -0.075 N 
ATOM     39  H33 UNL     1       3.942   8.097  81.429  1.00  0.00     0.274 HD
ATOM     40  H32 UNL     1       4.853   6.836  81.479  1.00  0.00     0.274 HD
ATOM     41  H31 UNL     1       3.402   6.715  80.641  1.00  0.00     0.274 HD
ENDBRANCH  10  38
TORSDOF 8
ENDMDL
MODEL 3
REMARK VINA RESULT: -6.772926796      2.329      2.937
REMARK  8 active torsions:
REMARK  status: ('A' for Active; 'I' for Inactive)
REMARK    1  A    between atoms: C5_10  and  N3_11 
REMARK    2  A    between atoms: C7_16  and  N4_17 
REMARK    3  A    between atoms: C7_16  and  C8_21 
REMARK    4  A    between atoms: C8_21  and  O3_23 
REMARK    5  A    between atoms: O3_23  and  N5_24 
REMARK       I    between atoms: N5_24  and  C9_26 
REMARK    6  A    between atoms: C9_26  and  C10_28 
REMARK    7  A    between atoms: C10_28  and  C11_30 
REMARK    8  A    between atoms: C14_37  and  C15_38 
ROOT
HETATM    1  C1  UNL     1       2.510  12.568  83.695  1.00  0.00     0.148 C 
HETATM    2  N1  UNL     1       2.783  11.327  84.376  1.00  0.00    -0.374 N 
ATOM      3  H1  UNL     1       3.172  11.377  85.317  1.00  0.00     0.161 HD
HETATM    4  C2  UNL     1       2.574  10.192  83.889  1.00  0.00     0.162 C 
HETATM    5  N2  UNL     1       2.810   8.929  84.482  1.00  0.00    -0.243 N 
ATOM      6  H2  UNL     1       3.542   8.746  85.168  1.00  0.00     0.196 HD
HETATM    7  O1  UNL     1       1.945   7.994  84.027  1.00  0.00    -0.255 OA
HETATM    8  C3  UNL     1       2.070   7.942  82.616  1.00  0.00     0.162 C 
HETATM    9  C4  UNL     1       3.421   7.439  82.319  1.00  0.00     0.086 C 
HETATM   10  C5  UNL     1       3.579   6.756  81.000  1.00  0.00     0.190 C 
HETATM   11  C6  UNL     1       2.396   5.902  80.627  1.00  0.00     0.083 C 
HETATM   12  C7  UNL     1       1.110   6.673  80.703  1.00  0.00     0.230 C 
HETATM   13  C14 UNL     1       0.912   7.191  82.081  1.00  0.00     0.181 C 
HETATM   14  S1  UNL     1       1.908   9.759  82.288  1.00  0.00    -0.050 SA
ENDROOT
BRANCH  12  15
HETATM   15  N4  UNL     1       1.162   7.815  79.783  1.00  0.00    -0.060 N 
ATOM     16  H43 UNL     1       0.458   7.749  79.048  1.00  0.00     0.275 HD
ATOM     17  H42 UNL     1       0.837   8.677  80.221  1.00  0.00     0.275 HD
ATOM     18  H41 UNL     1       2.105   7.908  79.405  1.00  0.00     0.275 HD
ENDBRANCH  12  15
BRANCH  12  19
HETATM   19  C8  UNL     1       0.009   5.768  80.286  1.00  0.00     0.318 C 
HETATM   20  O2  UNL     1      -1.164   6.191  80.135  1.00  0.00    -0.260 OA
BRANCH  19  21
HETATM   21  O3  UNL     1       0.226   4.419  80.044  1.00  0.00    -0.194 OA
BRANCH  21  22
HETATM   22  N5  UNL     1       0.385   3.502  81.036  1.00  0.00    -0.219 N 
HETATM   23  C9  UNL     1      -0.587   2.513  81.353  1.00  0.00     0.319 C 
HETATM   24  O4  UNL     1      -1.657   2.458  80.700  1.00  0.00    -0.262 OA
ATOM     25  H5  UNL     1       1.247   3.525  81.582  1.00  0.00     0.198 HD
BRANCH  23  26
HETATM   26  C10 UNL     1      -0.392   1.545  82.417  1.00  0.00     0.284 C 
HETATM   27  O5  UNL     1      -0.153   0.347  82.090  1.00  0.00    -0.278 OA
BRANCH  26  28
HETATM   28  C11 UNL     1      -0.470   1.950  83.799  1.00  0.00     0.162 A 
HETATM   29  N6  UNL     1      -0.894   3.144  84.234  1.00  0.00    -0.348 N 
HETATM   30  C12 UNL     1      -0.844   3.195  85.570  1.00  0.00     0.107 A 
ATOM     31  H6  UNL     1      -1.210   3.906  83.632  1.00  0.00     0.167 HD
HETATM   32  C13 UNL     1      -0.357   1.949  85.973  1.00  0.00     0.107 A 
HETATM   33  N7  UNL     1      -0.136   1.207  84.883  1.00  0.00    -0.348 N 
ATOM     34  H7  UNL     1       0.221   0.252  84.868  1.00  0.00     0.167 HD
ENDBRANCH  26  28
ENDBRANCH  23  26
ENDBRANCH  21  22
ENDBRANCH  19  21
ENDBRANCH  12  19
BRANCH  13  35
HETATM   35  C15 UNL     1       0.471   6.149  83.039  1.00  0.00     0.184 C 
HETATM   36  O6  UNL     1      -0.677   6.170  83.579  1.00  0.00    -0.648 OA
HETATM   37  O7  UNL     1       1.325   5.113  83.367  1.00  0.00    -0.648 OA
ENDBRANCH  13  35
BRANCH  10  38
HETATM   38  N3  UNL     1       3.813   7.674  79.909  1.00  0.00    -0.075 N 
ATOM     39  H33 UNL     1       2.996   7.729  79.300  1.00  0.00     0.274 HD
ATOM     40  H32 UNL     1       3.838   8.637  80.244  1.00  0.00     0.274 HD
ATOM     41  H31 UNL     1       4.652   7.453  79.372  1.00  0.00     0.274 HD
ENDBRANCH  10  38
TORSDOF 8
ENDMDL
MODEL 4
REMARK VINA RESULT: -6.736263543      2.425      3.389
REMARK  8 active torsions:
REMARK  status: ('A' for Active; 'I' for Inactive)
REMARK    1  A    between atoms: C5_10  and  N3_11 
REMARK    2  A    between atoms: C7_16  and  N4_17 
REMARK    3  A    between atoms: C7_16  and  C8_21 
REMARK    4  A    between atoms: C8_21  and  O3_23 
REMARK    5  A    between atoms: O3_23  and  N5_24 
REMARK       I    between atoms: N5_24  and  C9_26 
REMARK    6  A    between atoms: C9_26  and  C10_28 
REMARK    7  A    between atoms: C10_28  and  C11_30 
REMARK    8  A    between atoms: C14_37  and  C15_38 
ROOT
HETATM    1  C1  UNL     1       2.884  10.070  85.179  1.00  0.00     0.148 C 
HETATM    2  N1  UNL     1       3.801   9.503  84.222  1.00  0.00    -0.374 N 
ATOM      3  H1  UNL     1       4.785   9.759  84.298  1.00  0.00     0.161 HD
HETATM    4  C2  UNL     1       3.470   8.719  83.304  1.00  0.00     0.162 C 
HETATM    5  N2  UNL     1       4.297   8.118  82.326  1.00  0.00    -0.243 N 
ATOM      6  H2  UNL     1       5.152   8.538  81.962  1.00  0.00     0.196 HD
HETATM    7  O1  UNL     1       3.814   6.917  81.932  1.00  0.00    -0.255 OA
HETATM    8  C3  UNL     1       2.496   7.119  81.451  1.00  0.00     0.162 C 
HETATM    9  C4  UNL     1       2.600   7.944  80.237  1.00  0.00     0.086 C 
HETATM   10  C5  UNL     1       1.481   7.797  79.259  1.00  0.00     0.190 C 
HETATM   11  C6  UNL     1       0.991   6.379  79.125  1.00  0.00     0.083 C 
HETATM   12  C7  UNL     1       0.646   5.783  80.459  1.00  0.00     0.230 C 
HETATM   13  C14 UNL     1       1.841   5.796  81.343  1.00  0.00     0.181 C 
HETATM   14  S1  UNL     1       1.851   8.078  82.900  1.00  0.00    -0.050 SA
ENDROOT
BRANCH  12  15
HETATM   15  N4  UNL     1      -0.410   6.576  81.097  1.00  0.00    -0.060 N 
ATOM     16  H43 UNL     1      -0.050   7.154  81.856  1.00  0.00     0.275 HD
ATOM     17  H42 UNL     1      -0.749   7.323  80.491  1.00  0.00     0.275 HD
ATOM     18  H41 UNL     1      -1.163   5.961  81.406  1.00  0.00     0.275 HD
ENDBRANCH  12  15
BRANCH  12  19
HETATM   19  C8  UNL     1       0.142   4.406  80.228  1.00  0.00     0.318 C 
HETATM   20  O2  UNL     1       0.440   3.765  79.190  1.00  0.00    -0.260 OA
BRANCH  19  21
HETATM   21  O3  UNL     1      -0.679   3.766  81.146  1.00  0.00    -0.194 OA
BRANCH  21  22
HETATM   22  N5  UNL     1      -0.257   3.383  82.381  1.00  0.00    -0.219 N 
HETATM   23  C9  UNL     1      -0.767   3.933  83.590  1.00  0.00     0.319 C 
HETATM   24  O4  UNL     1      -1.654   4.820  83.547  1.00  0.00    -0.262 OA
ATOM     25  H5  UNL     1       0.463   2.663  82.444  1.00  0.00     0.198 HD
BRANCH  23  26
HETATM   26  C10 UNL     1      -0.300   3.505  84.896  1.00  0.00     0.284 C 
HETATM   27  O5  UNL     1       0.874   3.830  85.239  1.00  0.00    -0.278 OA
BRANCH  26  28
HETATM   28  C11 UNL     1      -1.156   2.737  85.765  1.00  0.00     0.162 A 
HETATM   29  N6  UNL     1      -0.855   1.541  86.290  1.00  0.00    -0.348 N 
HETATM   30  C12 UNL     1      -1.863   1.103  87.052  1.00  0.00     0.107 A 
ATOM     31  H6  UNL     1       0.019   1.038  86.132  1.00  0.00     0.167 HD
HETATM   32  C13 UNL     1      -2.842   2.098  86.985  1.00  0.00     0.107 A 
HETATM   33  N7  UNL     1      -2.393   3.082  86.198  1.00  0.00    -0.348 N 
ATOM     34  H7  UNL     1      -2.893   3.939  85.965  1.00  0.00     0.167 HD
ENDBRANCH  26  28
ENDBRANCH  23  26
ENDBRANCH  21  22
ENDBRANCH  19  21
ENDBRANCH  12  19
BRANCH  13  35
HETATM   35  C15 UNL     1       2.829   4.744  81.005  1.00  0.00     0.184 C 
HETATM   36  O6  UNL     1       3.542   4.798  79.957  1.00  0.00    -0.648 OA
HETATM   37  O7  UNL     1       2.994   3.661  81.849  1.00  0.00    -0.648 OA
ENDBRANCH  13  35
BRANCH  10  38
HETATM   38  N3  UNL     1       0.338   8.622  79.575  1.00  0.00    -0.075 N 
ATOM     39  H33 UNL     1      -0.523   8.194  79.236  1.00  0.00     0.274 HD
ATOM     40  H32 UNL     1       0.148   8.611  80.577  1.00  0.00     0.274 HD
ATOM     41  H31 UNL     1       0.427   9.578  79.233  1.00  0.00     0.274 HD
ENDBRANCH  10  38
TORSDOF 8
ENDMDL
MODEL 5
REMARK VINA RESULT: -6.725534102      2.985      5.736
REMARK  8 active torsions:
REMARK  status: ('A' for Active; 'I' for Inactive)
REMARK    1  A    between atoms: C5_10  and  N3_11 
REMARK    2  A    between atoms: C7_16  and  N4_17 
REMARK    3  A    between atoms: C7_16  and  C8_21 
REMARK    4  A    between atoms: C8_21  and  O3_23 
REMARK    5  A    between atoms: O3_23  and  N5_24 
REMARK       I    between atoms: N5_24  and  C9_26 
REMARK    6  A    between atoms: C9_26  and  C10_28 
REMARK    7  A    between atoms: C10_28  and  C11_30 
REMARK    8  A    between atoms: C14_37  and  C15_38 
ROOT
HETATM    1  C1  UNL     1      -0.330  10.774  79.014  1.00  0.00     0.148 C 
HETATM    2  N1  UNL     1      -1.217   9.640  79.080  1.00  0.00    -0.374 N 
ATOM      3  H1  UNL     1      -1.933   9.554  78.358  1.00  0.00     0.161 HD
HETATM    4  C2  UNL     1      -1.169   8.755  79.964  1.00  0.00     0.162 C 
HETATM    5  N2  UNL     1      -1.995   7.614  80.105  1.00  0.00    -0.243 N 
ATOM      6  H2  UNL     1      -2.966   7.568  79.796  1.00  0.00     0.196 HD
HETATM    7  O1  UNL     1      -1.338   6.593  80.702  1.00  0.00    -0.255 OA
HETATM    8  C3  UNL     1      -0.866   7.057  81.955  1.00  0.00     0.162 C 
HETATM    9  C4  UNL     1      -2.048   7.334  82.787  1.00  0.00     0.086 C 
HETATM   10  C5  UNL     1      -1.831   7.256  84.263  1.00  0.00     0.190 C 
HETATM   11  C6  UNL     1      -0.912   6.135  84.670  1.00  0.00     0.083 C 
HETATM   12  C7  UNL     1       0.387   6.181  83.918  1.00  0.00     0.230 C 
HETATM   13  C14 UNL     1       0.130   6.084  82.458  1.00  0.00     0.181 C 
HETATM   14  S1  UNL     1      -0.052   8.609  81.351  1.00  0.00    -0.050 SA
ENDROOT
BRANCH  12  15
HETATM   15  N4  UNL     1       1.067   7.453  84.184  1.00  0.00    -0.060 N 
ATOM     16  H43 UNL     1       0.911   8.135  83.442  1.00  0.00     0.275 HD
ATOM     17  H42 UNL     1       0.634   7.968  84.951  1.00  0.00     0.275 HD
ATOM     18  H41 UNL     1       2.060   7.284  84.348  1.00  0.00     0.275 HD
ENDBRANCH  12  15
BRANCH  12  19
HETATM   19  C8  UNL     1       1.239   5.068  84.407  1.00  0.00     0.318 C 
HETATM   20  O2  UNL     1       0.759   4.126  85.085  1.00  0.00    -0.260 OA
BRANCH  19  21
HETATM   21  O3  UNL     1       2.599   5.017  84.136  1.00  0.00    -0.194 OA
BRANCH  21  22
HETATM   22  N5  UNL     1       3.102   4.710  82.911  1.00  0.00    -0.219 N 
HETATM   23  C9  UNL     1       3.580   5.686  81.992  1.00  0.00     0.319 C 
HETATM   24  O4  UNL     1       3.548   6.902  82.302  1.00  0.00    -0.262 OA
ATOM     25  H5  UNL     1       3.140   3.728  82.636  1.00  0.00     0.198 HD
BRANCH  23  26
HETATM   26  C10 UNL     1       4.113   5.332  80.690  1.00  0.00     0.284 C 
HETATM   27  O5  UNL     1       5.239   4.755  80.649  1.00  0.00    -0.278 OA
BRANCH  26  28
HETATM   28  C11 UNL     1       3.374   5.632  79.489  1.00  0.00     0.162 A 
HETATM   29  N6  UNL     1       2.134   6.139  79.449  1.00  0.00    -0.348 N 
HETATM   30  C12 UNL     1       1.741   6.300  78.180  1.00  0.00     0.107 A 
ATOM     31  H6  UNL     1       1.571   6.370  80.268  1.00  0.00     0.167 HD
HETATM   32  C13 UNL     1       2.813   5.862  77.399  1.00  0.00     0.107 A 
HETATM   33  N7  UNL     1       3.795   5.460  78.212  1.00  0.00    -0.348 N 
ATOM     34  H7  UNL     1       4.699   5.089  77.923  1.00  0.00     0.167 HD
ENDBRANCH  26  28
ENDBRANCH  23  26
ENDBRANCH  21  22
ENDBRANCH  19  21
ENDBRANCH  12  19
BRANCH  13  35
HETATM   35  C15 UNL     1      -0.204   4.711  82.014  1.00  0.00     0.184 C 
HETATM   36  O6  UNL     1      -1.197   4.072  82.480  1.00  0.00    -0.648 OA
HETATM   37  O7  UNL     1       0.579   4.088  81.060  1.00  0.00    -0.648 OA
ENDBRANCH  13  35
BRANCH  10  38
HETATM   38  N3  UNL     1      -1.300   8.476  84.824  1.00  0.00    -0.075 N 
ATOM     39  H33 UNL     1      -0.671   8.936  84.166  1.00  0.00     0.274 HD
ATOM     40  H32 UNL     1      -2.025   9.191  84.890  1.00  0.00     0.274 HD
ATOM     41  H31 UNL     1      -0.844   8.338  85.726  1.00  0.00     0.274 HD
ENDBRANCH  10  38
TORSDOF 8
ENDMDL
