MODEL 1
REMARK VINA RESULT: -4.618618001      0.000      0.000
REMARK  0 active torsions:
REMARK  status: ('A' for Active; 'I' for Inactive)
ROOT
HETATM    1  C1  UNL     1      -1.781   7.126  81.908  1.00  0.00     0.312 C 
HETATM    2  N1  UNL     1      -0.718   6.465  82.678  1.00  0.00     0.109 N 
HETATM    3  C2  UNL     1      -0.500   7.275  83.847  1.00  0.00     0.274 C 
HETATM    4  C3  UNL     1      -0.407   6.466  85.120  1.00  0.00     0.030 C 
HETATM    5  C4  UNL     1      -1.709   5.930  85.592  1.00  0.00     0.007 C 
HETATM    6  C5  UNL     1      -2.112   4.626  84.966  1.00  0.00     0.044 C 
HETATM    7  C6  UNL     1      -1.298   3.456  85.441  1.00  0.00     0.055 C 
HETATM    8  N2  UNL     1      -0.306   3.005  84.547  1.00  0.00    -0.402 N 
ATOM      9  H2  UNL     1       0.682   3.048  84.796  1.00  0.00     0.158 HD
HETATM   10  C7  UNL     1      -0.715   2.497  83.304  1.00  0.00     0.120 C 
HETATM   11  C8  UNL     1       0.305   2.795  82.196  1.00  0.00     0.047 C 
HETATM   12  C9  UNL     1      -0.051   4.056  81.450  1.00  0.00     0.236 C 
HETATM   13  N3  UNL     1       0.943   5.049  81.760  1.00  0.00    -0.049 N 
ATOM     14  H31 UNL     1       1.718   4.998  81.100  1.00  0.00     0.279 HD
ATOM     15  H32 UNL     1       1.433   4.808  82.621  1.00  0.00     0.279 HD
HETATM   16  C10 UNL     1       0.429   6.387  81.831  1.00  0.00     0.502 C 
ENDROOT
TORSDOF 0
ENDMDL
MODEL 2
REMARK VINA RESULT: -4.520600895      1.952      3.224
REMARK  0 active torsions:
REMARK  status: ('A' for Active; 'I' for Inactive)
ROOT
HETATM    1  C1  UNL     1       1.860   6.124  82.001  1.00  0.00     0.312 C 
HETATM    2  N1  UNL     1       1.520   6.124  83.431  1.00  0.00     0.109 N 
HETATM    3  C2  UNL     1       2.052   7.346  83.975  1.00  0.00     0.274 C 
HETATM    4  C3  UNL     1       1.075   8.070  84.871  1.00  0.00     0.030 C 
HETATM    5  C4  UNL     1      -0.032   8.740  84.142  1.00  0.00     0.007 C 
HETATM    6  C5  UNL     1      -1.203   7.852  83.830  1.00  0.00     0.044 C 
HETATM    7  C6  UNL     1      -2.024   7.497  85.037  1.00  0.00     0.055 C 
HETATM    8  N2  UNL     1      -1.816   6.201  85.550  1.00  0.00    -0.402 N 
ATOM      9  H2  UNL     1      -1.441   6.063  86.488  1.00  0.00     0.158 HD
HETATM   10  C7  UNL     1      -2.140   5.106  84.734  1.00  0.00     0.120 C 
HETATM   11  C8  UNL     1      -1.209   3.910  84.980  1.00  0.00     0.047 C 
HETATM   12  C9  UNL     1      -0.059   3.903  84.003  1.00  0.00     0.236 C 
HETATM   13  N3  UNL     1       1.146   4.185  84.737  1.00  0.00    -0.049 N 
ATOM     14  H31 UNL     1       1.566   3.322  85.081  1.00  0.00     0.279 HD
ATOM     15  H32 UNL     1       0.927   4.637  85.625  1.00  0.00     0.279 HD
HETATM   16  C10 UNL     1       2.109   4.956  84.004  1.00  0.00     0.502 C 
ENDROOT
TORSDOF 0
ENDMDL
MODEL 3
REMARK VINA RESULT: -4.476134010      1.281      1.776
REMARK  0 active torsions:
REMARK  status: ('A' for Active; 'I' for Inactive)
ROOT
HETATM    1  C1  UNL     1       0.096   6.449  81.318  1.00  0.00     0.312 C 
HETATM    2  N1  UNL     1       0.485   5.898  82.624  1.00  0.00     0.109 N 
HETATM    3  C2  UNL     1       0.969   7.006  83.404  1.00  0.00     0.274 C 
HETATM    4  C3  UNL     1       0.418   7.026  84.811  1.00  0.00     0.030 C 
HETATM    5  C4  UNL     1      -1.006   7.436  84.898  1.00  0.00     0.007 C 
HETATM    6  C5  UNL     1      -1.992   6.323  84.684  1.00  0.00     0.044 C 
HETATM    7  C6  UNL     1      -2.056   5.351  85.829  1.00  0.00     0.055 C 
HETATM    8  N2  UNL     1      -1.388   4.128  85.622  1.00  0.00    -0.402 N 
ATOM      9  H2  UNL     1      -0.593   3.861  86.203  1.00  0.00     0.158 HD
HETATM   10  C7  UNL     1      -1.846   3.288  84.596  1.00  0.00     0.120 C 
HETATM   11  C8  UNL     1      -0.703   2.494  83.947  1.00  0.00     0.047 C 
HETATM   12  C9  UNL     1      -0.178   3.195  82.719  1.00  0.00     0.236 C 
HETATM   13  N3  UNL     1       1.152   3.659  83.009  1.00  0.00    -0.049 N 
ATOM     14  H31 UNL     1       1.840   2.946  82.771  1.00  0.00     0.279 HD
ATOM     15  H32 UNL     1       1.301   3.714  84.016  1.00  0.00     0.279 HD
HETATM   16  C10 UNL     1       1.484   4.907  82.383  1.00  0.00     0.502 C 
ENDROOT
TORSDOF 0
ENDMDL
MODEL 4
REMARK VINA RESULT: -4.467834177      1.385      3.568
REMARK  0 active torsions:
REMARK  status: ('A' for Active; 'I' for Inactive)
ROOT
HETATM    1  C1  UNL     1      -0.211   3.222  85.757  1.00  0.00     0.312 C 
HETATM    2  N1  UNL     1      -0.737   3.939  84.587  1.00  0.00     0.109 N 
HETATM    3  C2  UNL     1      -1.977   4.540  85.002  1.00  0.00     0.274 C 
HETATM    4  C3  UNL     1      -2.112   5.981  84.568  1.00  0.00     0.030 C 
HETATM    5  C4  UNL     1      -1.263   6.927  85.335  1.00  0.00     0.007 C 
HETATM    6  C5  UNL     1       0.144   7.058  84.825  1.00  0.00     0.044 C 
HETATM    7  C6  UNL     1       0.243   7.804  83.524  1.00  0.00     0.055 C 
HETATM    8  N2  UNL     1       0.435   7.003  82.381  1.00  0.00    -0.402 N 
ATOM      9  H2  UNL     1      -0.264   6.974  81.639  1.00  0.00     0.158 HD
HETATM   10  C7  UNL     1       1.615   6.248  82.291  1.00  0.00     0.120 C 
HETATM   11  C8  UNL     1       1.395   4.923  81.548  1.00  0.00     0.047 C 
HETATM   12  C9  UNL     1       1.113   3.796  82.510  1.00  0.00     0.236 C 
HETATM   13  N3  UNL     1      -0.257   3.395  82.334  1.00  0.00    -0.049 N 
ATOM     14  H31 UNL     1      -0.328   2.669  81.622  1.00  0.00     0.279 HD
ATOM     15  H32 UNL     1      -0.791   4.135  81.879  1.00  0.00     0.279 HD
HETATM   16  C10 UNL     1      -0.904   2.978  83.544  1.00  0.00     0.502 C 
ENDROOT
TORSDOF 0
ENDMDL
MODEL 5
REMARK VINA RESULT: -4.341733044      1.394      3.040
REMARK  0 active torsions:
REMARK  status: ('A' for Active; 'I' for Inactive)
ROOT
HETATM    1  C1  UNL     1      -0.277   4.644  80.705  1.00  0.00     0.312 C 
HETATM    2  N1  UNL     1       0.191   5.199  81.983  1.00  0.00     0.109 N 
HETATM    3  C2  UNL     1       0.700   6.513  81.694  1.00  0.00     0.274 C 
HETATM    4  C3  UNL     1       0.227   7.561  82.675  1.00  0.00     0.030 C 
HETATM    5  C4  UNL     1      -1.196   7.948  82.507  1.00  0.00     0.007 C 
HETATM    6  C5  UNL     1      -2.175   7.055  83.214  1.00  0.00     0.044 C 
HETATM    7  C6  UNL     1      -2.162   7.215  84.708  1.00  0.00     0.055 C 
HETATM    8  N2  UNL     1      -1.487   6.202  85.419  1.00  0.00    -0.402 N 
ATOM      9  H2  UNL     1      -0.658   6.415  85.974  1.00  0.00     0.158 HD
HETATM   10  C7  UNL     1      -1.988   4.893  85.344  1.00  0.00     0.120 C 
HETATM   11  C8  UNL     1      -0.870   3.844  85.416  1.00  0.00     0.047 C 
HETATM   12  C9  UNL     1      -0.424   3.423  84.039  1.00  0.00     0.236 C 
HETATM   13  N3  UNL     1       0.912   3.914  83.837  1.00  0.00    -0.049 N 
ATOM     14  H31 UNL     1       1.597   3.230  84.156  1.00  0.00     0.279 HD
ATOM     15  H32 UNL     1       1.115   4.676  84.483  1.00  0.00     0.279 HD
HETATM   16  C10 UNL     1       1.191   4.312  82.486  1.00  0.00     0.502 C 
ENDROOT
TORSDOF 0
ENDMDL
