MODEL 1
REMARK VINA RESULT: -6.410219882      0.000      0.000
REMARK  11 active torsions:
REMARK  status: ('A' for Active; 'I' for Inactive)
REMARK    1  A    between atoms: C2_2  and  S1_3 
REMARK    2  A    between atoms: S1_3  and  C3_4 
REMARK    3  A    between atoms: C3_4  and  N1_6 
REMARK    4  A    between atoms: N1_6  and  C4_8 
REMARK    5  A    between atoms: C5_11  and  N3_12 
REMARK    6  A    between atoms: N3_12  and  N4_14 
REMARK    7  A    between atoms: N4_14  and  N5_15 
REMARK    8  A    between atoms: C6_18  and  S3_19 
REMARK    9  A    between atoms: S3_19  and  C7_20 
REMARK   10  A    between atoms: C7_20  and  C8_21 
REMARK   11  A    between atoms: C8_21  and  C9_23 
ROOT
HETATM    1  C4  UNL     1     -52.163  -4.450 -24.816  1.00  0.00     0.152 A 
HETATM    2  N2  UNL     1     -52.596  -4.106 -26.030  1.00  0.00    -0.319 N 
ATOM      3  H2  UNL     1     -52.622  -4.789 -26.787  1.00  0.00     0.169 HD
HETATM    4  C5  UNL     1     -52.986  -2.880 -26.227  1.00  0.00     0.159 A 
HETATM    5  C6  UNL     1     -52.929  -2.011 -25.173  1.00  0.00     0.091 A 
HETATM    6  S4  UNL     1     -52.311  -3.002 -23.930  1.00  0.00    -0.043 SA
ENDROOT
BRANCH   5   7
HETATM    7  S3  UNL     1     -53.394  -0.261 -25.126  1.00  0.00    -0.111 SA
BRANCH   7   8
HETATM    8  C7  UNL     1     -52.346   0.495 -23.850  1.00  0.00     0.164 C 
BRANCH   8   9
HETATM    9  C8  UNL     1     -53.130   1.010 -22.717  1.00  0.00     0.169 C 
HETATM   10  O1  UNL     1     -54.245   1.535 -22.903  1.00  0.00    -0.291 OA
BRANCH   9  11
HETATM   11  C9  UNL     1     -52.607   0.908 -21.376  1.00  0.00     0.010 A 
HETATM   12  C10 UNL     1     -51.442   0.211 -21.102  1.00  0.00     0.015 A 
HETATM   13  C11 UNL     1     -50.940   0.108 -19.824  1.00  0.00     0.001 A 
HETATM   14  C12 UNL     1     -51.595   0.707 -18.771  1.00  0.00     0.000 A 
HETATM   15  C13 UNL     1     -52.772   1.416 -19.017  1.00  0.00     0.001 A 
HETATM   16  C14 UNL     1     -53.254   1.501 -20.318  1.00  0.00     0.015 A 
ENDBRANCH   9  11
ENDBRANCH   8   9
ENDBRANCH   7   8
ENDBRANCH   5   7
BRANCH   4  17
HETATM   17  N3  UNL     1     -53.474  -2.403 -27.513  1.00  0.00    -0.198 N 
ATOM     18  H3  UNL     1     -54.469  -2.482 -27.720  1.00  0.00     0.205 HD
BRANCH  17  19
HETATM   19  N4  UNL     1     -52.744  -1.918 -28.347  1.00  0.00    -0.242 NA
BRANCH  19  20
HETATM   20  N5  UNL     1     -51.988  -1.255 -29.043  1.00  0.00    -0.260 N 
ATOM     21  H52 UNL     1     -52.615  -1.394 -29.835  1.00  0.00     0.193 HD
ATOM     22  H51 UNL     1     -51.253  -0.687 -29.466  1.00  0.00     0.193 HD
ENDBRANCH  19  20
ENDBRANCH  17  19
ENDBRANCH   4  17
BRANCH   1  23
HETATM   23  N1  UNL     1     -51.731  -5.631 -24.425  1.00  0.00    -0.322 N 
ATOM     24  H1  UNL     1     -52.331  -6.456 -24.435  1.00  0.00     0.169 HD
BRANCH  23  25
HETATM   25  C3  UNL     1     -50.398  -5.688 -23.993  1.00  0.00     0.140 C 
HETATM   26  S2  UNL     1     -50.049  -6.191 -22.502  1.00  0.00    -0.053 SA
BRANCH  25  27
HETATM   27  S1  UNL     1     -49.098  -5.204 -25.087  1.00  0.00    -0.101 SA
BRANCH  27  28
HETATM   28  C2  UNL     1     -48.584  -3.489 -24.836  1.00  0.00     0.077 C 
HETATM   29  C1  UNL     1     -48.984  -2.696 -26.052  1.00  0.00     0.016 C 
ENDBRANCH  27  28
ENDBRANCH  25  27
ENDBRANCH  23  25
ENDBRANCH   1  23
TORSDOF 11
ENDMDL
MODEL 2
REMARK VINA RESULT: -6.263941778      1.044      1.710
REMARK  11 active torsions:
REMARK  status: ('A' for Active; 'I' for Inactive)
REMARK    1  A    between atoms: C2_2  and  S1_3 
REMARK    2  A    between atoms: S1_3  and  C3_4 
REMARK    3  A    between atoms: C3_4  and  N1_6 
REMARK    4  A    between atoms: N1_6  and  C4_8 
REMARK    5  A    between atoms: C5_11  and  N3_12 
REMARK    6  A    between atoms: N3_12  and  N4_14 
REMARK    7  A    between atoms: N4_14  and  N5_15 
REMARK    8  A    between atoms: C6_18  and  S3_19 
REMARK    9  A    between atoms: S3_19  and  C7_20 
REMARK   10  A    between atoms: C7_20  and  C8_21 
REMARK   11  A    between atoms: C8_21  and  C9_23 
ROOT
HETATM    1  C4  UNL     1     -52.207  -4.426 -24.818  1.00  0.00     0.152 A 
HETATM    2  N2  UNL     1     -52.628  -4.119 -26.046  1.00  0.00    -0.319 N 
ATOM      3  H2  UNL     1     -52.635  -4.821 -26.785  1.00  0.00     0.169 HD
HETATM    4  C5  UNL     1     -53.030  -2.903 -26.280  1.00  0.00     0.159 A 
HETATM    5  C6  UNL     1     -52.998  -2.006 -25.248  1.00  0.00     0.091 A 
HETATM    6  S4  UNL     1     -52.384  -2.957 -23.971  1.00  0.00    -0.043 SA
ENDROOT
BRANCH   5   7
HETATM    7  S3  UNL     1     -53.484  -0.261 -25.252  1.00  0.00    -0.111 SA
BRANCH   7   8
HETATM    8  C7  UNL     1     -52.432   0.548 -24.013  1.00  0.00     0.164 C 
BRANCH   8   9
HETATM    9  C8  UNL     1     -53.202   1.029 -22.857  1.00  0.00     0.169 C 
HETATM   10  O1  UNL     1     -54.329   1.539 -23.011  1.00  0.00    -0.291 OA
BRANCH   9  11
HETATM   11  C9  UNL     1     -52.651   0.913 -21.528  1.00  0.00     0.010 A 
HETATM   12  C10 UNL     1     -51.467   0.235 -21.289  1.00  0.00     0.015 A 
HETATM   13  C11 UNL     1     -50.938   0.118 -20.023  1.00  0.00     0.001 A 
HETATM   14  C12 UNL     1     -51.585   0.683 -18.946  1.00  0.00     0.000 A 
HETATM   15  C13 UNL     1     -52.782   1.371 -19.156  1.00  0.00     0.001 A 
HETATM   16  C14 UNL     1     -53.290   1.471 -20.446  1.00  0.00     0.015 A 
ENDBRANCH   9  11
ENDBRANCH   8   9
ENDBRANCH   7   8
ENDBRANCH   5   7
BRANCH   4  17
HETATM   17  N3  UNL     1     -53.506  -2.466 -27.584  1.00  0.00    -0.198 N 
ATOM     18  H3  UNL     1     -54.470  -2.670 -27.849  1.00  0.00     0.205 HD
BRANCH  17  19
HETATM   19  N4  UNL     1     -52.804  -1.868 -28.367  1.00  0.00    -0.242 NA
BRANCH  19  20
HETATM   20  N5  UNL     1     -51.946  -1.254 -28.986  1.00  0.00    -0.260 N 
ATOM     21  H52 UNL     1     -51.233  -1.667 -28.383  1.00  0.00     0.193 HD
ATOM     22  H51 UNL     1     -51.375  -0.676 -29.603  1.00  0.00     0.193 HD
ENDBRANCH  19  20
ENDBRANCH  17  19
ENDBRANCH   4  17
BRANCH   1  23
HETATM   23  N1  UNL     1     -51.766  -5.591 -24.391  1.00  0.00    -0.322 N 
ATOM     24  H1  UNL     1     -52.312  -6.446 -24.496  1.00  0.00     0.169 HD
BRANCH  23  25
HETATM   25  C3  UNL     1     -50.502  -5.586 -23.783  1.00  0.00     0.140 C 
HETATM   26  S2  UNL     1     -49.170  -5.475 -24.684  1.00  0.00    -0.053 SA
BRANCH  25  27
HETATM   27  S1  UNL     1     -50.371  -5.704 -22.026  1.00  0.00    -0.101 SA
BRANCH  27  28
HETATM   28  C2  UNL     1     -49.952  -4.123 -21.255  1.00  0.00     0.077 C 
HETATM   29  C1  UNL     1     -51.118  -3.690 -20.406  1.00  0.00     0.016 C 
ENDBRANCH  27  28
ENDBRANCH  25  27
ENDBRANCH  23  25
ENDBRANCH   1  23
TORSDOF 11
ENDMDL
MODEL 3
REMARK VINA RESULT: -6.221497025      2.200      4.392
REMARK  11 active torsions:
REMARK  status: ('A' for Active; 'I' for Inactive)
REMARK    1  A    between atoms: C2_2  and  S1_3 
REMARK    2  A    between atoms: S1_3  and  C3_4 
REMARK    3  A    between atoms: C3_4  and  N1_6 
REMARK    4  A    between atoms: N1_6  and  C4_8 
REMARK    5  A    between atoms: C5_11  and  N3_12 
REMARK    6  A    between atoms: N3_12  and  N4_14 
REMARK    7  A    between atoms: N4_14  and  N5_15 
REMARK    8  A    between atoms: C6_18  and  S3_19 
REMARK    9  A    between atoms: S3_19  and  C7_20 
REMARK   10  A    between atoms: C7_20  and  C8_21 
REMARK   11  A    between atoms: C8_21  and  C9_23 
ROOT
HETATM    1  C4  UNL     1     -52.269  -4.081 -25.266  1.00  0.00     0.152 A 
HETATM    2  N2  UNL     1     -51.846  -5.290 -24.891  1.00  0.00    -0.319 N 
ATOM      3  H2  UNL     1     -52.004  -6.105 -25.483  1.00  0.00     0.169 HD
HETATM    4  C5  UNL     1     -51.227  -5.406 -23.752  1.00  0.00     0.159 A 
HETATM    5  C6  UNL     1     -51.045  -4.277 -23.002  1.00  0.00     0.091 A 
HETATM    6  S4  UNL     1     -51.779  -3.083 -23.975  1.00  0.00    -0.043 SA
ENDROOT
BRANCH   5   7
HETATM    7  S3  UNL     1     -50.231  -4.109 -21.392  1.00  0.00    -0.111 SA
BRANCH   7   8
HETATM    8  C7  UNL     1     -50.338  -2.347 -20.966  1.00  0.00     0.164 C 
BRANCH   8   9
HETATM    9  C8  UNL     1     -51.661  -1.981 -20.438  1.00  0.00     0.169 C 
HETATM   10  O1  UNL     1     -52.261  -2.735 -19.648  1.00  0.00    -0.291 OA
BRANCH   9  11
HETATM   11  C9  UNL     1     -52.274  -0.737 -20.839  1.00  0.00     0.010 A 
HETATM   12  C10 UNL     1     -51.695   0.086 -21.790  1.00  0.00     0.015 A 
HETATM   13  C11 UNL     1     -52.273   1.275 -22.173  1.00  0.00     0.001 A 
HETATM   14  C12 UNL     1     -53.463   1.681 -21.610  1.00  0.00     0.000 A 
HETATM   15  C13 UNL     1     -54.070   0.872 -20.647  1.00  0.00     0.001 A 
HETATM   16  C14 UNL     1     -53.461  -0.322 -20.282  1.00  0.00     0.015 A 
ENDBRANCH   9  11
ENDBRANCH   8   9
ENDBRANCH   7   8
ENDBRANCH   5   7
BRANCH   4  17
HETATM   17  N3  UNL     1     -50.727  -6.678 -23.250  1.00  0.00    -0.198 N 
ATOM     18  H3  UNL     1     -50.858  -6.902 -22.264  1.00  0.00     0.205 HD
BRANCH  17  19
HETATM   19  N4  UNL     1     -50.163  -7.480 -23.958  1.00  0.00    -0.242 NA
BRANCH  19  20
HETATM   20  N5  UNL     1     -49.751  -8.237 -24.825  1.00  0.00    -0.260 N 
ATOM     21  H52 UNL     1     -49.899  -9.023 -24.192  1.00  0.00     0.193 HD
ATOM     22  H51 UNL     1     -49.387  -8.712 -25.652  1.00  0.00     0.193 HD
ENDBRANCH  19  20
ENDBRANCH  17  19
ENDBRANCH   4  17
BRANCH   1  23
HETATM   23  N1  UNL     1     -52.909  -3.766 -26.373  1.00  0.00    -0.322 N 
ATOM     24  H1  UNL     1     -53.608  -4.382 -26.787  1.00  0.00     0.169 HD
BRANCH  23  25
HETATM   25  C3  UNL     1     -52.572  -2.532 -26.948  1.00  0.00     0.140 C 
HETATM   26  S2  UNL     1     -53.514  -1.244 -26.715  1.00  0.00    -0.053 SA
BRANCH  25  27
HETATM   27  S1  UNL     1     -51.114  -2.390 -27.933  1.00  0.00    -0.101 SA
BRANCH  27  28
HETATM   28  C2  UNL     1     -49.689  -1.813 -26.982  1.00  0.00     0.077 C 
HETATM   29  C1  UNL     1     -48.554  -2.778 -27.203  1.00  0.00     0.016 C 
ENDBRANCH  27  28
ENDBRANCH  25  27
ENDBRANCH  23  25
ENDBRANCH   1  23
TORSDOF 11
ENDMDL
MODEL 4
REMARK VINA RESULT: -6.200357271      2.431      6.732
REMARK  11 active torsions:
REMARK  status: ('A' for Active; 'I' for Inactive)
REMARK    1  A    between atoms: C2_2  and  S1_3 
REMARK    2  A    between atoms: S1_3  and  C3_4 
REMARK    3  A    between atoms: C3_4  and  N1_6 
REMARK    4  A    between atoms: N1_6  and  C4_8 
REMARK    5  A    between atoms: C5_11  and  N3_12 
REMARK    6  A    between atoms: N3_12  and  N4_14 
REMARK    7  A    between atoms: N4_14  and  N5_15 
REMARK    8  A    between atoms: C6_18  and  S3_19 
REMARK    9  A    between atoms: S3_19  and  C7_20 
REMARK   10  A    between atoms: C7_20  and  C8_21 
REMARK   11  A    between atoms: C8_21  and  C9_23 
ROOT
HETATM    1  C4  UNL     1     -52.508  -0.488 -24.405  1.00  0.00     0.152 A 
HETATM    2  N2  UNL     1     -52.740  -1.126 -25.553  1.00  0.00    -0.319 N 
ATOM      3  H2  UNL     1     -53.085  -0.622 -26.370  1.00  0.00     0.169 HD
HETATM    4  C5  UNL     1     -52.517  -2.407 -25.609  1.00  0.00     0.159 A 
HETATM    5  C6  UNL     1     -52.054  -3.028 -24.482  1.00  0.00     0.091 A 
HETATM    6  S4  UNL     1     -51.959  -1.732 -23.377  1.00  0.00    -0.043 SA
ENDROOT
BRANCH   5   7
HETATM    7  S3  UNL     1     -51.651  -4.778 -24.240  1.00  0.00    -0.111 SA
BRANCH   7   8
HETATM    8  C7  UNL     1     -50.082  -4.802 -23.327  1.00  0.00     0.164 C 
BRANCH   8   9
HETATM    9  C8  UNL     1     -49.098  -3.862 -23.885  1.00  0.00     0.169 C 
HETATM   10  O1  UNL     1     -48.591  -2.975 -23.172  1.00  0.00    -0.291 OA
BRANCH   9  11
HETATM   11  C9  UNL     1     -48.712  -3.966 -25.272  1.00  0.00     0.010 A 
HETATM   12  C10 UNL     1     -48.223  -5.148 -25.804  1.00  0.00     0.015 A 
HETATM   13  C11 UNL     1     -47.851  -5.252 -27.125  1.00  0.00     0.001 A 
HETATM   14  C12 UNL     1     -47.958  -4.164 -27.964  1.00  0.00     0.000 A 
HETATM   15  C13 UNL     1     -48.448  -2.959 -27.456  1.00  0.00     0.001 A 
HETATM   16  C14 UNL     1     -48.815  -2.887 -26.117  1.00  0.00     0.015 A 
ENDBRANCH   9  11
ENDBRANCH   8   9
ENDBRANCH   7   8
ENDBRANCH   5   7
BRANCH   4  17
HETATM   17  N3  UNL     1     -52.739  -3.197 -26.812  1.00  0.00    -0.198 N 
ATOM     18  H3  UNL     1     -52.401  -4.159 -26.837  1.00  0.00     0.205 HD
BRANCH  17  19
HETATM   19  N4  UNL     1     -53.308  -2.756 -27.784  1.00  0.00    -0.242 NA
BRANCH  19  20
HETATM   20  N5  UNL     1     -53.745  -2.132 -28.741  1.00  0.00    -0.260 N 
ATOM     21  H52 UNL     1     -54.472  -1.744 -28.140  1.00  0.00     0.193 HD
ATOM     22  H51 UNL     1     -53.969  -1.694 -29.635  1.00  0.00     0.193 HD
ENDBRANCH  19  20
ENDBRANCH  17  19
ENDBRANCH   4  17
BRANCH   1  23
HETATM   23  N1  UNL     1     -52.672   0.794 -24.155  1.00  0.00    -0.322 N 
ATOM     24  H1  UNL     1     -51.900   1.458 -24.209  1.00  0.00     0.169 HD
BRANCH  23  25
HETATM   25  C3  UNL     1     -53.971   1.193 -23.810  1.00  0.00     0.140 C 
HETATM   26  S2  UNL     1     -55.128   1.247 -24.931  1.00  0.00    -0.053 SA
BRANCH  25  27
HETATM   27  S1  UNL     1     -54.340   1.639 -22.141  1.00  0.00    -0.101 SA
BRANCH  27  28
HETATM   28  C2  UNL     1     -53.040   1.141 -20.988  1.00  0.00     0.077 C 
HETATM   29  C1  UNL     1     -53.498  -0.102 -20.271  1.00  0.00     0.016 C 
ENDBRANCH  27  28
ENDBRANCH  25  27
ENDBRANCH  23  25
ENDBRANCH   1  23
TORSDOF 11
ENDMDL
MODEL 5
REMARK VINA RESULT: -6.180026232      2.676      3.218
REMARK  11 active torsions:
REMARK  status: ('A' for Active; 'I' for Inactive)
REMARK    1  A    between atoms: C2_2  and  S1_3 
REMARK    2  A    between atoms: S1_3  and  C3_4 
REMARK    3  A    between atoms: C3_4  and  N1_6 
REMARK    4  A    between atoms: N1_6  and  C4_8 
REMARK    5  A    between atoms: C5_11  and  N3_12 
REMARK    6  A    between atoms: N3_12  and  N4_14 
REMARK    7  A    between atoms: N4_14  and  N5_15 
REMARK    8  A    between atoms: C6_18  and  S3_19 
REMARK    9  A    between atoms: S3_19  and  C7_20 
REMARK   10  A    between atoms: C7_20  and  C8_21 
REMARK   11  A    between atoms: C8_21  and  C9_23 
ROOT
HETATM    1  C4  UNL     1     -49.267  -3.139 -27.142  1.00  0.00     0.152 A 
HETATM    2  N2  UNL     1     -50.530  -3.373 -27.503  1.00  0.00    -0.319 N 
ATOM      3  H2  UNL     1     -50.742  -3.842 -28.383  1.00  0.00     0.169 HD
HETATM    4  C5  UNL     1     -51.486  -2.990 -26.707  1.00  0.00     0.159 A 
HETATM    5  C6  UNL     1     -51.139  -2.367 -25.539  1.00  0.00     0.091 A 
HETATM    6  S4  UNL     1     -49.436  -2.357 -25.637  1.00  0.00    -0.043 SA
ENDROOT
BRANCH   5   7
HETATM    7  S3  UNL     1     -52.221  -1.724 -24.237  1.00  0.00    -0.111 SA
BRANCH   7   8
HETATM    8  C7  UNL     1     -51.867   0.054 -24.134  1.00  0.00     0.164 C 
BRANCH   8   9
HETATM    9  C8  UNL     1     -52.960   0.804 -23.497  1.00  0.00     0.169 C 
HETATM   10  O1  UNL     1     -53.937   1.195 -24.166  1.00  0.00    -0.291 OA
BRANCH   9  11
HETATM   11  C9  UNL     1     -52.906   1.093 -22.084  1.00  0.00     0.010 A 
HETATM   12  C10 UNL     1     -51.957   0.510 -21.260  1.00  0.00     0.015 A 
HETATM   13  C11 UNL     1     -51.901   0.779 -19.911  1.00  0.00     0.001 A 
HETATM   14  C12 UNL     1     -52.804   1.648 -19.340  1.00  0.00     0.000 A 
HETATM   15  C13 UNL     1     -53.773   2.250 -20.145  1.00  0.00     0.001 A 
HETATM   16  C14 UNL     1     -53.802   1.957 -21.504  1.00  0.00     0.015 A 
ENDBRANCH   9  11
ENDBRANCH   8   9
ENDBRANCH   7   8
ENDBRANCH   5   7
BRANCH   4  17
HETATM   17  N3  UNL     1     -52.896  -3.196 -27.008  1.00  0.00    -0.198 N 
ATOM     18  H3  UNL     1     -53.430  -3.848 -26.434  1.00  0.00     0.205 HD
BRANCH  17  19
HETATM   19  N4  UNL     1     -53.458  -2.623 -27.912  1.00  0.00    -0.242 NA
BRANCH  19  20
HETATM   20  N5  UNL     1     -53.830  -2.068 -28.937  1.00  0.00    -0.260 N 
ATOM     21  H52 UNL     1     -53.070  -2.523 -29.444  1.00  0.00     0.193 HD
ATOM     22  H51 UNL     1     -54.274  -1.530 -29.682  1.00  0.00     0.193 HD
ENDBRANCH  19  20
ENDBRANCH  17  19
ENDBRANCH   4  17
BRANCH   1  23
HETATM   23  N1  UNL     1     -48.174  -3.449 -27.807  1.00  0.00    -0.322 N 
ATOM     24  H1  UNL     1     -47.522  -2.737 -28.135  1.00  0.00     0.169 HD
BRANCH  23  25
HETATM   25  C3  UNL     1     -47.960  -4.815 -28.038  1.00  0.00     0.140 C 
HETATM   26  S2  UNL     1     -47.515  -5.783 -26.828  1.00  0.00    -0.053 SA
BRANCH  25  27
HETATM   27  S1  UNL     1     -48.177  -5.477 -29.661  1.00  0.00    -0.101 SA
BRANCH  27  28
HETATM   28  C2  UNL     1     -46.702  -5.288 -30.689  1.00  0.00     0.077 C 
HETATM   29  C1  UNL     1     -47.142  -4.912 -32.079  1.00  0.00     0.016 C 
ENDBRANCH  27  28
ENDBRANCH  25  27
ENDBRANCH  23  25
ENDBRANCH   1  23
TORSDOF 11
ENDMDL
