MODEL 1
REMARK VINA RESULT: -7.672034852      0.000      0.000
REMARK  17 active torsions:
REMARK  status: ('A' for Active; 'I' for Inactive)
REMARK    1  A    between atoms: C2_2  and  O2_4 
REMARK    2  A    between atoms: O2_4  and  C3_5 
REMARK    3  A    between atoms: C3_5  and  C4_6 
REMARK    4  A    between atoms: C4_6  and  O3_7 
REMARK    5  A    between atoms: C4_6  and  O4_9 
REMARK    6  A    between atoms: O4_9  and  C5_10 
REMARK    7  A    between atoms: C9_14  and  O5_15 
REMARK    8  A    between atoms: O5_15  and  C10_16 
REMARK    9  A    between atoms: C12_19  and  O7_21 
REMARK   10  A    between atoms: C14_23  and  O8_24 
REMARK   11  A    between atoms: O8_24  and  C15_25 
REMARK   12  A    between atoms: C17_28  and  O10_29 
REMARK   13  A    between atoms: O10_29  and  C18_30 
REMARK   14  A    between atoms: C20_33  and  O12_34 
REMARK   15  A    between atoms: O12_34  and  C21_35 
REMARK   16  A    between atoms: C23_38  and  O14_39 
REMARK   17  A    between atoms: C24_41  and  O15_42 
ROOT
HETATM    1  C10 UNL     1      20.092   3.176  10.816  1.00  0.00     0.294 C 
HETATM    2  O6  UNL     1      21.445   3.368  10.901  1.00  0.00    -0.355 OA
HETATM    3  C11 UNL     1      21.875   4.607  10.495  1.00  0.00     0.211 C 
HETATM    4  C12 UNL     1      21.008   5.745  10.990  1.00  0.00     0.104 C 
HETATM    5  C13 UNL     1      21.637   7.023  10.445  1.00  0.00     0.051 C 
HETATM    6  C14 UNL     1      19.643   5.582  10.411  1.00  0.00     0.194 C 
HETATM    7  C24 UNL     1      19.403   4.170   9.907  1.00  0.00     0.205 C 
ENDROOT
BRANCH   6   8
HETATM    8  O8  UNL     1      18.678   5.830  11.377  1.00  0.00    -0.347 OA
BRANCH   8   9
HETATM    9  C15 UNL     1      17.744   6.691  10.876  1.00  0.00     0.291 C 
HETATM   10  O9  UNL     1      18.326   7.631  10.015  1.00  0.00    -0.356 OA
HETATM   11  C16 UNL     1      17.398   8.260   9.218  1.00  0.00     0.206 C 
HETATM   12  C17 UNL     1      16.020   8.354   9.778  1.00  0.00     0.188 C 
HETATM   13  C20 UNL     1      15.448   7.036  10.227  1.00  0.00     0.197 C 
HETATM   14  C23 UNL     1      16.586   6.033  10.154  1.00  0.00     0.205 C 
BRANCH  12  15
HETATM   15  O10 UNL     1      16.032   9.313  10.824  1.00  0.00    -0.311 OA
BRANCH  15  16
HETATM   16  C18 UNL     1      16.146  10.672  10.605  1.00  0.00     0.255 C 
HETATM   17  C19 UNL     1      15.058  11.391   9.929  1.00  0.00     0.126 C 
HETATM   18  O11 UNL     1      17.196  11.238  11.004  1.00  0.00    -0.266 OA
ENDBRANCH  15  16
ENDBRANCH  12  15
BRANCH  13  19
HETATM   19  O12 UNL     1      14.303   6.619   9.569  1.00  0.00    -0.311 OA
BRANCH  19  20
HETATM   20  C21 UNL     1      13.838   7.265   8.429  1.00  0.00     0.255 C 
HETATM   21  C22 UNL     1      12.807   8.319   8.498  1.00  0.00     0.126 C 
HETATM   22  O13 UNL     1      14.325   6.923   7.343  1.00  0.00    -0.266 OA
ENDBRANCH  19  20
ENDBRANCH  13  19
BRANCH  14  23
HETATM   23  O14 UNL     1      16.185   4.849  10.748  1.00  0.00    -0.388 OA
ATOM     24  H14 UNL     1      15.335   4.552  10.444  1.00  0.00     0.210 HD
ENDBRANCH  14  23
ENDBRANCH   8   9
ENDBRANCH   6   8
BRANCH   4  25
HETATM   25  O7  UNL     1      21.039   5.753  12.378  1.00  0.00    -0.385 OA
ATOM     26  H7  UNL     1      21.664   6.409  12.663  1.00  0.00     0.210 HD
ENDBRANCH   4  25
BRANCH   7  27
HETATM   27  O15 UNL     1      19.759   4.042   8.582  1.00  0.00    -0.388 OA
ATOM     28  H15 UNL     1      19.026   3.850   8.010  1.00  0.00     0.210 HD
ENDBRANCH   7  27
BRANCH   1  29
HETATM   29  O5  UNL     1      19.701   1.911  10.462  1.00  0.00    -0.329 OA
BRANCH  29  30
HETATM   30  C9  UNL     1      18.634   1.431  11.211  1.00  0.00     0.266 C 
HETATM   31  C8  UNL     1      17.416   1.137  10.321  1.00  0.00     0.061 C 
HETATM   32  C7  UNL     1      16.619   0.128  11.149  1.00  0.00     0.010 C 
HETATM   33  C6  UNL     1      16.887   0.326  12.622  1.00  0.00     0.061 C 
HETATM   34  C5  UNL     1      17.228   1.758  12.957  1.00  0.00     0.266 C 
HETATM   35  O16 UNL     1      18.184   2.332  12.163  1.00  0.00    -0.331 OA
BRANCH  34  36
HETATM   36  O4  UNL     1      16.053   2.502  13.026  1.00  0.00    -0.330 OA
BRANCH  36  37
HETATM   37  C4  UNL     1      16.065   3.497  13.993  1.00  0.00     0.284 C 
BRANCH  37  38
HETATM   38  C3  UNL     1      16.846   2.978  15.175  1.00  0.00     0.239 C 
BRANCH  38  39
HETATM   39  O2  UNL     1      16.052   2.648  16.280  1.00  0.00    -0.317 OA
BRANCH  39  40
HETATM   40  C2  UNL     1      15.314   1.509  16.447  1.00  0.00     0.254 C 
HETATM   41  C1  UNL     1      13.960   1.497  17.069  1.00  0.00     0.126 C 
HETATM   42  O1  UNL     1      15.806   0.422  16.054  1.00  0.00    -0.266 OA
ENDBRANCH  39  40
ENDBRANCH  38  39
ENDBRANCH  37  38
BRANCH  37  43
HETATM   43  O3  UNL     1      16.787   4.625  13.539  1.00  0.00    -0.369 OA
ATOM     44  H3  UNL     1      16.998   4.436  12.631  1.00  0.00     0.212 HD
ENDBRANCH  37  43
ENDBRANCH  36  37
ENDBRANCH  34  36
ENDBRANCH  29  30
ENDBRANCH   1  29
TORSDOF 17
ENDMDL
MODEL 2
REMARK VINA RESULT: -7.631504968      0.988      2.363
REMARK  17 active torsions:
REMARK  status: ('A' for Active; 'I' for Inactive)
REMARK    1  A    between atoms: C2_2  and  O2_4 
REMARK    2  A    between atoms: O2_4  and  C3_5 
REMARK    3  A    between atoms: C3_5  and  C4_6 
REMARK    4  A    between atoms: C4_6  and  O3_7 
REMARK    5  A    between atoms: C4_6  and  O4_9 
REMARK    6  A    between atoms: O4_9  and  C5_10 
REMARK    7  A    between atoms: C9_14  and  O5_15 
REMARK    8  A    between atoms: O5_15  and  C10_16 
REMARK    9  A    between atoms: C12_19  and  O7_21 
REMARK   10  A    between atoms: C14_23  and  O8_24 
REMARK   11  A    between atoms: O8_24  and  C15_25 
REMARK   12  A    between atoms: C17_28  and  O10_29 
REMARK   13  A    between atoms: O10_29  and  C18_30 
REMARK   14  A    between atoms: C20_33  and  O12_34 
REMARK   15  A    between atoms: O12_34  and  C21_35 
REMARK   16  A    between atoms: C23_38  and  O14_39 
REMARK   17  A    between atoms: C24_41  and  O15_42 
ROOT
HETATM    1  C10 UNL     1      19.618   3.303  10.647  1.00  0.00     0.294 C 
HETATM    2  O6  UNL     1      20.972   3.444  10.508  1.00  0.00    -0.355 OA
HETATM    3  C11 UNL     1      21.396   4.731  10.286  1.00  0.00     0.211 C 
HETATM    4  C12 UNL     1      20.704   5.758  11.157  1.00  0.00     0.104 C 
HETATM    5  C13 UNL     1      21.299   7.109  10.771  1.00  0.00     0.051 C 
HETATM    6  C14 UNL     1      19.249   5.749  10.828  1.00  0.00     0.194 C 
HETATM    7  C24 UNL     1      18.836   4.480  10.106  1.00  0.00     0.205 C 
ENDROOT
BRANCH   6   8
HETATM    8  O8  UNL     1      18.493   5.810  11.991  1.00  0.00    -0.347 OA
BRANCH   8   9
HETATM    9  C15 UNL     1      17.294   6.407  11.723  1.00  0.00     0.291 C 
HETATM   10  O9  UNL     1      16.253   5.808  12.445  1.00  0.00    -0.356 OA
HETATM   11  C16 UNL     1      15.126   6.594  12.494  1.00  0.00     0.206 C 
HETATM   12  C17 UNL     1      14.941   7.534  11.351  1.00  0.00     0.188 C 
HETATM   13  C20 UNL     1      16.130   8.419  11.087  1.00  0.00     0.197 C 
HETATM   14  C23 UNL     1      17.251   7.901  11.970  1.00  0.00     0.205 C 
BRANCH  12  15
HETATM   15  O10 UNL     1      14.578   6.776  10.209  1.00  0.00    -0.311 OA
BRANCH  15  16
HETATM   16  C18 UNL     1      14.277   7.344   8.987  1.00  0.00     0.255 C 
HETATM   17  C19 UNL     1      13.107   8.224   8.864  1.00  0.00     0.126 C 
HETATM   18  O11 UNL     1      15.036   7.077   8.019  1.00  0.00    -0.266 OA
ENDBRANCH  15  16
ENDBRANCH  12  15
BRANCH  13  19
HETATM   19  O12 UNL     1      15.910   9.780  11.218  1.00  0.00    -0.311 OA
BRANCH  19  20
HETATM   20  C21 UNL     1      15.767  10.609  10.111  1.00  0.00     0.255 C 
HETATM   21  C22 UNL     1      15.017  11.879  10.181  1.00  0.00     0.126 C 
HETATM   22  O13 UNL     1      16.298  10.243   9.054  1.00  0.00    -0.266 OA
ENDBRANCH  19  20
ENDBRANCH  13  19
BRANCH  14  23
HETATM   23  O14 UNL     1      18.431   8.537  11.626  1.00  0.00    -0.388 OA
ATOM     24  H14 UNL     1      18.319   9.167  10.923  1.00  0.00     0.210 HD
ENDBRANCH  14  23
ENDBRANCH   8   9
ENDBRANCH   6   8
BRANCH   4  25
HETATM   25  O7  UNL     1      20.988   5.475  12.486  1.00  0.00    -0.385 OA
ATOM     26  H7  UNL     1      21.512   6.183  12.841  1.00  0.00     0.210 HD
ENDBRANCH   4  25
BRANCH   7  27
HETATM   27  O15 UNL     1      18.936   4.625   8.739  1.00  0.00    -0.388 OA
ATOM     28  H15 UNL     1      18.338   5.269   8.382  1.00  0.00     0.210 HD
ENDBRANCH   7  27
BRANCH   1  29
HETATM   29  O5  UNL     1      19.093   2.149  10.126  1.00  0.00    -0.329 OA
BRANCH  29  30
HETATM   30  C9  UNL     1      18.257   1.474  11.007  1.00  0.00     0.266 C 
HETATM   31  C8  UNL     1      16.853   1.289  10.409  1.00  0.00     0.061 C 
HETATM   32  C7  UNL     1      16.299   0.096  11.190  1.00  0.00     0.010 C 
HETATM   33  C6  UNL     1      16.935   0.022  12.559  1.00  0.00     0.061 C 
HETATM   34  C5  UNL     1      17.342   1.380  13.078  1.00  0.00     0.266 C 
HETATM   35  O16 UNL     1      18.061   2.149  12.201  1.00  0.00    -0.331 OA
BRANCH  34  36
HETATM   36  O4  UNL     1      16.220   2.029  13.586  1.00  0.00    -0.330 OA
BRANCH  36  37
HETATM   37  C4  UNL     1      16.488   2.881  14.648  1.00  0.00     0.284 C 
BRANCH  37  38
HETATM   38  C3  UNL     1      17.129   2.063  15.741  1.00  0.00     0.239 C 
BRANCH  38  39
HETATM   39  O2  UNL     1      16.341   1.936  16.891  1.00  0.00    -0.317 OA
BRANCH  39  40
HETATM   40  C2  UNL     1      15.203   1.189  17.026  1.00  0.00     0.254 C 
HETATM   41  C1  UNL     1      13.834   1.777  17.012  1.00  0.00     0.126 C 
HETATM   42  O1  UNL     1      15.325  -0.054  17.168  1.00  0.00    -0.266 OA
ENDBRANCH  39  40
ENDBRANCH  38  39
ENDBRANCH  37  38
BRANCH  37  43
HETATM   43  O3  UNL     1      17.461   3.841  14.284  1.00  0.00    -0.369 OA
ATOM     44  H3  UNL     1      17.068   4.683  14.486  1.00  0.00     0.212 HD
ENDBRANCH  37  43
ENDBRANCH  36  37
ENDBRANCH  34  36
ENDBRANCH  29  30
ENDBRANCH   1  29
TORSDOF 17
ENDMDL
MODEL 3
REMARK VINA RESULT: -7.506598860      1.877      2.580
REMARK  17 active torsions:
REMARK  status: ('A' for Active; 'I' for Inactive)
REMARK    1  A    between atoms: C2_2  and  O2_4 
REMARK    2  A    between atoms: O2_4  and  C3_5 
REMARK    3  A    between atoms: C3_5  and  C4_6 
REMARK    4  A    between atoms: C4_6  and  O3_7 
REMARK    5  A    between atoms: C4_6  and  O4_9 
REMARK    6  A    between atoms: O4_9  and  C5_10 
REMARK    7  A    between atoms: C9_14  and  O5_15 
REMARK    8  A    between atoms: O5_15  and  C10_16 
REMARK    9  A    between atoms: C12_19  and  O7_21 
REMARK   10  A    between atoms: C14_23  and  O8_24 
REMARK   11  A    between atoms: O8_24  and  C15_25 
REMARK   12  A    between atoms: C17_28  and  O10_29 
REMARK   13  A    between atoms: O10_29  and  C18_30 
REMARK   14  A    between atoms: C20_33  and  O12_34 
REMARK   15  A    between atoms: O12_34  and  C21_35 
REMARK   16  A    between atoms: C23_38  and  O14_39 
REMARK   17  A    between atoms: C24_41  and  O15_42 
ROOT
HETATM    1  C10 UNL     1      18.624   4.675  12.319  1.00  0.00     0.294 C 
HETATM    2  O6  UNL     1      19.293   4.668  13.513  1.00  0.00    -0.355 OA
HETATM    3  C11 UNL     1      19.540   5.911  14.039  1.00  0.00     0.211 C 
HETATM    4  C12 UNL     1      18.364   6.860  13.939  1.00  0.00     0.104 C 
HETATM    5  C13 UNL     1      18.825   8.171  14.568  1.00  0.00     0.051 C 
HETATM    6  C14 UNL     1      18.065   7.085  12.495  1.00  0.00     0.194 C 
HETATM    7  C24 UNL     1      18.676   6.012  11.612  1.00  0.00     0.205 C 
ENDROOT
BRANCH   6   8
HETATM    8  O8  UNL     1      16.694   7.049  12.277  1.00  0.00    -0.347 OA
BRANCH   8   9
HETATM    9  C15 UNL     1      16.347   8.033  11.397  1.00  0.00     0.291 C 
HETATM   10  O9  UNL     1      17.397   8.943  11.209  1.00  0.00    -0.356 OA
HETATM   11  C16 UNL     1      17.231   9.712  10.081  1.00  0.00     0.206 C 
HETATM   12  C17 UNL     1      15.822   9.933   9.648  1.00  0.00     0.188 C 
HETATM   13  C20 UNL     1      15.024   8.667   9.485  1.00  0.00     0.197 C 
HETATM   14  C23 UNL     1      15.886   7.547  10.039  1.00  0.00     0.205 C 
BRANCH  12  15
HETATM   15  O10 UNL     1      15.214  10.831  10.563  1.00  0.00    -0.311 OA
BRANCH  15  16
HETATM   16  C18 UNL     1      14.968  12.158  10.272  1.00  0.00     0.255 C 
HETATM   17  C19 UNL     1      15.833  13.199  10.843  1.00  0.00     0.126 C 
HETATM   18  O11 UNL     1      13.996  12.417   9.515  1.00  0.00    -0.266 OA
ENDBRANCH  15  16
ENDBRANCH  12  15
BRANCH  13  19
HETATM   19  O12 UNL     1      14.545   8.416   8.210  1.00  0.00    -0.311 OA
BRANCH  19  20
HETATM   20  C21 UNL     1      13.275   7.892   7.995  1.00  0.00     0.255 C 
HETATM   21  C22 UNL     1      12.074   8.749   7.971  1.00  0.00     0.126 C 
HETATM   22  O13 UNL     1      13.186   6.670   7.819  1.00  0.00    -0.266 OA
ENDBRANCH  19  20
ENDBRANCH  13  19
BRANCH  14  23
HETATM   23  O14 UNL     1      15.134   6.388  10.109  1.00  0.00    -0.388 OA
ATOM     24  H14 UNL     1      15.108   5.913   9.286  1.00  0.00     0.210 HD
ENDBRANCH  14  23
ENDBRANCH   8   9
ENDBRANCH   6   8
BRANCH   4  25
HETATM   25  O7  UNL     1      17.305   6.330  14.663  1.00  0.00    -0.385 OA
ATOM     26  H7  UNL     1      17.191   6.846  15.453  1.00  0.00     0.210 HD
ENDBRANCH   4  25
BRANCH   7  27
HETATM   27  O15 UNL     1      19.941   6.365  11.196  1.00  0.00    -0.388 OA
ATOM     28  H15 UNL     1      19.998   7.256  10.873  1.00  0.00     0.210 HD
ENDBRANCH   7  27
BRANCH   1  29
HETATM   29  O5  UNL     1      18.995   3.696  11.435  1.00  0.00    -0.329 OA
BRANCH  29  30
HETATM   30  C9  UNL     1      18.118   2.618  11.402  1.00  0.00     0.266 C 
HETATM   31  C8  UNL     1      16.663   3.089  11.242  1.00  0.00     0.061 C 
HETATM   32  C7  UNL     1      15.965   1.860  10.658  1.00  0.00     0.010 C 
HETATM   33  C6  UNL     1      16.676   0.597  11.085  1.00  0.00     0.061 C 
HETATM   34  C5  UNL     1      17.356   0.745  12.424  1.00  0.00     0.266 C 
HETATM   35  O16 UNL     1      18.134   1.864  12.564  1.00  0.00    -0.331 OA
BRANCH  34  36
HETATM   36  O4  UNL     1      16.409   0.606  13.435  1.00  0.00    -0.330 OA
BRANCH  36  37
HETATM   37  C4  UNL     1      16.925   0.711  14.718  1.00  0.00     0.284 C 
BRANCH  37  38
HETATM   38  C3  UNL     1      16.358   1.964  15.339  1.00  0.00     0.239 C 
BRANCH  38  39
HETATM   39  O2  UNL     1      16.246   1.906  16.733  1.00  0.00    -0.317 OA
BRANCH  39  40
HETATM   40  C2  UNL     1      15.097   1.737  17.456  1.00  0.00     0.254 C 
HETATM   41  C1  UNL     1      14.759   2.556  18.654  1.00  0.00     0.126 C 
HETATM   42  O1  UNL     1      14.291   0.847  17.087  1.00  0.00    -0.266 OA
ENDBRANCH  39  40
ENDBRANCH  38  39
ENDBRANCH  37  38
BRANCH  37  43
HETATM   43  O3  UNL     1      16.460  -0.348  15.532  1.00  0.00    -0.369 OA
ATOM     44  H3  UNL     1      17.207  -0.927  15.637  1.00  0.00     0.212 HD
ENDBRANCH  37  43
ENDBRANCH  36  37
ENDBRANCH  34  36
ENDBRANCH  29  30
ENDBRANCH   1  29
TORSDOF 17
ENDMDL
MODEL 4
REMARK VINA RESULT: -7.449654978      1.586      2.774
REMARK  17 active torsions:
REMARK  status: ('A' for Active; 'I' for Inactive)
REMARK    1  A    between atoms: C2_2  and  O2_4 
REMARK    2  A    between atoms: O2_4  and  C3_5 
REMARK    3  A    between atoms: C3_5  and  C4_6 
REMARK    4  A    between atoms: C4_6  and  O3_7 
REMARK    5  A    between atoms: C4_6  and  O4_9 
REMARK    6  A    between atoms: O4_9  and  C5_10 
REMARK    7  A    between atoms: C9_14  and  O5_15 
REMARK    8  A    between atoms: O5_15  and  C10_16 
REMARK    9  A    between atoms: C12_19  and  O7_21 
REMARK   10  A    between atoms: C14_23  and  O8_24 
REMARK   11  A    between atoms: O8_24  and  C15_25 
REMARK   12  A    between atoms: C17_28  and  O10_29 
REMARK   13  A    between atoms: O10_29  and  C18_30 
REMARK   14  A    between atoms: C20_33  and  O12_34 
REMARK   15  A    between atoms: O12_34  and  C21_35 
REMARK   16  A    between atoms: C23_38  and  O14_39 
REMARK   17  A    between atoms: C24_41  and  O15_42 
ROOT
HETATM    1  C10 UNL     1      18.029   4.321   9.861  1.00  0.00     0.294 C 
HETATM    2  O6  UNL     1      19.190   3.734   9.437  1.00  0.00    -0.355 OA
HETATM    3  C11 UNL     1      20.007   4.550   8.693  1.00  0.00     0.211 C 
HETATM    4  C12 UNL     1      20.133   5.954   9.246  1.00  0.00     0.104 C 
HETATM    5  C13 UNL     1      21.067   6.699   8.298  1.00  0.00     0.051 C 
HETATM    6  C14 UNL     1      18.786   6.594   9.214  1.00  0.00     0.194 C 
HETATM    7  C24 UNL     1      17.672   5.570   9.085  1.00  0.00     0.205 C 
ENDROOT
BRANCH   6   8
HETATM    8  O8  UNL     1      18.555   7.288  10.394  1.00  0.00    -0.347 OA
BRANCH   8   9
HETATM    9  C15 UNL     1      17.232   7.617  10.477  1.00  0.00     0.291 C 
HETATM   10  O9  UNL     1      16.643   7.074  11.627  1.00  0.00    -0.356 OA
HETATM   11  C16 UNL     1      15.445   7.675  11.938  1.00  0.00     0.206 C 
HETATM   12  C17 UNL     1      14.696   8.259  10.789  1.00  0.00     0.188 C 
HETATM   13  C20 UNL     1      15.505   9.212   9.950  1.00  0.00     0.197 C 
HETATM   14  C23 UNL     1      16.937   9.102  10.443  1.00  0.00     0.205 C 
BRANCH  12  15
HETATM   15  O10 UNL     1      14.164   7.193  10.020  1.00  0.00    -0.311 OA
BRANCH  15  16
HETATM   16  C18 UNL     1      13.802   7.322   8.694  1.00  0.00     0.255 C 
HETATM   17  C19 UNL     1      12.540   7.989   8.348  1.00  0.00     0.126 C 
HETATM   18  O11 UNL     1      14.588   6.855   7.829  1.00  0.00    -0.266 OA
ENDBRANCH  15  16
ENDBRANCH  12  15
BRANCH  13  19
HETATM   19  O12 UNL     1      15.038  10.515   9.898  1.00  0.00    -0.311 OA
BRANCH  19  20
HETATM   20  C21 UNL     1      14.757  11.145   8.691  1.00  0.00     0.255 C 
HETATM   21  C22 UNL     1      13.410  11.662   8.379  1.00  0.00     0.126 C 
HETATM   22  O13 UNL     1      15.685  11.261   7.880  1.00  0.00    -0.266 OA
ENDBRANCH  19  20
ENDBRANCH  13  19
BRANCH  14  23
HETATM   23  O14 UNL     1      17.767   9.796   9.580  1.00  0.00    -0.388 OA
ATOM     24  H14 UNL     1      17.437   9.821   8.690  1.00  0.00     0.210 HD
ENDBRANCH  14  23
ENDBRANCH   8   9
ENDBRANCH   6   8
BRANCH   4  25
HETATM   25  O7  UNL     1      20.698   5.881  10.512  1.00  0.00    -0.385 OA
ATOM     26  H7  UNL     1      20.519   6.694  10.970  1.00  0.00     0.210 HD
ENDBRANCH   4  25
BRANCH   7  27
HETATM   27  O15 UNL     1      17.363   5.328   7.764  1.00  0.00    -0.388 OA
ATOM     28  H15 UNL     1      17.412   6.102   7.216  1.00  0.00     0.210 HD
ENDBRANCH   7  27
BRANCH   1  29
HETATM   29  O5  UNL     1      16.935   3.497   9.895  1.00  0.00    -0.329 OA
BRANCH  29  30
HETATM   30  C9  UNL     1      17.069   2.436  10.782  1.00  0.00     0.266 C 
HETATM   31  C8  UNL     1      15.942   1.408  10.595  1.00  0.00     0.061 C 
HETATM   32  C7  UNL     1      16.542   0.126  11.176  1.00  0.00     0.010 C 
HETATM   33  C6  UNL     1      17.568   0.458  12.234  1.00  0.00     0.061 C 
HETATM   34  C5  UNL     1      17.269   1.761  12.936  1.00  0.00     0.266 C 
HETATM   35  O16 UNL     1      16.997   2.820  12.112  1.00  0.00    -0.331 OA
BRANCH  34  36
HETATM   36  O4  UNL     1      16.284   1.546  13.896  1.00  0.00    -0.330 OA
BRANCH  36  37
HETATM   37  C4  UNL     1      16.413   2.335  15.030  1.00  0.00     0.284 C 
BRANCH  37  38
HETATM   38  C3  UNL     1      17.117   1.513  16.082  1.00  0.00     0.239 C 
BRANCH  38  39
HETATM   39  O2  UNL     1      16.255   0.924  17.014  1.00  0.00    -0.317 OA
BRANCH  39  40
HETATM   40  C2  UNL     1      14.999   1.349  17.351  1.00  0.00     0.254 C 
HETATM   41  C1  UNL     1      14.743   2.475  18.291  1.00  0.00     0.126 C 
HETATM   42  O1  UNL     1      14.017   0.756  16.838  1.00  0.00    -0.266 OA
ENDBRANCH  39  40
ENDBRANCH  38  39
ENDBRANCH  37  38
BRANCH  37  43
HETATM   43  O3  UNL     1      17.271   3.431  14.781  1.00  0.00    -0.369 OA
ATOM     44  H3  UNL     1      17.907   3.415  15.487  1.00  0.00     0.212 HD
ENDBRANCH  37  43
ENDBRANCH  36  37
ENDBRANCH  34  36
ENDBRANCH  29  30
ENDBRANCH   1  29
TORSDOF 17
ENDMDL
MODEL 5
REMARK VINA RESULT: -7.419502812      2.120      7.321
REMARK  17 active torsions:
REMARK  status: ('A' for Active; 'I' for Inactive)
REMARK    1  A    between atoms: C2_2  and  O2_4 
REMARK    2  A    between atoms: O2_4  and  C3_5 
REMARK    3  A    between atoms: C3_5  and  C4_6 
REMARK    4  A    between atoms: C4_6  and  O3_7 
REMARK    5  A    between atoms: C4_6  and  O4_9 
REMARK    6  A    between atoms: O4_9  and  C5_10 
REMARK    7  A    between atoms: C9_14  and  O5_15 
REMARK    8  A    between atoms: O5_15  and  C10_16 
REMARK    9  A    between atoms: C12_19  and  O7_21 
REMARK   10  A    between atoms: C14_23  and  O8_24 
REMARK   11  A    between atoms: O8_24  and  C15_25 
REMARK   12  A    between atoms: C17_28  and  O10_29 
REMARK   13  A    between atoms: O10_29  and  C18_30 
REMARK   14  A    between atoms: C20_33  and  O12_34 
REMARK   15  A    between atoms: O12_34  and  C21_35 
REMARK   16  A    between atoms: C23_38  and  O14_39 
REMARK   17  A    between atoms: C24_41  and  O15_42 
ROOT
HETATM    1  C10 UNL     1      16.533   2.876  12.633  1.00  0.00     0.294 C 
HETATM    2  O6  UNL     1      15.824   1.728  12.407  1.00  0.00    -0.355 OA
HETATM    3  C11 UNL     1      16.235   1.006  11.313  1.00  0.00     0.211 C 
HETATM    4  C12 UNL     1      17.740   0.897  11.187  1.00  0.00     0.104 C 
HETATM    5  C13 UNL     1      17.998   0.071   9.930  1.00  0.00     0.051 C 
HETATM    6  C14 UNL     1      18.296   2.267  10.997  1.00  0.00     0.194 C 
HETATM    7  C24 UNL     1      17.315   3.345  11.426  1.00  0.00     0.205 C 
ENDROOT
BRANCH   6   8
HETATM    8  O8  UNL     1      19.435   2.435  11.772  1.00  0.00    -0.347 OA
BRANCH   8   9
HETATM    9  C15 UNL     1      20.318   3.243  11.114  1.00  0.00     0.291 C 
HETATM   10  O9  UNL     1      19.990   3.357   9.757  1.00  0.00    -0.356 OA
HETATM   11  C16 UNL     1      20.610   4.427   9.154  1.00  0.00     0.206 C 
HETATM   12  C17 UNL     1      21.905   4.851   9.758  1.00  0.00     0.188 C 
HETATM   13  C20 UNL     1      21.835   5.111  11.240  1.00  0.00     0.197 C 
HETATM   14  C23 UNL     1      20.465   4.636  11.691  1.00  0.00     0.205 C 
BRANCH  12  15
HETATM   15  O10 UNL     1      22.884   3.877   9.435  1.00  0.00    -0.311 OA
BRANCH  15  16
HETATM   16  C18 UNL     1      24.071   4.178   8.796  1.00  0.00     0.255 C 
HETATM   17  C19 UNL     1      24.294   5.536   8.283  1.00  0.00     0.126 C 
HETATM   18  O11 UNL     1      24.921   3.257   8.684  1.00  0.00    -0.266 OA
ENDBRANCH  15  16
ENDBRANCH  12  15
BRANCH  13  19
HETATM   19  O12 UNL     1      22.129   6.404  11.640  1.00  0.00    -0.311 OA
BRANCH  19  20
HETATM   20  C21 UNL     1      23.437   6.872  11.703  1.00  0.00     0.255 C 
HETATM   21  C22 UNL     1      24.535   6.042  12.236  1.00  0.00     0.126 C 
HETATM   22  O13 UNL     1      23.651   8.019  11.290  1.00  0.00    -0.266 OA
ENDBRANCH  19  20
ENDBRANCH  13  19
BRANCH  14  23
HETATM   23  O14 UNL     1      20.411   4.655  13.073  1.00  0.00    -0.388 OA
ATOM     24  H14 UNL     1      21.258   4.507  13.478  1.00  0.00     0.210 HD
ENDBRANCH  14  23
ENDBRANCH   8   9
ENDBRANCH   6   8
BRANCH   4  25
HETATM   25  O7  UNL     1      18.230   0.233  12.303  1.00  0.00    -0.385 OA
ATOM     26  H7  UNL     1      18.997  -0.265  12.046  1.00  0.00     0.210 HD
ENDBRANCH   4  25
BRANCH   7  27
HETATM   27  O15 UNL     1      16.518   3.744  10.375  1.00  0.00    -0.388 OA
ATOM     28  H15 UNL     1      16.698   3.281   9.566  1.00  0.00     0.210 HD
ENDBRANCH   7  27
BRANCH   1  29
HETATM   29  O5  UNL     1      15.803   3.929  13.119  1.00  0.00    -0.329 OA
BRANCH  29  30
HETATM   30  C9  UNL     1      16.463   5.149  13.030  1.00  0.00     0.266 C 
HETATM   31  C8  UNL     1      16.361   5.935  14.347  1.00  0.00     0.061 C 
HETATM   32  C7  UNL     1      17.556   6.886  14.276  1.00  0.00     0.010 C 
HETATM   33  C6  UNL     1      17.907   7.184  12.837  1.00  0.00     0.061 C 
HETATM   34  C5  UNL     1      16.706   7.112  11.926  1.00  0.00     0.266 C 
HETATM   35  O16 UNL     1      15.936   5.987  12.061  1.00  0.00    -0.331 OA
BRANCH  34  36
HETATM   36  O4  UNL     1      15.976   8.293  12.039  1.00  0.00    -0.330 OA
BRANCH  36  37
HETATM   37  C4  UNL     1      14.879   8.367  11.192  1.00  0.00     0.284 C 
BRANCH  37  38
HETATM   38  C3  UNL     1      15.260   7.708   9.890  1.00  0.00     0.239 C 
BRANCH  38  39
HETATM   39  O2  UNL     1      14.260   6.888   9.354  1.00  0.00    -0.317 OA
BRANCH  39  40
HETATM   40  C2  UNL     1      13.452   7.173   8.287  1.00  0.00     0.254 C 
HETATM   41  C1  UNL     1      12.373   8.199   8.331  1.00  0.00     0.126 C 
HETATM   42  O1  UNL     1      13.634   6.534   7.221  1.00  0.00    -0.266 OA
ENDBRANCH  39  40
ENDBRANCH  38  39
ENDBRANCH  37  38
BRANCH  37  43
HETATM   43  O3  UNL     1      13.806   7.596  11.697  1.00  0.00    -0.369 OA
ATOM     44  H3  UNL     1      13.470   8.092  12.435  1.00  0.00     0.212 HD
ENDBRANCH  37  43
ENDBRANCH  36  37
ENDBRANCH  34  36
ENDBRANCH  29  30
ENDBRANCH   1  29
TORSDOF 17
ENDMDL
