MODEL 1
REMARK VINA RESULT: -6.090644148      0.000      0.000
REMARK  17 active torsions:
REMARK  status: ('A' for Active; 'I' for Inactive)
REMARK    1  A    between atoms: O1_2  and  C2_3 
REMARK    2  A    between atoms: C3_4  and  O2_5 
REMARK    3  A    between atoms: O2_5  and  C4_6 
REMARK    4  A    between atoms: C5_7  and  O3_8 
REMARK    5  A    between atoms: O3_8  and  C6_9 
REMARK    6  A    between atoms: C8_12  and  O5_13 
REMARK    7  A    between atoms: O5_13  and  C9_14 
REMARK    8  A    between atoms: C11_17  and  O7_18 
REMARK    9  A    between atoms: O7_18  and  C12_19 
REMARK   10  A    between atoms: C14_22  and  C15_23 
REMARK   11  A    between atoms: C15_23  and  O9_24 
REMARK   12  A    between atoms: C15_23  and  C16_26 
REMARK   13  A    between atoms: C16_26  and  O10_27 
REMARK   14  A    between atoms: C17_29  and  O11_30 
REMARK   15  A    between atoms: C20_36  and  O13_38 
REMARK   16  A    between atoms: C22_40  and  O14_41 
REMARK   17  A    between atoms: O14_41  and  C23_42 
ROOT
HETATM    1  C4  UNL     1      19.976   5.342  11.409  1.00  0.00     0.203 C 
HETATM    2  C5  UNL     1      18.983   6.257  12.035  1.00  0.00     0.197 C 
HETATM    3  C8  UNL     1      17.554   5.806  12.078  1.00  0.00     0.194 C 
HETATM    4  C11 UNL     1      17.310   4.530  11.334  1.00  0.00     0.174 C 
HETATM    5  C14 UNL     1      18.025   4.410  10.037  1.00  0.00     0.100 C 
HETATM    6  C17 UNL     1      19.497   4.427  10.356  1.00  0.00     0.183 C 
HETATM    7  C18 UNL     1      19.797   3.034  10.859  1.00  0.00     0.101 C 
HETATM    8  N1  UNL     1      20.039   1.970  11.227  1.00  0.00    -0.194 NA
ENDROOT
BRANCH   6   9
HETATM    9  O11 UNL     1      20.188   4.623   9.176  1.00  0.00    -0.372 OA
ATOM     10  H11 UNL     1      19.608   4.556   8.426  1.00  0.00     0.212 HD
ENDBRANCH   6   9
BRANCH   1  11
HETATM   11  O2  UNL     1      21.064   6.021  10.841  1.00  0.00    -0.369 OA
BRANCH  11  12
HETATM   12  C3  UNL     1      22.258   5.941  11.439  1.00  0.00     0.177 C 
HETATM   13  C2  UNL     1      23.205   6.869  10.721  1.00  0.00     0.186 C 
HETATM   14  C22 UNL     1      23.347   6.312   9.308  1.00  0.00     0.225 C 
HETATM   15  C20 UNL     1      24.087   5.001   9.438  1.00  0.00     0.187 C 
HETATM   16  O12 UNL     1      23.192   4.136  10.115  1.00  0.00    -0.350 OA
HETATM   17  C21 UNL     1      24.388   4.377   8.092  1.00  0.00     0.082 C 
HETATM   18  C19 UNL     1      22.923   4.572  11.387  1.00  0.00     0.206 C 
BRANCH  13  19
HETATM   19  O1  UNL     1      24.434   6.992  11.343  1.00  0.00    -0.385 OA
HETATM   20  C1  UNL     1      24.304   7.871  12.412  1.00  0.00     0.202 C 
ENDBRANCH  13  19
BRANCH  14  21
HETATM   21  O14 UNL     1      23.885   7.204   8.393  1.00  0.00    -0.308 OA
BRANCH  21  22
HETATM   22  C23 UNL     1      23.059   7.767   7.435  1.00  0.00     0.255 C 
HETATM   23  C24 UNL     1      21.687   7.305   7.129  1.00  0.00     0.126 C 
HETATM   24  O15 UNL     1      23.499   8.757   6.757  1.00  0.00    -0.266 OA
ENDBRANCH  21  22
ENDBRANCH  14  21
BRANCH  15  25
HETATM   25  O13 UNL     1      25.284   5.127  10.150  1.00  0.00    -0.363 OA
ATOM     26  H13 UNL     1      25.237   5.858  10.757  1.00  0.00     0.213 HD
ENDBRANCH  15  25
ENDBRANCH  11  12
ENDBRANCH   1  11
BRANCH   5  27
HETATM   27  C15 UNL     1      17.711   5.546   9.127  1.00  0.00     0.152 C 
BRANCH  27  28
HETATM   28  O9  UNL     1      17.487   5.005   7.783  1.00  0.00    -0.393 OA
ATOM     29  H9  UNL     1      17.566   5.718   7.161  1.00  0.00     0.210 HD
ENDBRANCH  27  28
BRANCH  27  30
HETATM   30  C16 UNL     1      16.366   6.214   9.325  1.00  0.00     0.196 C 
BRANCH  30  31
HETATM   31  O10 UNL     1      15.922   6.825   8.202  1.00  0.00    -0.398 OA
ATOM     32  H10 UNL     1      14.985   6.724   8.079  1.00  0.00     0.209 HD
ENDBRANCH  30  31
ENDBRANCH  27  30
ENDBRANCH   5  27
BRANCH   2  33
HETATM   33  O3  UNL     1      19.302   6.519  13.411  1.00  0.00    -0.311 OA
BRANCH  33  34
HETATM   34  C6  UNL     1      19.680   7.764  13.881  1.00  0.00     0.255 C 
HETATM   35  C7  UNL     1      18.835   8.357  14.960  1.00  0.00     0.126 C 
HETATM   36  O4  UNL     1      20.680   8.332  13.404  1.00  0.00    -0.266 OA
ENDBRANCH  33  34
ENDBRANCH   2  33
BRANCH   4  37
HETATM   37  O7  UNL     1      17.474   3.391  12.162  1.00  0.00    -0.313 OA
BRANCH  37  38
HETATM   38  C12 UNL     1      16.601   2.353  12.139  1.00  0.00     0.255 C 
HETATM   39  C13 UNL     1      16.915   0.947  12.536  1.00  0.00     0.126 C 
HETATM   40  O8  UNL     1      15.445   2.596  11.754  1.00  0.00    -0.266 OA
ENDBRANCH  37  38
ENDBRANCH   4  37
BRANCH   3  41
HETATM   41  O5  UNL     1      16.965   5.857  13.349  1.00  0.00    -0.311 OA
BRANCH  41  42
HETATM   42  C9  UNL     1      15.637   5.822  13.647  1.00  0.00     0.255 C 
HETATM   43  C10 UNL     1      15.078   5.049  14.751  1.00  0.00     0.126 C 
HETATM   44  O6  UNL     1      14.936   6.504  12.901  1.00  0.00    -0.266 OA
ENDBRANCH  41  42
ENDBRANCH   3  41
TORSDOF 17
ENDMDL
MODEL 2
REMARK VINA RESULT: -6.024710250      2.004      3.381
REMARK  17 active torsions:
REMARK  status: ('A' for Active; 'I' for Inactive)
REMARK    1  A    between atoms: O1_2  and  C2_3 
REMARK    2  A    between atoms: C3_4  and  O2_5 
REMARK    3  A    between atoms: O2_5  and  C4_6 
REMARK    4  A    between atoms: C5_7  and  O3_8 
REMARK    5  A    between atoms: O3_8  and  C6_9 
REMARK    6  A    between atoms: C8_12  and  O5_13 
REMARK    7  A    between atoms: O5_13  and  C9_14 
REMARK    8  A    between atoms: C11_17  and  O7_18 
REMARK    9  A    between atoms: O7_18  and  C12_19 
REMARK   10  A    between atoms: C14_22  and  C15_23 
REMARK   11  A    between atoms: C15_23  and  O9_24 
REMARK   12  A    between atoms: C15_23  and  C16_26 
REMARK   13  A    between atoms: C16_26  and  O10_27 
REMARK   14  A    between atoms: C17_29  and  O11_30 
REMARK   15  A    between atoms: C20_36  and  O13_38 
REMARK   16  A    between atoms: C22_40  and  O14_41 
REMARK   17  A    between atoms: O14_41  and  C23_42 
ROOT
HETATM    1  C4  UNL     1      20.436   6.818  12.627  1.00  0.00     0.203 C 
HETATM    2  C5  UNL     1      19.914   7.972  11.847  1.00  0.00     0.197 C 
HETATM    3  C8  UNL     1      18.487   7.914  11.390  1.00  0.00     0.194 C 
HETATM    4  C11 UNL     1      17.826   6.600  11.672  1.00  0.00     0.174 C 
HETATM    5  C14 UNL     1      18.671   5.403  11.426  1.00  0.00     0.100 C 
HETATM    6  C17 UNL     1      19.832   5.495  12.382  1.00  0.00     0.183 C 
HETATM    7  C18 UNL     1      19.269   5.050  13.712  1.00  0.00     0.101 C 
HETATM    8  N1  UNL     1      18.854   4.697  14.726  1.00  0.00    -0.194 NA
ENDROOT
BRANCH   6   9
HETATM    9  O11 UNL     1      20.786   4.579  11.984  1.00  0.00    -0.372 OA
ATOM     10  H11 UNL     1      20.547   3.699  12.248  1.00  0.00     0.212 HD
ENDBRANCH   6   9
BRANCH   1  11
HETATM   11  O2  UNL     1      21.816   6.628  12.467  1.00  0.00    -0.369 OA
BRANCH  11  12
HETATM   12  C3  UNL     1      22.509   7.508  11.737  1.00  0.00     0.177 C 
HETATM   13  C2  UNL     1      23.032   6.796  10.514  1.00  0.00     0.186 C 
HETATM   14  C22 UNL     1      24.005   5.741  11.029  1.00  0.00     0.225 C 
HETATM   15  C20 UNL     1      25.188   6.490  11.596  1.00  0.00     0.187 C 
HETATM   16  O12 UNL     1      24.689   7.159  12.742  1.00  0.00    -0.350 OA
HETATM   17  C21 UNL     1      26.289   5.560  12.059  1.00  0.00     0.082 C 
HETATM   18  C19 UNL     1      23.740   8.094  12.415  1.00  0.00     0.206 C 
BRANCH  13  19
HETATM   19  O1  UNL     1      23.635   7.640   9.601  1.00  0.00    -0.385 OA
HETATM   20  C1  UNL     1      22.671   8.087   8.705  1.00  0.00     0.202 C 
ENDBRANCH  13  19
BRANCH  14  21
HETATM   21  O14 UNL     1      24.320   4.755  10.106  1.00  0.00    -0.308 OA
BRANCH  21  22
HETATM   22  C23 UNL     1      23.328   4.275   9.268  1.00  0.00     0.255 C 
HETATM   23  C24 UNL     1      23.289   4.485   7.804  1.00  0.00     0.126 C 
HETATM   24  O15 UNL     1      22.371   3.601   9.779  1.00  0.00    -0.266 OA
ENDBRANCH  21  22
ENDBRANCH  14  21
BRANCH  15  25
HETATM   25  O13 UNL     1      25.730   7.406  10.688  1.00  0.00    -0.363 OA
ATOM     26  H13 UNL     1      26.656   7.537  10.857  1.00  0.00     0.213 HD
ENDBRANCH  15  25
ENDBRANCH  11  12
ENDBRANCH   1  11
BRANCH   5  27
HETATM   27  C15 UNL     1      19.191   5.372  10.031  1.00  0.00     0.152 C 
BRANCH  27  28
HETATM   28  O9  UNL     1      19.490   3.979   9.687  1.00  0.00    -0.393 OA
ATOM     29  H9  UNL     1      19.152   3.811   8.815  1.00  0.00     0.210 HD
ENDBRANCH  27  28
BRANCH  27  30
HETATM   30  C16 UNL     1      18.189   5.662   8.933  1.00  0.00     0.196 C 
BRANCH  30  31
HETATM   31  O10 UNL     1      17.336   4.632   8.726  1.00  0.00    -0.398 OA
ATOM     32  H10 UNL     1      17.656   4.021   8.072  1.00  0.00     0.209 HD
ENDBRANCH  30  31
ENDBRANCH  27  30
ENDBRANCH   5  27
BRANCH   2  33
HETATM   33  O3  UNL     1      19.983   9.193  12.601  1.00  0.00    -0.311 OA
BRANCH  33  34
HETATM   34  C6  UNL     1      20.252   9.236  13.957  1.00  0.00     0.255 C 
HETATM   35  C7  UNL     1      19.158   8.794  14.871  1.00  0.00     0.126 C 
HETATM   36  O4  UNL     1      21.363   9.629  14.359  1.00  0.00    -0.266 OA
ENDBRANCH  33  34
ENDBRANCH   2  33
BRANCH   4  37
HETATM   37  O7  UNL     1      17.199   6.581  12.943  1.00  0.00    -0.313 OA
BRANCH  37  38
HETATM   38  C12 UNL     1      15.871   6.347  13.087  1.00  0.00     0.255 C 
HETATM   39  C13 UNL     1      15.209   5.846  14.329  1.00  0.00     0.126 C 
HETATM   40  O8  UNL     1      15.148   6.568  12.100  1.00  0.00    -0.266 OA
ENDBRANCH  37  38
ENDBRANCH   4  37
BRANCH   3  41
HETATM   41  O5  UNL     1      17.719   9.034  11.733  1.00  0.00    -0.311 OA
BRANCH  41  42
HETATM   42  C9  UNL     1      16.972   9.812  10.902  1.00  0.00     0.255 C 
HETATM   43  C10 UNL     1      15.513   9.794  10.876  1.00  0.00     0.126 C 
HETATM   44  O6  UNL     1      17.633  10.539  10.163  1.00  0.00    -0.266 OA
ENDBRANCH  41  42
ENDBRANCH   3  41
TORSDOF 17
ENDMDL
MODEL 3
REMARK VINA RESULT: -5.995203995      1.962      3.790
REMARK  17 active torsions:
REMARK  status: ('A' for Active; 'I' for Inactive)
REMARK    1  A    between atoms: O1_2  and  C2_3 
REMARK    2  A    between atoms: C3_4  and  O2_5 
REMARK    3  A    between atoms: O2_5  and  C4_6 
REMARK    4  A    between atoms: C5_7  and  O3_8 
REMARK    5  A    between atoms: O3_8  and  C6_9 
REMARK    6  A    between atoms: C8_12  and  O5_13 
REMARK    7  A    between atoms: O5_13  and  C9_14 
REMARK    8  A    between atoms: C11_17  and  O7_18 
REMARK    9  A    between atoms: O7_18  and  C12_19 
REMARK   10  A    between atoms: C14_22  and  C15_23 
REMARK   11  A    between atoms: C15_23  and  O9_24 
REMARK   12  A    between atoms: C15_23  and  C16_26 
REMARK   13  A    between atoms: C16_26  and  O10_27 
REMARK   14  A    between atoms: C17_29  and  O11_30 
REMARK   15  A    between atoms: C20_36  and  O13_38 
REMARK   16  A    between atoms: C22_40  and  O14_41 
REMARK   17  A    between atoms: O14_41  and  C23_42 
ROOT
HETATM    1  C4  UNL     1      19.724   4.890  10.926  1.00  0.00     0.203 C 
HETATM    2  C5  UNL     1      19.896   6.178  11.648  1.00  0.00     0.197 C 
HETATM    3  C8  UNL     1      18.899   6.516  12.715  1.00  0.00     0.194 C 
HETATM    4  C11 UNL     1      17.762   5.544  12.795  1.00  0.00     0.174 C 
HETATM    5  C14 UNL     1      17.232   5.084  11.486  1.00  0.00     0.100 C 
HETATM    6  C17 UNL     1      18.356   4.349  10.804  1.00  0.00     0.183 C 
HETATM    7  C18 UNL     1      18.391   2.995  11.473  1.00  0.00     0.101 C 
HETATM    8  N1  UNL     1      18.415   1.954  11.964  1.00  0.00    -0.194 NA
ENDROOT
BRANCH   6   9
HETATM    9  O11 UNL     1      18.009   4.173   9.478  1.00  0.00    -0.372 OA
ATOM     10  H11 UNL     1      18.181   3.282   9.195  1.00  0.00     0.212 HD
ENDBRANCH   6   9
BRANCH   1  11
HETATM   11  O2  UNL     1      20.225   4.923   9.616  1.00  0.00    -0.369 OA
BRANCH  11  12
HETATM   12  C3  UNL     1      20.879   6.015   9.203  1.00  0.00     0.177 C 
HETATM   13  C2  UNL     1      20.042   6.692   8.147  1.00  0.00     0.186 C 
HETATM   14  C22 UNL     1      19.972   5.714   6.978  1.00  0.00     0.225 C 
HETATM   15  C20 UNL     1      21.366   5.636   6.401  1.00  0.00     0.187 C 
HETATM   16  O12 UNL     1      22.146   5.001   7.400  1.00  0.00    -0.350 OA
HETATM   17  C21 UNL     1      21.427   4.768   5.162  1.00  0.00     0.082 C 
HETATM   18  C19 UNL     1      22.226   5.757   8.542  1.00  0.00     0.206 C 
BRANCH  13  19
HETATM   19  O1  UNL     1      20.541   7.919   7.751  1.00  0.00    -0.385 OA
HETATM   20  C1  UNL     1      19.774   8.919   8.337  1.00  0.00     0.202 C 
ENDBRANCH  13  19
BRANCH  14  21
HETATM   21  O14 UNL     1      18.969   5.989   6.061  1.00  0.00    -0.308 OA
BRANCH  21  22
HETATM   22  C23 UNL     1      17.660   6.092   6.503  1.00  0.00     0.255 C 
HETATM   23  C24 UNL     1      16.830   7.312   6.400  1.00  0.00     0.126 C 
HETATM   24  O15 UNL     1      17.118   5.069   7.042  1.00  0.00    -0.266 OA
ENDBRANCH  21  22
ENDBRANCH  14  21
BRANCH  15  25
HETATM   25  O13 UNL     1      21.891   6.895   6.092  1.00  0.00    -0.363 OA
ATOM     26  H13 UNL     1      21.501   7.564   6.642  1.00  0.00     0.213 HD
ENDBRANCH  15  25
ENDBRANCH  11  12
ENDBRANCH   1  11
BRANCH   5  27
HETATM   27  C15 UNL     1      16.807   6.226  10.631  1.00  0.00     0.152 C 
BRANCH  27  28
HETATM   28  O9  UNL     1      15.805   5.735   9.680  1.00  0.00    -0.393 OA
ATOM     29  H9  UNL     1      15.587   6.444   9.088  1.00  0.00     0.210 HD
ENDBRANCH  27  28
BRANCH  27  30
HETATM   30  C16 UNL     1      15.970   7.295  11.303  1.00  0.00     0.196 C 
BRANCH  30  31
HETATM   31  O10 UNL     1      14.657   7.194  10.994  1.00  0.00    -0.398 OA
ATOM     32  H10 UNL     1      14.093   7.470  11.707  1.00  0.00     0.209 HD
ENDBRANCH  30  31
ENDBRANCH  27  30
ENDBRANCH   5  27
BRANCH   2  33
HETATM   33  O3  UNL     1      21.161   6.236  12.329  1.00  0.00    -0.311 OA
BRANCH  33  34
HETATM   34  C6  UNL     1      22.153   7.147  12.015  1.00  0.00     0.255 C 
HETATM   35  C7  UNL     1      23.552   6.628  11.988  1.00  0.00     0.126 C 
HETATM   36  O4  UNL     1      21.857   8.331  11.773  1.00  0.00    -0.266 OA
ENDBRANCH  33  34
ENDBRANCH   2  33
BRANCH   4  37
HETATM   37  O7  UNL     1      18.038   4.476  13.686  1.00  0.00    -0.313 OA
BRANCH  37  38
HETATM   38  C12 UNL     1      17.113   4.016  14.565  1.00  0.00     0.255 C 
HETATM   39  C13 UNL     1      15.723   4.544  14.717  1.00  0.00     0.126 C 
HETATM   40  O8  UNL     1      17.455   3.077  15.304  1.00  0.00    -0.266 OA
ENDBRANCH  37  38
ENDBRANCH   4  37
BRANCH   3  41
HETATM   41  O5  UNL     1      19.461   6.853  13.953  1.00  0.00    -0.311 OA
BRANCH  41  42
HETATM   42  C9  UNL     1      19.228   7.974  14.690  1.00  0.00     0.255 C 
HETATM   43  C10 UNL     1      20.176   9.079  14.799  1.00  0.00     0.126 C 
HETATM   44  O6  UNL     1      18.141   7.982  15.266  1.00  0.00    -0.266 OA
ENDBRANCH  41  42
ENDBRANCH   3  41
TORSDOF 17
ENDMDL
MODEL 4
REMARK VINA RESULT: -5.992123352      1.764      3.087
REMARK  17 active torsions:
REMARK  status: ('A' for Active; 'I' for Inactive)
REMARK    1  A    between atoms: O1_2  and  C2_3 
REMARK    2  A    between atoms: C3_4  and  O2_5 
REMARK    3  A    between atoms: O2_5  and  C4_6 
REMARK    4  A    between atoms: C5_7  and  O3_8 
REMARK    5  A    between atoms: O3_8  and  C6_9 
REMARK    6  A    between atoms: C8_12  and  O5_13 
REMARK    7  A    between atoms: O5_13  and  C9_14 
REMARK    8  A    between atoms: C11_17  and  O7_18 
REMARK    9  A    between atoms: O7_18  and  C12_19 
REMARK   10  A    between atoms: C14_22  and  C15_23 
REMARK   11  A    between atoms: C15_23  and  O9_24 
REMARK   12  A    between atoms: C15_23  and  C16_26 
REMARK   13  A    between atoms: C16_26  and  O10_27 
REMARK   14  A    between atoms: C17_29  and  O11_30 
REMARK   15  A    between atoms: C20_36  and  O13_38 
REMARK   16  A    between atoms: C22_40  and  O14_41 
REMARK   17  A    between atoms: O14_41  and  C23_42 
ROOT
HETATM    1  C4  UNL     1      20.940   4.354  10.457  1.00  0.00     0.203 C 
HETATM    2  C5  UNL     1      20.932   5.689  11.111  1.00  0.00     0.197 C 
HETATM    3  C8  UNL     1      19.720   6.065  11.908  1.00  0.00     0.194 C 
HETATM    4  C11 UNL     1      18.607   5.069  11.803  1.00  0.00     0.174 C 
HETATM    5  C14 UNL     1      18.384   4.514  10.443  1.00  0.00     0.100 C 
HETATM    6  C17 UNL     1      19.641   3.769  10.074  1.00  0.00     0.183 C 
HETATM    7  C18 UNL     1      19.545   2.461  10.824  1.00  0.00     0.101 C 
HETATM    8  N1  UNL     1      19.474   1.454  11.377  1.00  0.00    -0.194 NA
ENDROOT
BRANCH   6   9
HETATM    9  O11 UNL     1      19.596   3.501   8.720  1.00  0.00    -0.372 OA
ATOM     10  H11 UNL     1      20.447   3.630   8.318  1.00  0.00     0.212 HD
ENDBRANCH   6   9
BRANCH   1  11
HETATM   11  O2  UNL     1      21.717   4.320   9.289  1.00  0.00    -0.369 OA
BRANCH  11  12
HETATM   12  C3  UNL     1      22.769   5.140   9.189  1.00  0.00     0.177 C 
HETATM   13  C2  UNL     1      22.546   6.048   8.006  1.00  0.00     0.186 C 
HETATM   14  C22 UNL     1      22.536   5.142   6.779  1.00  0.00     0.225 C 
HETATM   15  C20 UNL     1      23.944   4.616   6.625  1.00  0.00     0.187 C 
HETATM   16  O12 UNL     1      24.148   3.767   7.741  1.00  0.00    -0.350 OA
HETATM   17  C21 UNL     1      24.109   3.772   5.379  1.00  0.00     0.082 C 
HETATM   18  C19 UNL     1      24.105   4.459   8.925  1.00  0.00     0.206 C 
BRANCH  13  19
HETATM   19  O1  UNL     1      23.494   7.047   7.891  1.00  0.00    -0.385 OA
HETATM   20  C1  UNL     1      22.869   8.275   8.074  1.00  0.00     0.202 C 
ENDBRANCH  13  19
BRANCH  14  21
HETATM   21  O14 UNL     1      21.997   5.724   5.642  1.00  0.00    -0.308 OA
BRANCH  21  22
HETATM   22  C23 UNL     1      20.646   5.567   5.380  1.00  0.00     0.255 C 
HETATM   23  C24 UNL     1      20.033   5.662   4.037  1.00  0.00     0.126 C 
HETATM   24  O15 UNL     1      19.861   5.324   6.357  1.00  0.00    -0.266 OA
ENDBRANCH  21  22
ENDBRANCH  14  21
BRANCH  15  25
HETATM   25  O13 UNL     1      24.900   5.637   6.603  1.00  0.00    -0.363 OA
ATOM     26  H13 UNL     1      25.264   5.736   5.730  1.00  0.00     0.213 HD
ENDBRANCH  15  25
ENDBRANCH  11  12
ENDBRANCH   1  11
BRANCH   5  27
HETATM   27  C15 UNL     1      18.143   5.589   9.441  1.00  0.00     0.152 C 
BRANCH  27  28
HETATM   28  O9  UNL     1      17.507   4.982   8.268  1.00  0.00    -0.393 OA
ATOM     29  H9  UNL     1      16.643   5.365   8.169  1.00  0.00     0.210 HD
ENDBRANCH  27  28
BRANCH  27  30
HETATM   30  C16 UNL     1      17.066   6.597   9.782  1.00  0.00     0.196 C 
BRANCH  30  31
HETATM   31  O10 UNL     1      15.833   6.041   9.830  1.00  0.00    -0.398 OA
ATOM     32  H10 UNL     1      15.390   6.210  10.653  1.00  0.00     0.209 HD
ENDBRANCH  30  31
ENDBRANCH  27  30
ENDBRANCH   5  27
BRANCH   2  33
HETATM   33  O3  UNL     1      22.015   5.824  12.047  1.00  0.00    -0.311 OA
BRANCH  33  34
HETATM   34  C6  UNL     1      22.972   6.819  11.965  1.00  0.00     0.255 C 
HETATM   35  C7  UNL     1      24.371   6.431  12.312  1.00  0.00     0.126 C 
HETATM   36  O4  UNL     1      22.647   7.968  11.615  1.00  0.00    -0.266 OA
ENDBRANCH  33  34
ENDBRANCH   2  33
BRANCH   4  37
HETATM   37  O7  UNL     1      18.693   4.067  12.801  1.00  0.00    -0.313 OA
BRANCH  37  38
HETATM   38  C12 UNL     1      17.709   3.876  13.716  1.00  0.00     0.255 C 
HETATM   39  C13 UNL     1      16.307   3.465  13.407  1.00  0.00     0.126 C 
HETATM   40  O8  UNL     1      18.005   4.061  14.909  1.00  0.00    -0.266 OA
ENDBRANCH  37  38
ENDBRANCH   4  37
BRANCH   3  41
HETATM   41  O5  UNL     1      19.991   6.495  13.215  1.00  0.00    -0.311 OA
BRANCH  41  42
HETATM   42  C9  UNL     1      19.466   7.575  13.856  1.00  0.00     0.255 C 
HETATM   43  C10 UNL     1      18.154   7.574  14.495  1.00  0.00     0.126 C 
HETATM   44  O6  UNL     1      20.196   8.565  13.854  1.00  0.00    -0.266 OA
ENDBRANCH  41  42
ENDBRANCH   3  41
TORSDOF 17
ENDMDL
MODEL 5
REMARK VINA RESULT: -5.876799529      2.152      7.265
REMARK  17 active torsions:
REMARK  status: ('A' for Active; 'I' for Inactive)
REMARK    1  A    between atoms: O1_2  and  C2_3 
REMARK    2  A    between atoms: C3_4  and  O2_5 
REMARK    3  A    between atoms: O2_5  and  C4_6 
REMARK    4  A    between atoms: C5_7  and  O3_8 
REMARK    5  A    between atoms: O3_8  and  C6_9 
REMARK    6  A    between atoms: C8_12  and  O5_13 
REMARK    7  A    between atoms: O5_13  and  C9_14 
REMARK    8  A    between atoms: C11_17  and  O7_18 
REMARK    9  A    between atoms: O7_18  and  C12_19 
REMARK   10  A    between atoms: C14_22  and  C15_23 
REMARK   11  A    between atoms: C15_23  and  O9_24 
REMARK   12  A    between atoms: C15_23  and  C16_26 
REMARK   13  A    between atoms: C16_26  and  O10_27 
REMARK   14  A    between atoms: C17_29  and  O11_30 
REMARK   15  A    between atoms: C20_36  and  O13_38 
REMARK   16  A    between atoms: C22_40  and  O14_41 
REMARK   17  A    between atoms: O14_41  and  C23_42 
ROOT
HETATM    1  C4  UNL     1      19.405   6.198  11.443  1.00  0.00     0.203 C 
HETATM    2  C5  UNL     1      20.094   6.962  12.517  1.00  0.00     0.197 C 
HETATM    3  C8  UNL     1      21.330   7.724  12.145  1.00  0.00     0.194 C 
HETATM    4  C11 UNL     1      21.780   7.476  10.738  1.00  0.00     0.174 C 
HETATM    5  C14 UNL     1      21.685   6.064  10.286  1.00  0.00     0.100 C 
HETATM    6  C17 UNL     1      20.224   5.700  10.322  1.00  0.00     0.183 C 
HETATM    7  C18 UNL     1      19.641   6.329   9.078  1.00  0.00     0.101 C 
HETATM    8  N1  UNL     1      19.190   6.791   8.125  1.00  0.00    -0.194 NA
ENDROOT
BRANCH   6   9
HETATM    9  O11 UNL     1      20.123   4.327  10.205  1.00  0.00    -0.372 OA
ATOM     10  H11 UNL     1      20.852   3.972   9.710  1.00  0.00     0.212 HD
ENDBRANCH   6   9
BRANCH   1  11
HETATM   11  O2  UNL     1      18.717   5.075  11.924  1.00  0.00    -0.369 OA
BRANCH  11  12
HETATM   12  C3  UNL     1      17.384   5.040  11.818  1.00  0.00     0.177 C 
HETATM   13  C2  UNL     1      16.850   4.135  12.900  1.00  0.00     0.186 C 
HETATM   14  C22 UNL     1      17.385   2.742  12.583  1.00  0.00     0.225 C 
HETATM   15  C20 UNL     1      16.698   2.300  11.311  1.00  0.00     0.187 C 
HETATM   16  O12 UNL     1      17.202   3.157  10.301  1.00  0.00    -0.350 OA
HETATM   17  C21 UNL     1      17.062   0.883  10.925  1.00  0.00     0.082 C 
HETATM   18  C19 UNL     1      16.847   4.464  10.515  1.00  0.00     0.206 C 
BRANCH  13  19
HETATM   19  O1  UNL     1      15.471   4.140  12.992  1.00  0.00    -0.385 OA
HETATM   20  C1  UNL     1      15.090   5.124  13.897  1.00  0.00     0.202 C 
ENDBRANCH  13  19
BRANCH  14  21
HETATM   21  O14 UNL     1      17.306   1.846  13.637  1.00  0.00    -0.308 OA
BRANCH  21  22
HETATM   22  C23 UNL     1      17.055   2.324  14.912  1.00  0.00     0.255 C 
HETATM   23  C24 UNL     1      15.991   1.817  15.807  1.00  0.00     0.126 C 
HETATM   24  O15 UNL     1      17.784   3.271  15.362  1.00  0.00    -0.266 OA
ENDBRANCH  21  22
ENDBRANCH  14  21
BRANCH  15  25
HETATM   25  O13 UNL     1      15.305   2.399  11.390  1.00  0.00    -0.363 OA
ATOM     26  H13 UNL     1      14.981   1.946  12.161  1.00  0.00     0.213 HD
ENDBRANCH  15  25
ENDBRANCH  11  12
ENDBRANCH   1  11
BRANCH   5  27
HETATM   27  C15 UNL     1      22.438   5.145  11.184  1.00  0.00     0.152 C 
BRANCH  27  28
HETATM   28  O9  UNL     1      22.868   3.987  10.394  1.00  0.00    -0.393 OA
ATOM     29  H9  UNL     1      22.877   3.228  10.964  1.00  0.00     0.210 HD
ENDBRANCH  27  28
BRANCH  27  30
HETATM   30  C16 UNL     1      23.802   5.620  11.642  1.00  0.00     0.196 C 
BRANCH  30  31
HETATM   31  O10 UNL     1      24.545   4.622  12.176  1.00  0.00    -0.398 OA
ATOM     32  H10 UNL     1      24.822   3.988  11.526  1.00  0.00     0.209 HD
ENDBRANCH  30  31
ENDBRANCH  27  30
ENDBRANCH   5  27
BRANCH   2  33
HETATM   33  O3  UNL     1      19.233   7.962  13.088  1.00  0.00    -0.311 OA
BRANCH  33  34
HETATM   34  C6  UNL     1      18.724   7.886  14.371  1.00  0.00     0.255 C 
HETATM   35  C7  UNL     1      19.190   8.922  15.339  1.00  0.00     0.126 C 
HETATM   36  O4  UNL     1      17.919   6.984  14.669  1.00  0.00    -0.266 OA
ENDBRANCH  33  34
ENDBRANCH   2  33
BRANCH   4  37
HETATM   37  O7  UNL     1      21.197   8.389   9.824  1.00  0.00    -0.313 OA
BRANCH  37  38
HETATM   38  C12 UNL     1      21.949   9.216   9.056  1.00  0.00     0.255 C 
HETATM   39  C13 UNL     1      21.690   9.539   7.620  1.00  0.00     0.126 C 
HETATM   40  O8  UNL     1      22.934   9.748   9.596  1.00  0.00    -0.266 OA
ENDBRANCH  37  38
ENDBRANCH   4  37
BRANCH   3  41
HETATM   41  O5  UNL     1      21.318   9.074  12.519  1.00  0.00    -0.311 OA
BRANCH  41  42
HETATM   42  C9  UNL     1      22.251   9.736  13.258  1.00  0.00     0.255 C 
HETATM   43  C10 UNL     1      23.671   9.397  13.256  1.00  0.00     0.126 C 
HETATM   44  O6  UNL     1      21.796  10.655  13.938  1.00  0.00    -0.266 OA
ENDBRANCH  41  42
ENDBRANCH   3  41
TORSDOF 17
ENDMDL
