MODEL 1
REMARK VINA RESULT: -7.224469635      0.000      0.000
REMARK  3 active torsions:
REMARK  status: ('A' for Active; 'I' for Inactive)
REMARK    1  A    between atoms: C7_8  and  C8_9 
REMARK    2  A    between atoms: C9_10  and  C10_11 
REMARK    3  A    between atoms: C10_11  and  C11_14 
ROOT
HETATM    1  C8  UNL     1      50.526  79.871  77.769  1.00  0.00    -0.093 C 
HETATM    2  C9  UNL     1      49.727  79.023  77.472  1.00  0.00    -0.019 C 
ENDROOT
BRANCH   1   3
HETATM    3  C7  UNL     1      51.531  80.901  78.139  1.00  0.00     0.088 C 
HETATM    4  C2  UNL     1      51.224  82.129  77.385  1.00  0.00     0.047 C 
HETATM    5  C1  UNL     1      52.127  82.270  76.151  1.00  0.00     0.034 C 
HETATM    6 CL1  UNL     1      49.549  82.074  76.715  1.00  0.00    -0.118 Cl
HETATM    7  C3  UNL     1      51.326  83.410  78.142  1.00  0.00     0.026 C 
HETATM    8  C4  UNL     1      52.317  83.346  79.282  1.00  0.00     0.002 C 
HETATM    9  C5  UNL     1      51.793  82.296  80.230  1.00  0.00     0.001 C 
HETATM   10  C6  UNL     1      51.608  80.963  79.606  1.00  0.00     0.019 C 
ENDBRANCH   1   3
BRANCH   2  11
HETATM   11  C10 UNL     1      48.787  77.988  77.113  1.00  0.00     0.402 C 
HETATM   12  F1  UNL     1      47.553  78.313  77.676  1.00  0.00    -0.181 F 
HETATM   13  F2  UNL     1      49.124  76.740  77.595  1.00  0.00    -0.181 F 
BRANCH  11  14
HETATM   14  C11 UNL     1      48.623  77.943  75.592  1.00  0.00     0.467 C 
HETATM   15  F3  UNL     1      47.322  77.559  75.318  1.00  0.00    -0.164 F 
HETATM   16  F4  UNL     1      48.897  79.169  75.036  1.00  0.00    -0.164 F 
HETATM   17  F5  UNL     1      49.479  76.985  75.094  1.00  0.00    -0.164 F 
ENDBRANCH  11  14
ENDBRANCH   2  11
TORSDOF 3
ENDMDL
MODEL 2
REMARK VINA RESULT: -6.672494260      2.175      3.522
REMARK  3 active torsions:
REMARK  status: ('A' for Active; 'I' for Inactive)
REMARK    1  A    between atoms: C7_8  and  C8_9 
REMARK    2  A    between atoms: C9_10  and  C10_11 
REMARK    3  A    between atoms: C10_11  and  C11_14 
ROOT
HETATM    1  C8  UNL     1      49.652  80.285  78.090  1.00  0.00    -0.093 C 
HETATM    2  C9  UNL     1      49.432  80.106  76.921  1.00  0.00    -0.019 C 
ENDROOT
BRANCH   1   3
HETATM    3  C7  UNL     1      49.941  80.488  79.533  1.00  0.00     0.088 C 
HETATM    4  C2  UNL     1      49.719  79.207  80.226  1.00  0.00     0.047 C 
HETATM    5  C1  UNL     1      48.347  79.175  80.918  1.00  0.00     0.034 C 
HETATM    6 CL1  UNL     1      49.664  77.837  79.053  1.00  0.00    -0.118 Cl
HETATM    7  C3  UNL     1      50.730  78.831  81.256  1.00  0.00     0.026 C 
HETATM    8  C4  UNL     1      51.402  80.028  81.890  1.00  0.00     0.002 C 
HETATM    9  C5  UNL     1      52.128  80.736  80.775  1.00  0.00     0.001 C 
HETATM   10  C6  UNL     1      51.250  81.148  79.653  1.00  0.00     0.019 C 
ENDBRANCH   1   3
BRANCH   2  11
HETATM   11  C10 UNL     1      49.189  79.878  75.517  1.00  0.00     0.402 C 
HETATM   12  F1  UNL     1      50.405  79.996  74.845  1.00  0.00    -0.181 F 
HETATM   13  F2  UNL     1      48.332  80.797  74.945  1.00  0.00    -0.181 F 
BRANCH  11  14
HETATM   14  C11 UNL     1      48.659  78.458  75.307  1.00  0.00     0.467 C 
HETATM   15  F3  UNL     1      48.067  78.407  74.057  1.00  0.00    -0.164 F 
HETATM   16  F4  UNL     1      49.677  77.540  75.402  1.00  0.00    -0.164 F 
HETATM   17  F5  UNL     1      47.696  78.212  76.260  1.00  0.00    -0.164 F 
ENDBRANCH  11  14
ENDBRANCH   2  11
TORSDOF 3
ENDMDL
MODEL 3
REMARK VINA RESULT: -6.581076051      3.651      5.232
REMARK  3 active torsions:
REMARK  status: ('A' for Active; 'I' for Inactive)
REMARK    1  A    between atoms: C7_8  and  C8_9 
REMARK    2  A    between atoms: C9_10  and  C10_11 
REMARK    3  A    between atoms: C10_11  and  C11_14 
ROOT
HETATM    1  C8  UNL     1      50.695  79.648  78.493  1.00  0.00    -0.093 C 
HETATM    2  C9  UNL     1      50.705  79.493  79.686  1.00  0.00    -0.019 C 
ENDROOT
BRANCH   1   3
HETATM    3  C7  UNL     1      50.685  79.865  77.024  1.00  0.00     0.088 C 
HETATM    4  C2  UNL     1      49.311  79.647  76.540  1.00  0.00     0.047 C 
HETATM    5  C1  UNL     1      49.148  78.247  75.929  1.00  0.00     0.034 C 
HETATM    6 CL1  UNL     1      48.131  79.684  77.905  1.00  0.00    -0.118 Cl
HETATM    7  C3  UNL     1      48.806  80.620  75.528  1.00  0.00     0.026 C 
HETATM    8  C4  UNL     1      49.908  81.229  74.691  1.00  0.00     0.002 C 
HETATM    9  C5  UNL     1      50.790  81.985  75.652  1.00  0.00     0.001 C 
HETATM   10  C6  UNL     1      51.347  81.148  76.742  1.00  0.00     0.019 C 
ENDBRANCH   1   3
BRANCH   2  11
HETATM   11  C10 UNL     1      50.729  79.329  81.120  1.00  0.00     0.402 C 
HETATM   12  F1  UNL     1      51.232  78.059  81.400  1.00  0.00    -0.181 F 
HETATM   13  F2  UNL     1      49.482  79.397  81.706  1.00  0.00    -0.181 F 
BRANCH  11  14
HETATM   14  C11 UNL     1      51.666  80.365  81.744  1.00  0.00     0.467 C 
HETATM   15  F3  UNL     1      51.258  81.617  81.316  1.00  0.00    -0.164 F 
HETATM   16  F4  UNL     1      51.635  80.285  83.115  1.00  0.00    -0.164 F 
HETATM   17  F5  UNL     1      52.939  80.134  81.274  1.00  0.00    -0.164 F 
ENDBRANCH  11  14
ENDBRANCH   2  11
TORSDOF 3
ENDMDL
MODEL 4
REMARK VINA RESULT: -6.571639868      3.831      5.737
REMARK  3 active torsions:
REMARK  status: ('A' for Active; 'I' for Inactive)
REMARK    1  A    between atoms: C7_8  and  C8_9 
REMARK    2  A    between atoms: C9_10  and  C10_11 
REMARK    3  A    between atoms: C10_11  and  C11_14 
ROOT
HETATM    1  C8  UNL     1      50.854  79.769  78.260  1.00  0.00    -0.093 C 
HETATM    2  C9  UNL     1      51.219  80.183  79.329  1.00  0.00    -0.019 C 
ENDROOT
BRANCH   1   3
HETATM    3  C7  UNL     1      50.420  79.239  76.942  1.00  0.00     0.088 C 
HETATM    4  C2  UNL     1      49.296  78.314  77.170  1.00  0.00     0.047 C 
HETATM    5  C1  UNL     1      49.763  76.850  77.152  1.00  0.00     0.034 C 
HETATM    6 CL1  UNL     1      48.593  78.544  78.816  1.00  0.00    -0.118 Cl
HETATM    7  C3  UNL     1      48.156  78.414  76.214  1.00  0.00     0.026 C 
HETATM    8  C4  UNL     1      48.569  78.919  74.850  1.00  0.00     0.002 C 
HETATM    9  C5  UNL     1      49.107  80.311  75.067  1.00  0.00     0.001 C 
HETATM   10  C6  UNL     1      50.236  80.375  76.026  1.00  0.00     0.019 C 
ENDBRANCH   1   3
BRANCH   2  11
HETATM   11  C10 UNL     1      51.668  80.656  80.616  1.00  0.00     0.402 C 
HETATM   12  F1  UNL     1      51.198  81.958  80.784  1.00  0.00    -0.181 F 
HETATM   13  F2  UNL     1      53.041  80.714  80.738  1.00  0.00    -0.181 F 
BRANCH  11  14
HETATM   14  C11 UNL     1      51.073  79.784  81.724  1.00  0.00     0.467 C 
HETATM   15  F3  UNL     1      51.409  78.468  81.453  1.00  0.00    -0.164 F 
HETATM   16  F4  UNL     1      51.553  80.166  82.954  1.00  0.00    -0.164 F 
HETATM   17  F5  UNL     1      49.702  79.906  81.680  1.00  0.00    -0.164 F 
ENDBRANCH  11  14
ENDBRANCH   2  11
TORSDOF 3
ENDMDL
MODEL 5
REMARK VINA RESULT: -6.521398721      3.776      5.452
REMARK  3 active torsions:
REMARK  status: ('A' for Active; 'I' for Inactive)
REMARK    1  A    between atoms: C7_8  and  C8_9 
REMARK    2  A    between atoms: C9_10  and  C10_11 
REMARK    3  A    between atoms: C10_11  and  C11_14 
ROOT
HETATM    1  C8  UNL     1      49.415  79.514  78.803  1.00  0.00    -0.093 C 
HETATM    2  C9  UNL     1      49.926  79.444  79.891  1.00  0.00    -0.019 C 
ENDROOT
BRANCH   1   3
HETATM    3  C7  UNL     1      48.794  79.624  77.459  1.00  0.00     0.088 C 
HETATM    4  C2  UNL     1      49.770  80.258  76.556  1.00  0.00     0.047 C 
HETATM    5  C1  UNL     1      49.475  81.754  76.372  1.00  0.00     0.034 C 
HETATM    6 CL1  UNL     1      51.430  80.209  77.262  1.00  0.00    -0.118 Cl
HETATM    7  C3  UNL     1      49.883  79.670  75.190  1.00  0.00     0.026 C 
HETATM    8  C4  UNL     1      48.604  79.011  74.722  1.00  0.00     0.002 C 
HETATM    9  C5  UNL     1      48.341  77.882  75.685  1.00  0.00     0.001 C 
HETATM   10  C6  UNL     1      48.235  78.312  77.100  1.00  0.00     0.019 C 
ENDBRANCH   1   3
BRANCH   2  11
HETATM   11  C10 UNL     1      50.553  79.380  81.189  1.00  0.00     0.402 C 
HETATM   12  F1  UNL     1      51.041  78.086  81.368  1.00  0.00    -0.181 F 
HETATM   13  F2  UNL     1      49.687  79.623  82.236  1.00  0.00    -0.181 F 
BRANCH  11  14
HETATM   14  C11 UNL     1      51.735  80.351  81.241  1.00  0.00     0.467 C 
HETATM   15  F3  UNL     1      52.194  80.388  82.547  1.00  0.00    -0.164 F 
HETATM   16  F4  UNL     1      52.731  79.952  80.384  1.00  0.00    -0.164 F 
HETATM   17  F5  UNL     1      51.278  81.605  80.901  1.00  0.00    -0.164 F 
ENDBRANCH  11  14
ENDBRANCH   2  11
TORSDOF 3
ENDMDL
