MODEL 1
REMARK VINA RESULT: -7.391642849      0.000      0.000
REMARK  2 active torsions:
REMARK  status: ('A' for Active; 'I' for Inactive)
REMARK    1  A    between atoms: C2_2  and  C5_5 
REMARK    2  A    between atoms: C9_10  and  C10_12 
ROOT
HETATM    1  C5  UNL     1      50.089  79.798  78.917  1.00  0.00     0.274 C 
HETATM    2  F1  UNL     1      50.477  78.712  78.117  1.00  0.00    -0.211 F 
HETATM    3  C6  UNL     1      51.202  80.069  79.882  1.00  0.00     0.075 C 
HETATM    4  C7  UNL     1      51.488  81.550  80.008  1.00  0.00     0.009 C 
HETATM    5  C8  UNL     1      51.827  82.193  78.710  1.00  0.00     0.066 C 
HETATM    6  C9  UNL     1      51.150  81.437  77.581  1.00  0.00     0.301 C 
HETATM    7 CL1  UNL     1      52.283  80.202  77.009  1.00  0.00    -0.079 Cl
HETATM    8  N1  UNL     1      49.915  80.917  78.052  1.00  0.00    -0.006 N 
ATOM      9  H11 UNL     1      49.357  81.645  78.500  1.00  0.00     0.283 HD
ATOM     10  H12 UNL     1      49.293  80.689  77.276  1.00  0.00     0.283 HD
ENDROOT
BRANCH   1  11
HETATM   11  C2  UNL     1      48.818  79.354  79.585  1.00  0.00     0.012 C 
HETATM   12  C1  UNL     1      49.004  78.806  80.956  1.00  0.00     0.020 C 
HETATM   13  C3  UNL     1      47.874  80.537  79.615  1.00  0.00     0.020 C 
HETATM   14  C4  UNL     1      48.178  78.280  78.730  1.00  0.00     0.020 C 
ENDBRANCH   1  11
BRANCH   6  15
HETATM   15  C10 UNL     1      50.965  82.430  76.446  1.00  0.00     0.434 C 
HETATM   16  F2  UNL     1      49.844  83.218  76.649  1.00  0.00    -0.167 F 
HETATM   17  F3  UNL     1      52.053  83.287  76.467  1.00  0.00    -0.167 F 
HETATM   18  F4  UNL     1      50.959  81.821  75.215  1.00  0.00    -0.167 F 
ENDBRANCH   6  15
TORSDOF 2
ENDMDL
MODEL 2
REMARK VINA RESULT: -7.343796673      0.174      1.104
REMARK  2 active torsions:
REMARK  status: ('A' for Active; 'I' for Inactive)
REMARK    1  A    between atoms: C2_2  and  C5_5 
REMARK    2  A    between atoms: C9_10  and  C10_12 
ROOT
HETATM    1  C5  UNL     1      50.183  79.740  78.892  1.00  0.00     0.274 C 
HETATM    2  F1  UNL     1      50.605  78.679  78.077  1.00  0.00    -0.211 F 
HETATM    3  C6  UNL     1      51.303  80.060  79.833  1.00  0.00     0.075 C 
HETATM    4  C7  UNL     1      51.521  81.552  79.962  1.00  0.00     0.009 C 
HETATM    5  C8  UNL     1      51.800  82.217  78.660  1.00  0.00     0.066 C 
HETATM    6  C9  UNL     1      51.134  81.435  77.543  1.00  0.00     0.301 C 
HETATM    7 CL1  UNL     1      52.312  80.259  76.938  1.00  0.00    -0.079 Cl
HETATM    8  N1  UNL     1      49.936  80.854  78.037  1.00  0.00    -0.006 N 
ATOM      9  H11 UNL     1      49.355  81.552  78.502  1.00  0.00     0.283 HD
ATOM     10  H12 UNL     1      49.309  80.601  77.274  1.00  0.00     0.283 HD
ENDROOT
BRANCH   1  11
HETATM   11  C2  UNL     1      48.950  79.233  79.585  1.00  0.00     0.012 C 
HETATM   12  C1  UNL     1      48.152  78.262  78.787  1.00  0.00     0.020 C 
HETATM   13  C3  UNL     1      49.381  78.608  80.896  1.00  0.00     0.020 C 
HETATM   14  C4  UNL     1      48.064  80.417  79.911  1.00  0.00     0.020 C 
ENDBRANCH   1  11
BRANCH   6  15
HETATM   15  C10 UNL     1      50.877  82.423  76.418  1.00  0.00     0.434 C 
HETATM   16  F2  UNL     1      49.766  83.206  76.686  1.00  0.00    -0.167 F 
HETATM   17  F3  UNL     1      51.959  83.286  76.372  1.00  0.00    -0.167 F 
HETATM   18  F4  UNL     1      50.800  81.811  75.191  1.00  0.00    -0.167 F 
ENDBRANCH   6  15
TORSDOF 2
ENDMDL
MODEL 3
REMARK VINA RESULT: -7.227513260      0.735      1.619
REMARK  2 active torsions:
REMARK  status: ('A' for Active; 'I' for Inactive)
REMARK    1  A    between atoms: C2_2  and  C5_5 
REMARK    2  A    between atoms: C9_10  and  C10_12 
ROOT
HETATM    1  C5  UNL     1      50.350  79.626  79.106  1.00  0.00     0.274 C 
HETATM    2  F1  UNL     1      50.843  78.556  78.344  1.00  0.00    -0.211 F 
HETATM    3  C6  UNL     1      51.500  80.196  79.879  1.00  0.00     0.075 C 
HETATM    4  C7  UNL     1      51.501  81.710  79.850  1.00  0.00     0.009 C 
HETATM    5  C8  UNL     1      51.540  82.269  78.472  1.00  0.00     0.066 C 
HETATM    6  C9  UNL     1      50.890  81.289  77.513  1.00  0.00     0.301 C 
HETATM    7 CL1  UNL     1      52.164  80.235  76.880  1.00  0.00    -0.079 Cl
HETATM    8  N1  UNL     1      49.851  80.599  78.193  1.00  0.00    -0.006 N 
ATOM      9  H11 UNL     1      49.221  81.252  78.659  1.00  0.00     0.283 HD
ATOM     10  H12 UNL     1      49.194  80.182  77.533  1.00  0.00     0.283 HD
ENDROOT
BRANCH   1  11
HETATM   11  C2  UNL     1      49.286  79.024  79.981  1.00  0.00     0.012 C 
HETATM   12  C1  UNL     1      48.360  80.016  80.591  1.00  0.00     0.020 C 
HETATM   13  C3  UNL     1      48.513  78.025  79.146  1.00  0.00     0.020 C 
HETATM   14  C4  UNL     1      49.963  78.260  81.099  1.00  0.00     0.020 C 
ENDBRANCH   1  11
BRANCH   6  15
HETATM   15  C10 UNL     1      50.371  82.109  76.344  1.00  0.00     0.434 C 
HETATM   16  F2  UNL     1      51.173  81.948  75.226  1.00  0.00    -0.167 F 
HETATM   17  F3  UNL     1      49.126  81.604  76.007  1.00  0.00    -0.167 F 
HETATM   18  F4  UNL     1      50.191  83.431  76.672  1.00  0.00    -0.167 F 
ENDBRANCH   6  15
TORSDOF 2
ENDMDL
MODEL 4
REMARK VINA RESULT: -6.904102072      2.591      4.516
REMARK  2 active torsions:
REMARK  status: ('A' for Active; 'I' for Inactive)
REMARK    1  A    between atoms: C2_2  and  C5_5 
REMARK    2  A    between atoms: C9_10  and  C10_12 
ROOT
HETATM    1  C5  UNL     1      50.052  80.969  77.320  1.00  0.00     0.274 C 
HETATM    2  F1  UNL     1      48.813  81.507  77.700  1.00  0.00    -0.211 F 
HETATM    3  C6  UNL     1      50.599  80.221  78.497  1.00  0.00     0.075 C 
HETATM    4  C7  UNL     1      51.183  78.885  78.092  1.00  0.00     0.009 C 
HETATM    5  C8  UNL     1      50.207  78.008  77.392  1.00  0.00     0.066 C 
HETATM    6  C9  UNL     1      49.182  78.866  76.674  1.00  0.00     0.301 C 
HETATM    7 CL1  UNL     1      47.823  79.116  77.782  1.00  0.00    -0.079 Cl
HETATM    8  N1  UNL     1      49.808  80.067  76.244  1.00  0.00    -0.006 N 
ATOM      9  H11 UNL     1      50.665  79.870  75.728  1.00  0.00     0.283 HD
ATOM     10  H12 UNL     1      49.270  80.516  75.502  1.00  0.00     0.283 HD
ENDROOT
BRANCH   1  11
HETATM   11  C2  UNL     1      50.889  82.155  76.929  1.00  0.00     0.012 C 
HETATM   12  C1  UNL     1      51.747  82.688  78.022  1.00  0.00     0.020 C 
HETATM   13  C3  UNL     1      51.737  81.751  75.742  1.00  0.00     0.020 C 
HETATM   14  C4  UNL     1      49.962  83.264  76.473  1.00  0.00     0.020 C 
ENDBRANCH   1  11
BRANCH   6  15
HETATM   15  C10 UNL     1      48.661  78.038  75.512  1.00  0.00     0.434 C 
HETATM   16  F2  UNL     1      47.336  77.684  75.705  1.00  0.00    -0.167 F 
HETATM   17  F3  UNL     1      48.689  78.844  74.386  1.00  0.00    -0.167 F 
HETATM   18  F4  UNL     1      49.459  76.951  75.246  1.00  0.00    -0.167 F 
ENDBRANCH   6  15
TORSDOF 2
ENDMDL
MODEL 5
REMARK VINA RESULT: -6.715376319      2.587      4.531
REMARK  2 active torsions:
REMARK  status: ('A' for Active; 'I' for Inactive)
REMARK    1  A    between atoms: C2_2  and  C5_5 
REMARK    2  A    between atoms: C9_10  and  C10_12 
ROOT
HETATM    1  C5  UNL     1      50.063  80.970  77.298  1.00  0.00     0.274 C 
HETATM    2  F1  UNL     1      48.828  81.518  77.675  1.00  0.00    -0.211 F 
HETATM    3  C6  UNL     1      50.606  80.224  78.479  1.00  0.00     0.075 C 
HETATM    4  C7  UNL     1      51.181  78.881  78.081  1.00  0.00     0.009 C 
HETATM    5  C8  UNL     1      50.198  78.007  77.386  1.00  0.00     0.066 C 
HETATM    6  C9  UNL     1      49.178  78.869  76.664  1.00  0.00     0.301 C 
HETATM    7 CL1  UNL     1      47.822  79.134  77.772  1.00  0.00    -0.079 Cl
HETATM    8  N1  UNL     1      49.812  80.063  76.227  1.00  0.00    -0.006 N 
ATOM      9  H11 UNL     1      50.668  79.856  75.712  1.00  0.00     0.283 HD
ATOM     10  H12 UNL     1      49.277  80.511  75.483  1.00  0.00     0.283 HD
ENDROOT
BRANCH   1  11
HETATM   11  C2  UNL     1      50.908  82.147  76.899  1.00  0.00     0.012 C 
HETATM   12  C1  UNL     1      51.892  81.859  75.821  1.00  0.00     0.020 C 
HETATM   13  C3  UNL     1      49.975  83.262  76.476  1.00  0.00     0.020 C 
HETATM   14  C4  UNL     1      51.668  82.624  78.119  1.00  0.00     0.020 C 
ENDBRANCH   1  11
BRANCH   6  15
HETATM   15  C10 UNL     1      48.651  78.037  75.508  1.00  0.00     0.434 C 
HETATM   16  F2  UNL     1      47.327  77.683  75.709  1.00  0.00    -0.167 F 
HETATM   17  F3  UNL     1      48.672  78.840  74.379  1.00  0.00    -0.167 F 
HETATM   18  F4  UNL     1      49.447  76.950  75.240  1.00  0.00    -0.167 F 
ENDBRANCH   6  15
TORSDOF 2
ENDMDL
