MODEL 1
REMARK VINA RESULT: -9.835147023      0.000      0.000
REMARK  9 active torsions:
REMARK  status: ('A' for Active; 'I' for Inactive)
REMARK    1  A    between atoms: N2_3  and  C2_5 
REMARK    2  A    between atoms: C4_7  and  C5_8 
REMARK       I    between atoms: C5_8  and  N3_10 
REMARK    3  A    between atoms: N3_10  and  C6_12 
REMARK    4  A    between atoms: C6_12  and  C7_13 
REMARK    5  A    between atoms: C7_13  and  N4_14 
REMARK    6  A    between atoms: C8_16  and  C9_17 
REMARK    7  A    between atoms: N5_19  and  N6_20 
REMARK    8  A    between atoms: C13_31  and  N9_32 
REMARK    9  A    between atoms: N9_32  and  O4_34 
ROOT
HETATM    1  N1  UNL     1      13.386  -0.093  -9.693  1.00  0.00    -0.172 NA
HETATM    2  C1  UNL     1      12.274  -0.426  -9.727  1.00  0.00     0.183 C 
HETATM    3  N2  UNL     1      10.941  -0.842  -9.780  1.00  0.00    -0.279 N 
ATOM      4  H2  UNL     1      10.378  -0.582 -10.590  1.00  0.00     0.179 HD
ENDROOT
BRANCH   3   5
HETATM    5  C2  UNL     1      10.396  -1.543  -8.844  1.00  0.00     0.132 A 
HETATM    6  C3  UNL     1      10.986  -1.659  -7.587  1.00  0.00     0.085 A 
HETATM    7  C4  UNL     1      10.400  -2.408  -6.595  1.00  0.00     0.120 A 
HETATM    8  N8  UNL     1       9.230  -3.013  -6.927  1.00  0.00    -0.184 N 
HETATM    9  C13 UNL     1       8.656  -2.905  -8.136  1.00  0.00     0.704 A 
ATOM     10  H8  UNL     1       8.762  -3.578  -6.219  1.00  0.00     0.184 HD
HETATM   11  N10 UNL     1       9.244  -2.170  -9.091  1.00  0.00    -0.174 N 
ATOM     12  H10 UNL     1       8.809  -2.089 -10.009  1.00  0.00     0.186 HD
BRANCH   7  13
HETATM   13  C5  UNL     1      10.971  -2.559  -5.274  1.00  0.00     0.268 C 
HETATM   14  O1  UNL     1      11.233  -1.521  -4.609  1.00  0.00    -0.266 OA
HETATM   15  N3  UNL     1      11.254  -3.810  -4.684  1.00  0.00    -0.354 N 
ATOM     16  H3  UNL     1      11.048  -4.662  -5.205  1.00  0.00     0.162 HD
BRANCH  15  17
HETATM   17  C6  UNL     1      11.833  -3.918  -3.343  1.00  0.00     0.142 C 
BRANCH  17  18
HETATM   18  C7  UNL     1      13.315  -4.032  -3.470  1.00  0.00     0.138 C 
BRANCH  18  19
HETATM   19  N4  UNL     1      14.047  -3.120  -2.656  1.00  0.00    -0.396 N 
HETATM   20  C8  UNL     1      15.215  -2.679  -2.887  1.00  0.00     0.101 C 
ATOM     21  H4  UNL     1      13.590  -2.789  -1.807  1.00  0.00     0.158 HD
BRANCH  20  22
HETATM   22  C9  UNL     1      15.918  -1.747  -2.019  1.00  0.00     0.065 A 
HETATM   23  C10 UNL     1      15.638  -1.640  -0.674  1.00  0.00     0.139 A 
HETATM   24  N5  UNL     1      16.304  -0.767   0.120  1.00  0.00    -0.222 N 
HETATM   25  C11 UNL     1      17.253   0.010  -0.415  1.00  0.00     0.347 A 
HETATM   26  O2  UNL     1      17.889   0.840   0.318  1.00  0.00    -0.245 OA
HETATM   27  N7  UNL     1      17.551  -0.069  -1.727  1.00  0.00    -0.273 N 
HETATM   28  C12 UNL     1      16.900  -0.933  -2.538  1.00  0.00     0.262 A 
ATOM     29  H7  UNL     1      18.278   0.531  -2.114  1.00  0.00     0.173 HD
HETATM   30  O3  UNL     1      17.194  -0.987  -3.743  1.00  0.00    -0.267 OA
BRANCH  24  31
HETATM   31  N6  UNL     1      16.040  -0.639   1.484  1.00  0.00    -0.335 N 
ATOM     32  H62 UNL     1      15.976  -1.489   2.044  1.00  0.00     0.177 HD
ATOM     33  H61 UNL     1      15.912   0.266   1.938  1.00  0.00     0.177 HD
ENDBRANCH  24  31
ENDBRANCH  20  22
ENDBRANCH  18  19
ENDBRANCH  17  18
ENDBRANCH  15  17
ENDBRANCH   7  13
BRANCH   9  34
HETATM   34  N9  UNL     1       7.545  -3.491  -8.423  1.00  0.00    -0.098 N 
ATOM     35  H9  UNL     1       7.033  -3.162  -9.242  1.00  0.00     0.213 HD
BRANCH  34  36
HETATM   36  O4  UNL     1       7.008  -4.513  -7.714  1.00  0.00    -0.276 OA
ATOM     37  H4  UNL     1       6.089  -4.756  -7.728  1.00  0.00     0.245 HD
ENDBRANCH  34  36
ENDBRANCH   9  34
ENDBRANCH   3   5
TORSDOF 9
ENDMDL
MODEL 2
REMARK VINA RESULT: -9.744141037      2.215      3.392
REMARK  9 active torsions:
REMARK  status: ('A' for Active; 'I' for Inactive)
REMARK    1  A    between atoms: N2_3  and  C2_5 
REMARK    2  A    between atoms: C4_7  and  C5_8 
REMARK       I    between atoms: C5_8  and  N3_10 
REMARK    3  A    between atoms: N3_10  and  C6_12 
REMARK    4  A    between atoms: C6_12  and  C7_13 
REMARK    5  A    between atoms: C7_13  and  N4_14 
REMARK    6  A    between atoms: C8_16  and  C9_17 
REMARK    7  A    between atoms: N5_19  and  N6_20 
REMARK    8  A    between atoms: C13_31  and  N9_32 
REMARK    9  A    between atoms: N9_32  and  O4_34 
ROOT
HETATM    1  N1  UNL     1       8.152  -2.700  -9.164  1.00  0.00    -0.172 NA
HETATM    2  C1  UNL     1       8.941  -2.292  -8.415  1.00  0.00     0.183 C 
HETATM    3  N2  UNL     1       9.875  -1.794  -7.504  1.00  0.00    -0.279 N 
ATOM      4  H2  UNL     1      10.125  -0.806  -7.547  1.00  0.00     0.179 HD
ENDROOT
BRANCH   3   5
HETATM    5  C2  UNL     1      10.435  -2.538  -6.610  1.00  0.00     0.132 A 
HETATM    6  C3  UNL     1      11.821  -2.658  -6.530  1.00  0.00     0.085 A 
HETATM    7  C4  UNL     1      12.410  -3.452  -5.575  1.00  0.00     0.120 A 
HETATM    8  N8  UNL     1      11.557  -4.095  -4.736  1.00  0.00    -0.184 N 
HETATM    9  C13 UNL     1      10.221  -3.983  -4.807  1.00  0.00     0.704 A 
ATOM     10  H8  UNL     1      11.953  -4.694  -4.012  1.00  0.00     0.184 HD
HETATM   11  N10 UNL     1       9.666  -3.203  -5.746  1.00  0.00    -0.174 N 
ATOM     12  H10 UNL     1       8.651  -3.119  -5.801  1.00  0.00     0.186 HD
BRANCH   7  13
HETATM   13  C5  UNL     1      13.843  -3.610  -5.451  1.00  0.00     0.268 C 
HETATM   14  O1  UNL     1      14.290  -4.337  -4.524  1.00  0.00    -0.266 OA
HETATM   15  N3  UNL     1      14.774  -2.992  -6.314  1.00  0.00    -0.354 N 
ATOM     16  H3  UNL     1      14.433  -2.400  -7.071  1.00  0.00     0.162 HD
BRANCH  15  17
HETATM   17  C6  UNL     1      16.218  -3.179  -6.152  1.00  0.00     0.142 C 
BRANCH  17  18
HETATM   18  C7  UNL     1      16.858  -1.841  -5.993  1.00  0.00     0.138 C 
BRANCH  18  19
HETATM   19  N4  UNL     1      16.832  -1.331  -4.662  1.00  0.00    -0.396 N 
HETATM   20  C8  UNL     1      16.794  -2.018  -3.595  1.00  0.00     0.101 C 
ATOM     21  H4  UNL     1      16.845  -0.316  -4.556  1.00  0.00     0.158 HD
BRANCH  20  22
HETATM   22  C9  UNL     1      16.769  -1.444  -2.260  1.00  0.00     0.065 A 
HETATM   23  C10 UNL     1      17.724  -0.550  -1.824  1.00  0.00     0.139 A 
HETATM   24  N5  UNL     1      17.685  -0.024  -0.576  1.00  0.00    -0.222 N 
HETATM   25  C11 UNL     1      16.697  -0.382   0.253  1.00  0.00     0.347 A 
HETATM   26  O2  UNL     1      16.644   0.103   1.433  1.00  0.00    -0.245 OA
HETATM   27  N7  UNL     1      15.747  -1.253  -0.142  1.00  0.00    -0.273 N 
HETATM   28  C12 UNL     1      15.767  -1.790  -1.382  1.00  0.00     0.262 A 
ATOM     29  H7  UNL     1      15.003  -1.512   0.505  1.00  0.00     0.173 HD
HETATM   30  O3  UNL     1      14.879  -2.591  -1.720  1.00  0.00    -0.267 OA
BRANCH  24  31
HETATM   31  N6  UNL     1      18.638   0.882  -0.111  1.00  0.00    -0.335 N 
ATOM     32  H62 UNL     1      19.499   0.509   0.290  1.00  0.00     0.177 HD
ATOM     33  H61 UNL     1      18.507   1.892  -0.158  1.00  0.00     0.177 HD
ENDBRANCH  24  31
ENDBRANCH  20  22
ENDBRANCH  18  19
ENDBRANCH  17  18
ENDBRANCH  15  17
ENDBRANCH   7  13
BRANCH   9  34
HETATM   34  N9  UNL     1       9.436  -4.605  -3.996  1.00  0.00    -0.098 N 
ATOM     35  H9  UNL     1       9.838  -4.970  -3.133  1.00  0.00     0.213 HD
BRANCH  34  36
HETATM   36  O4  UNL     1       8.114  -4.810  -4.210  1.00  0.00    -0.276 OA
ATOM     37  H4  UNL     1       7.461  -4.885  -3.523  1.00  0.00     0.245 HD
ENDBRANCH  34  36
ENDBRANCH   9  34
ENDBRANCH   3   5
TORSDOF 9
ENDMDL
MODEL 3
REMARK VINA RESULT: -9.723218181      2.346      3.972
REMARK  9 active torsions:
REMARK  status: ('A' for Active; 'I' for Inactive)
REMARK    1  A    between atoms: N2_3  and  C2_5 
REMARK    2  A    between atoms: C4_7  and  C5_8 
REMARK       I    between atoms: C5_8  and  N3_10 
REMARK    3  A    between atoms: N3_10  and  C6_12 
REMARK    4  A    between atoms: C6_12  and  C7_13 
REMARK    5  A    between atoms: C7_13  and  N4_14 
REMARK    6  A    between atoms: C8_16  and  C9_17 
REMARK    7  A    between atoms: N5_19  and  N6_20 
REMARK    8  A    between atoms: C13_31  and  N9_32 
REMARK    9  A    between atoms: N9_32  and  O4_34 
ROOT
HETATM    1  N1  UNL     1       8.358  -4.555  -3.157  1.00  0.00    -0.172 NA
HETATM    2  C1  UNL     1       9.316  -4.551  -3.813  1.00  0.00     0.183 C 
HETATM    3  N2  UNL     1      10.461  -4.561  -4.614  1.00  0.00    -0.279 N 
ATOM      4  H2  UNL     1      11.179  -5.263  -4.435  1.00  0.00     0.179 HD
ENDROOT
BRANCH   3   5
HETATM    5  C2  UNL     1      10.645  -3.715  -5.571  1.00  0.00     0.132 A 
HETATM    6  C3  UNL     1      11.893  -3.142  -5.803  1.00  0.00     0.085 A 
HETATM    7  C4  UNL     1      12.082  -2.242  -6.824  1.00  0.00     0.120 A 
HETATM    8  N8  UNL     1      10.983  -1.960  -7.572  1.00  0.00    -0.184 N 
HETATM    9  C13 UNL     1       9.777  -2.509  -7.353  1.00  0.00     0.704 A 
ATOM     10  H8  UNL     1      11.079  -1.297  -8.340  1.00  0.00     0.184 HD
HETATM   11  N10 UNL     1       9.614  -3.385  -6.352  1.00  0.00    -0.174 N 
ATOM     12  H10 UNL     1       8.698  -3.802  -6.185  1.00  0.00     0.186 HD
BRANCH   7  13
HETATM   13  C5  UNL     1      13.357  -1.620  -7.106  1.00  0.00     0.268 C 
HETATM   14  O1  UNL     1      13.380  -0.389  -7.377  1.00  0.00    -0.266 OA
HETATM   15  N3  UNL     1      14.585  -2.316  -7.093  1.00  0.00    -0.354 N 
ATOM     16  H3  UNL     1      14.588  -3.312  -6.875  1.00  0.00     0.162 HD
BRANCH  15  17
HETATM   17  C6  UNL     1      15.855  -1.647  -7.385  1.00  0.00     0.142 C 
BRANCH  17  18
HETATM   18  C7  UNL     1      16.883  -2.131  -6.418  1.00  0.00     0.138 C 
BRANCH  18  19
HETATM   19  N4  UNL     1      16.797  -1.541  -5.123  1.00  0.00    -0.396 N 
HETATM   20  C8  UNL     1      17.582  -1.753  -4.148  1.00  0.00     0.101 C 
ATOM     21  H4  UNL     1      16.032  -0.885  -4.965  1.00  0.00     0.158 HD
BRANCH  20  22
HETATM   22  C9  UNL     1      17.447  -1.122  -2.845  1.00  0.00     0.065 A 
HETATM   23  C10 UNL     1      18.394  -0.252  -2.347  1.00  0.00     0.139 A 
HETATM   24  N5  UNL     1      18.251   0.328  -1.131  1.00  0.00    -0.222 N 
HETATM   25  C11 UNL     1      17.167   0.050  -0.396  1.00  0.00     0.347 A 
HETATM   26  O2  UNL     1      17.017   0.586   0.752  1.00  0.00    -0.245 OA
HETATM   27  N7  UNL     1      16.222  -0.796  -0.855  1.00  0.00    -0.273 N 
HETATM   28  C12 UNL     1      16.344  -1.385  -2.065  1.00  0.00     0.262 A 
ATOM     29  H7  UNL     1      15.404  -0.993  -0.280  1.00  0.00     0.173 HD
HETATM   30  O3  UNL     1      15.458  -2.160  -2.463  1.00  0.00    -0.267 OA
BRANCH  24  31
HETATM   31  N6  UNL     1      19.194   1.210  -0.603  1.00  0.00    -0.335 N 
ATOM     32  H62 UNL     1      19.884   0.841   0.053  1.00  0.00     0.177 HD
ATOM     33  H61 UNL     1      19.219   2.201  -0.847  1.00  0.00     0.177 HD
ENDBRANCH  24  31
ENDBRANCH  20  22
ENDBRANCH  18  19
ENDBRANCH  17  18
ENDBRANCH  15  17
ENDBRANCH   7  13
BRANCH   9  34
HETATM   34  N9  UNL     1       8.751  -2.223  -8.079  1.00  0.00    -0.098 N 
ATOM     35  H9  UNL     1       7.839  -2.204  -7.624  1.00  0.00     0.213 HD
BRANCH  34  36
HETATM   36  O4  UNL     1       8.799  -1.945  -9.404  1.00  0.00    -0.276 OA
ATOM     37  H4  UNL     1       8.346  -2.441 -10.077  1.00  0.00     0.245 HD
ENDBRANCH  34  36
ENDBRANCH   9  34
ENDBRANCH   3   5
TORSDOF 9
ENDMDL
MODEL 4
REMARK VINA RESULT: -9.572033328      2.244      3.756
REMARK  9 active torsions:
REMARK  status: ('A' for Active; 'I' for Inactive)
REMARK    1  A    between atoms: N2_3  and  C2_5 
REMARK    2  A    between atoms: C4_7  and  C5_8 
REMARK       I    between atoms: C5_8  and  N3_10 
REMARK    3  A    between atoms: N3_10  and  C6_12 
REMARK    4  A    between atoms: C6_12  and  C7_13 
REMARK    5  A    between atoms: C7_13  and  N4_14 
REMARK    6  A    between atoms: C8_16  and  C9_17 
REMARK    7  A    between atoms: N5_19  and  N6_20 
REMARK    8  A    between atoms: C13_31  and  N9_32 
REMARK    9  A    between atoms: N9_32  and  O4_34 
ROOT
HETATM    1  N1  UNL     1       8.370  -4.550  -3.160  1.00  0.00    -0.172 NA
HETATM    2  C1  UNL     1       9.296  -4.545  -3.861  1.00  0.00     0.183 C 
HETATM    3  N2  UNL     1      10.401  -4.555  -4.715  1.00  0.00    -0.279 N 
ATOM      4  H2  UNL     1      11.126  -5.258  -4.572  1.00  0.00     0.179 HD
ENDROOT
BRANCH   3   5
HETATM    5  C2  UNL     1      10.540  -3.708  -5.679  1.00  0.00     0.132 A 
HETATM    6  C3  UNL     1      11.767  -3.103  -5.943  1.00  0.00     0.085 A 
HETATM    7  C4  UNL     1      11.907  -2.202  -6.970  1.00  0.00     0.120 A 
HETATM    8  N8  UNL     1      10.784  -1.951  -7.692  1.00  0.00    -0.184 N 
HETATM    9  C13 UNL     1       9.598  -2.531  -7.443  1.00  0.00     0.704 A 
ATOM     10  H8  UNL     1      10.844  -1.288  -8.464  1.00  0.00     0.184 HD
HETATM   11  N10 UNL     1       9.482  -3.407  -6.435  1.00  0.00    -0.174 N 
ATOM     12  H10 UNL     1       8.581  -3.847  -6.246  1.00  0.00     0.186 HD
BRANCH   7  13
HETATM   13  C5  UNL     1      13.159  -1.547  -7.285  1.00  0.00     0.268 C 
HETATM   14  O1  UNL     1      13.125  -0.428  -7.862  1.00  0.00    -0.266 OA
HETATM   15  N3  UNL     1      14.424  -2.094  -6.978  1.00  0.00    -0.354 N 
ATOM     16  H3  UNL     1      14.473  -2.999  -6.510  1.00  0.00     0.162 HD
BRANCH  15  17
HETATM   17  C6  UNL     1      15.668  -1.397  -7.315  1.00  0.00     0.142 C 
BRANCH  17  18
HETATM   18  C7  UNL     1      16.777  -1.984  -6.507  1.00  0.00     0.138 C 
BRANCH  18  19
HETATM   19  N4  UNL     1      17.006  -1.333  -5.261  1.00  0.00    -0.396 N 
HETATM   20  C8  UNL     1      16.905  -1.858  -4.109  1.00  0.00     0.101 C 
ATOM     21  H4  UNL     1      17.277  -0.350  -5.297  1.00  0.00     0.158 HD
BRANCH  20  22
HETATM   22  C9  UNL     1      17.151  -1.145  -2.866  1.00  0.00     0.065 A 
HETATM   23  C10 UNL     1      16.298  -1.229  -1.787  1.00  0.00     0.139 A 
HETATM   24  N5  UNL     1      16.543  -0.558  -0.637  1.00  0.00    -0.222 N 
HETATM   25  C11 UNL     1      17.639   0.205  -0.546  1.00  0.00     0.347 A 
HETATM   26  O2  UNL     1      17.886   0.846   0.530  1.00  0.00    -0.245 OA
HETATM   27  N7  UNL     1      18.494   0.310  -1.583  1.00  0.00    -0.273 N 
HETATM   28  C12 UNL     1      18.269  -0.351  -2.740  1.00  0.00     0.262 A 
ATOM     29  H7  UNL     1      19.324   0.895  -1.493  1.00  0.00     0.173 HD
HETATM   30  O3  UNL     1      19.074  -0.238  -3.680  1.00  0.00    -0.267 OA
BRANCH  24  31
HETATM   31  N6  UNL     1      15.696  -0.626   0.470  1.00  0.00    -0.335 N 
ATOM     32  H62 UNL     1      14.753  -0.247   0.377  1.00  0.00     0.177 HD
ATOM     33  H61 UNL     1      15.983  -1.037   1.359  1.00  0.00     0.177 HD
ENDBRANCH  24  31
ENDBRANCH  20  22
ENDBRANCH  18  19
ENDBRANCH  17  18
ENDBRANCH  15  17
ENDBRANCH   7  13
BRANCH   9  34
HETATM   34  N9  UNL     1       8.548  -2.274  -8.145  1.00  0.00    -0.098 N 
ATOM     35  H9  UNL     1       7.690  -2.038  -7.645  1.00  0.00     0.213 HD
BRANCH  34  36
HETATM   36  O4  UNL     1       8.503  -2.293  -9.498  1.00  0.00    -0.276 OA
ATOM     37  H4  UNL     1       8.061  -1.644 -10.034  1.00  0.00     0.245 HD
ENDBRANCH  34  36
ENDBRANCH   9  34
ENDBRANCH   3   5
TORSDOF 9
ENDMDL
MODEL 5
REMARK VINA RESULT: -9.537372345      1.999      9.283
REMARK  9 active torsions:
REMARK  status: ('A' for Active; 'I' for Inactive)
REMARK    1  A    between atoms: N2_3  and  C2_5 
REMARK    2  A    between atoms: C4_7  and  C5_8 
REMARK       I    between atoms: C5_8  and  N3_10 
REMARK    3  A    between atoms: N3_10  and  C6_12 
REMARK    4  A    between atoms: C6_12  and  C7_13 
REMARK    5  A    between atoms: C7_13  and  N4_14 
REMARK    6  A    between atoms: C8_16  and  C9_17 
REMARK    7  A    between atoms: N5_19  and  N6_20 
REMARK    8  A    between atoms: C13_31  and  N9_32 
REMARK    9  A    between atoms: N9_32  and  O4_34 
ROOT
HETATM    1  N1  UNL     1      20.125   0.394  -5.499  1.00  0.00    -0.172 NA
HETATM    2  C1  UNL     1      19.975   0.142  -4.375  1.00  0.00     0.183 C 
HETATM    3  N2  UNL     1      19.793  -0.141  -3.019  1.00  0.00    -0.279 N 
ATOM      4  H2  UNL     1      20.592  -0.064  -2.390  1.00  0.00     0.179 HD
ENDROOT
BRANCH   3   5
HETATM    5  C2  UNL     1      18.651  -0.496  -2.533  1.00  0.00     0.132 A 
HETATM    6  C3  UNL     1      18.000  -1.646  -2.974  1.00  0.00     0.085 A 
HETATM    7  C4  UNL     1      16.785  -2.018  -2.452  1.00  0.00     0.120 A 
HETATM    8  N8  UNL     1      16.279  -1.198  -1.495  1.00  0.00    -0.184 N 
HETATM    9  C13 UNL     1      16.901  -0.088  -1.065  1.00  0.00     0.704 A 
ATOM     10  H8  UNL     1      15.379  -1.437  -1.081  1.00  0.00     0.184 HD
HETATM   11  N10 UNL     1      18.086   0.258  -1.588  1.00  0.00    -0.174 N 
ATOM     12  H10 UNL     1      18.559   1.101  -1.261  1.00  0.00     0.186 HD
BRANCH   7  13
HETATM   13  C5  UNL     1      16.070  -3.202  -2.876  1.00  0.00     0.268 C 
HETATM   14  O1  UNL     1      16.016  -4.187  -2.091  1.00  0.00    -0.266 OA
HETATM   15  N3  UNL     1      15.423  -3.318  -4.126  1.00  0.00    -0.354 N 
ATOM     16  H3  UNL     1      15.454  -2.532  -4.775  1.00  0.00     0.162 HD
BRANCH  15  17
HETATM   17  C6  UNL     1      14.709  -4.537  -4.516  1.00  0.00     0.142 C 
BRANCH  17  18
HETATM   18  C7  UNL     1      13.273  -4.389  -4.139  1.00  0.00     0.138 C 
BRANCH  18  19
HETATM   19  N4  UNL     1      12.414  -4.035  -5.220  1.00  0.00    -0.396 N 
HETATM   20  C8  UNL     1      11.202  -3.671  -5.127  1.00  0.00     0.101 C 
ATOM     21  H4  UNL     1      12.812  -4.077  -6.158  1.00  0.00     0.158 HD
BRANCH  20  22
HETATM   22  C9  UNL     1      10.370  -3.319  -6.266  1.00  0.00     0.065 A 
HETATM   23  C10 UNL     1       9.268  -4.064  -6.631  1.00  0.00     0.139 A 
HETATM   24  N5  UNL     1       8.504  -3.721  -7.696  1.00  0.00    -0.222 N 
HETATM   25  C11 UNL     1       8.825  -2.635  -8.409  1.00  0.00     0.347 A 
HETATM   26  O2  UNL     1       8.117  -2.297  -9.416  1.00  0.00    -0.245 OA
HETATM   27  N7  UNL     1       9.896  -1.885  -8.079  1.00  0.00    -0.273 N 
HETATM   28  C12 UNL     1      10.673  -2.208  -7.021  1.00  0.00     0.262 A 
ATOM     29  H7  UNL     1      10.123  -1.061  -8.635  1.00  0.00     0.173 HD
HETATM   30  O3  UNL     1      11.653  -1.500  -6.738  1.00  0.00    -0.267 OA
BRANCH  24  31
HETATM   31  N6  UNL     1       7.384  -4.457  -8.087  1.00  0.00    -0.335 N 
ATOM     32  H62 UNL     1       7.526  -5.417  -8.401  1.00  0.00     0.177 HD
ATOM     33  H61 UNL     1       6.439  -4.073  -8.069  1.00  0.00     0.177 HD
ENDBRANCH  24  31
ENDBRANCH  20  22
ENDBRANCH  18  19
ENDBRANCH  17  18
ENDBRANCH  15  17
ENDBRANCH   7  13
BRANCH   9  34
HETATM   34  N9  UNL     1      16.397   0.672  -0.155  1.00  0.00    -0.098 N 
ATOM     35  H9  UNL     1      16.275   1.660  -0.377  1.00  0.00     0.213 HD
BRANCH  34  36
HETATM   36  O4  UNL     1      16.017   0.253   1.076  1.00  0.00    -0.276 OA
ATOM     37  H4  UNL     1      15.489   0.761   1.681  1.00  0.00     0.245 HD
ENDBRANCH  34  36
ENDBRANCH   9  34
ENDBRANCH   3   5
TORSDOF 9
ENDMDL
