MODEL 1
REMARK VINA RESULT: -7.287203124      0.000      0.000
REMARK  11 active torsions:
REMARK  status: ('A' for Active; 'I' for Inactive)
REMARK    1  A    between atoms: N1_2  and  C3_4 
REMARK    2  A    between atoms: C3_4  and  C4_5 
REMARK    3  A    between atoms: C4_5  and  O1_6 
REMARK    4  A    between atoms: C4_5  and  O2_8 
REMARK    5  A    between atoms: C4_5  and  C5_10 
REMARK    6  A    between atoms: C6_11  and  O3_12 
REMARK    7  A    between atoms: C7_14  and  N2_15 
REMARK    8  A    between atoms: C8_19  and  O4_20 
REMARK    9  A    between atoms: O4_20  and  C9_21 
REMARK   10  A    between atoms: C14_27  and  O6_28 
REMARK   11  A    between atoms: C15_30  and  O7_31 
ROOT
HETATM    1  C5  UNL     1      11.871  -3.966   6.784  1.00  0.00     0.112 C 
HETATM    2  C6  UNL     1      11.846  -2.489   6.607  1.00  0.00     0.163 C 
HETATM    3  C7  UNL     1      10.651  -2.233   5.656  1.00  0.00     0.244 C 
HETATM    4  C8  UNL     1       9.440  -2.365   6.514  1.00  0.00     0.186 C 
HETATM    5  C14 UNL     1       9.393  -3.611   7.318  1.00  0.00     0.178 C 
HETATM    6  C15 UNL     1      10.605  -4.411   7.463  1.00  0.00     0.161 C 
ENDROOT
BRANCH   1   7
HETATM    7  C4  UNL     1      13.023  -4.519   7.596  1.00  0.00     0.194 C 
BRANCH   7   8
HETATM    8  C3  UNL     1      13.760  -5.632   6.926  1.00  0.00     0.339 C 
BRANCH   8   9
HETATM    9  N1  UNL     1      14.842  -6.181   7.769  1.00  0.00     0.085 N 
HETATM   10  C1  UNL     1      16.013  -6.424   6.885  1.00  0.00     0.309 C 
HETATM   11  C2  UNL     1      14.488  -7.512   8.276  1.00  0.00     0.309 C 
ENDBRANCH   8   9
ENDBRANCH   7   8
BRANCH   7  12
HETATM   12  O1  UNL     1      13.896  -3.541   8.000  1.00  0.00    -0.364 OA
ATOM     13  H1  UNL     1      13.527  -2.680   7.839  1.00  0.00     0.213 HD
ENDBRANCH   7  12
BRANCH   7  14
HETATM   14  O2  UNL     1      12.471  -5.048   8.802  1.00  0.00    -0.364 OA
ATOM     15  H2  UNL     1      12.891  -4.593   9.524  1.00  0.00     0.213 HD
ENDBRANCH   7  14
ENDBRANCH   1   7
BRANCH   2  16
HETATM   16  O3  UNL     1      12.992  -1.945   6.026  1.00  0.00    -0.393 OA
ATOM     17  H3  UNL     1      13.211  -2.292   5.169  1.00  0.00     0.210 HD
ENDBRANCH   2  16
BRANCH   6  18
HETATM   18  O7  UNL     1      10.321  -5.742   7.044  1.00  0.00    -0.392 OA
ATOM     19  H7  UNL     1       9.389  -5.893   7.150  1.00  0.00     0.210 HD
ENDBRANCH   6  18
BRANCH   3  20
HETATM   20  N2  UNL     1      10.696  -3.207   4.593  1.00  0.00    -0.070 N 
ATOM     21  H23 UNL     1      11.619  -3.629   4.487  1.00  0.00     0.274 HD
ATOM     22  H22 UNL     1      10.180  -4.058   4.819  1.00  0.00     0.274 HD
ATOM     23  H21 UNL     1      10.367  -2.764   3.735  1.00  0.00     0.274 HD
ENDBRANCH   3  20
BRANCH   5  24
HETATM   24  O6  UNL     1       8.318  -4.438   6.889  1.00  0.00    -0.390 OA
ATOM     25  H6  UNL     1       8.024  -4.994   7.601  1.00  0.00     0.210 HD
ENDBRANCH   5  24
BRANCH   4  26
HETATM   26  O4  UNL     1       9.340  -1.235   7.312  1.00  0.00    -0.374 OA
BRANCH  26  27
HETATM   27  C9  UNL     1       8.778  -0.157   6.649  1.00  0.00     0.146 C 
HETATM   28  C10 UNL     1       7.547   0.375   7.342  1.00  0.00     0.036 C 
HETATM   29  C11 UNL     1       6.827   1.259   6.345  1.00  0.00     0.029 C 
HETATM   30  C12 UNL     1       7.862   1.794   5.359  1.00  0.00     0.167 C 
HETATM   31  O5  UNL     1       9.006   2.108   6.042  1.00  0.00    -0.389 OA
HETATM   32  C13 UNL     1       9.729   0.989   6.442  1.00  0.00     0.199 C 
ENDBRANCH  26  27
ENDBRANCH   4  26
TORSDOF 11
ENDMDL
MODEL 2
REMARK VINA RESULT: -7.125235375      2.115      2.986
REMARK  11 active torsions:
REMARK  status: ('A' for Active; 'I' for Inactive)
REMARK    1  A    between atoms: N1_2  and  C3_4 
REMARK    2  A    between atoms: C3_4  and  C4_5 
REMARK    3  A    between atoms: C4_5  and  O1_6 
REMARK    4  A    between atoms: C4_5  and  O2_8 
REMARK    5  A    between atoms: C4_5  and  C5_10 
REMARK    6  A    between atoms: C6_11  and  O3_12 
REMARK    7  A    between atoms: C7_14  and  N2_15 
REMARK    8  A    between atoms: C8_19  and  O4_20 
REMARK    9  A    between atoms: O4_20  and  C9_21 
REMARK   10  A    between atoms: C14_27  and  O6_28 
REMARK   11  A    between atoms: C15_30  and  O7_31 
ROOT
HETATM    1  C5  UNL     1      12.216  -4.924   7.337  1.00  0.00     0.112 C 
HETATM    2  C6  UNL     1      11.176  -4.545   6.343  1.00  0.00     0.163 C 
HETATM    3  C7  UNL     1       9.838  -4.946   7.010  1.00  0.00     0.244 C 
HETATM    4  C8  UNL     1       9.571  -3.878   8.014  1.00  0.00     0.186 C 
HETATM    5  C14 UNL     1      10.709  -3.598   8.924  1.00  0.00     0.178 C 
HETATM    6  C15 UNL     1      12.033  -4.112   8.589  1.00  0.00     0.161 C 
ENDROOT
BRANCH   1   7
HETATM    7  C4  UNL     1      13.653  -4.740   6.899  1.00  0.00     0.194 C 
BRANCH   7   8
HETATM    8  C3  UNL     1      14.642  -5.499   7.723  1.00  0.00     0.339 C 
BRANCH   8   9
HETATM    9  N1  UNL     1      14.626  -6.948   7.434  1.00  0.00     0.085 N 
HETATM   10  C1  UNL     1      14.359  -7.654   8.715  1.00  0.00     0.309 C 
HETATM   11  C2  UNL     1      15.957  -7.417   7.031  1.00  0.00     0.309 C 
ENDBRANCH   8   9
ENDBRANCH   7   8
BRANCH   7  12
HETATM   12  O1  UNL     1      13.834  -5.010   5.567  1.00  0.00    -0.364 OA
ATOM     13  H1  UNL     1      13.041  -5.377   5.192  1.00  0.00     0.213 HD
ENDBRANCH   7  12
BRANCH   7  14
HETATM   14  O2  UNL     1      13.963  -3.354   7.045  1.00  0.00    -0.364 OA
ATOM     15  H2  UNL     1      14.838  -3.225   6.698  1.00  0.00     0.213 HD
ENDBRANCH   7  14
ENDBRANCH   1   7
BRANCH   2  16
HETATM   16  O3  UNL     1      11.267  -5.201   5.115  1.00  0.00    -0.393 OA
ATOM     17  H3  UNL     1      11.405  -4.633   4.366  1.00  0.00     0.210 HD
ENDBRANCH   2  16
BRANCH   6  18
HETATM   18  O7  UNL     1      12.514  -4.876   9.689  1.00  0.00    -0.392 OA
ATOM     19  H7  UNL     1      13.463  -4.824   9.694  1.00  0.00     0.210 HD
ENDBRANCH   6  18
BRANCH   3  20
HETATM   20  N2  UNL     1       9.996  -6.251   7.604  1.00  0.00    -0.070 N 
ATOM     21  H23 UNL     1      10.162  -6.206   8.610  1.00  0.00     0.274 HD
ATOM     22  H22 UNL     1       9.123  -6.778   7.631  1.00  0.00     0.274 HD
ATOM     23  H21 UNL     1      10.738  -6.744   7.106  1.00  0.00     0.274 HD
ENDBRANCH   3  20
BRANCH   5  24
HETATM   24  O6  UNL     1      10.376  -3.960  10.259  1.00  0.00    -0.390 OA
ATOM     25  H6  UNL     1      10.801  -4.775  10.498  1.00  0.00     0.210 HD
ENDBRANCH   5  24
BRANCH   4  26
HETATM   26  O4  UNL     1       9.157  -2.737   7.343  1.00  0.00    -0.374 OA
BRANCH  26  27
HETATM   27  C9  UNL     1       8.447  -1.866   8.152  1.00  0.00     0.146 C 
HETATM   28  C10 UNL     1       7.936  -0.660   7.401  1.00  0.00     0.036 C 
HETATM   29  C11 UNL     1       7.537   0.368   8.439  1.00  0.00     0.029 C 
HETATM   30  C12 UNL     1       7.173  -0.374   9.722  1.00  0.00     0.167 C 
HETATM   31  O5  UNL     1       6.478  -1.508   9.396  1.00  0.00    -0.389 OA
HETATM   32  C13 UNL     1       7.282  -2.506   8.855  1.00  0.00     0.199 C 
ENDBRANCH  26  27
ENDBRANCH   4  26
TORSDOF 11
ENDMDL
MODEL 3
REMARK VINA RESULT: -7.125182361      1.740      2.843
REMARK  11 active torsions:
REMARK  status: ('A' for Active; 'I' for Inactive)
REMARK    1  A    between atoms: N1_2  and  C3_4 
REMARK    2  A    between atoms: C3_4  and  C4_5 
REMARK    3  A    between atoms: C4_5  and  O1_6 
REMARK    4  A    between atoms: C4_5  and  O2_8 
REMARK    5  A    between atoms: C4_5  and  C5_10 
REMARK    6  A    between atoms: C6_11  and  O3_12 
REMARK    7  A    between atoms: C7_14  and  N2_15 
REMARK    8  A    between atoms: C8_19  and  O4_20 
REMARK    9  A    between atoms: O4_20  and  C9_21 
REMARK   10  A    between atoms: C14_27  and  O6_28 
REMARK   11  A    between atoms: C15_30  and  O7_31 
ROOT
HETATM    1  C5  UNL     1      12.219  -4.707   7.193  1.00  0.00     0.112 C 
HETATM    2  C6  UNL     1      11.229  -4.745   6.084  1.00  0.00     0.163 C 
HETATM    3  C7  UNL     1       9.876  -5.033   6.781  1.00  0.00     0.244 C 
HETATM    4  C8  UNL     1       9.469  -3.734   7.385  1.00  0.00     0.186 C 
HETATM    5  C14 UNL     1      10.518  -3.090   8.213  1.00  0.00     0.178 C 
HETATM    6  C15 UNL     1      11.894  -3.566   8.117  1.00  0.00     0.161 C 
ENDROOT
BRANCH   1   7
HETATM    7  C4  UNL     1      13.668  -4.545   6.786  1.00  0.00     0.194 C 
BRANCH   7   8
HETATM    8  C3  UNL     1      14.628  -5.311   7.636  1.00  0.00     0.339 C 
BRANCH   8   9
HETATM    9  N1  UNL     1      14.583  -6.764   7.372  1.00  0.00     0.085 N 
HETATM   10  C1  UNL     1      14.197  -7.434   8.642  1.00  0.00     0.309 C 
HETATM   11  C2  UNL     1      15.924  -7.285   7.078  1.00  0.00     0.309 C 
ENDBRANCH   8   9
ENDBRANCH   7   8
BRANCH   7  12
HETATM   12  O1  UNL     1      13.874  -4.826   5.459  1.00  0.00    -0.364 OA
ATOM     13  H1  UNL     1      13.125  -4.553   4.942  1.00  0.00     0.213 HD
ENDBRANCH   7  12
BRANCH   7  14
HETATM   14  O2  UNL     1      13.992  -3.162   6.929  1.00  0.00    -0.364 OA
ATOM     15  H2  UNL     1      13.341  -2.781   7.508  1.00  0.00     0.213 HD
ENDBRANCH   7  14
ENDBRANCH   1   7
BRANCH   2  16
HETATM   16  O3  UNL     1      11.449  -5.738   5.129  1.00  0.00    -0.393 OA
ATOM     17  H3  UNL     1      10.696  -6.282   4.934  1.00  0.00     0.210 HD
ENDBRANCH   2  16
BRANCH   6  18
HETATM   18  O7  UNL     1      12.347  -3.908   9.422  1.00  0.00    -0.392 OA
ATOM     19  H7  UNL     1      13.173  -4.371   9.337  1.00  0.00     0.210 HD
ENDBRANCH   6  18
BRANCH   3  20
HETATM   20  N2  UNL     1      10.080  -6.072   7.762  1.00  0.00    -0.070 N 
ATOM     21  H23 UNL     1      10.822  -5.844   8.425  1.00  0.00     0.274 HD
ATOM     22  H22 UNL     1       9.311  -6.136   8.429  1.00  0.00     0.274 HD
ATOM     23  H21 UNL     1      10.249  -6.950   7.271  1.00  0.00     0.274 HD
ENDBRANCH   3  20
BRANCH   5  24
HETATM   24  O6  UNL     1      10.118  -3.048   9.578  1.00  0.00    -0.390 OA
ATOM     25  H6  UNL     1       9.271  -2.624   9.662  1.00  0.00     0.210 HD
ENDBRANCH   5  24
BRANCH   4  26
HETATM   26  O4  UNL     1       9.027  -2.896   6.372  1.00  0.00    -0.374 OA
BRANCH  26  27
HETATM   27  C9  UNL     1       9.804  -1.759   6.237  1.00  0.00     0.146 C 
HETATM   28  C10 UNL     1      10.723  -1.821   5.042  1.00  0.00     0.036 C 
HETATM   29  C11 UNL     1      11.763  -0.736   5.228  1.00  0.00     0.029 C 
HETATM   30  C12 UNL     1      11.150   0.358   6.099  1.00  0.00     0.167 C 
HETATM   31  O5  UNL     1       9.845   0.541   5.729  1.00  0.00    -0.389 OA
HETATM   32  C13 UNL     1       9.007  -0.487   6.149  1.00  0.00     0.199 C 
ENDBRANCH  26  27
ENDBRANCH   4  26
TORSDOF 11
ENDMDL
MODEL 4
REMARK VINA RESULT: -7.045137103      2.410      3.086
REMARK  11 active torsions:
REMARK  status: ('A' for Active; 'I' for Inactive)
REMARK    1  A    between atoms: N1_2  and  C3_4 
REMARK    2  A    between atoms: C3_4  and  C4_5 
REMARK    3  A    between atoms: C4_5  and  O1_6 
REMARK    4  A    between atoms: C4_5  and  O2_8 
REMARK    5  A    between atoms: C4_5  and  C5_10 
REMARK    6  A    between atoms: C6_11  and  O3_12 
REMARK    7  A    between atoms: C7_14  and  N2_15 
REMARK    8  A    between atoms: C8_19  and  O4_20 
REMARK    9  A    between atoms: O4_20  and  C9_21 
REMARK   10  A    between atoms: C14_27  and  O6_28 
REMARK   11  A    between atoms: C15_30  and  O7_31 
ROOT
HETATM    1  C5  UNL     1      12.214  -4.954   7.330  1.00  0.00     0.112 C 
HETATM    2  C6  UNL     1      11.164  -4.512   6.374  1.00  0.00     0.163 C 
HETATM    3  C7  UNL     1       9.830  -4.910   7.052  1.00  0.00     0.244 C 
HETATM    4  C8  UNL     1       9.608  -3.879   8.104  1.00  0.00     0.186 C 
HETATM    5  C14 UNL     1      10.770  -3.663   9.001  1.00  0.00     0.178 C 
HETATM    6  C15 UNL     1      12.075  -4.190   8.617  1.00  0.00     0.161 C 
ENDROOT
BRANCH   1   7
HETATM    7  C4  UNL     1      13.646  -4.783   6.869  1.00  0.00     0.194 C 
BRANCH   7   8
HETATM    8  C3  UNL     1      14.645  -5.516   7.705  1.00  0.00     0.339 C 
BRANCH   8   9
HETATM    9  N1  UNL     1      14.663  -6.966   7.422  1.00  0.00     0.085 N 
HETATM   10  C1  UNL     1      14.394  -7.672   8.703  1.00  0.00     0.309 C 
HETATM   11  C2  UNL     1      16.009  -7.409   7.038  1.00  0.00     0.309 C 
ENDBRANCH   8   9
ENDBRANCH   7   8
BRANCH   7  12
HETATM   12  O1  UNL     1      13.811  -5.094   5.544  1.00  0.00    -0.364 OA
ATOM     13  H1  UNL     1      14.566  -4.638   5.188  1.00  0.00     0.213 HD
ENDBRANCH   7  12
BRANCH   7  14
HETATM   14  O2  UNL     1      13.956  -3.393   6.969  1.00  0.00    -0.364 OA
ATOM     15  H2  UNL     1      13.242  -2.981   7.442  1.00  0.00     0.213 HD
ENDBRANCH   7  14
ENDBRANCH   1   7
BRANCH   2  16
HETATM   16  O3  UNL     1      11.215  -5.118   5.119  1.00  0.00    -0.393 OA
ATOM     17  H3  UNL     1      11.799  -4.702   4.495  1.00  0.00     0.210 HD
ENDBRANCH   2  16
BRANCH   6  18
HETATM   18  O7  UNL     1      12.561  -5.010   9.675  1.00  0.00    -0.392 OA
ATOM     19  H7  UNL     1      11.826  -5.487  10.042  1.00  0.00     0.210 HD
ENDBRANCH   6  18
BRANCH   3  20
HETATM   20  N2  UNL     1       9.971  -6.242   7.589  1.00  0.00    -0.070 N 
ATOM     21  H23 UNL     1      10.720  -6.309   8.279  1.00  0.00     0.274 HD
ATOM     22  H22 UNL     1       9.196  -6.502   8.200  1.00  0.00     0.274 HD
ATOM     23  H21 UNL     1      10.094  -6.892   6.812  1.00  0.00     0.274 HD
ENDBRANCH   3  20
BRANCH   5  24
HETATM   24  O6  UNL     1      10.456  -4.072  10.327  1.00  0.00    -0.390 OA
ATOM     25  H6  UNL     1      10.618  -3.364  10.940  1.00  0.00     0.210 HD
ENDBRANCH   5  24
BRANCH   4  26
HETATM   26  O4  UNL     1       9.206  -2.703   7.490  1.00  0.00    -0.374 OA
BRANCH  26  27
HETATM   27  C9  UNL     1       8.133  -2.103   8.127  1.00  0.00     0.146 C 
HETATM   28  C10 UNL     1       7.327  -3.078   8.951  1.00  0.00     0.036 C 
HETATM   29  C11 UNL     1       6.005  -2.406   9.259  1.00  0.00     0.029 C 
HETATM   30  C12 UNL     1       6.227  -0.896   9.232  1.00  0.00     0.167 C 
HETATM   31  O5  UNL     1       7.434  -0.614   9.814  1.00  0.00    -0.389 OA
HETATM   32  C13 UNL     1       8.520  -0.951   9.012  1.00  0.00     0.199 C 
ENDBRANCH  26  27
ENDBRANCH   4  26
TORSDOF 11
ENDMDL
MODEL 5
REMARK VINA RESULT: -6.932003288      2.136      2.979
REMARK  11 active torsions:
REMARK  status: ('A' for Active; 'I' for Inactive)
REMARK    1  A    between atoms: N1_2  and  C3_4 
REMARK    2  A    between atoms: C3_4  and  C4_5 
REMARK    3  A    between atoms: C4_5  and  O1_6 
REMARK    4  A    between atoms: C4_5  and  O2_8 
REMARK    5  A    between atoms: C4_5  and  C5_10 
REMARK    6  A    between atoms: C6_11  and  O3_12 
REMARK    7  A    between atoms: C7_14  and  N2_15 
REMARK    8  A    between atoms: C8_19  and  O4_20 
REMARK    9  A    between atoms: O4_20  and  C9_21 
REMARK   10  A    between atoms: C14_27  and  O6_28 
REMARK   11  A    between atoms: C15_30  and  O7_31 
ROOT
HETATM    1  C5  UNL     1      11.745  -4.291   7.436  1.00  0.00     0.112 C 
HETATM    2  C6  UNL     1      10.733  -3.603   6.590  1.00  0.00     0.163 C 
HETATM    3  C7  UNL     1       9.372  -4.134   7.102  1.00  0.00     0.244 C 
HETATM    4  C8  UNL     1       9.123  -3.398   8.373  1.00  0.00     0.186 C 
HETATM    5  C14 UNL     1      10.255  -3.435   9.333  1.00  0.00     0.178 C 
HETATM    6  C15 UNL     1      11.568  -3.873   8.870  1.00  0.00     0.161 C 
ENDROOT
BRANCH   1   7
HETATM    7  C4  UNL     1      13.194  -4.036   7.079  1.00  0.00     0.194 C 
BRANCH   7   8
HETATM    8  C3  UNL     1      13.925  -5.249   6.601  1.00  0.00     0.339 C 
BRANCH   8   9
HETATM    9  N1  UNL     1      14.767  -5.853   7.654  1.00  0.00     0.085 N 
HETATM   10  C1  UNL     1      15.998  -6.368   6.997  1.00  0.00     0.309 C 
HETATM   11  C2  UNL     1      14.128  -7.048   8.217  1.00  0.00     0.309 C 
ENDBRANCH   8   9
ENDBRANCH   7   8
BRANCH   7  12
HETATM   12  O1  UNL     1      13.341  -3.006   6.187  1.00  0.00    -0.364 OA
ATOM     13  H1  UNL     1      12.620  -2.391   6.268  1.00  0.00     0.213 HD
ENDBRANCH   7  12
BRANCH   7  14
HETATM   14  O2  UNL     1      13.848  -3.595   8.270  1.00  0.00    -0.364 OA
ATOM     15  H2  UNL     1      13.717  -2.656   8.329  1.00  0.00     0.213 HD
ENDBRANCH   7  14
ENDBRANCH   1   7
BRANCH   2  16
HETATM   16  O3  UNL     1      10.823  -3.874   5.224  1.00  0.00    -0.393 OA
ATOM     17  H3  UNL     1      10.174  -4.483   4.892  1.00  0.00     0.210 HD
ENDBRANCH   2  16
BRANCH   6  18
HETATM   18  O7  UNL     1      12.008  -4.942   9.701  1.00  0.00    -0.392 OA
ATOM     19  H7  UNL     1      11.241  -5.396  10.030  1.00  0.00     0.210 HD
ENDBRANCH   6  18
BRANCH   3  20
HETATM   20  N2  UNL     1       9.481  -5.561   7.291  1.00  0.00    -0.070 N 
ATOM     21  H23 UNL     1       8.683  -6.069   6.909  1.00  0.00     0.274 HD
ATOM     22  H22 UNL     1      10.205  -5.979   6.706  1.00  0.00     0.274 HD
ATOM     23  H21 UNL     1       9.624  -5.745   8.284  1.00  0.00     0.274 HD
ENDBRANCH   3  20
BRANCH   5  24
HETATM   24  O6  UNL     1       9.890  -4.159  10.502  1.00  0.00    -0.390 OA
ATOM     25  H6  UNL     1      10.565  -4.078  11.166  1.00  0.00     0.210 HD
ENDBRANCH   5  24
BRANCH   4  26
HETATM   26  O4  UNL     1       8.755  -2.097   8.063  1.00  0.00    -0.374 OA
BRANCH  26  27
HETATM   27  C9  UNL     1       7.822  -1.578   8.944  1.00  0.00     0.146 C 
HETATM   28  C10 UNL     1       7.262  -0.254   8.484  1.00  0.00     0.036 C 
HETATM   29  C11 UNL     1       6.578   0.375   9.681  1.00  0.00     0.029 C 
HETATM   30  C12 UNL     1       6.141  -0.749  10.617  1.00  0.00     0.167 C 
HETATM   31  O5  UNL     1       5.665  -1.791   9.868  1.00  0.00    -0.389 OA
HETATM   32  C13 UNL     1       6.669  -2.503   9.219  1.00  0.00     0.199 C 
ENDBRANCH  26  27
ENDBRANCH   4  26
TORSDOF 11
ENDMDL
