MODEL 1
REMARK VINA RESULT: -6.631928515      0.000      0.000
REMARK  7 active torsions:
REMARK  status: ('A' for Active; 'I' for Inactive)
REMARK    1  A    between atoms: C2_3  and  C3_4 
REMARK    2  A    between atoms: C2_3  and  C4_11 
REMARK       I    between atoms: C3_4  and  N2_6 
REMARK    3  A    between atoms: N2_6  and  N3_8 
REMARK    4  A    between atoms: C4_11  and  N4_12 
REMARK    5  A    between atoms: C4_11  and  C11_32 
REMARK    6  A    between atoms: N4_12  and  C5_14 
REMARK    7  A    between atoms: C7_18  and  N6_19 
ROOT
HETATM    1  N1  UNL     1     -15.519  44.885  28.203  1.00  0.00    -0.196 NA
HETATM    2  C1  UNL     1     -16.344  44.538  27.467  1.00  0.00     0.076 C 
HETATM    3  C2  UNL     1     -17.376  44.077  26.538  1.00  0.00     0.219 C 
ENDROOT
BRANCH   3   4
HETATM    4  C3  UNL     1     -16.976  44.257  25.129  1.00  0.00     0.256 C 
HETATM    5  O1  UNL     1     -15.794  44.521  24.836  1.00  0.00    -0.270 OA
HETATM    6  N2  UNL     1     -17.948  44.128  24.114  1.00  0.00    -0.275 N 
ATOM      7  H2  UNL     1     -18.914  43.912  24.359  1.00  0.00     0.189 HD
BRANCH   6   8
HETATM    8  N3  UNL     1     -17.596  44.293  22.791  1.00  0.00    -0.343 N 
ATOM      9  H32 UNL     1     -16.617  44.190  22.525  1.00  0.00     0.176 HD
ATOM     10  H31 UNL     1     -18.307  44.515  22.094  1.00  0.00     0.176 HD
ENDBRANCH   6   8
ENDBRANCH   3   4
BRANCH   3  11
HETATM   11  C4  UNL     1     -17.652  42.619  26.875  1.00  0.00     0.211 C 
BRANCH  11  12
HETATM   12  N4  UNL     1     -16.963  41.726  26.005  1.00  0.00    -0.356 N 
ATOM     13  H4  UNL     1     -16.366  42.093  25.263  1.00  0.00     0.162 HD
BRANCH  12  14
HETATM   14  C5  UNL     1     -17.108  40.322  26.171  1.00  0.00     0.172 A 
HETATM   15  N5  UNL     1     -17.820  39.574  25.309  1.00  0.00    -0.332 N 
HETATM   16  C6  UNL     1     -17.979  38.251  25.453  1.00  0.00     0.122 A 
ATOM     17  H5  UNL     1     -18.257  40.034  24.510  1.00  0.00     0.168 HD
HETATM   18  C7  UNL     1     -18.711  37.477  24.566  1.00  0.00     0.131 A 
HETATM   19  C9  UNL     1     -17.399  37.600  26.523  1.00  0.00     0.140 A 
HETATM   20  N7  UNL     1     -18.869  36.149  24.712  1.00  0.00    -0.337 N 
HETATM   21  C8  UNL     1     -18.296  35.541  25.763  1.00  0.00     0.183 A 
ATOM     22  H7  UNL     1     -19.416  35.614  24.037  1.00  0.00     0.168 HD
HETATM   23  N8  UNL     1     -17.571  36.272  26.651  1.00  0.00    -0.337 N 
ATOM     24  H8  UNL     1     -17.140  35.796  27.444  1.00  0.00     0.168 HD
HETATM   25  N9  UNL     1     -16.693  38.341  27.382  1.00  0.00    -0.304 N 
HETATM   26  C10 UNL     1     -16.521  39.664  27.258  1.00  0.00     0.291 A 
ATOM     27  H9  UNL     1     -16.260  37.873  28.178  1.00  0.00     0.171 HD
HETATM   28  O2  UNL     1     -15.854  40.353  28.071  1.00  0.00    -0.264 OA
BRANCH  18  29
HETATM   29  N6  UNL     1     -19.253  38.070  23.568  1.00  0.00    -0.383 N 
ATOM     30  H62 UNL     1     -19.533  39.046  23.657  1.00  0.00     0.157 HD
ATOM     31  H61 UNL     1     -19.385  37.530  22.712  1.00  0.00     0.157 HD
ENDBRANCH  18  29
ENDBRANCH  12  14
ENDBRANCH  11  12
BRANCH  11  32
HETATM   32  C11 UNL     1     -19.142  42.422  26.825  1.00  0.00     0.198 C 
HETATM   33  O3  UNL     1     -19.889  42.473  27.814  1.00  0.00    -0.646 OA
HETATM   34  O4  UNL     1     -19.749  42.165  25.592  1.00  0.00    -0.646 OA
ENDBRANCH  11  32
ENDBRANCH   3  11
TORSDOF 7
ENDMDL
MODEL 2
REMARK VINA RESULT: -6.596734758      2.012      3.372
REMARK  7 active torsions:
REMARK  status: ('A' for Active; 'I' for Inactive)
REMARK    1  A    between atoms: C2_3  and  C3_4 
REMARK    2  A    between atoms: C2_3  and  C4_11 
REMARK       I    between atoms: C3_4  and  N2_6 
REMARK    3  A    between atoms: N2_6  and  N3_8 
REMARK    4  A    between atoms: C4_11  and  N4_12 
REMARK    5  A    between atoms: C4_11  and  C11_32 
REMARK    6  A    between atoms: N4_12  and  C5_14 
REMARK    7  A    between atoms: C7_18  and  N6_19 
ROOT
HETATM    1  N1  UNL     1     -19.059  45.726  25.811  1.00  0.00    -0.196 NA
HETATM    2  C1  UNL     1     -18.754  44.913  26.578  1.00  0.00     0.076 C 
HETATM    3  C2  UNL     1     -18.364  43.871  27.528  1.00  0.00     0.219 C 
ENDROOT
BRANCH   3   4
HETATM    4  C3  UNL     1     -19.511  43.040  27.943  1.00  0.00     0.256 C 
HETATM    5  O1  UNL     1     -20.240  42.497  27.091  1.00  0.00    -0.270 OA
HETATM    6  N2  UNL     1     -19.776  42.865  29.318  1.00  0.00    -0.275 N 
ATOM      7  H2  UNL     1     -19.175  43.312  30.012  1.00  0.00     0.189 HD
BRANCH   6   8
HETATM    8  N3  UNL     1     -20.842  42.094  29.728  1.00  0.00    -0.343 N 
ATOM      9  H32 UNL     1     -21.787  42.391  29.484  1.00  0.00     0.176 HD
ATOM     10  H31 UNL     1     -20.684  41.242  30.266  1.00  0.00     0.176 HD
ENDBRANCH   6   8
ENDBRANCH   3   4
BRANCH   3  11
HETATM   11  C4  UNL     1     -17.273  43.049  26.857  1.00  0.00     0.211 C 
BRANCH  11  12
HETATM   12  N4  UNL     1     -17.078  41.790  27.495  1.00  0.00    -0.356 N 
ATOM     13  H4  UNL     1     -16.773  41.751  28.468  1.00  0.00     0.162 HD
BRANCH  12  14
HETATM   14  C5  UNL     1     -17.310  40.588  26.773  1.00  0.00     0.172 A 
HETATM   15  N5  UNL     1     -18.350  40.455  25.931  1.00  0.00    -0.332 N 
HETATM   16  C6  UNL     1     -18.593  39.326  25.249  1.00  0.00     0.122 A 
ATOM     17  H5  UNL     1     -18.981  41.246  25.805  1.00  0.00     0.168 HD
HETATM   18  C7  UNL     1     -19.664  39.185  24.379  1.00  0.00     0.131 A 
HETATM   19  C9  UNL     1     -17.758  38.237  25.397  1.00  0.00     0.140 A 
HETATM   20  N7  UNL     1     -19.906  38.053  23.695  1.00  0.00    -0.337 N 
HETATM   21  C8  UNL     1     -19.078  37.008  23.859  1.00  0.00     0.183 A 
ATOM     22  H7  UNL     1     -20.705  37.988  23.064  1.00  0.00     0.168 HD
HETATM   23  N8  UNL     1     -18.018  37.115  24.705  1.00  0.00    -0.337 N 
ATOM     24  H8  UNL     1     -17.397  36.313  24.818  1.00  0.00     0.168 HD
HETATM   25  N9  UNL     1     -16.725  38.368  26.234  1.00  0.00    -0.304 N 
HETATM   26  C10 UNL     1     -16.463  39.485  26.926  1.00  0.00     0.291 A 
ATOM     27  H9  UNL     1     -16.100  37.571  26.354  1.00  0.00     0.171 HD
HETATM   28  O2  UNL     1     -15.487  39.598  27.711  1.00  0.00    -0.264 OA
BRANCH  18  29
HETATM   29  N6  UNL     1     -20.446  40.189  24.232  1.00  0.00    -0.383 N 
ATOM     30  H62 UNL     1     -20.151  40.974  23.653  1.00  0.00     0.157 HD
ATOM     31  H61 UNL     1     -21.347  40.159  24.710  1.00  0.00     0.157 HD
ENDBRANCH  18  29
ENDBRANCH  12  14
ENDBRANCH  11  12
BRANCH  11  32
HETATM   32  C11 UNL     1     -16.022  43.883  26.855  1.00  0.00     0.198 C 
HETATM   33  O3  UNL     1     -15.295  44.054  25.864  1.00  0.00    -0.646 OA
HETATM   34  O4  UNL     1     -15.632  44.520  28.037  1.00  0.00    -0.646 OA
ENDBRANCH  11  32
ENDBRANCH   3  11
TORSDOF 7
ENDMDL
MODEL 3
REMARK VINA RESULT: -6.560061020      1.968      3.114
REMARK  7 active torsions:
REMARK  status: ('A' for Active; 'I' for Inactive)
REMARK    1  A    between atoms: C2_3  and  C3_4 
REMARK    2  A    between atoms: C2_3  and  C4_11 
REMARK       I    between atoms: C3_4  and  N2_6 
REMARK    3  A    between atoms: N2_6  and  N3_8 
REMARK    4  A    between atoms: C4_11  and  N4_12 
REMARK    5  A    between atoms: C4_11  and  C11_32 
REMARK    6  A    between atoms: N4_12  and  C5_14 
REMARK    7  A    between atoms: C7_18  and  N6_19 
ROOT
HETATM    1  N1  UNL     1     -14.547  44.886  25.816  1.00  0.00    -0.196 NA
HETATM    2  C1  UNL     1     -15.695  45.040  25.806  1.00  0.00     0.076 C 
HETATM    3  C2  UNL     1     -17.148  45.210  25.798  1.00  0.00     0.219 C 
ENDROOT
BRANCH   3   4
HETATM    4  C3  UNL     1     -17.707  45.146  24.433  1.00  0.00     0.256 C 
HETATM    5  O1  UNL     1     -18.767  45.738  24.155  1.00  0.00    -0.270 OA
HETATM    6  N2  UNL     1     -17.027  44.405  23.443  1.00  0.00    -0.275 N 
ATOM      7  H2  UNL     1     -16.159  43.922  23.676  1.00  0.00     0.189 HD
BRANCH   6   8
HETATM    8  N3  UNL     1     -17.531  44.331  22.162  1.00  0.00    -0.343 N 
ATOM      9  H32 UNL     1     -17.294  43.525  21.585  1.00  0.00     0.176 HD
ATOM     10  H31 UNL     1     -18.131  45.074  21.802  1.00  0.00     0.176 HD
ENDBRANCH   6   8
ENDBRANCH   3   4
BRANCH   3  11
HETATM   11  C4  UNL     1     -17.724  44.133  26.705  1.00  0.00     0.211 C 
BRANCH  11  12
HETATM   12  N4  UNL     1     -18.812  43.442  26.098  1.00  0.00    -0.356 N 
ATOM     13  H4  UNL     1     -19.717  43.901  25.998  1.00  0.00     0.162 HD
BRANCH  12  14
HETATM   14  C5  UNL     1     -18.633  42.112  25.631  1.00  0.00     0.172 A 
HETATM   15  N5  UNL     1     -17.972  41.189  26.353  1.00  0.00    -0.332 N 
HETATM   16  C6  UNL     1     -17.783  39.932  25.927  1.00  0.00     0.122 A 
ATOM     17  H5  UNL     1     -17.599  41.457  27.263  1.00  0.00     0.168 HD
HETATM   18  C7  UNL     1     -17.102  38.978  26.668  1.00  0.00     0.131 A 
HETATM   19  C9  UNL     1     -18.276  39.538  24.699  1.00  0.00     0.140 A 
HETATM   20  N7  UNL     1     -16.913  37.717  26.239  1.00  0.00    -0.337 N 
HETATM   21  C8  UNL     1     -17.403  37.361  25.041  1.00  0.00     0.183 A 
ATOM     22  H7  UNL     1     -16.407  37.043  26.815  1.00  0.00     0.168 HD
HETATM   23  N8  UNL     1     -18.075  38.273  24.289  1.00  0.00    -0.337 N 
ATOM     24  H8  UNL     1     -18.442  37.988  23.381  1.00  0.00     0.168 HD
HETATM   25  N9  UNL     1     -18.932  40.454  23.981  1.00  0.00    -0.304 N 
HETATM   26  C10 UNL     1     -19.133  41.715  24.386  1.00  0.00     0.291 A 
ATOM     27  H9  UNL     1     -19.301  40.177  23.071  1.00  0.00     0.171 HD
HETATM   28  O2  UNL     1     -19.752  42.569  23.702  1.00  0.00    -0.264 OA
BRANCH  18  29
HETATM   29  N6  UNL     1     -16.640  39.331  27.809  1.00  0.00    -0.383 N 
ATOM     30  H62 UNL     1     -16.847  40.263  28.167  1.00  0.00     0.157 HD
ATOM     31  H61 UNL     1     -16.075  38.652  28.321  1.00  0.00     0.157 HD
ENDBRANCH  18  29
ENDBRANCH  12  14
ENDBRANCH  11  12
BRANCH  11  32
HETATM   32  C11 UNL     1     -18.123  44.799  27.993  1.00  0.00     0.198 C 
HETATM   33  O3  UNL     1     -17.419  45.615  28.608  1.00  0.00    -0.646 OA
HETATM   34  O4  UNL     1     -19.367  44.495  28.554  1.00  0.00    -0.646 OA
ENDBRANCH  11  32
ENDBRANCH   3  11
TORSDOF 7
ENDMDL
MODEL 4
REMARK VINA RESULT: -6.559778040      1.635      2.955
REMARK  7 active torsions:
REMARK  status: ('A' for Active; 'I' for Inactive)
REMARK    1  A    between atoms: C2_3  and  C3_4 
REMARK    2  A    between atoms: C2_3  and  C4_11 
REMARK       I    between atoms: C3_4  and  N2_6 
REMARK    3  A    between atoms: N2_6  and  N3_8 
REMARK    4  A    between atoms: C4_11  and  N4_12 
REMARK    5  A    between atoms: C4_11  and  C11_32 
REMARK    6  A    between atoms: N4_12  and  C5_14 
REMARK    7  A    between atoms: C7_18  and  N6_19 
ROOT
HETATM    1  N1  UNL     1     -15.169  44.027  25.937  1.00  0.00    -0.196 NA
HETATM    2  C1  UNL     1     -16.205  43.607  26.241  1.00  0.00     0.076 C 
HETATM    3  C2  UNL     1     -17.509  43.057  26.613  1.00  0.00     0.219 C 
ENDROOT
BRANCH   3   4
HETATM    4  C3  UNL     1     -18.579  43.500  25.699  1.00  0.00     0.256 C 
HETATM    5  O1  UNL     1     -19.704  43.804  26.142  1.00  0.00    -0.270 OA
HETATM    6  N2  UNL     1     -18.317  43.577  24.314  1.00  0.00    -0.275 N 
ATOM      7  H2  UNL     1     -17.395  43.328  23.957  1.00  0.00     0.189 HD
BRANCH   6   8
HETATM    8  N3  UNL     1     -19.303  43.988  23.443  1.00  0.00    -0.343 N 
ATOM      9  H32 UNL     1     -19.375  43.536  22.532  1.00  0.00     0.176 HD
ATOM     10  H31 UNL     1     -19.947  44.734  23.709  1.00  0.00     0.176 HD
ENDBRANCH   6   8
ENDBRANCH   3   4
BRANCH   3  11
HETATM   11  C4  UNL     1     -17.360  41.543  26.630  1.00  0.00     0.211 C 
BRANCH  11  12
HETATM   12  N4  UNL     1     -18.616  40.876  26.539  1.00  0.00    -0.356 N 
ATOM     13  H4  UNL     1     -19.425  41.239  27.043  1.00  0.00     0.162 HD
BRANCH  12  14
HETATM   14  C5  UNL     1     -18.739  39.705  25.745  1.00  0.00     0.172 A 
HETATM   15  N5  UNL     1     -18.264  38.515  26.155  1.00  0.00    -0.332 N 
HETATM   16  C6  UNL     1     -18.360  37.400  25.417  1.00  0.00     0.122 A 
ATOM     17  H5  UNL     1     -17.811  38.459  27.067  1.00  0.00     0.168 HD
HETATM   18  C7  UNL     1     -17.872  36.172  25.837  1.00  0.00     0.131 A 
HETATM   19  C9  UNL     1     -18.968  37.443  24.179  1.00  0.00     0.140 A 
HETATM   20  N7  UNL     1     -17.970  35.054  25.096  1.00  0.00    -0.337 N 
HETATM   21  C8  UNL     1     -18.565  35.124  23.894  1.00  0.00     0.183 A 
ATOM     22  H7  UNL     1     -17.599  34.168  25.440  1.00  0.00     0.168 HD
HETATM   23  N8  UNL     1     -19.055  36.314  23.454  1.00  0.00    -0.337 N 
ATOM     24  H8  UNL     1     -19.505  36.352  22.539  1.00  0.00     0.168 HD
HETATM   25  N9  UNL     1     -19.440  38.624  23.769  1.00  0.00    -0.304 N 
HETATM   26  C10 UNL     1     -19.354  39.751  24.489  1.00  0.00     0.291 A 
ATOM     27  H9  UNL     1     -19.891  38.671  22.856  1.00  0.00     0.171 HD
HETATM   28  O2  UNL     1     -19.802  40.858  24.095  1.00  0.00    -0.264 OA
BRANCH  18  29
HETATM   29  N6  UNL     1     -17.307  36.118  26.985  1.00  0.00    -0.383 N 
ATOM     30  H62 UNL     1     -16.503  36.716  27.176  1.00  0.00     0.157 HD
ATOM     31  H61 UNL     1     -17.691  35.469  27.672  1.00  0.00     0.157 HD
ENDBRANCH  18  29
ENDBRANCH  12  14
ENDBRANCH  11  12
BRANCH  11  32
HETATM   32  C11 UNL     1     -16.615  41.181  27.886  1.00  0.00     0.198 C 
HETATM   33  O3  UNL     1     -16.610  41.866  28.919  1.00  0.00    -0.646 OA
HETATM   34  O4  UNL     1     -15.873  39.996  27.914  1.00  0.00    -0.646 OA
ENDBRANCH  11  32
ENDBRANCH   3  11
TORSDOF 7
ENDMDL
MODEL 5
REMARK VINA RESULT: -6.506842068      1.531      2.208
REMARK  7 active torsions:
REMARK  status: ('A' for Active; 'I' for Inactive)
REMARK    1  A    between atoms: C2_3  and  C3_4 
REMARK    2  A    between atoms: C2_3  and  C4_11 
REMARK       I    between atoms: C3_4  and  N2_6 
REMARK    3  A    between atoms: N2_6  and  N3_8 
REMARK    4  A    between atoms: C4_11  and  N4_12 
REMARK    5  A    between atoms: C4_11  and  C11_32 
REMARK    6  A    between atoms: N4_12  and  C5_14 
REMARK    7  A    between atoms: C7_18  and  N6_19 
ROOT
HETATM    1  N1  UNL     1     -16.721  45.586  24.472  1.00  0.00    -0.196 NA
HETATM    2  C1  UNL     1     -17.470  44.825  24.922  1.00  0.00     0.076 C 
HETATM    3  C2  UNL     1     -18.398  43.847  25.492  1.00  0.00     0.219 C 
ENDROOT
BRANCH   3   4
HETATM    4  C3  UNL     1     -19.052  43.030  24.451  1.00  0.00     0.256 C 
HETATM    5  O1  UNL     1     -20.102  42.409  24.702  1.00  0.00    -0.270 OA
HETATM    6  N2  UNL     1     -18.475  42.960  23.165  1.00  0.00    -0.275 N 
ATOM      7  H2  UNL     1     -17.615  43.471  22.964  1.00  0.00     0.189 HD
BRANCH   6   8
HETATM    8  N3  UNL     1     -19.069  42.202  22.179  1.00  0.00    -0.343 N 
ATOM      9  H32 UNL     1     -20.087  42.140  22.150  1.00  0.00     0.176 HD
ATOM     10  H31 UNL     1     -18.496  41.713  21.491  1.00  0.00     0.176 HD
ENDBRANCH   6   8
ENDBRANCH   3   4
BRANCH   3  11
HETATM   11  C4  UNL     1     -17.599  42.999  26.470  1.00  0.00     0.211 C 
BRANCH  11  12
HETATM   12  N4  UNL     1     -18.357  41.906  26.979  1.00  0.00    -0.356 N 
ATOM     13  H4  UNL     1     -19.180  42.078  27.557  1.00  0.00     0.162 HD
BRANCH  12  14
HETATM   14  C5  UNL     1     -17.965  40.573  26.679  1.00  0.00     0.172 A 
HETATM   15  N5  UNL     1     -18.558  39.860  25.704  1.00  0.00    -0.332 N 
HETATM   16  C6  UNL     1     -18.211  38.598  25.413  1.00  0.00     0.122 A 
ATOM     17  H5  UNL     1     -19.303  40.298  25.164  1.00  0.00     0.168 HD
HETATM   18  C7  UNL     1     -18.819  37.861  24.408  1.00  0.00     0.131 A 
HETATM   19  C9  UNL     1     -17.206  37.977  26.126  1.00  0.00     0.140 A 
HETATM   20  N7  UNL     1     -18.470  36.595  24.117  1.00  0.00    -0.337 N 
HETATM   21  C8  UNL     1     -17.489  36.015  24.827  1.00  0.00     0.183 A 
ATOM     22  H7  UNL     1     -18.941  36.085  23.369  1.00  0.00     0.168 HD
HETATM   23  N8  UNL     1     -16.873  36.711  25.819  1.00  0.00    -0.337 N 
ATOM     24  H8  UNL     1     -16.129  36.257  26.350  1.00  0.00     0.168 HD
HETATM   25  N9  UNL     1     -16.617  38.683  27.096  1.00  0.00    -0.304 N 
HETATM   26  C10 UNL     1     -16.947  39.945  27.405  1.00  0.00     0.291 A 
ATOM     27  H9  UNL     1     -15.873  38.237  27.632  1.00  0.00     0.171 HD
HETATM   28  O2  UNL     1     -16.386  40.601  28.319  1.00  0.00    -0.264 OA
BRANCH  18  29
HETATM   29  N6  UNL     1     -19.753  38.427  23.738  1.00  0.00    -0.383 N 
ATOM     30  H62 UNL     1     -20.260  39.210  24.149  1.00  0.00     0.157 HD
ATOM     31  H61 UNL     1     -19.953  38.063  22.806  1.00  0.00     0.157 HD
ENDBRANCH  18  29
ENDBRANCH  12  14
ENDBRANCH  11  12
BRANCH  11  32
HETATM   32  C11 UNL     1     -17.116  43.912  27.563  1.00  0.00     0.198 C 
HETATM   33  O3  UNL     1     -15.924  44.075  27.864  1.00  0.00    -0.646 OA
HETATM   34  O4  UNL     1     -18.056  44.636  28.303  1.00  0.00    -0.646 OA
ENDBRANCH  11  32
ENDBRANCH   3  11
TORSDOF 7
ENDMDL
