MODEL 1
REMARK VINA RESULT: -4.677523931      0.000      0.000
REMARK  5 active torsions:
REMARK  status: ('A' for Active; 'I' for Inactive)
REMARK    1  A    between atoms: C3_6  and  N2_7 
REMARK    2  A    between atoms: N2_7  and  O2_8 
REMARK    3  A    between atoms: N2_7  and  O3_10 
REMARK    4  A    between atoms: C4_12  and  N3_13 
REMARK    5  A    between atoms: N3_13  and  C5_15 
ROOT
HETATM    1  O1  UNL     1     -63.520 -42.186  48.133  1.00  0.00    -0.247 OA
HETATM    2  C1  UNL     1     -63.267 -42.342  49.357  1.00  0.00     0.325 A 
HETATM    3  N1  UNL     1     -63.537 -43.500  49.961  1.00  0.00    -0.317 N 
ATOM      4  H1  UNL     1     -63.952 -44.252  49.410  1.00  0.00     0.170 HD
HETATM    5  C2  UNL     1     -63.284 -43.720  51.278  1.00  0.00     0.125 A 
HETATM    6  C3  UNL     1     -62.724 -42.712  52.036  1.00  0.00     0.125 A 
HETATM    7  C4  UNL     1     -62.447 -41.512  51.398  1.00  0.00     0.135 A 
HETATM    8  N6  UNL     1     -62.716 -41.335  50.081  1.00  0.00    -0.293 N 
ATOM      9  H6  UNL     1     -62.503 -40.443  49.635  1.00  0.00     0.172 HD
ENDROOT
BRANCH   7  10
HETATM   10  N3  UNL     1     -61.926 -40.579  52.111  1.00  0.00    -0.325 N 
ATOM     11  H3  UNL     1     -60.999 -40.695  52.522  1.00  0.00     0.165 HD
BRANCH  10  12
HETATM   12  C5  UNL     1     -62.668 -39.375  52.319  1.00  0.00     0.486 C 
HETATM   13  N4  UNL     1     -61.875 -38.287  52.859  1.00  0.00    -0.027 N 
HETATM   14  C6  UNL     1     -61.816 -38.466  54.285  1.00  0.00     0.264 C 
ATOM     15  H42 UNL     1     -60.954 -38.213  52.428  1.00  0.00     0.281 HD
ATOM     16  H41 UNL     1     -62.223 -37.367  52.587  1.00  0.00     0.281 HD
HETATM   17  C7  UNL     1     -62.904 -39.484  54.568  1.00  0.00     0.264 C 
HETATM   18  N5  UNL     1     -63.667 -39.606  53.345  1.00  0.00    -0.027 N 
ATOM     19  H52 UNL     1     -64.485 -39.000  53.290  1.00  0.00     0.281 HD
ATOM     20  H51 UNL     1     -64.183 -40.482  53.250  1.00  0.00     0.281 HD
ENDBRANCH  10  12
ENDBRANCH   7  10
BRANCH   6  21
HETATM   21  N2  UNL     1     -62.421 -42.831  53.405  1.00  0.00    -0.031 NA
BRANCH  21  22
HETATM   22  O2  UNL     1     -61.793 -43.983  53.710  1.00  0.00    -0.284 OA
ATOM     23  H2  UNL     1     -61.905 -44.240  54.618  1.00  0.00     0.240 HD
ENDBRANCH  21  22
BRANCH  21  24
HETATM   24  O3  UNL     1     -63.587 -42.720  54.106  1.00  0.00    -0.284 OA
ATOM     25  H3  UNL     1     -63.462 -42.064  54.781  1.00  0.00     0.240 HD
ENDBRANCH  21  24
ENDBRANCH   6  21
TORSDOF 5
ENDMDL
MODEL 2
REMARK VINA RESULT: -4.642775628      2.194      4.870
REMARK  5 active torsions:
REMARK  status: ('A' for Active; 'I' for Inactive)
REMARK    1  A    between atoms: C3_6  and  N2_7 
REMARK    2  A    between atoms: N2_7  and  O2_8 
REMARK    3  A    between atoms: N2_7  and  O3_10 
REMARK    4  A    between atoms: C4_12  and  N3_13 
REMARK    5  A    between atoms: N3_13  and  C5_15 
ROOT
HETATM    1  O1  UNL     1     -63.240 -42.173  48.235  1.00  0.00    -0.247 OA
HETATM    2  C1  UNL     1     -63.140 -42.360  49.476  1.00  0.00     0.325 A 
HETATM    3  N1  UNL     1     -62.612 -41.420  50.261  1.00  0.00    -0.317 N 
ATOM      4  H1  UNL     1     -62.292 -40.550  49.834  1.00  0.00     0.170 HD
HETATM    5  C2  UNL     1     -62.481 -41.572  51.605  1.00  0.00     0.125 A 
HETATM    6  C3  UNL     1     -62.907 -42.743  52.198  1.00  0.00     0.125 A 
HETATM    7  C4  UNL     1     -63.455 -43.713  51.373  1.00  0.00     0.135 A 
HETATM    8  N6  UNL     1     -63.567 -43.521  50.036  1.00  0.00    -0.293 N 
ATOM      9  H6  UNL     1     -63.974 -44.250  49.450  1.00  0.00     0.172 HD
ENDROOT
BRANCH   7  10
HETATM   10  N3  UNL     1     -63.850 -44.800  51.933  1.00  0.00    -0.325 N 
ATOM     11  H3  UNL     1     -64.659 -44.800  52.554  1.00  0.00     0.165 HD
BRANCH  10  12
HETATM   12  C5  UNL     1     -63.134 -46.010  51.670  1.00  0.00     0.486 C 
HETATM   13  N4  UNL     1     -63.983 -47.183  51.582  1.00  0.00    -0.027 N 
HETATM   14  C6  UNL     1     -64.217 -47.644  52.924  1.00  0.00     0.264 C 
ATOM     15  H42 UNL     1     -64.845 -47.013  51.062  1.00  0.00     0.281 HD
ATOM     16  H41 UNL     1     -63.602 -47.906  50.973  1.00  0.00     0.281 HD
HETATM   17  C7  UNL     1     -63.176 -46.910  53.746  1.00  0.00     0.264 C 
HETATM   18  N5  UNL     1     -62.269 -46.303  52.797  1.00  0.00    -0.027 N 
ATOM     19  H52 UNL     1     -61.449 -46.864  52.571  1.00  0.00     0.281 HD
ATOM     20  H51 UNL     1     -61.749 -45.501  53.155  1.00  0.00     0.281 HD
ENDBRANCH  10  12
ENDBRANCH   7  10
BRANCH   6  21
HETATM   21  N2  UNL     1     -62.819 -43.005  53.578  1.00  0.00    -0.031 NA
BRANCH  21  22
HETATM   22  O2  UNL     1     -62.961 -41.902  54.337  1.00  0.00    -0.284 OA
ATOM     23  H2  UNL     1     -63.623 -41.996  55.012  1.00  0.00     0.240 HD
ENDBRANCH  21  22
BRANCH  21  24
HETATM   24  O3  UNL     1     -61.614 -43.601  53.817  1.00  0.00    -0.284 OA
ATOM     25  H3  UNL     1     -61.504 -43.671  54.758  1.00  0.00     0.240 HD
ENDBRANCH  21  24
ENDBRANCH   6  21
TORSDOF 5
ENDMDL
MODEL 3
REMARK VINA RESULT: -4.515276524      2.336      5.063
REMARK  5 active torsions:
REMARK  status: ('A' for Active; 'I' for Inactive)
REMARK    1  A    between atoms: C3_6  and  N2_7 
REMARK    2  A    between atoms: N2_7  and  O2_8 
REMARK    3  A    between atoms: N2_7  and  O3_10 
REMARK    4  A    between atoms: C4_12  and  N3_13 
REMARK    5  A    between atoms: N3_13  and  C5_15 
ROOT
HETATM    1  O1  UNL     1     -59.529 -39.842  54.859  1.00  0.00    -0.247 OA
HETATM    2  C1  UNL     1     -60.538 -39.972  54.116  1.00  0.00     0.325 A 
HETATM    3  N1  UNL     1     -61.222 -38.901  53.711  1.00  0.00    -0.317 N 
ATOM      4  H1  UNL     1     -60.909 -37.979  54.015  1.00  0.00     0.170 HD
HETATM    5  C2  UNL     1     -62.316 -38.986  52.909  1.00  0.00     0.125 A 
HETATM    6  C3  UNL     1     -62.751 -40.227  52.490  1.00  0.00     0.125 A 
HETATM    7  C4  UNL     1     -62.033 -41.334  52.917  1.00  0.00     0.135 A 
HETATM    8  N6  UNL     1     -60.946 -41.204  53.717  1.00  0.00    -0.293 N 
ATOM      9  H6  UNL     1     -60.435 -42.033  54.018  1.00  0.00     0.172 HD
ENDROOT
BRANCH   7  10
HETATM   10  N3  UNL     1     -62.445 -42.485  52.522  1.00  0.00    -0.325 N 
ATOM     11  H3  UNL     1     -62.613 -42.664  51.532  1.00  0.00     0.165 HD
BRANCH  10  12
HETATM   12  C5  UNL     1     -62.664 -43.510  53.495  1.00  0.00     0.486 C 
HETATM   13  N4  UNL     1     -62.112 -44.798  53.120  1.00  0.00    -0.027 N 
HETATM   14  C6  UNL     1     -63.071 -45.442  52.264  1.00  0.00     0.264 C 
ATOM     15  H42 UNL     1     -61.185 -44.727  52.699  1.00  0.00     0.281 HD
ATOM     16  H41 UNL     1     -61.849 -45.368  53.924  1.00  0.00     0.281 HD
HETATM   17  C7  UNL     1     -64.338 -44.632  52.463  1.00  0.00     0.264 C 
HETATM   18  N5  UNL     1     -64.087 -43.769  53.597  1.00  0.00    -0.027 N 
ATOM     19  H52 UNL     1     -64.390 -44.146  54.495  1.00  0.00     0.281 HD
ATOM     20  H51 UNL     1     -64.672 -42.934  53.635  1.00  0.00     0.281 HD
ENDBRANCH  10  12
ENDBRANCH   7  10
BRANCH   6  21
HETATM   21  N2  UNL     1     -63.870 -40.431  51.661  1.00  0.00    -0.031 NA
BRANCH  21  22
HETATM   22  O2  UNL     1     -64.864 -41.106  52.269  1.00  0.00    -0.284 OA
ATOM     23  H2  UNL     1     -65.694 -41.043  51.811  1.00  0.00     0.240 HD
ENDBRANCH  21  22
BRANCH  21  24
HETATM   24  O3  UNL     1     -63.451 -41.096  50.544  1.00  0.00    -0.284 OA
ATOM     25  H3  UNL     1     -63.456 -42.026  50.738  1.00  0.00     0.240 HD
ENDBRANCH  21  24
ENDBRANCH   6  21
TORSDOF 5
ENDMDL
MODEL 4
REMARK VINA RESULT: -4.371848483      2.346      4.877
REMARK  5 active torsions:
REMARK  status: ('A' for Active; 'I' for Inactive)
REMARK    1  A    between atoms: C3_6  and  N2_7 
REMARK    2  A    between atoms: N2_7  and  O2_8 
REMARK    3  A    between atoms: N2_7  and  O3_10 
REMARK    4  A    between atoms: C4_12  and  N3_13 
REMARK    5  A    between atoms: N3_13  and  C5_15 
ROOT
HETATM    1  O1  UNL     1     -64.204 -41.791  48.638  1.00  0.00    -0.247 OA
HETATM    2  C1  UNL     1     -63.751 -42.172  49.750  1.00  0.00     0.325 A 
HETATM    3  N1  UNL     1     -63.175 -41.300  50.579  1.00  0.00    -0.317 N 
ATOM      4  H1  UNL     1     -63.111 -40.323  50.292  1.00  0.00     0.170 HD
HETATM    5  C2  UNL     1     -62.671 -41.658  51.790  1.00  0.00     0.125 A 
HETATM    6  C3  UNL     1     -62.750 -42.976  52.191  1.00  0.00     0.125 A 
HETATM    7  C4  UNL     1     -63.351 -43.873  51.321  1.00  0.00     0.135 A 
HETATM    8  N6  UNL     1     -63.841 -43.474  50.122  1.00  0.00    -0.293 N 
ATOM      9  H6  UNL     1     -64.278 -44.153  49.500  1.00  0.00     0.172 HD
ENDROOT
BRANCH   7  10
HETATM   10  N3  UNL     1     -63.420 -45.099  51.703  1.00  0.00    -0.325 N 
ATOM     11  H3  UNL     1     -62.576 -45.610  51.962  1.00  0.00     0.165 HD
BRANCH  10  12
HETATM   12  C5  UNL     1     -64.701 -45.732  51.758  1.00  0.00     0.486 C 
HETATM   13  N4  UNL     1     -65.280 -45.762  53.087  1.00  0.00    -0.027 N 
HETATM   14  C6  UNL     1     -64.720 -46.895  53.773  1.00  0.00     0.264 C 
ATOM     15  H42 UNL     1     -65.157 -44.886  53.596  1.00  0.00     0.281 HD
ATOM     16  H41 UNL     1     -66.300 -45.766  53.077  1.00  0.00     0.281 HD
HETATM   17  C7  UNL     1     -64.084 -47.712  52.665  1.00  0.00     0.264 C 
HETATM   18  N5  UNL     1     -64.550 -47.135  51.423  1.00  0.00    -0.027 N 
ATOM     19  H52 UNL     1     -65.385 -47.574  51.035  1.00  0.00     0.281 HD
ATOM     20  H51 UNL     1     -63.953 -47.320  50.616  1.00  0.00     0.281 HD
ENDBRANCH  10  12
ENDBRANCH   7  10
BRANCH   6  21
HETATM   21  N2  UNL     1     -62.262 -43.455  53.420  1.00  0.00    -0.031 NA
BRANCH  21  22
HETATM   22  O2  UNL     1     -63.236 -43.710  54.315  1.00  0.00    -0.284 OA
ATOM     23  H2  UNL     1     -62.903 -43.975  55.165  1.00  0.00     0.240 HD
ENDBRANCH  21  22
BRANCH  21  24
HETATM   24  O3  UNL     1     -61.385 -42.532  53.915  1.00  0.00    -0.284 OA
ATOM     25  H3  UNL     1     -61.212 -42.750  54.823  1.00  0.00     0.240 HD
ENDBRANCH  21  24
ENDBRANCH   6  21
TORSDOF 5
ENDMDL
MODEL 5
REMARK VINA RESULT: -4.297727448      1.940      3.376
REMARK  5 active torsions:
REMARK  status: ('A' for Active; 'I' for Inactive)
REMARK    1  A    between atoms: C3_6  and  N2_7 
REMARK    2  A    between atoms: N2_7  and  O2_8 
REMARK    3  A    between atoms: N2_7  and  O3_10 
REMARK    4  A    between atoms: C4_12  and  N3_13 
REMARK    5  A    between atoms: N3_13  and  C5_15 
ROOT
HETATM    1  O1  UNL     1     -64.363 -46.102  53.270  1.00  0.00    -0.247 OA
HETATM    2  C1  UNL     1     -63.984 -45.046  52.697  1.00  0.00     0.325 A 
HETATM    3  N1  UNL     1     -64.461 -44.721  51.494  1.00  0.00    -0.317 N 
ATOM      4  H1  UNL     1     -65.137 -45.345  51.053  1.00  0.00     0.170 HD
HETATM    5  C2  UNL     1     -64.086 -43.595  50.833  1.00  0.00     0.125 A 
HETATM    6  C3  UNL     1     -63.173 -42.741  51.417  1.00  0.00     0.125 A 
HETATM    7  C4  UNL     1     -62.683 -43.088  52.667  1.00  0.00     0.135 A 
HETATM    8  N6  UNL     1     -63.084 -44.222  53.292  1.00  0.00    -0.293 N 
ATOM      9  H6  UNL     1     -62.709 -44.456  54.211  1.00  0.00     0.172 HD
ENDROOT
BRANCH   7  10
HETATM   10  N3  UNL     1     -61.832 -42.288  53.204  1.00  0.00    -0.325 N 
ATOM     11  H3  UNL     1     -60.881 -42.222  52.842  1.00  0.00     0.165 HD
BRANCH  10  12
HETATM   12  C5  UNL     1     -62.244 -41.492  54.318  1.00  0.00     0.486 C 
HETATM   13  N4  UNL     1     -62.662 -40.152  53.956  1.00  0.00    -0.027 N 
HETATM   14  C6  UNL     1     -61.475 -39.346  53.852  1.00  0.00     0.264 C 
ATOM     15  H42 UNL     1     -63.236 -40.128  53.112  1.00  0.00     0.281 HD
ATOM     16  H41 UNL     1     -63.353 -39.763  54.597  1.00  0.00     0.281 HD
HETATM   17  C7  UNL     1     -60.406 -40.186  54.524  1.00  0.00     0.264 C 
HETATM   18  N5  UNL     1     -61.103 -41.267  55.186  1.00  0.00    -0.027 N 
ATOM     19  H52 UNL     1     -61.337 -41.090  56.162  1.00  0.00     0.281 HD
ATOM     20  H51 UNL     1     -60.534 -42.095  55.366  1.00  0.00     0.281 HD
ENDBRANCH  10  12
ENDBRANCH   7  10
BRANCH   6  21
HETATM   21  N2  UNL     1     -62.715 -41.550  50.823  1.00  0.00    -0.031 NA
BRANCH  21  22
HETATM   22  O2  UNL     1     -63.456 -40.475  51.152  1.00  0.00    -0.284 OA
ATOM     23  H2  UNL     1     -64.252 -40.698  51.620  1.00  0.00     0.240 HD
ENDBRANCH  21  22
BRANCH  21  24
HETATM   24  O3  UNL     1     -62.706 -41.731  49.469  1.00  0.00    -0.284 OA
ATOM     25  H3  UNL     1     -63.537 -41.423  49.127  1.00  0.00     0.240 HD
ENDBRANCH  21  24
ENDBRANCH   6  21
TORSDOF 5
ENDMDL
