MODEL 1
REMARK VINA RESULT: -6.259483874      0.000      0.000
REMARK  5 active torsions:
REMARK  status: ('A' for Active; 'I' for Inactive)
REMARK    1  A    between atoms: O1_1  and  C1_3 
REMARK    2  A    between atoms: N1_7  and  C5_8 
REMARK    3  A    between atoms: C5_8  and  C6_9 
REMARK    4  A    between atoms: C6_9  and  C7_10 
REMARK    5  A    between atoms: C7_10  and  N2_11 
ROOT
HETATM    1  C1  UNL     1      -4.766   0.688  16.084  1.00  0.00     0.146 C 
HETATM    2  C2  UNL     1      -6.045   0.943  16.807  1.00  0.00     0.035 C 
HETATM    3  C3  UNL     1      -6.638   2.299  16.516  1.00  0.00     0.033 C 
HETATM    4  C4  UNL     1      -5.954   2.867  15.287  1.00  0.00     0.272 C 
HETATM    5  N1  UNL     1      -4.584   3.131  15.688  1.00  0.00     0.091 N 
HETATM    6  C12 UNL     1      -3.893   1.883  15.885  1.00  0.00     0.303 C 
ENDROOT
BRANCH   5   7
HETATM    7  C5  UNL     1      -3.905   3.995  14.748  1.00  0.00     0.277 C 
BRANCH   7   8
HETATM    8  C6  UNL     1      -4.411   3.689  13.354  1.00  0.00     0.075 C 
BRANCH   8   9
HETATM    9  C7  UNL     1      -3.319   3.102  12.506  1.00  0.00     0.064 C 
BRANCH   9  10
HETATM   10  N2  UNL     1      -3.505   1.836  11.977  1.00  0.00    -0.374 N 
HETATM   11  C8  UNL     1      -4.761   1.404  11.514  1.00  0.00     0.063 C 
HETATM   12  C9  UNL     1      -4.551  -0.100  11.392  1.00  0.00     0.046 C 
HETATM   13  C10 UNL     1      -3.075  -0.191  11.049  1.00  0.00     0.025 C 
HETATM   14  C11 UNL     1      -2.554   1.256  11.114  1.00  0.00     0.127 C 
ENDBRANCH   9  10
ENDBRANCH   8   9
ENDBRANCH   7   8
ENDBRANCH   5   7
BRANCH   1  15
HETATM   15  O1  UNL     1      -4.969  -0.043  14.889  1.00  0.00    -0.394 OA
ATOM     16  H1  UNL     1      -4.618   0.408  14.131  1.00  0.00     0.210 HD
ENDBRANCH   1  15
TORSDOF 5
ENDMDL
MODEL 2
REMARK VINA RESULT: -6.258533371      1.385      2.124
REMARK  5 active torsions:
REMARK  status: ('A' for Active; 'I' for Inactive)
REMARK    1  A    between atoms: O1_1  and  C1_3 
REMARK    2  A    between atoms: N1_7  and  C5_8 
REMARK    3  A    between atoms: C5_8  and  C6_9 
REMARK    4  A    between atoms: C6_9  and  C7_10 
REMARK    5  A    between atoms: C7_10  and  N2_11 
ROOT
HETATM    1  C1  UNL     1      -5.898   1.181  17.270  1.00  0.00     0.146 C 
HETATM    2  C2  UNL     1      -6.740   2.317  17.746  1.00  0.00     0.035 C 
HETATM    3  C3  UNL     1      -6.764   3.485  16.792  1.00  0.00     0.033 C 
HETATM    4  C4  UNL     1      -6.222   3.021  15.453  1.00  0.00     0.272 C 
HETATM    5  N1  UNL     1      -4.814   2.742  15.676  1.00  0.00     0.091 N 
HETATM    6  C12 UNL     1      -4.682   1.565  16.495  1.00  0.00     0.303 C 
ENDROOT
BRANCH   5   7
HETATM    7  C5  UNL     1      -4.084   2.635  14.433  1.00  0.00     0.277 C 
BRANCH   7   8
HETATM    8  C6  UNL     1      -4.351   1.272  13.828  1.00  0.00     0.075 C 
BRANCH   8   9
HETATM    9  C7  UNL     1      -4.368   1.347  12.329  1.00  0.00     0.064 C 
BRANCH   9  10
HETATM   10  N2  UNL     1      -3.254   1.856  11.683  1.00  0.00    -0.374 N 
HETATM   11  C8  UNL     1      -2.274   1.015  11.123  1.00  0.00     0.063 C 
HETATM   12  C9  UNL     1      -1.127   1.988  10.879  1.00  0.00     0.046 C 
HETATM   13  C10 UNL     1      -1.861   3.286  10.602  1.00  0.00     0.025 C 
HETATM   14  C11 UNL     1      -3.351   2.965  10.818  1.00  0.00     0.127 C 
ENDBRANCH   9  10
ENDBRANCH   8   9
ENDBRANCH   7   8
ENDBRANCH   5   7
BRANCH   1  15
HETATM   15  O1  UNL     1      -6.668   0.186  16.620  1.00  0.00    -0.394 OA
ATOM     16  H1  UNL     1      -7.248   0.556  15.966  1.00  0.00     0.210 HD
ENDBRANCH   1  15
TORSDOF 5
ENDMDL
MODEL 3
REMARK VINA RESULT: -6.243428818      1.021      1.161
REMARK  5 active torsions:
REMARK  status: ('A' for Active; 'I' for Inactive)
REMARK    1  A    between atoms: O1_1  and  C1_3 
REMARK    2  A    between atoms: N1_7  and  C5_8 
REMARK    3  A    between atoms: C5_8  and  C6_9 
REMARK    4  A    between atoms: C6_9  and  C7_10 
REMARK    5  A    between atoms: C7_10  and  N2_11 
ROOT
HETATM    1  C1  UNL     1      -5.931   1.197  17.218  1.00  0.00     0.146 C 
HETATM    2  C2  UNL     1      -6.722   2.340  17.758  1.00  0.00     0.035 C 
HETATM    3  C3  UNL     1      -6.733   3.543  16.849  1.00  0.00     0.033 C 
HETATM    4  C4  UNL     1      -6.243   3.114  15.480  1.00  0.00     0.272 C 
HETATM    5  N1  UNL     1      -4.839   2.782  15.652  1.00  0.00     0.091 N 
HETATM    6  C12 UNL     1      -4.724   1.571  16.423  1.00  0.00     0.303 C 
ENDROOT
BRANCH   5   7
HETATM    7  C5  UNL     1      -4.146   2.698  14.387  1.00  0.00     0.277 C 
BRANCH   7   8
HETATM    8  C6  UNL     1      -4.889   3.540  13.369  1.00  0.00     0.075 C 
BRANCH   8   9
HETATM    9  C7  UNL     1      -4.407   3.245  11.978  1.00  0.00     0.064 C 
BRANCH   9  10
HETATM   10  N2  UNL     1      -4.067   1.941  11.661  1.00  0.00    -0.374 N 
HETATM   11  C8  UNL     1      -5.000   1.049  11.101  1.00  0.00     0.063 C 
HETATM   12  C9  UNL     1      -4.299  -0.292  11.280  1.00  0.00     0.046 C 
HETATM   13  C10 UNL     1      -2.835   0.096  11.181  1.00  0.00     0.025 C 
HETATM   14  C11 UNL     1      -2.829   1.630  11.064  1.00  0.00     0.127 C 
ENDBRANCH   9  10
ENDBRANCH   8   9
ENDBRANCH   7   8
ENDBRANCH   5   7
BRANCH   1  15
HETATM   15  O1  UNL     1      -6.750   0.252  16.553  1.00  0.00    -0.394 OA
ATOM     16  H1  UNL     1      -6.354  -0.058  15.748  1.00  0.00     0.210 HD
ENDBRANCH   1  15
TORSDOF 5
ENDMDL
MODEL 4
REMARK VINA RESULT: -6.207322311      0.587      1.081
REMARK  5 active torsions:
REMARK  status: ('A' for Active; 'I' for Inactive)
REMARK    1  A    between atoms: O1_1  and  C1_3 
REMARK    2  A    between atoms: N1_7  and  C5_8 
REMARK    3  A    between atoms: C5_8  and  C6_9 
REMARK    4  A    between atoms: C6_9  and  C7_10 
REMARK    5  A    between atoms: C7_10  and  N2_11 
ROOT
HETATM    1  C1  UNL     1      -4.988   1.073  16.639  1.00  0.00     0.146 C 
HETATM    2  C2  UNL     1      -6.244   1.606  17.240  1.00  0.00     0.035 C 
HETATM    3  C3  UNL     1      -6.725   2.880  16.591  1.00  0.00     0.033 C 
HETATM    4  C4  UNL     1      -5.994   3.051  15.273  1.00  0.00     0.272 C 
HETATM    5  N1  UNL     1      -4.608   3.304  15.624  1.00  0.00     0.091 N 
HETATM    6  C12 UNL     1      -4.020   2.102  16.157  1.00  0.00     0.303 C 
ENDROOT
BRANCH   5   7
HETATM    7  C5  UNL     1      -3.858   3.837  14.509  1.00  0.00     0.277 C 
BRANCH   7   8
HETATM    8  C6  UNL     1      -4.567   3.461  13.224  1.00  0.00     0.075 C 
BRANCH   8   9
HETATM    9  C7  UNL     1      -3.582   3.019  12.180  1.00  0.00     0.064 C 
BRANCH   9  10
HETATM   10  N2  UNL     1      -3.653   1.715  11.719  1.00  0.00    -0.374 N 
HETATM   11  C8  UNL     1      -2.571   1.104  11.058  1.00  0.00     0.063 C 
HETATM   12  C9  UNL     1      -3.232  -0.123  10.442  1.00  0.00     0.046 C 
HETATM   13  C10 UNL     1      -4.326  -0.435  11.445  1.00  0.00     0.025 C 
HETATM   14  C11 UNL     1      -4.262   0.700  12.482  1.00  0.00     0.127 C 
ENDBRANCH   9  10
ENDBRANCH   8   9
ENDBRANCH   7   8
ENDBRANCH   5   7
BRANCH   1  15
HETATM   15  O1  UNL     1      -5.245   0.071  15.673  1.00  0.00    -0.394 OA
ATOM     16  H1  UNL     1      -4.846  -0.759  15.905  1.00  0.00     0.210 HD
ENDBRANCH   1  15
TORSDOF 5
ENDMDL
MODEL 5
REMARK VINA RESULT: -6.205730005      0.967      1.171
REMARK  5 active torsions:
REMARK  status: ('A' for Active; 'I' for Inactive)
REMARK    1  A    between atoms: O1_1  and  C1_3 
REMARK    2  A    between atoms: N1_7  and  C5_8 
REMARK    3  A    between atoms: C5_8  and  C6_9 
REMARK    4  A    between atoms: C6_9  and  C7_10 
REMARK    5  A    between atoms: C7_10  and  N2_11 
ROOT
HETATM    1  C1  UNL     1      -4.911   1.216  16.679  1.00  0.00     0.146 C 
HETATM    2  C2  UNL     1      -5.989   1.628  17.624  1.00  0.00     0.035 C 
HETATM    3  C3  UNL     1      -6.782   2.819  17.146  1.00  0.00     0.033 C 
HETATM    4  C4  UNL     1      -6.494   3.025  15.671  1.00  0.00     0.272 C 
HETATM    5  N1  UNL     1      -5.105   3.441  15.598  1.00  0.00     0.091 N 
HETATM    6  C12 UNL     1      -4.252   2.330  15.933  1.00  0.00     0.303 C 
ENDROOT
BRANCH   5   7
HETATM    7  C5  UNL     1      -4.782   4.015  14.311  1.00  0.00     0.277 C 
BRANCH   7   8
HETATM    8  C6  UNL     1      -3.487   3.403  13.817  1.00  0.00     0.075 C 
BRANCH   8   9
HETATM    9  C7  UNL     1      -3.533   3.184  12.332  1.00  0.00     0.064 C 
BRANCH   9  10
HETATM   10  N2  UNL     1      -3.952   1.951  11.861  1.00  0.00    -0.374 N 
HETATM   11  C8  UNL     1      -3.949   0.806  12.679  1.00  0.00     0.063 C 
HETATM   12  C9  UNL     1      -4.122  -0.311  11.656  1.00  0.00     0.046 C 
HETATM   13  C10 UNL     1      -4.951   0.365  10.581  1.00  0.00     0.025 C 
HETATM   14  C11 UNL     1      -5.085   1.830  11.031  1.00  0.00     0.127 C 
ENDBRANCH   9  10
ENDBRANCH   8   9
ENDBRANCH   7   8
ENDBRANCH   5   7
BRANCH   1  15
HETATM   15  O1  UNL     1      -5.324   0.161  15.830  1.00  0.00    -0.394 OA
ATOM     16  H1  UNL     1      -4.606  -0.421  15.611  1.00  0.00     0.210 HD
ENDBRANCH   1  15
TORSDOF 5
ENDMDL
