MODEL 1
REMARK VINA RESULT: -8.998826105      0.000      0.000
REMARK  6 active torsions:
REMARK  status: ('A' for Active; 'I' for Inactive)
REMARK    1  A    between atoms: C2_2  and  C3_3 
REMARK    2  A    between atoms: C3_3  and  C4_4 
REMARK    3  A    between atoms: C5_7  and  O1_8 
REMARK       I    between atoms: N9_37  and  C13_39 
REMARK    4  A    between atoms: C13_39  and  O8_41 
REMARK    5  A    between atoms: C16_44  and  C17_45 
REMARK    6  A    between atoms: N13_57  and  O11_59 
ROOT
HETATM    1  C4  UNL     1      36.862   8.651 -12.826  1.00  0.00     0.157 C 
HETATM    2  N1  UNL     1      36.454   9.988 -13.081  1.00  0.00    -0.367 N 
ATOM      3  H1  UNL     1      35.793  10.475 -12.476  1.00  0.00     0.158 HD
HETATM    4  C5  UNL     1      37.024  10.615 -14.235  1.00  0.00     0.364 C 
HETATM    5  N2  UNL     1      36.933  12.057 -14.193  1.00  0.00    -0.061 N 
HETATM    6  N3  UNL     1      35.898  12.789 -14.637  1.00  0.00    -0.112 N 
ATOM      7  H3  UNL     1      35.052  12.410 -15.062  1.00  0.00     0.206 HD
HETATM    8  C6  UNL     1      36.140  14.086 -14.441  1.00  0.00     0.705 A 
HETATM    9  N4  UNL     1      35.387  15.111 -14.733  1.00  0.00    -0.233 N 
ATOM     10  H41 UNL     1      35.572  16.103 -14.582  1.00  0.00     0.174 HD
ATOM     11  H42 UNL     1      34.469  15.045 -15.172  1.00  0.00     0.174 HD
HETATM   12  N5  UNL     1      37.329  14.172 -13.872  1.00  0.00    -0.019 N 
ATOM     13  H5  UNL     1      37.797  15.035 -13.595  1.00  0.00     0.203 HD
HETATM   14  C7  UNL     1      37.828  12.902 -13.716  1.00  0.00     0.722 A 
HETATM   15  N6  UNL     1      39.082  12.592 -13.136  1.00  0.00    -0.133 N 
ATOM     16  H6  UNL     1      39.259  12.954 -12.199  1.00  0.00     0.190 HD
HETATM   17  C8  UNL     1      40.116  11.825 -13.738  1.00  0.00     0.379 C 
HETATM   18  O2  UNL     1      40.834  11.100 -12.956  1.00  0.00    -0.238 OA
HETATM   19  O3  UNL     1      40.397  11.807 -15.096  1.00  0.00    -0.302 OA
HETATM   20  C9  UNL     1      40.624  12.920 -15.910  1.00  0.00     0.197 C 
HETATM   21  C10 UNL     1      41.940  12.822 -16.663  1.00  0.00     0.191 C 
HETATM   22  S1  UNL     1      43.240  13.665 -15.841  1.00  0.00     0.245 S 
HETATM   23  O4  UNL     1      43.989  14.507 -16.820  1.00  0.00    -0.204 OA
HETATM   24  O5  UNL     1      42.660  14.607 -14.811  1.00  0.00    -0.204 OA
HETATM   25  N7  UNL     1      44.389  12.594 -15.106  1.00  0.00    -0.224 N 
ATOM     26  H7  UNL     1      45.282  12.379 -15.549  1.00  0.00     0.200 HD
HETATM   27  N8  UNL     1      44.062  12.093 -13.991  1.00  0.00    -0.255 N 
ATOM     28  H8  UNL     1      43.151  12.357 -13.614  1.00  0.00     0.191 HD
HETATM   29  C11 UNL     1      44.842  11.202 -13.219  1.00  0.00     0.283 C 
HETATM   30  O6  UNL     1      44.961  11.385 -11.979  1.00  0.00    -0.265 OA
HETATM   31  C12 UNL     1      45.545  10.041 -13.778  1.00  0.00     0.086 C 
HETATM   32  N9  UNL     1      46.781   9.843 -13.486  1.00  0.00    -0.301 N 
ATOM     33  H9  UNL     1      47.200  10.533 -12.863  1.00  0.00     0.171 HD
HETATM   34  C13 UNL     1      47.628   8.823 -13.900  1.00  0.00     0.364 C 
HETATM   35  O7  UNL     1      47.353   7.628 -13.691  1.00  0.00    -0.238 OA
HETATM   36  C15 UNL     1      44.881   9.055 -14.688  1.00  0.00     0.097 C 
HETATM   37  C16 UNL     1      44.038   8.088 -13.916  1.00  0.00     0.176 C 
HETATM   38  N10 UNL     1      42.739   7.942 -14.563  1.00  0.00    -0.275 N 
HETATM   39  C18 UNL     1      42.402   7.966 -15.858  1.00  0.00     0.202 A 
HETATM   40  N11 UNL     1      41.065   7.774 -15.943  1.00  0.00    -0.338 N 
ATOM     41  H11 UNL     1      40.505   7.741 -16.795  1.00  0.00     0.168 HD
HETATM   42  C19 UNL     1      40.620   7.636 -14.683  1.00  0.00     0.121 A 
HETATM   43  N12 UNL     1      41.680   7.744 -13.834  1.00  0.00    -0.283 N 
ATOM     44  H12 UNL     1      41.649   7.682 -12.817  1.00  0.00     0.188 HD
HETATM   45  C20 UNL     1      39.232   7.399 -14.194  1.00  0.00     0.255 C 
HETATM   46  O10 UNL     1      39.175   7.730 -12.850  1.00  0.00    -0.329 OA
HETATM   47  C21 UNL     1      38.229   8.526 -12.221  1.00  0.00     0.161 C 
HETATM   48  N13 UNL     1      38.554   9.126 -11.145  1.00  0.00    -0.249 N 
ATOM     49  H13 UNL     1      39.512   8.958 -10.838  1.00  0.00     0.196 HD
ENDROOT
BRANCH  34  50
HETATM   50  O8  UNL     1      48.829   9.099 -14.571  1.00  0.00    -0.309 OA
HETATM   51  C14 UNL     1      49.506   8.144 -15.346  1.00  0.00     0.215 C 
ENDBRANCH  34  50
BRANCH  37  52
HETATM   52  C17 UNL     1      43.893   8.472 -12.495  1.00  0.00     0.258 C 
HETATM   53  O9  UNL     1      43.904   7.614 -11.637  1.00  0.00    -0.305 OA
ENDBRANCH  37  52
BRANCH   1  54
HETATM   54  C3  UNL     1      35.917   7.964 -11.867  1.00  0.00     0.033 C 
BRANCH  54  55
HETATM   55  C2  UNL     1      35.111   6.863 -12.463  1.00  0.00    -0.002 C 
HETATM   56  C1  UNL     1      35.480   6.547 -13.883  1.00  0.00     0.005 C 
ENDBRANCH  54  55
ENDBRANCH   1  54
BRANCH  48  57
HETATM   57  O11 UNL     1      37.849   9.939 -10.352  1.00  0.00    -0.288 OA
ATOM     58  H11 UNL     1      38.057  10.796 -10.001  1.00  0.00     0.244 HD
ENDBRANCH  48  57
BRANCH   4  59
HETATM   59  O1  UNL     1      36.351  10.136 -15.390  1.00  0.00    -0.358 OA
ATOM     60  H1  UNL     1      36.265  10.851 -16.009  1.00  0.00     0.214 HD
ENDBRANCH   4  59
TORSDOF 6
ENDMDL
MODEL 2
REMARK VINA RESULT: -8.900585407      3.457      5.832
REMARK  6 active torsions:
REMARK  status: ('A' for Active; 'I' for Inactive)
REMARK    1  A    between atoms: C2_2  and  C3_3 
REMARK    2  A    between atoms: C3_3  and  C4_4 
REMARK    3  A    between atoms: C5_7  and  O1_8 
REMARK       I    between atoms: N9_37  and  C13_39 
REMARK    4  A    between atoms: C13_39  and  O8_41 
REMARK    5  A    between atoms: C16_44  and  C17_45 
REMARK    6  A    between atoms: N13_57  and  O11_59 
ROOT
HETATM    1  C4  UNL     1      39.974   5.098 -10.587  1.00  0.00     0.157 C 
HETATM    2  N1  UNL     1      39.217   5.661  -9.524  1.00  0.00    -0.367 N 
ATOM      3  H1  UNL     1      39.337   5.359  -8.558  1.00  0.00     0.158 HD
HETATM    4  C5  UNL     1      38.275   6.676  -9.887  1.00  0.00     0.364 C 
HETATM    5  N2  UNL     1      37.876   7.498  -8.766  1.00  0.00    -0.061 N 
HETATM    6  N3  UNL     1      36.864   7.235  -7.924  1.00  0.00    -0.112 N 
ATOM      7  H3  UNL     1      36.252   6.422  -7.980  1.00  0.00     0.206 HD
HETATM    8  C6  UNL     1      36.777   8.196  -7.003  1.00  0.00     0.705 A 
HETATM    9  N4  UNL     1      35.931   8.307  -6.015  1.00  0.00    -0.233 N 
ATOM     10  H41 UNL     1      35.865   9.041  -5.311  1.00  0.00     0.174 HD
ATOM     11  H42 UNL     1      35.191   7.635  -5.813  1.00  0.00     0.174 HD
HETATM   12  N5  UNL     1      37.736   9.066  -7.265  1.00  0.00    -0.019 N 
ATOM     13  H5  UNL     1      37.931   9.916  -6.736  1.00  0.00     0.203 HD
HETATM   14  C7  UNL     1      38.426   8.631  -8.370  1.00  0.00     0.722 A 
HETATM   15  N6  UNL     1      39.530   9.302  -8.948  1.00  0.00    -0.133 N 
ATOM     16  H6  UNL     1      40.318   9.509  -8.334  1.00  0.00     0.190 HD
HETATM   17  C8  UNL     1      39.643   9.713 -10.305  1.00  0.00     0.379 C 
HETATM   18  O2  UNL     1      40.817   9.683 -10.826  1.00  0.00    -0.238 OA
HETATM   19  O3  UNL     1      38.583  10.140 -11.090  1.00  0.00    -0.302 OA
HETATM   20  C9  UNL     1      37.662  11.140 -10.768  1.00  0.00     0.197 C 
HETATM   21  C10 UNL     1      37.575  12.209 -11.844  1.00  0.00     0.191 C 
HETATM   22  S1  UNL     1      38.591  13.594 -11.489  1.00  0.00     0.245 S 
HETATM   23  O4  UNL     1      37.816  14.852 -11.701  1.00  0.00    -0.204 OA
HETATM   24  O5  UNL     1      38.989  13.568 -10.030  1.00  0.00    -0.204 OA
HETATM   25  N7  UNL     1      39.997  13.685 -12.499  1.00  0.00    -0.224 N 
ATOM     26  H7  UNL     1      40.038  14.307 -13.307  1.00  0.00     0.200 HD
HETATM   27  N8  UNL     1      40.970  12.940 -12.184  1.00  0.00    -0.255 N 
ATOM     28  H8  UNL     1      40.851  12.346 -11.363  1.00  0.00     0.191 HD
HETATM   29  C11 UNL     1      42.207  12.854 -12.863  1.00  0.00     0.283 C 
HETATM   30  O6  UNL     1      43.284  12.857 -12.211  1.00  0.00    -0.265 OA
HETATM   31  C12 UNL     1      42.330  12.761 -14.323  1.00  0.00     0.086 C 
HETATM   32  N9  UNL     1      43.145  13.535 -14.945  1.00  0.00    -0.301 N 
ATOM     33  H9  UNL     1      43.669  14.183 -14.358  1.00  0.00     0.171 HD
HETATM   34  C13 UNL     1      43.414  13.615 -16.306  1.00  0.00     0.364 C 
HETATM   35  O7  UNL     1      43.812  12.626 -16.947  1.00  0.00    -0.238 OA
HETATM   36  C15 UNL     1      41.538  11.787 -15.140  1.00  0.00     0.097 C 
HETATM   37  C16 UNL     1      42.129  10.414 -15.070  1.00  0.00     0.176 C 
HETATM   38  N10 UNL     1      41.073   9.435 -14.834  1.00  0.00    -0.275 N 
HETATM   39  C18 UNL     1      39.802   9.406 -15.253  1.00  0.00     0.202 A 
HETATM   40  N11 UNL     1      39.232   8.276 -14.769  1.00  0.00    -0.338 N 
ATOM     41  H11 UNL     1      38.271   7.967 -14.913  1.00  0.00     0.168 HD
HETATM   42  C19 UNL     1      40.183   7.644 -14.062  1.00  0.00     0.121 A 
HETATM   43  N12 UNL     1      41.326   8.383 -14.113  1.00  0.00    -0.283 N 
ATOM     44  H12 UNL     1      42.215   8.154 -13.669  1.00  0.00     0.188 HD
HETATM   45  C20 UNL     1      40.103   6.355 -13.318  1.00  0.00     0.255 C 
HETATM   46  O10 UNL     1      41.157   6.297 -12.421  1.00  0.00    -0.329 OA
HETATM   47  C21 UNL     1      41.095   5.966 -11.075  1.00  0.00     0.161 C 
HETATM   48  N13 UNL     1      41.999   6.412 -10.295  1.00  0.00    -0.249 N 
ATOM     49  H13 UNL     1      42.706   6.990 -10.750  1.00  0.00     0.196 HD
ENDROOT
BRANCH  34  50
HETATM   50  O8  UNL     1      43.248  14.815 -17.013  1.00  0.00    -0.309 OA
HETATM   51  C14 UNL     1      44.077  15.933 -16.823  1.00  0.00     0.215 C 
ENDBRANCH  34  50
BRANCH  37  52
HETATM   52  C17 UNL     1      43.198  10.309 -14.053  1.00  0.00     0.258 C 
HETATM   53  O9  UNL     1      44.135   9.561 -14.243  1.00  0.00    -0.305 OA
ENDBRANCH  37  52
BRANCH   1  54
HETATM   54  C3  UNL     1      40.608   3.790 -10.174  1.00  0.00     0.033 C 
BRANCH  54  55
HETATM   55  C2  UNL     1      40.210   3.298  -8.826  1.00  0.00    -0.002 C 
HETATM   56  C1  UNL     1      39.763   1.865  -8.817  1.00  0.00     0.005 C 
ENDBRANCH  54  55
ENDBRANCH   1  54
BRANCH  48  57
HETATM   57  O11 UNL     1      42.174   6.249  -8.980  1.00  0.00    -0.288 OA
ATOM     58  H11 UNL     1      41.921   6.798  -8.248  1.00  0.00     0.244 HD
ENDBRANCH  48  57
BRANCH   4  59
HETATM   59  O1  UNL     1      37.126   6.052 -10.442  1.00  0.00    -0.358 OA
ATOM     60  H1  UNL     1      36.416   6.111  -9.815  1.00  0.00     0.214 HD
ENDBRANCH   4  59
TORSDOF 6
ENDMDL
MODEL 3
REMARK VINA RESULT: -8.891927268      1.475      1.618
REMARK  6 active torsions:
REMARK  status: ('A' for Active; 'I' for Inactive)
REMARK    1  A    between atoms: C2_2  and  C3_3 
REMARK    2  A    between atoms: C3_3  and  C4_4 
REMARK    3  A    between atoms: C5_7  and  O1_8 
REMARK       I    between atoms: N9_37  and  C13_39 
REMARK    4  A    between atoms: C13_39  and  O8_41 
REMARK    5  A    between atoms: C16_44  and  C17_45 
REMARK    6  A    between atoms: N13_57  and  O11_59 
ROOT
HETATM    1  C4  UNL     1      37.010   7.183 -12.264  1.00  0.00     0.157 C 
HETATM    2  N1  UNL     1      36.448   8.473 -12.066  1.00  0.00    -0.367 N 
ATOM      3  H1  UNL     1      35.827   8.676 -11.283  1.00  0.00     0.158 HD
HETATM    4  C5  UNL     1      36.802   9.472 -13.029  1.00  0.00     0.364 C 
HETATM    5  N2  UNL     1      36.581  10.818 -12.548  1.00  0.00    -0.061 N 
HETATM    6  N3  UNL     1      35.432  11.507 -12.651  1.00  0.00    -0.112 N 
ATOM      7  H3  UNL     1      34.578  11.159 -13.087  1.00  0.00     0.206 HD
HETATM    8  C6  UNL     1      35.574  12.713 -12.099  1.00  0.00     0.705 A 
HETATM    9  N4  UNL     1      34.696  13.673 -11.997  1.00  0.00    -0.233 N 
ATOM     10  H41 UNL     1      34.804  14.595 -11.575  1.00  0.00     0.174 HD
ATOM     11  H42 UNL     1      33.739  13.618 -12.346  1.00  0.00     0.174 HD
HETATM   12  N5  UNL     1      36.813  12.784 -11.647  1.00  0.00    -0.019 N 
ATOM     13  H5  UNL     1      37.229  13.584 -11.171  1.00  0.00     0.203 HD
HETATM   14  C7  UNL     1      37.446  11.598 -11.928  1.00  0.00     0.722 A 
HETATM   15  N6  UNL     1      38.788  11.299 -11.590  1.00  0.00    -0.133 N 
ATOM     16  H6  UNL     1      39.050  11.396 -10.609  1.00  0.00     0.190 HD
HETATM   17  C8  UNL     1      39.804  10.876 -12.491  1.00  0.00     0.379 C 
HETATM   18  O2  UNL     1      40.682  10.056 -12.034  1.00  0.00    -0.238 OA
HETATM   19  O3  UNL     1      39.907  11.285 -13.812  1.00  0.00    -0.302 OA
HETATM   20  C9  UNL     1      39.920  12.603 -14.273  1.00  0.00     0.197 C 
HETATM   21  C10 UNL     1      41.131  12.896 -15.143  1.00  0.00     0.191 C 
HETATM   22  S1  UNL     1      42.441  13.628 -14.234  1.00  0.00     0.245 S 
HETATM   23  O4  UNL     1      42.974  14.804 -14.983  1.00  0.00    -0.204 OA
HETATM   24  O5  UNL     1      41.913  14.151 -12.918  1.00  0.00    -0.204 OA
HETATM   25  N7  UNL     1      43.771  12.548 -13.967  1.00  0.00    -0.224 N 
ATOM     26  H7  UNL     1      44.616  12.586 -14.538  1.00  0.00     0.200 HD
HETATM   27  N8  UNL     1      43.640  11.711 -13.027  1.00  0.00    -0.255 N 
ATOM     28  H8  UNL     1      42.765  11.736 -12.504  1.00  0.00     0.191 HD
HETATM   29  C11 UNL     1      44.594  10.743 -12.637  1.00  0.00     0.283 C 
HETATM   30  O6  UNL     1      44.856  10.576 -11.416  1.00  0.00    -0.265 OA
HETATM   31  C12 UNL     1      45.326   9.892 -13.582  1.00  0.00     0.086 C 
HETATM   32  N9  UNL     1      46.602   9.779 -13.483  1.00  0.00    -0.301 N 
ATOM     33  H9  UNL     1      47.031  10.309 -12.725  1.00  0.00     0.171 HD
HETATM   34  C13 UNL     1      47.481   9.038 -14.264  1.00  0.00     0.364 C 
HETATM   35  O7  UNL     1      47.350   7.809 -14.397  1.00  0.00    -0.238 OA
HETATM   36  C15 UNL     1      44.646   9.131 -14.678  1.00  0.00     0.097 C 
HETATM   37  C16 UNL     1      44.005   7.884 -14.155  1.00  0.00     0.176 C 
HETATM   38  N10 UNL     1      42.653   7.763 -14.688  1.00  0.00    -0.275 N 
HETATM   39  C18 UNL     1      42.151   8.115 -15.878  1.00  0.00     0.202 A 
HETATM   40  N11 UNL     1      40.838   7.784 -15.888  1.00  0.00    -0.338 N 
ATOM     41  H11 UNL     1      40.178   7.925 -16.653  1.00  0.00     0.168 HD
HETATM   42  C19 UNL     1      40.575   7.235 -14.691  1.00  0.00     0.121 A 
HETATM   43  N12 UNL     1      41.721   7.230 -13.955  1.00  0.00    -0.283 N 
ATOM     44  H12 UNL     1      41.828   6.875 -13.005  1.00  0.00     0.188 HD
HETATM   45  C20 UNL     1      39.291   6.692 -14.165  1.00  0.00     0.255 C 
HETATM   46  O10 UNL     1      39.377   6.612 -12.784  1.00  0.00    -0.329 OA
HETATM   47  C21 UNL     1      38.449   7.067 -11.858  1.00  0.00     0.161 C 
HETATM   48  N13 UNL     1      38.852   7.369 -10.689  1.00  0.00    -0.249 N 
ATOM     49  H13 UNL     1      39.854   7.245 -10.539  1.00  0.00     0.196 HD
ENDROOT
BRANCH  34  50
HETATM   50  O8  UNL     1      48.554   9.647 -14.932  1.00  0.00    -0.309 OA
HETATM   51  C14 UNL     1      48.591  11.021 -15.221  1.00  0.00     0.215 C 
ENDBRANCH  34  50
BRANCH  37  52
HETATM   52  C17 UNL     1      44.009   7.822 -12.677  1.00  0.00     0.258 C 
HETATM   53  O9  UNL     1      44.165   6.755 -12.121  1.00  0.00    -0.305 OA
ENDBRANCH  37  52
BRANCH   1  54
HETATM   54  C3  UNL     1      36.267   6.134 -11.470  1.00  0.00     0.033 C 
BRANCH  54  55
HETATM   55  C2  UNL     1      35.881   4.919 -12.240  1.00  0.00    -0.002 C 
HETATM   56  C1  UNL     1      35.011   5.212 -13.427  1.00  0.00     0.005 C 
ENDBRANCH  54  55
ENDBRANCH   1  54
BRANCH  48  57
HETATM   57  O11 UNL     1      38.182   7.823  -9.625  1.00  0.00    -0.288 OA
ATOM     58  H11 UNL     1      38.277   7.623  -8.701  1.00  0.00     0.244 HD
ENDBRANCH  48  57
BRANCH   4  59
HETATM   59  O1  UNL     1      36.033   9.262 -14.204  1.00  0.00    -0.358 OA
ATOM     60  H1  UNL     1      35.157   9.600 -14.058  1.00  0.00     0.214 HD
ENDBRANCH   4  59
TORSDOF 6
ENDMDL
MODEL 4
REMARK VINA RESULT: -8.762883652      3.555      6.906
REMARK  6 active torsions:
REMARK  status: ('A' for Active; 'I' for Inactive)
REMARK    1  A    between atoms: C2_2  and  C3_3 
REMARK    2  A    between atoms: C3_3  and  C4_4 
REMARK    3  A    between atoms: C5_7  and  O1_8 
REMARK       I    between atoms: N9_37  and  C13_39 
REMARK    4  A    between atoms: C13_39  and  O8_41 
REMARK    5  A    between atoms: C16_44  and  C17_45 
REMARK    6  A    between atoms: N13_57  and  O11_59 
ROOT
HETATM    1  C4  UNL     1      37.999   4.634 -11.259  1.00  0.00     0.157 C 
HETATM    2  N1  UNL     1      39.066   4.369 -10.358  1.00  0.00    -0.367 N 
ATOM      3  H1  UNL     1      39.365   3.418 -10.142  1.00  0.00     0.158 HD
HETATM    4  C5  UNL     1      39.699   5.512  -9.772  1.00  0.00     0.364 C 
HETATM    5  N2  UNL     1      41.012   5.217  -9.244  1.00  0.00    -0.061 N 
HETATM    6  N3  UNL     1      41.274   4.770  -8.005  1.00  0.00    -0.112 N 
ATOM      7  H3  UNL     1      40.573   4.589  -7.287  1.00  0.00     0.206 HD
HETATM    8  C6  UNL     1      42.588   4.598  -7.852  1.00  0.00     0.705 A 
HETATM    9  N4  UNL     1      43.241   4.180  -6.802  1.00  0.00    -0.233 N 
ATOM     10  H41 UNL     1      44.245   4.048  -6.685  1.00  0.00     0.174 HD
ATOM     11  H42 UNL     1      42.803   3.919  -5.918  1.00  0.00     0.174 HD
HETATM   12  N5  UNL     1      43.155   4.936  -8.996  1.00  0.00    -0.019 N 
ATOM     13  H5  UNL     1      44.154   4.913  -9.197  1.00  0.00     0.203 HD
HETATM   14  C7  UNL     1      42.169   5.326  -9.870  1.00  0.00     0.722 A 
HETATM   15  N6  UNL     1      42.392   5.754 -11.201  1.00  0.00    -0.133 N 
ATOM     16  H6  UNL     1      42.910   5.119 -11.809  1.00  0.00     0.190 HD
HETATM   17  C8  UNL     1      41.962   6.985 -11.767  1.00  0.00     0.379 C 
HETATM   18  O2  UNL     1      41.639   6.972 -13.011  1.00  0.00    -0.238 OA
HETATM   19  O3  UNL     1      41.870   8.183 -11.074  1.00  0.00    -0.302 OA
HETATM   20  C9  UNL     1      42.878   8.780 -10.312  1.00  0.00     0.197 C 
HETATM   21  C10 UNL     1      43.149  10.212 -10.740  1.00  0.00     0.191 C 
HETATM   22  S1  UNL     1      44.490  10.328 -11.865  1.00  0.00     0.245 S 
HETATM   23  O4  UNL     1      45.407  11.426 -11.441  1.00  0.00    -0.204 OA
HETATM   24  O5  UNL     1      45.294   9.048 -11.826  1.00  0.00    -0.204 OA
HETATM   25  N7  UNL     1      43.989  10.679 -13.488  1.00  0.00    -0.224 N 
ATOM     26  H7  UNL     1      44.044  11.622 -13.873  1.00  0.00     0.200 HD
HETATM   27  N8  UNL     1      43.553   9.706 -14.169  1.00  0.00    -0.255 N 
ATOM     28  H8  UNL     1      43.528   8.795 -13.711  1.00  0.00     0.191 HD
HETATM   29  C11 UNL     1      43.095   9.765 -15.505  1.00  0.00     0.283 C 
HETATM   30  O6  UNL     1      43.465   8.893 -16.335  1.00  0.00    -0.265 OA
HETATM   31  C12 UNL     1      42.191  10.804 -16.012  1.00  0.00     0.086 C 
HETATM   32  N9  UNL     1      42.474  11.420 -17.103  1.00  0.00    -0.301 N 
ATOM     33  H9  UNL     1      43.340  11.131 -17.557  1.00  0.00     0.171 HD
HETATM   34  C13 UNL     1      41.768  12.425 -17.753  1.00  0.00     0.364 C 
HETATM   35  O7  UNL     1      40.589  12.259 -18.114  1.00  0.00    -0.238 OA
HETATM   36  C15 UNL     1      40.927  11.189 -15.307  1.00  0.00     0.097 C 
HETATM   37  C16 UNL     1      39.834  10.202 -15.575  1.00  0.00     0.176 C 
HETATM   38  N10 UNL     1      39.163   9.858 -14.326  1.00  0.00    -0.275 N 
HETATM   39  C18 UNL     1      38.903  10.601 -13.243  1.00  0.00     0.202 A 
HETATM   40  N11 UNL     1      38.248   9.819 -12.352  1.00  0.00    -0.338 N 
ATOM     41  H11 UNL     1      37.913  10.094 -11.429  1.00  0.00     0.168 HD
HETATM   42  C19 UNL     1      38.126   8.610 -12.925  1.00  0.00     0.121 A 
HETATM   43  N12 UNL     1      38.704   8.653 -14.157  1.00  0.00    -0.283 N 
ATOM     44  H12 UNL     1      38.766   7.884 -14.823  1.00  0.00     0.188 HD
HETATM   45  C20 UNL     1      37.486   7.375 -12.390  1.00  0.00     0.255 C 
HETATM   46  O10 UNL     1      37.945   6.289 -13.118  1.00  0.00    -0.329 OA
HETATM   47  C21 UNL     1      38.436   5.091 -12.618  1.00  0.00     0.161 C 
HETATM   48  N13 UNL     1      39.244   4.417 -13.336  1.00  0.00    -0.249 N 
ATOM     49  H13 UNL     1      39.461   4.835 -14.240  1.00  0.00     0.196 HD
ENDROOT
BRANCH  34  50
HETATM   50  O8  UNL     1      42.357  13.668 -18.029  1.00  0.00    -0.309 OA
HETATM   51  C14 UNL     1      43.214  14.323 -17.130  1.00  0.00     0.215 C 
ENDBRANCH  34  50
BRANCH  37  52
HETATM   52  C17 UNL     1      40.322   8.993 -16.275  1.00  0.00     0.258 C 
HETATM   53  O9  UNL     1      39.694   8.549 -17.213  1.00  0.00    -0.305 OA
ENDBRANCH  37  52
BRANCH   1  54
HETATM   54  C3  UNL     1      37.155   3.401 -11.484  1.00  0.00     0.033 C 
BRANCH  54  55
HETATM   55  C2  UNL     1      35.844   3.651 -12.146  1.00  0.00    -0.002 C 
HETATM   56  C1  UNL     1      34.961   2.439 -12.205  1.00  0.00     0.005 C 
ENDBRANCH  54  55
ENDBRANCH   1  54
BRANCH  48  57
HETATM   57  O11 UNL     1      39.855   3.251 -13.100  1.00  0.00    -0.288 OA
ATOM     58  H11 UNL     1      39.595   2.512 -12.563  1.00  0.00     0.244 HD
ENDBRANCH  48  57
BRANCH   4  59
HETATM   59  O1  UNL     1      38.872   6.002  -8.727  1.00  0.00    -0.358 OA
ATOM     60  H1  UNL     1      38.894   6.951  -8.742  1.00  0.00     0.214 HD
ENDBRANCH   4  59
TORSDOF 6
ENDMDL
MODEL 5
REMARK VINA RESULT: -8.731121857      2.505      8.250
REMARK  6 active torsions:
REMARK  status: ('A' for Active; 'I' for Inactive)
REMARK    1  A    between atoms: C2_2  and  C3_3 
REMARK    2  A    between atoms: C3_3  and  C4_4 
REMARK    3  A    between atoms: C5_7  and  O1_8 
REMARK       I    between atoms: N9_37  and  C13_39 
REMARK    4  A    between atoms: C13_39  and  O8_41 
REMARK    5  A    between atoms: C16_44  and  C17_45 
REMARK    6  A    between atoms: N13_57  and  O11_59 
ROOT
HETATM    1  C4  UNL     1      44.517   9.635 -13.744  1.00  0.00     0.157 C 
HETATM    2  N1  UNL     1      44.537  10.818 -14.530  1.00  0.00    -0.367 N 
ATOM      3  H1  UNL     1      45.153  10.919 -15.337  1.00  0.00     0.158 HD
HETATM    4  C5  UNL     1      43.644  11.862 -14.127  1.00  0.00     0.364 C 
HETATM    5  N2  UNL     1      43.387  12.819 -15.180  1.00  0.00    -0.061 N 
HETATM    6  N3  UNL     1      44.121  13.913 -15.440  1.00  0.00    -0.112 N 
ATOM      7  H3  UNL     1      44.949  14.200 -14.918  1.00  0.00     0.206 HD
HETATM    8  C6  UNL     1      43.608  14.569 -16.482  1.00  0.00     0.705 A 
HETATM    9  N4  UNL     1      44.027  15.672 -17.040  1.00  0.00    -0.233 N 
ATOM     10  H41 UNL     1      43.634  16.173 -17.836  1.00  0.00     0.174 HD
ATOM     11  H42 UNL     1      44.845  16.198 -16.733  1.00  0.00     0.174 HD
HETATM   12  N5  UNL     1      42.548  13.888 -16.879  1.00  0.00    -0.019 N 
ATOM     13  H5  UNL     1      41.938  14.135 -17.658  1.00  0.00     0.203 HD
HETATM   14  C7  UNL     1      42.407  12.791 -16.065  1.00  0.00     0.722 A 
HETATM   15  N6  UNL     1      41.385  11.820 -16.188  1.00  0.00    -0.133 N 
ATOM     16  H6  UNL     1      41.287  11.364 -17.095  1.00  0.00     0.190 HD
HETATM   17  C8  UNL     1      40.481  11.421 -15.164  1.00  0.00     0.379 C 
HETATM   18  O2  UNL     1      40.106  10.193 -15.166  1.00  0.00    -0.238 OA
HETATM   19  O3  UNL     1      39.986  12.261 -14.178  1.00  0.00    -0.302 OA
HETATM   20  C9  UNL     1      39.360  13.495 -14.376  1.00  0.00     0.197 C 
HETATM   21  C10 UNL     1      37.999  13.563 -13.704  1.00  0.00     0.191 C 
HETATM   22  S1  UNL     1      36.692  13.178 -14.809  1.00  0.00     0.245 S 
HETATM   23  O4  UNL     1      35.605  14.192 -14.672  1.00  0.00    -0.204 OA
HETATM   24  O5  UNL     1      37.192  13.265 -16.234  1.00  0.00    -0.204 OA
HETATM   25  N7  UNL     1      35.982  11.625 -14.510  1.00  0.00    -0.224 N 
ATOM     26  H7  UNL     1      35.106  11.526 -13.997  1.00  0.00     0.200 HD
HETATM   27  N8  UNL     1      36.606  10.621 -14.961  1.00  0.00    -0.255 N 
ATOM     28  H8  UNL     1      37.475  10.803 -15.463  1.00  0.00     0.191 HD
HETATM   29  C11 UNL     1      36.210   9.270 -14.834  1.00  0.00     0.283 C 
HETATM   30  O6  UNL     1      36.262   8.503 -15.832  1.00  0.00    -0.265 OA
HETATM   31  C12 UNL     1      35.725   8.677 -13.582  1.00  0.00     0.086 C 
HETATM   32  N9  UNL     1      34.643   7.984 -13.580  1.00  0.00    -0.301 N 
ATOM     33  H9  UNL     1      34.182   7.891 -14.485  1.00  0.00     0.171 HD
HETATM   34  C13 UNL     1      34.013   7.343 -12.521  1.00  0.00     0.364 C 
HETATM   35  O7  UNL     1      34.602   6.485 -11.840  1.00  0.00    -0.238 OA
HETATM   36  C15 UNL     1      36.445   8.841 -12.279  1.00  0.00     0.097 C 
HETATM   37  C16 UNL     1      37.617   7.914 -12.186  1.00  0.00     0.176 C 
HETATM   38  N10 UNL     1      38.783   8.641 -11.697  1.00  0.00    -0.275 N 
HETATM   39  C18 UNL     1      38.878   9.646 -10.818  1.00  0.00     0.202 A 
HETATM   40  N11 UNL     1      40.188   9.967 -10.696  1.00  0.00    -0.338 N 
ATOM     41  H11 UNL     1      40.585  10.695 -10.101  1.00  0.00     0.168 HD
HETATM   42  C19 UNL     1      40.860   9.139 -11.512  1.00  0.00     0.121 A 
HETATM   43  N12 UNL     1      39.966   8.318 -12.129  1.00  0.00    -0.283 N 
ATOM     44  H12 UNL     1      40.184   7.586 -12.805  1.00  0.00     0.188 HD
HETATM   45  C20 UNL     1      42.326   9.051 -11.765  1.00  0.00     0.255 C 
HETATM   46  O10 UNL     1      42.529   8.363 -12.951  1.00  0.00    -0.329 OA
HETATM   47  C21 UNL     1      43.345   8.737 -14.008  1.00  0.00     0.161 C 
HETATM   48  N13 UNL     1      43.072   8.301 -15.174  1.00  0.00    -0.249 N 
ATOM     49  H13 UNL     1      42.250   7.698 -15.220  1.00  0.00     0.196 HD
ENDROOT
BRANCH  34  50
HETATM   50  O8  UNL     1      32.685   7.636 -12.178  1.00  0.00    -0.309 OA
HETATM   51  C14 UNL     1      32.007   8.771 -12.652  1.00  0.00     0.215 C 
ENDBRANCH  34  50
BRANCH  37  52
HETATM   52  C17 UNL     1      37.904   7.234 -13.469  1.00  0.00     0.258 C 
HETATM   53  O9  UNL     1      38.312   6.092 -13.465  1.00  0.00    -0.305 OA
ENDBRANCH  37  52
BRANCH   1  54
HETATM   54  C3  UNL     1      45.749   8.795 -13.987  1.00  0.00     0.033 C 
BRANCH  54  55
HETATM   55  C2  UNL     1      46.898   9.091 -13.085  1.00  0.00    -0.002 C 
HETATM   56  C1  UNL     1      46.615   8.806 -11.639  1.00  0.00     0.005 C 
ENDBRANCH  54  55
ENDBRANCH   1  54
BRANCH  48  57
HETATM   57  O11 UNL     1      43.682   8.502 -16.346  1.00  0.00    -0.288 OA
ATOM     58  H11 UNL     1      43.478   9.097 -17.057  1.00  0.00     0.244 HD
ENDBRANCH  48  57
BRANCH   4  59
HETATM   59  O1  UNL     1      44.207  12.535 -13.010  1.00  0.00    -0.358 OA
ATOM     60  H1  UNL     1      43.671  13.293 -12.811  1.00  0.00     0.214 HD
ENDBRANCH   4  59
TORSDOF 6
ENDMDL
