MODEL 1
REMARK VINA RESULT: -10.377065231      0.000      0.000
REMARK  8 active torsions:
REMARK  status: ('A' for Active; 'I' for Inactive)
REMARK    1  A    between atoms: C2_2  and  O2_4 
REMARK    2  A    between atoms: O2_4  and  C3_5 
REMARK    3  A    between atoms: C4_6  and  O3_7 
REMARK    4  A    between atoms: C8_12  and  O4_13 
REMARK    5  A    between atoms: C21_38  and  O13_39 
REMARK    6  A    between atoms: O13_39  and  C22_40 
REMARK    7  A    between atoms: C22_40  and  C23_41 
REMARK       I    between atoms: C23_41  and  N2_43 
REMARK    8  A    between atoms: C26_49  and  O16_50 
ROOT
HETATM    1  C3  UNL     1      37.677  12.908  -8.342  1.00  0.00     0.150 A 
HETATM    2  C4  UNL     1      37.748  13.707  -9.454  1.00  0.00     0.130 A 
HETATM    3  C5  UNL     1      38.463  13.345 -10.628  1.00  0.00     0.074 A 
HETATM    4  C6  UNL     1      39.112  12.136 -10.647  1.00  0.00     0.072 A 
HETATM    5  C7  UNL     1      39.061  11.308  -9.548  1.00  0.00     0.107 A 
HETATM    6  C8  UNL     1      38.338  11.719  -8.409  1.00  0.00     0.136 A 
HETATM    7  O5  UNL     1      39.630  10.067  -9.352  1.00  0.00    -0.344 OA
HETATM    8  C9  UNL     1      39.617   8.863 -10.101  1.00  0.00     0.203 C 
HETATM    9  C10 UNL     1      38.495   8.983 -11.071  1.00  0.00    -0.002 C 
HETATM   10  C11 UNL     1      37.337   8.355 -10.969  1.00  0.00    -0.001 C 
HETATM   11  C12 UNL     1      36.953   7.424  -9.878  1.00  0.00     0.219 C 
HETATM   12  O6  UNL     1      36.061   6.488 -10.400  1.00  0.00    -0.250 OA
HETATM   13  S1  UNL     1      36.768   5.517 -11.553  1.00  0.00     0.402 S 
HETATM   14  O7  UNL     1      35.660   4.753 -12.231  1.00  0.00    -0.169 OA
HETATM   15  O8  UNL     1      37.730   4.535 -10.988  1.00  0.00    -0.169 OA
HETATM   16  O9  UNL     1      37.475   6.503 -12.710  1.00  0.00    -0.252 OA
HETATM   17  C13 UNL     1      38.199   5.733 -13.581  1.00  0.00     0.218 C 
HETATM   18  C14 UNL     1      39.494   6.477 -13.902  1.00  0.00     0.195 C 
HETATM   19  O10 UNL     1      39.252   7.634 -14.662  1.00  0.00    -0.387 OA
HETATM   20  C15 UNL     1      40.519   8.132 -15.015  1.00  0.00     0.193 C 
HETATM   21  C16 UNL     1      40.460   9.571 -15.422  1.00  0.00     0.193 C 
HETATM   22  O11 UNL     1      40.612  10.454 -14.367  1.00  0.00    -0.387 OA
HETATM   23  C17 UNL     1      41.509  11.502 -14.679  1.00  0.00     0.186 C 
HETATM   24  C18 UNL     1      42.411  11.663 -13.500  1.00  0.00     0.140 C 
HETATM   25  N1  UNL     1      43.169  12.868 -13.457  1.00  0.00    -0.417 N 
ATOM     26  H1  UNL     1      44.176  12.862 -13.295  1.00  0.00     0.153 HD
HETATM   27  C19 UNL     1      42.450  14.084 -13.655  1.00  0.00     0.140 C 
HETATM   28  C20 UNL     1      41.481  14.398 -12.503  1.00  0.00     0.198 C 
HETATM   29  O12 UNL     1      40.198  14.408 -12.989  1.00  0.00    -0.315 OA
HETATM   30  C21 UNL     1      38.979  14.814 -12.595  1.00  0.00     0.265 C 
HETATM   31  N4  UNL     1      38.344  14.336 -11.631  1.00  0.00    -0.314 N 
ATOM     32  H4  UNL     1      37.449  14.816 -11.536  1.00  0.00     0.170 HD
ENDROOT
BRANCH  30  33
HETATM   33  O13 UNL     1      38.349  15.858 -13.325  1.00  0.00    -0.307 OA
BRANCH  33  34
HETATM   34  C22 UNL     1      37.215  15.615 -14.121  1.00  0.00     0.284 C 
BRANCH  34  35
HETATM   35  C23 UNL     1      37.375  14.258 -14.764  1.00  0.00     0.269 C 
HETATM   36  O14 UNL     1      38.236  14.079 -15.667  1.00  0.00    -0.269 OA
HETATM   37  N2  UNL     1      36.572  13.170 -14.372  1.00  0.00    -0.197 N 
HETATM   38  N3  UNL     1      35.633  13.236 -13.432  1.00  0.00    -0.255 N 
HETATM   39  C26 UNL     1      36.600  11.932 -14.842  1.00  0.00     0.170 A 
HETATM   40  C24 UNL     1      35.036  12.038 -13.279  1.00  0.00     0.264 A 
ATOM     41  H3  UNL     1      35.398  14.076 -12.903  1.00  0.00     0.191 HD
HETATM   42  O15 UNL     1      34.107  11.775 -12.466  1.00  0.00    -0.267 OA
HETATM   43  C25 UNL     1      35.645  11.186 -14.178  1.00  0.00     0.133 A 
BRANCH  39  44
HETATM   44  O16 UNL     1      37.418  11.394 -15.833  1.00  0.00    -0.345 OA
ATOM     45  H16 UNL     1      37.174  10.864 -16.583  1.00  0.00     0.219 HD
ENDBRANCH  39  44
ENDBRANCH  34  35
ENDBRANCH  33  34
ENDBRANCH  30  33
BRANCH   2  46
HETATM   46  O3  UNL     1      37.060  14.919  -9.360  1.00  0.00    -0.356 OA
ATOM     47  H3  UNL     1      37.267  15.555 -10.035  1.00  0.00     0.218 HD
ENDBRANCH   2  46
BRANCH   1  48
HETATM   48  O2  UNL     1      36.963  13.299  -7.201  1.00  0.00    -0.273 OA
BRANCH  48  49
HETATM   49  C2  UNL     1      37.608  13.897  -6.130  1.00  0.00     0.260 C 
HETATM   50  C1  UNL     1      37.177  13.526  -4.760  1.00  0.00     0.126 C 
HETATM   51  O1  UNL     1      38.524  14.721  -6.387  1.00  0.00    -0.265 OA
ENDBRANCH  48  49
ENDBRANCH   1  48
BRANCH   6  52
HETATM   52  O4  UNL     1      38.244  10.929  -7.243  1.00  0.00    -0.356 OA
ATOM     53  H4  UNL     1      37.727  10.138  -7.343  1.00  0.00     0.218 HD
ENDBRANCH   6  52
TORSDOF 8
ENDMDL
MODEL 2
REMARK VINA RESULT: -10.224250938      1.271      1.742
REMARK  8 active torsions:
REMARK  status: ('A' for Active; 'I' for Inactive)
REMARK    1  A    between atoms: C2_2  and  O2_4 
REMARK    2  A    between atoms: O2_4  and  C3_5 
REMARK    3  A    between atoms: C4_6  and  O3_7 
REMARK    4  A    between atoms: C8_12  and  O4_13 
REMARK    5  A    between atoms: C21_38  and  O13_39 
REMARK    6  A    between atoms: O13_39  and  C22_40 
REMARK    7  A    between atoms: C22_40  and  C23_41 
REMARK       I    between atoms: C23_41  and  N2_43 
REMARK    8  A    between atoms: C26_49  and  O16_50 
ROOT
HETATM    1  C3  UNL     1      37.922  12.397  -9.064  1.00  0.00     0.150 A 
HETATM    2  C4  UNL     1      37.840  13.100 -10.238  1.00  0.00     0.130 A 
HETATM    3  C5  UNL     1      38.613  12.786 -11.388  1.00  0.00     0.074 A 
HETATM    4  C6  UNL     1      39.483  11.726 -11.317  1.00  0.00     0.072 A 
HETATM    5  C7  UNL     1      39.590  10.998 -10.154  1.00  0.00     0.107 A 
HETATM    6  C8  UNL     1      38.800  11.355  -9.043  1.00  0.00     0.136 A 
HETATM    7  O5  UNL     1      40.386   9.910  -9.865  1.00  0.00    -0.344 OA
HETATM    8  C9  UNL     1      40.607   8.667 -10.513  1.00  0.00     0.203 C 
HETATM    9  C10 UNL     1      39.484   8.489 -11.473  1.00  0.00    -0.002 C 
HETATM   10  C11 UNL     1      38.469   7.662 -11.305  1.00  0.00    -0.001 C 
HETATM   11  C12 UNL     1      38.268   6.768 -10.136  1.00  0.00     0.219 C 
HETATM   12  O6  UNL     1      37.574   5.638 -10.568  1.00  0.00    -0.250 OA
HETATM   13  S1  UNL     1      38.456   4.729 -11.647  1.00  0.00     0.402 S 
HETATM   14  O7  UNL     1      37.517   3.713 -12.245  1.00  0.00    -0.169 OA
HETATM   15  O8  UNL     1      39.588   4.000 -11.017  1.00  0.00    -0.169 OA
HETATM   16  O9  UNL     1      38.963   5.733 -12.890  1.00  0.00    -0.252 OA
HETATM   17  C13 UNL     1      39.823   5.047 -13.706  1.00  0.00     0.218 C 
HETATM   18  C14 UNL     1      40.952   5.996 -14.104  1.00  0.00     0.195 C 
HETATM   19  O10 UNL     1      40.493   7.017 -14.952  1.00  0.00    -0.387 OA
HETATM   20  C15 UNL     1      41.642   7.718 -15.363  1.00  0.00     0.193 C 
HETATM   21  C16 UNL     1      41.309   9.081 -15.885  1.00  0.00     0.193 C 
HETATM   22  O11 UNL     1      41.286  10.060 -14.908  1.00  0.00    -0.387 OA
HETATM   23  C17 UNL     1      41.966  11.232 -15.317  1.00  0.00     0.186 C 
HETATM   24  C18 UNL     1      42.817  11.660 -14.167  1.00  0.00     0.140 C 
HETATM   25  N1  UNL     1      43.330  12.987 -14.234  1.00  0.00    -0.417 N 
ATOM     26  H1  UNL     1      44.319  13.187 -14.086  1.00  0.00     0.153 HD
HETATM   27  C19 UNL     1      42.391  14.022 -14.520  1.00  0.00     0.140 C 
HETATM   28  C20 UNL     1      41.378  14.239 -13.385  1.00  0.00     0.198 C 
HETATM   29  O12 UNL     1      40.117  13.962 -13.852  1.00  0.00    -0.315 OA
HETATM   30  C21 UNL     1      38.842  14.158 -13.476  1.00  0.00     0.265 C 
HETATM   31  N4  UNL     1      38.309  13.649 -12.467  1.00  0.00    -0.314 N 
ATOM     32  H4  UNL     1      37.338  13.955 -12.399  1.00  0.00     0.170 HD
ENDROOT
BRANCH  30  33
HETATM   33  O13 UNL     1      38.025  14.999 -14.280  1.00  0.00    -0.307 OA
BRANCH  33  34
HETATM   34  C22 UNL     1      36.951  14.480 -15.025  1.00  0.00     0.284 C 
BRANCH  34  35
HETATM   35  C23 UNL     1      36.061  13.700 -14.086  1.00  0.00     0.269 C 
HETATM   36  O14 UNL     1      35.456  14.287 -13.149  1.00  0.00    -0.269 OA
HETATM   37  N2  UNL     1      35.887  12.312 -14.236  1.00  0.00    -0.197 N 
HETATM   38  N3  UNL     1      36.471  11.585 -15.185  1.00  0.00    -0.255 N 
HETATM   39  C26 UNL     1      35.144  11.504 -13.495  1.00  0.00     0.170 A 
HETATM   40  C24 UNL     1      36.113  10.291 -15.073  1.00  0.00     0.264 A 
ATOM     41  H3  UNL     1      37.101  11.955 -15.897  1.00  0.00     0.191 HD
HETATM   42  O15 UNL     1      36.497   9.351 -15.823  1.00  0.00    -0.267 OA
HETATM   43  C25 UNL     1      35.259  10.219 -13.991  1.00  0.00     0.133 A 
BRANCH  39  44
HETATM   44  O16 UNL     1      34.353  11.815 -12.391  1.00  0.00    -0.345 OA
ATOM     45  H16 UNL     1      33.919  11.225 -11.786  1.00  0.00     0.219 HD
ENDBRANCH  39  44
ENDBRANCH  34  35
ENDBRANCH  33  34
ENDBRANCH  30  33
BRANCH   2  46
HETATM   46  O3  UNL     1      36.932  14.162 -10.234  1.00  0.00    -0.356 OA
ATOM     47  H3  UNL     1      37.112  14.846  -9.600  1.00  0.00     0.218 HD
ENDBRANCH   2  46
BRANCH   1  48
HETATM   48  O2  UNL     1      37.144  12.737  -7.949  1.00  0.00    -0.273 OA
BRANCH  48  49
HETATM   49  C2  UNL     1      37.519  13.775  -7.110  1.00  0.00     0.260 C 
HETATM   50  C1  UNL     1      38.244  13.436  -5.861  1.00  0.00     0.126 C 
HETATM   51  O1  UNL     1      37.220  14.946  -7.462  1.00  0.00    -0.265 OA
ENDBRANCH  48  49
ENDBRANCH   1  48
BRANCH   6  52
HETATM   52  O4  UNL     1      38.856  10.662  -7.815  1.00  0.00    -0.356 OA
ATOM     53  H4  UNL     1      39.687  10.235  -7.641  1.00  0.00     0.218 HD
ENDBRANCH   6  52
TORSDOF 8
ENDMDL
MODEL 3
REMARK VINA RESULT: -10.209263303      3.850      7.594
REMARK  8 active torsions:
REMARK  status: ('A' for Active; 'I' for Inactive)
REMARK    1  A    between atoms: C2_2  and  O2_4 
REMARK    2  A    between atoms: O2_4  and  C3_5 
REMARK    3  A    between atoms: C4_6  and  O3_7 
REMARK    4  A    between atoms: C8_12  and  O4_13 
REMARK    5  A    between atoms: C21_38  and  O13_39 
REMARK    6  A    between atoms: O13_39  and  C22_40 
REMARK    7  A    between atoms: C22_40  and  C23_41 
REMARK       I    between atoms: C23_41  and  N2_43 
REMARK    8  A    between atoms: C26_49  and  O16_50 
ROOT
HETATM    1  C3  UNL     1      43.016  12.953 -14.577  1.00  0.00     0.150 A 
HETATM    2  C4  UNL     1      41.952  13.302 -13.787  1.00  0.00     0.130 A 
HETATM    3  C5  UNL     1      41.148  12.353 -13.100  1.00  0.00     0.074 A 
HETATM    4  C6  UNL     1      41.455  11.022 -13.235  1.00  0.00     0.072 A 
HETATM    5  C7  UNL     1      42.518  10.635 -14.020  1.00  0.00     0.107 A 
HETATM    6  C8  UNL     1      43.280  11.620 -14.681  1.00  0.00     0.136 A 
HETATM    7  O5  UNL     1      42.999   9.372 -14.293  1.00  0.00    -0.344 OA
HETATM    8  C9  UNL     1      43.369   8.275 -13.473  1.00  0.00     0.203 C 
HETATM    9  C10 UNL     1      43.540   8.818 -12.097  1.00  0.00    -0.002 C 
HETATM   10  C11 UNL     1      44.702   9.021 -11.504  1.00  0.00    -0.001 C 
HETATM   11  C12 UNL     1      46.035   8.746 -12.097  1.00  0.00     0.219 C 
HETATM   12  O6  UNL     1      46.912   8.420 -11.063  1.00  0.00    -0.250 OA
HETATM   13  S1  UNL     1      46.490   7.002 -10.300  1.00  0.00     0.402 S 
HETATM   14  O7  UNL     1      47.325   6.904  -9.050  1.00  0.00    -0.169 OA
HETATM   15  O8  UNL     1      46.744   5.791 -11.124  1.00  0.00    -0.169 OA
HETATM   16  O9  UNL     1      44.887   7.118  -9.822  1.00  0.00    -0.252 OA
HETATM   17  C13 UNL     1      44.469   5.908  -9.337  1.00  0.00     0.218 C 
HETATM   18  C14 UNL     1      43.044   5.669  -9.832  1.00  0.00     0.195 C 
HETATM   19  O10 UNL     1      42.134   6.556  -9.234  1.00  0.00    -0.387 OA
HETATM   20  C15 UNL     1      40.858   6.134  -9.651  1.00  0.00     0.193 C 
HETATM   21  C16 UNL     1      39.831   7.211  -9.489  1.00  0.00     0.193 C 
HETATM   22  O11 UNL     1      39.714   8.039 -10.591  1.00  0.00    -0.387 OA
HETATM   23  C17 UNL     1      38.362   8.273 -10.936  1.00  0.00     0.186 C 
HETATM   24  C18 UNL     1      38.264   8.124 -12.419  1.00  0.00     0.140 C 
HETATM   25  N1  UNL     1      37.077   8.636 -13.017  1.00  0.00    -0.417 N 
ATOM     26  H1  UNL     1      36.521   8.079 -13.666  1.00  0.00     0.153 HD
HETATM   27  C19 UNL     1      36.706   9.967 -12.664  1.00  0.00     0.140 C 
HETATM   28  C20 UNL     1      37.690  11.022 -13.196  1.00  0.00     0.198 C 
HETATM   29  O12 UNL     1      38.263  11.675 -12.134  1.00  0.00    -0.315 OA
HETATM   30  C21 UNL     1      38.983  12.787 -11.909  1.00  0.00     0.265 C 
HETATM   31  N4  UNL     1      40.141  12.987 -12.335  1.00  0.00    -0.314 N 
ATOM     32  H4  UNL     1      40.466  13.905 -12.031  1.00  0.00     0.170 HD
ENDROOT
BRANCH  30  33
HETATM   33  O13 UNL     1      38.400  13.818 -11.124  1.00  0.00    -0.307 OA
BRANCH  33  34
HETATM   34  C22 UNL     1      37.327  13.559 -10.253  1.00  0.00     0.284 C 
BRANCH  34  35
HETATM   35  C23 UNL     1      37.712  14.044  -8.875  1.00  0.00     0.269 C 
HETATM   36  O14 UNL     1      37.694  15.276  -8.606  1.00  0.00    -0.269 OA
HETATM   37  N2  UNL     1      38.095  13.139  -7.867  1.00  0.00    -0.197 N 
HETATM   38  N3  UNL     1      38.151  11.820  -8.031  1.00  0.00    -0.255 N 
HETATM   39  C26 UNL     1      38.455  13.417  -6.623  1.00  0.00     0.170 A 
HETATM   40  C24 UNL     1      38.549  11.222  -6.892  1.00  0.00     0.264 A 
ATOM     41  H3  UNL     1      37.925  11.331  -8.897  1.00  0.00     0.191 HD
HETATM   42  O15 UNL     1      38.699   9.980  -6.724  1.00  0.00    -0.267 OA
HETATM   43  C25 UNL     1      38.750  12.233  -5.974  1.00  0.00     0.133 A 
BRANCH  39  44
HETATM   44  O16 UNL     1      38.547  14.659  -6.000  1.00  0.00    -0.345 OA
ATOM     45  H16 UNL     1      39.305  15.225  -5.910  1.00  0.00     0.219 HD
ENDBRANCH  39  44
ENDBRANCH  34  35
ENDBRANCH  33  34
ENDBRANCH  30  33
BRANCH   2  46
HETATM   46  O3  UNL     1      41.704  14.674 -13.696  1.00  0.00    -0.356 OA
ATOM     47  H3  UNL     1      41.915  15.176 -14.475  1.00  0.00     0.218 HD
ENDBRANCH   2  46
BRANCH   1  48
HETATM   48  O2  UNL     1      43.787  13.917 -15.241  1.00  0.00    -0.273 OA
BRANCH  48  49
HETATM   49  C2  UNL     1      43.423  14.374 -16.498  1.00  0.00     0.260 C 
HETATM   50  C1  UNL     1      42.337  13.663 -17.214  1.00  0.00     0.126 C 
HETATM   51  O1  UNL     1      44.041  15.371 -16.956  1.00  0.00    -0.265 OA
ENDBRANCH  48  49
ENDBRANCH   1  48
BRANCH   6  52
HETATM   52  O4  UNL     1      44.380  11.303 -15.506  1.00  0.00    -0.356 OA
ATOM     53  H4  UNL     1      44.154  10.837 -16.303  1.00  0.00     0.218 HD
ENDBRANCH   6  52
TORSDOF 8
ENDMDL
MODEL 4
REMARK VINA RESULT: -10.110603567      3.995      7.026
REMARK  8 active torsions:
REMARK  status: ('A' for Active; 'I' for Inactive)
REMARK    1  A    between atoms: C2_2  and  O2_4 
REMARK    2  A    between atoms: O2_4  and  C3_5 
REMARK    3  A    between atoms: C4_6  and  O3_7 
REMARK    4  A    between atoms: C8_12  and  O4_13 
REMARK    5  A    between atoms: C21_38  and  O13_39 
REMARK    6  A    between atoms: O13_39  and  C22_40 
REMARK    7  A    between atoms: C22_40  and  C23_41 
REMARK       I    between atoms: C23_41  and  N2_43 
REMARK    8  A    between atoms: C26_49  and  O16_50 
ROOT
HETATM    1  C3  UNL     1      43.045  12.950 -14.453  1.00  0.00     0.150 A 
HETATM    2  C4  UNL     1      41.988  13.180 -13.610  1.00  0.00     0.130 A 
HETATM    3  C5  UNL     1      41.297  12.142 -12.928  1.00  0.00     0.074 A 
HETATM    4  C6  UNL     1      41.709  10.848 -13.124  1.00  0.00     0.072 A 
HETATM    5  C7  UNL     1      42.767  10.580 -13.963  1.00  0.00     0.107 A 
HETATM    6  C8  UNL     1      43.416  11.649 -14.616  1.00  0.00     0.136 A 
HETATM    7  O5  UNL     1      43.342   9.373 -14.300  1.00  0.00    -0.344 OA
HETATM    8  C9  UNL     1      43.838   8.286 -13.537  1.00  0.00     0.203 C 
HETATM    9  C10 UNL     1      44.019   8.794 -12.150  1.00  0.00    -0.002 C 
HETATM   10  C11 UNL     1      45.183   9.077 -11.594  1.00  0.00    -0.001 C 
HETATM   11  C12 UNL     1      46.509   8.937 -12.248  1.00  0.00     0.219 C 
HETATM   12  O6  UNL     1      47.452   8.653 -11.262  1.00  0.00    -0.250 OA
HETATM   13  S1  UNL     1      47.184   7.180 -10.536  1.00  0.00     0.402 S 
HETATM   14  O7  UNL     1      48.075   7.112  -9.323  1.00  0.00    -0.169 OA
HETATM   15  O8  UNL     1      47.505   6.024 -11.413  1.00  0.00    -0.169 OA
HETATM   16  O9  UNL     1      45.598   7.142  -9.993  1.00  0.00    -0.252 OA
HETATM   17  C13 UNL     1      45.304   5.884  -9.537  1.00  0.00     0.218 C 
HETATM   18  C14 UNL     1      43.885   5.540  -9.985  1.00  0.00     0.195 C 
HETATM   19  O10 UNL     1      42.929   6.326  -9.320  1.00  0.00    -0.387 OA
HETATM   20  C15 UNL     1      41.677   5.809  -9.703  1.00  0.00     0.193 C 
HETATM   21  C16 UNL     1      40.571   6.788  -9.461  1.00  0.00     0.193 C 
HETATM   22  O11 UNL     1      40.339   7.639 -10.527  1.00  0.00    -0.387 OA
HETATM   23  C17 UNL     1      38.959   7.767 -10.810  1.00  0.00     0.186 C 
HETATM   24  C18 UNL     1      38.812   7.660 -12.293  1.00  0.00     0.140 C 
HETATM   25  N1  UNL     1      37.562   8.089 -12.826  1.00  0.00    -0.417 N 
ATOM     26  H1  UNL     1      37.028   7.508 -13.473  1.00  0.00     0.153 HD
HETATM   27  C19 UNL     1      37.095   9.370 -12.410  1.00  0.00     0.140 C 
HETATM   28  C20 UNL     1      37.962  10.523 -12.940  1.00  0.00     0.198 C 
HETATM   29  O12 UNL     1      38.522  11.186 -11.877  1.00  0.00    -0.315 OA
HETATM   30  C21 UNL     1      39.154  12.348 -11.640  1.00  0.00     0.265 C 
HETATM   31  N4  UNL     1      40.272  12.661 -12.102  1.00  0.00    -0.314 N 
ATOM     32  H4  UNL     1      40.531  13.593 -11.777  1.00  0.00     0.170 HD
ENDROOT
BRANCH  30  33
HETATM   33  O13 UNL     1      38.519  13.299 -10.795  1.00  0.00    -0.307 OA
BRANCH  33  34
HETATM   34  C22 UNL     1      38.342  14.635 -11.198  1.00  0.00     0.284 C 
BRANCH  34  35
HETATM   35  C23 UNL     1      37.983  14.638 -12.666  1.00  0.00     0.269 C 
HETATM   36  O14 UNL     1      38.709  15.246 -13.497  1.00  0.00    -0.269 OA
HETATM   37  N2  UNL     1      36.838  13.967 -13.134  1.00  0.00    -0.197 N 
HETATM   38  N3  UNL     1      35.997  13.292 -12.354  1.00  0.00    -0.255 N 
HETATM   39  C26 UNL     1      36.401  13.884 -14.382  1.00  0.00     0.170 A 
HETATM   40  C24 UNL     1      35.001  12.759 -13.087  1.00  0.00     0.264 A 
ATOM     41  H3  UNL     1      36.094  13.192 -11.344  1.00  0.00     0.191 HD
HETATM   42  O15 UNL     1      34.047  12.063 -12.641  1.00  0.00    -0.267 OA
HETATM   43  C25 UNL     1      35.243  13.129 -14.395  1.00  0.00     0.133 A 
BRANCH  39  44
HETATM   44  O16 UNL     1      36.954  14.432 -15.537  1.00  0.00    -0.345 OA
ATOM     45  H16 UNL     1      36.530  14.625 -16.364  1.00  0.00     0.219 HD
ENDBRANCH  39  44
ENDBRANCH  34  35
ENDBRANCH  33  34
ENDBRANCH  30  33
BRANCH   2  46
HETATM   46  O3  UNL     1      41.629  14.521 -13.459  1.00  0.00    -0.356 OA
ATOM     47  H3  UNL     1      40.799  14.765 -13.851  1.00  0.00     0.218 HD
ENDBRANCH   2  46
BRANCH   1  48
HETATM   48  O2  UNL     1      43.702  13.998 -15.110  1.00  0.00    -0.273 OA
BRANCH  48  49
HETATM   49  C2  UNL     1      43.328  14.382 -16.388  1.00  0.00     0.260 C 
HETATM   50  C1  UNL     1      42.184  13.681 -17.021  1.00  0.00     0.126 C 
HETATM   51  O1  UNL     1      43.984  15.307 -16.935  1.00  0.00    -0.265 OA
ENDBRANCH  48  49
ENDBRANCH   1  48
BRANCH   6  52
HETATM   52  O4  UNL     1      44.503  11.455 -15.494  1.00  0.00    -0.356 OA
ATOM     53  H4  UNL     1      45.346  11.360 -15.064  1.00  0.00     0.218 HD
ENDBRANCH   6  52
TORSDOF 8
ENDMDL
MODEL 5
REMARK VINA RESULT: -9.902096558      2.969      7.137
REMARK  8 active torsions:
REMARK  status: ('A' for Active; 'I' for Inactive)
REMARK    1  A    between atoms: C2_2  and  O2_4 
REMARK    2  A    between atoms: O2_4  and  C3_5 
REMARK    3  A    between atoms: C4_6  and  O3_7 
REMARK    4  A    between atoms: C8_12  and  O4_13 
REMARK    5  A    between atoms: C21_38  and  O13_39 
REMARK    6  A    between atoms: O13_39  and  C22_40 
REMARK    7  A    between atoms: C22_40  and  C23_41 
REMARK       I    between atoms: C23_41  and  N2_43 
REMARK    8  A    between atoms: C26_49  and  O16_50 
ROOT
HETATM    1  C3  UNL     1      41.361  11.962 -16.974  1.00  0.00     0.150 A 
HETATM    2  C4  UNL     1      40.580  12.646 -16.078  1.00  0.00     0.130 A 
HETATM    3  C5  UNL     1      39.672  12.006 -15.191  1.00  0.00     0.074 A 
HETATM    4  C6  UNL     1      39.574  10.639 -15.236  1.00  0.00     0.072 A 
HETATM    5  C7  UNL     1      40.344   9.920 -16.123  1.00  0.00     0.107 A 
HETATM    6  C8  UNL     1      41.227  10.606 -16.981  1.00  0.00     0.136 A 
HETATM    7  O5  UNL     1      40.407   8.559 -16.335  1.00  0.00    -0.344 OA
HETATM    8  C9  UNL     1      40.592   7.448 -15.472  1.00  0.00     0.203 C 
HETATM    9  C10 UNL     1      41.131   7.993 -14.197  1.00  0.00    -0.002 C 
HETATM   10  C11 UNL     1      42.386   7.886 -13.800  1.00  0.00    -0.001 C 
HETATM   11  C12 UNL     1      43.474   7.207 -14.548  1.00  0.00     0.219 C 
HETATM   12  O6  UNL     1      44.387   6.700 -13.624  1.00  0.00    -0.250 OA
HETATM   13  S1  UNL     1      43.724   5.507 -12.671  1.00  0.00     0.402 S 
HETATM   14  O7  UNL     1      44.695   5.242 -11.550  1.00  0.00    -0.169 OA
HETATM   15  O8  UNL     1      43.495   4.232 -13.398  1.00  0.00    -0.169 OA
HETATM   16  O9  UNL     1      42.318   6.105 -11.982  1.00  0.00    -0.252 OA
HETATM   17  C13 UNL     1      41.669   5.094 -11.323  1.00  0.00     0.218 C 
HETATM   18  C14 UNL     1      40.172   5.249 -11.581  1.00  0.00     0.195 C 
HETATM   19  O10 UNL     1      39.653   6.391 -10.950  1.00  0.00    -0.387 OA
HETATM   20  C15 UNL     1      38.260   6.332 -11.135  1.00  0.00     0.193 C 
HETATM   21  C16 UNL     1      37.611   7.665 -10.934  1.00  0.00     0.193 C 
HETATM   22  O11 UNL     1      37.545   8.431 -12.085  1.00  0.00    -0.387 OA
HETATM   23  C17 UNL     1      36.272   9.024 -12.253  1.00  0.00     0.186 C 
HETATM   24  C18 UNL     1      35.891   8.829 -13.684  1.00  0.00     0.140 C 
HETATM   25  N1  UNL     1      34.809   9.627 -14.154  1.00  0.00    -0.417 N 
ATOM     26  H1  UNL     1      34.021   9.219 -14.657  1.00  0.00     0.153 HD
HETATM   27  C19 UNL     1      34.883  11.026 -13.885  1.00  0.00     0.140 C 
HETATM   28  C20 UNL     1      36.016  11.723 -14.655  1.00  0.00     0.198 C 
HETATM   29  O12 UNL     1      36.914  12.240 -13.756  1.00  0.00    -0.315 OA
HETATM   30  C21 UNL     1      37.940  13.109 -13.750  1.00  0.00     0.265 C 
HETATM   31  N4  UNL     1      39.020  12.944 -14.355  1.00  0.00    -0.314 N 
ATOM     32  H4  UNL     1      39.631  13.745 -14.195  1.00  0.00     0.170 HD
ENDROOT
BRANCH  30  33
HETATM   33  O13 UNL     1      37.802  14.306 -12.995  1.00  0.00    -0.307 OA
BRANCH  33  34
HETATM   34  C22 UNL     1      38.863  14.810 -12.221  1.00  0.00     0.284 C 
BRANCH  34  35
HETATM   35  C23 UNL     1      38.361  15.006 -10.809  1.00  0.00     0.269 C 
HETATM   36  O14 UNL     1      38.090  16.162 -10.386  1.00  0.00    -0.269 OA
HETATM   37  N2  UNL     1      38.186  13.912  -9.942  1.00  0.00    -0.197 N 
HETATM   38  N3  UNL     1      38.438  12.649 -10.274  1.00  0.00    -0.255 N 
HETATM   39  C26 UNL     1      37.757  13.932  -8.689  1.00  0.00     0.170 A 
HETATM   40  C24 UNL     1      38.175  11.829  -9.239  1.00  0.00     0.264 A 
ATOM     41  H3  UNL     1      38.782  12.344 -11.185  1.00  0.00     0.191 HD
HETATM   42  O15 UNL     1      38.311  10.574  -9.238  1.00  0.00    -0.267 OA
HETATM   43  C25 UNL     1      37.736  12.636  -8.209  1.00  0.00     0.133 A 
BRANCH  39  44
HETATM   44  O16 UNL     1      37.374  15.026  -7.916  1.00  0.00    -0.345 OA
ATOM     45  H16 UNL     1      37.655  15.262  -7.040  1.00  0.00     0.219 HD
ENDBRANCH  39  44
ENDBRANCH  34  35
ENDBRANCH  33  34
ENDBRANCH  30  33
BRANCH   2  46
HETATM   46  O3  UNL     1      40.738  14.034 -16.089  1.00  0.00    -0.356 OA
ATOM     47  H3  UNL     1      40.019  14.526 -15.712  1.00  0.00     0.218 HD
ENDBRANCH   2  46
BRANCH   1  48
HETATM   48  O2  UNL     1      42.245  12.627 -17.834  1.00  0.00    -0.273 OA
BRANCH  48  49
HETATM   49  C2  UNL     1      43.538  12.923 -17.433  1.00  0.00     0.260 C 
HETATM   50  C1  UNL     1      44.636  12.044 -17.905  1.00  0.00     0.126 C 
HETATM   51  O1  UNL     1      43.702  13.926 -16.689  1.00  0.00    -0.265 OA
ENDBRANCH  48  49
ENDBRANCH   1  48
BRANCH   6  52
HETATM   52  O4  UNL     1      42.044   9.942 -17.921  1.00  0.00    -0.356 OA
ATOM     53  H4  UNL     1      42.220   9.031 -17.716  1.00  0.00     0.218 HD
ENDBRANCH   6  52
TORSDOF 8
ENDMDL
