MODEL 1
REMARK VINA RESULT: -9.090950289      0.000      0.000
REMARK  9 active torsions:
REMARK  status: ('A' for Active; 'I' for Inactive)
REMARK    1  A    between atoms: C2_2  and  C3_3 
REMARK    2  A    between atoms: C3_3  and  O1_4 
REMARK    3  A    between atoms: N1_6  and  C4_8 
REMARK    4  A    between atoms: C5_11  and  C6_12 
REMARK    5  A    between atoms: C12_20  and  N4_21 
REMARK    6  A    between atoms: N4_21  and  C13_22 
REMARK    7  A    between atoms: C16_25  and  C17_26 
REMARK    8  A    between atoms: C17_26  and  N5_27 
REMARK    9  A    between atoms: N5_27  and  O2_28 
REMARK       I    between atoms: N5_27  and  C18_30 
ROOT
HETATM    1  C4  UNL     1      35.397  58.912  47.245  1.00  0.00     0.166 A 
HETATM    2  N2  UNL     1      34.189  58.881  46.556  1.00  0.00    -0.340 N 
ATOM      3  H2  UNL     1      33.439  59.503  46.862  1.00  0.00     0.167 HD
HETATM    4  C5  UNL     1      33.967  58.089  45.529  1.00  0.00     0.030 A 
HETATM    5  C11 UNL     1      34.960  57.247  45.104  1.00  0.00     0.116 A 
HETATM    6  N3  UNL     1      36.116  57.245  45.730  1.00  0.00    -0.337 N 
ATOM      7  H3  UNL     1      36.839  56.609  45.395  1.00  0.00     0.168 HD
HETATM    8  C12 UNL     1      36.413  58.050  46.811  1.00  0.00     0.217 A 
ENDROOT
BRANCH   8   9
HETATM    9  N4  UNL     1      37.520  57.972  47.289  1.00  0.00    -0.422 NA
BRANCH   9  10
HETATM   10  C13 UNL     1      38.738  57.867  47.806  1.00  0.00     0.165 C 
HETATM   11  C14 UNL     1      39.726  58.887  47.227  1.00  0.00     0.040 C 
HETATM   12  C15 UNL     1      40.889  58.917  48.200  1.00  0.00     0.009 C 
HETATM   13  C16 UNL     1      41.650  57.615  48.000  1.00  0.00     0.006 C 
HETATM   14  C20 UNL     1      40.836  56.565  47.385  1.00  0.00     0.009 C 
HETATM   15  C21 UNL     1      39.387  56.485  47.780  1.00  0.00     0.040 C 
BRANCH  13  16
HETATM   16  C17 UNL     1      42.507  57.286  49.175  1.00  0.00     0.163 C 
BRANCH  16  17
HETATM   17  N5  UNL     1      41.967  57.449  50.473  1.00  0.00    -0.229 N 
HETATM   18  C18 UNL     1      42.292  58.446  51.394  1.00  0.00     0.239 C 
HETATM   19  C19 UNL     1      43.246  59.579  51.147  1.00  0.00     0.119 C 
HETATM   20  O3  UNL     1      41.720  58.389  52.550  1.00  0.00    -0.272 OA
BRANCH  17  21
HETATM   21  O2  UNL     1      41.007  56.529  50.853  1.00  0.00    -0.285 OA
ATOM     22  H2  UNL     1      41.107  56.155  51.720  1.00  0.00     0.245 HD
ENDBRANCH  17  21
ENDBRANCH  16  17
ENDBRANCH  13  16
ENDBRANCH   9  10
ENDBRANCH   8   9
BRANCH   1  23
HETATM   23  N1  UNL     1      35.537  59.652  48.192  1.00  0.00    -0.319 N 
HETATM   24  C3  UNL     1      35.508  60.815  48.801  1.00  0.00     0.140 C 
ATOM     25  H1  UNL     1      35.854  59.021  48.927  1.00  0.00     0.169 HD
BRANCH  24  26
HETATM   26  C2  UNL     1      34.618  61.115  49.980  1.00  0.00     0.046 C 
HETATM   27  C1  UNL     1      34.009  62.271  49.992  1.00  0.00     0.015 C 
ENDBRANCH  24  26
BRANCH  24  28
HETATM   28  O1  UNL     1      36.241  61.835  48.463  1.00  0.00    -0.346 OA
ATOM     29  H1  UNL     1      36.023  62.165  47.599  1.00  0.00     0.219 HD
ENDBRANCH  24  28
ENDBRANCH   1  23
BRANCH   4  30
HETATM   30  C6  UNL     1      32.679  58.101  44.841  1.00  0.00     0.037 C 
HETATM   31  C7  UNL     1      32.299  56.745  44.243  1.00  0.00     0.011 C 
HETATM   32  C8  UNL     1      31.102  57.191  43.391  1.00  0.00     0.001 C 
HETATM   33  C9  UNL     1      31.717  58.362  42.639  1.00  0.00     0.001 C 
HETATM   34  C10 UNL     1      32.690  58.989  43.617  1.00  0.00     0.011 C 
ENDBRANCH   4  30
TORSDOF 9
ENDMDL
MODEL 2
REMARK VINA RESULT: -8.711098455      1.327      1.762
REMARK  9 active torsions:
REMARK  status: ('A' for Active; 'I' for Inactive)
REMARK    1  A    between atoms: C2_2  and  C3_3 
REMARK    2  A    between atoms: C3_3  and  O1_4 
REMARK    3  A    between atoms: N1_6  and  C4_8 
REMARK    4  A    between atoms: C5_11  and  C6_12 
REMARK    5  A    between atoms: C12_20  and  N4_21 
REMARK    6  A    between atoms: N4_21  and  C13_22 
REMARK    7  A    between atoms: C16_25  and  C17_26 
REMARK    8  A    between atoms: C17_26  and  N5_27 
REMARK    9  A    between atoms: N5_27  and  O2_28 
REMARK       I    between atoms: N5_27  and  C18_30 
ROOT
HETATM    1  C4  UNL     1      35.354  58.961  47.239  1.00  0.00     0.166 A 
HETATM    2  N2  UNL     1      34.140  58.909  46.561  1.00  0.00    -0.340 N 
ATOM      3  H2  UNL     1      33.376  59.501  46.887  1.00  0.00     0.167 HD
HETATM    4  C5  UNL     1      33.932  58.133  45.519  1.00  0.00     0.030 A 
HETATM    5  C11 UNL     1      34.945  57.330  45.066  1.00  0.00     0.116 A 
HETATM    6  N3  UNL     1      36.107  57.349  45.681  1.00  0.00    -0.337 N 
ATOM      7  H3  UNL     1      36.845  56.742  45.326  1.00  0.00     0.168 HD
HETATM    8  C12 UNL     1      36.391  58.140  46.777  1.00  0.00     0.217 A 
ENDROOT
BRANCH   8   9
HETATM    9  N4  UNL     1      37.504  58.085  47.242  1.00  0.00    -0.422 NA
BRANCH   9  10
HETATM   10  C13 UNL     1      38.735  58.021  47.734  1.00  0.00     0.165 C 
HETATM   11  C14 UNL     1      38.904  56.921  48.790  1.00  0.00     0.040 C 
HETATM   12  C15 UNL     1      40.400  56.707  48.911  1.00  0.00     0.009 C 
HETATM   13  C16 UNL     1      40.949  57.919  49.651  1.00  0.00     0.006 C 
HETATM   14  C20 UNL     1      40.069  59.086  49.568  1.00  0.00     0.009 C 
HETATM   15  C21 UNL     1      39.337  59.316  48.275  1.00  0.00     0.040 C 
BRANCH  13  16
HETATM   16  C17 UNL     1      42.414  58.087  49.432  1.00  0.00     0.163 C 
BRANCH  16  17
HETATM   17  N5  UNL     1      43.083  59.137  50.107  1.00  0.00    -0.229 N 
HETATM   18  C18 UNL     1      43.535  60.333  49.550  1.00  0.00     0.239 C 
HETATM   19  C19 UNL     1      43.340  60.756  48.123  1.00  0.00     0.119 C 
HETATM   20  O3  UNL     1      44.170  61.143  50.330  1.00  0.00    -0.272 OA
BRANCH  17  21
HETATM   21  O2  UNL     1      43.290  58.954  51.462  1.00  0.00    -0.285 OA
ATOM     22  H2  UNL     1      42.999  59.660  52.027  1.00  0.00     0.245 HD
ENDBRANCH  17  21
ENDBRANCH  16  17
ENDBRANCH  13  16
ENDBRANCH   9  10
ENDBRANCH   8   9
BRANCH   1  23
HETATM   23  N1  UNL     1      35.481  59.685  48.200  1.00  0.00    -0.319 N 
HETATM   24  C3  UNL     1      35.455  60.838  48.826  1.00  0.00     0.140 C 
ATOM     25  H1  UNL     1      35.771  59.038  48.933  1.00  0.00     0.169 HD
BRANCH  24  26
HETATM   26  C2  UNL     1      34.540  61.135  49.988  1.00  0.00     0.046 C 
HETATM   27  C1  UNL     1      33.999  62.323  50.037  1.00  0.00     0.015 C 
ENDBRANCH  24  26
BRANCH  24  28
HETATM   28  O1  UNL     1      36.210  61.852  48.522  1.00  0.00    -0.346 OA
ATOM     29  H1  UNL     1      35.784  62.684  48.695  1.00  0.00     0.219 HD
ENDBRANCH  24  28
ENDBRANCH   1  23
BRANCH   4  30
HETATM   30  C6  UNL     1      32.637  58.120  44.844  1.00  0.00     0.037 C 
HETATM   31  C7  UNL     1      32.245  56.742  44.310  1.00  0.00     0.011 C 
HETATM   32  C8  UNL     1      31.042  57.156  43.450  1.00  0.00     0.001 C 
HETATM   33  C9  UNL     1      31.655  58.290  42.642  1.00  0.00     0.001 C 
HETATM   34  C10 UNL     1      32.639  58.954  43.583  1.00  0.00     0.011 C 
ENDBRANCH   4  30
TORSDOF 9
ENDMDL
MODEL 3
REMARK VINA RESULT: -8.680535818      4.263      9.933
REMARK  9 active torsions:
REMARK  status: ('A' for Active; 'I' for Inactive)
REMARK    1  A    between atoms: C2_2  and  C3_3 
REMARK    2  A    between atoms: C3_3  and  O1_4 
REMARK    3  A    between atoms: N1_6  and  C4_8 
REMARK    4  A    between atoms: C5_11  and  C6_12 
REMARK    5  A    between atoms: C12_20  and  N4_21 
REMARK    6  A    between atoms: N4_21  and  C13_22 
REMARK    7  A    between atoms: C16_25  and  C17_26 
REMARK    8  A    between atoms: C17_26  and  N5_27 
REMARK    9  A    between atoms: N5_27  and  O2_28 
REMARK       I    between atoms: N5_27  and  C18_30 
ROOT
HETATM    1  C4  UNL     1      35.607  57.859  45.231  1.00  0.00     0.166 A 
HETATM    2  N2  UNL     1      36.481  57.440  46.230  1.00  0.00    -0.340 N 
ATOM      3  H2  UNL     1      36.392  56.488  46.586  1.00  0.00     0.167 HD
HETATM    4  C5  UNL     1      37.416  58.214  46.738  1.00  0.00     0.030 A 
HETATM    5  C11 UNL     1      37.551  59.496  46.275  1.00  0.00     0.116 A 
HETATM    6  N3  UNL     1      36.744  59.930  45.332  1.00  0.00    -0.337 N 
ATOM      7  H3  UNL     1      36.864  60.888  45.004  1.00  0.00     0.168 HD
HETATM    8  C12 UNL     1      35.745  59.170  44.757  1.00  0.00     0.217 A 
ENDROOT
BRANCH   8   9
HETATM    9  N4  UNL     1      35.081  59.675  43.884  1.00  0.00    -0.422 NA
BRANCH   9  10
HETATM   10  C13 UNL     1      34.362  60.218  42.909  1.00  0.00     0.165 C 
HETATM   11  C14 UNL     1      32.906  60.483  43.312  1.00  0.00     0.040 C 
HETATM   12  C15 UNL     1      32.377  61.463  42.284  1.00  0.00     0.009 C 
HETATM   13  C16 UNL     1      32.192  60.676  40.995  1.00  0.00     0.006 C 
HETATM   14  C20 UNL     1      33.001  59.457  40.948  1.00  0.00     0.009 C 
HETATM   15  C21 UNL     1      34.375  59.509  41.556  1.00  0.00     0.040 C 
BRANCH  13  16
HETATM   16  C17 UNL     1      32.139  61.568  39.802  1.00  0.00     0.163 C 
BRANCH  16  17
HETATM   17  N5  UNL     1      32.907  61.222  38.663  1.00  0.00    -0.229 N 
HETATM   18  C18 UNL     1      32.518  60.384  37.617  1.00  0.00     0.239 C 
HETATM   19  C19 UNL     1      31.170  59.736  37.478  1.00  0.00     0.119 C 
HETATM   20  O3  UNL     1      33.388  60.155  36.691  1.00  0.00    -0.272 OA
BRANCH  17  21
HETATM   21  O2  UNL     1      34.164  61.789  38.581  1.00  0.00    -0.285 OA
ATOM     22  H2  UNL     1      34.819  61.289  38.109  1.00  0.00     0.245 HD
ENDBRANCH  17  21
ENDBRANCH  16  17
ENDBRANCH  13  16
ENDBRANCH   9  10
ENDBRANCH   8   9
BRANCH   1  23
HETATM   23  N1  UNL     1      34.758  57.105  44.813  1.00  0.00    -0.319 N 
HETATM   24  C3  UNL     1      33.552  56.591  44.763  1.00  0.00     0.140 C 
ATOM     25  H1  UNL     1      35.259  56.573  44.103  1.00  0.00     0.169 HD
BRANCH  24  26
HETATM   26  C2  UNL     1      32.671  56.650  43.541  1.00  0.00     0.046 C 
HETATM   27  C1  UNL     1      31.530  57.277  43.654  1.00  0.00     0.015 C 
ENDBRANCH  24  26
BRANCH  24  28
HETATM   28  O1  UNL     1      32.980  55.971  45.754  1.00  0.00    -0.346 OA
ATOM     29  H1  UNL     1      33.069  56.443  46.573  1.00  0.00     0.219 HD
ENDBRANCH  24  28
ENDBRANCH   1  23
BRANCH   4  30
HETATM   30  C6  UNL     1      38.307  57.721  47.784  1.00  0.00     0.037 C 
HETATM   31  C7  UNL     1      39.546  57.010  47.240  1.00  0.00     0.011 C 
HETATM   32  C8  UNL     1      40.064  56.400  48.551  1.00  0.00     0.001 C 
HETATM   33  C9  UNL     1      38.798  55.731  49.064  1.00  0.00     0.001 C 
HETATM   34  C10 UNL     1      37.667  56.636  48.621  1.00  0.00     0.011 C 
ENDBRANCH   4  30
TORSDOF 9
ENDMDL
MODEL 4
REMARK VINA RESULT: -8.632094469      1.471      1.769
REMARK  9 active torsions:
REMARK  status: ('A' for Active; 'I' for Inactive)
REMARK    1  A    between atoms: C2_2  and  C3_3 
REMARK    2  A    between atoms: C3_3  and  O1_4 
REMARK    3  A    between atoms: N1_6  and  C4_8 
REMARK    4  A    between atoms: C5_11  and  C6_12 
REMARK    5  A    between atoms: C12_20  and  N4_21 
REMARK    6  A    between atoms: N4_21  and  C13_22 
REMARK    7  A    between atoms: C16_25  and  C17_26 
REMARK    8  A    between atoms: C17_26  and  N5_27 
REMARK    9  A    between atoms: N5_27  and  O2_28 
REMARK       I    between atoms: N5_27  and  C18_30 
ROOT
HETATM    1  C4  UNL     1      35.339  58.926  47.137  1.00  0.00     0.166 A 
HETATM    2  N2  UNL     1      34.123  58.937  46.460  1.00  0.00    -0.340 N 
ATOM      3  H2  UNL     1      33.382  59.549  46.802  1.00  0.00     0.167 HD
HETATM    4  C5  UNL     1      33.884  58.196  45.400  1.00  0.00     0.030 A 
HETATM    5  C11 UNL     1      34.866  57.366  44.925  1.00  0.00     0.116 A 
HETATM    6  N3  UNL     1      36.028  57.326  45.538  1.00  0.00    -0.337 N 
ATOM      7  H3  UNL     1      36.743  56.701  45.166  1.00  0.00     0.168 HD
HETATM    8  C12 UNL     1      36.343  58.078  46.652  1.00  0.00     0.217 A 
ENDROOT
BRANCH   8   9
HETATM    9  N4  UNL     1      37.454  57.969  47.114  1.00  0.00    -0.422 NA
BRANCH   9  10
HETATM   10  C13 UNL     1      38.678  57.832  47.609  1.00  0.00     0.165 C 
HETATM   11  C14 UNL     1      38.774  56.739  48.681  1.00  0.00     0.040 C 
HETATM   12  C15 UNL     1      40.253  56.430  48.808  1.00  0.00     0.009 C 
HETATM   13  C16 UNL     1      40.879  57.614  49.531  1.00  0.00     0.006 C 
HETATM   14  C20 UNL     1      40.077  58.834  49.430  1.00  0.00     0.009 C 
HETATM   15  C21 UNL     1      39.362  59.093  48.132  1.00  0.00     0.040 C 
BRANCH  13  16
HETATM   16  C17 UNL     1      42.352  57.683  49.313  1.00  0.00     0.163 C 
BRANCH  16  17
HETATM   17  N5  UNL     1      42.922  58.923  48.935  1.00  0.00    -0.229 N 
HETATM   18  C18 UNL     1      43.471  59.883  49.786  1.00  0.00     0.239 C 
HETATM   19  C19 UNL     1      43.610  59.747  51.275  1.00  0.00     0.119 C 
HETATM   20  O3  UNL     1      43.897  60.975  49.245  1.00  0.00    -0.272 OA
BRANCH  17  21
HETATM   21  O2  UNL     1      42.948  59.193  47.580  1.00  0.00    -0.285 OA
ATOM     22  H2  UNL     1      43.636  59.777  47.284  1.00  0.00     0.245 HD
ENDBRANCH  17  21
ENDBRANCH  16  17
ENDBRANCH  13  16
ENDBRANCH   9  10
ENDBRANCH   8   9
BRANCH   1  23
HETATM   23  N1  UNL     1      35.495  59.620  48.116  1.00  0.00    -0.319 N 
HETATM   24  C3  UNL     1      35.497  60.755  48.774  1.00  0.00     0.140 C 
ATOM     25  H1  UNL     1      35.788  58.948  48.824  1.00  0.00     0.169 HD
BRANCH  24  26
HETATM   26  C2  UNL     1      34.609  61.031  49.961  1.00  0.00     0.046 C 
HETATM   27  C1  UNL     1      34.045  62.209  50.028  1.00  0.00     0.015 C 
ENDBRANCH  24  26
BRANCH  24  28
HETATM   28  O1  UNL     1      36.261  61.767  48.485  1.00  0.00    -0.346 OA
ATOM     29  H1  UNL     1      36.097  62.105  47.612  1.00  0.00     0.219 HD
ENDBRANCH  24  28
ENDBRANCH   1  23
BRANCH   4  30
HETATM   30  C6  UNL     1      32.590  58.249  44.727  1.00  0.00     0.037 C 
HETATM   31  C7  UNL     1      32.115  56.889  44.215  1.00  0.00     0.011 C 
HETATM   32  C8  UNL     1      30.936  57.360  43.351  1.00  0.00     0.001 C 
HETATM   33  C9  UNL     1      31.613  58.443  42.525  1.00  0.00     0.001 C 
HETATM   34  C10 UNL     1      32.638  59.062  43.453  1.00  0.00     0.011 C 
ENDBRANCH   4  30
TORSDOF 9
ENDMDL
MODEL 5
REMARK VINA RESULT: -8.609464684      3.002      9.013
REMARK  9 active torsions:
REMARK  status: ('A' for Active; 'I' for Inactive)
REMARK    1  A    between atoms: C2_2  and  C3_3 
REMARK    2  A    between atoms: C3_3  and  O1_4 
REMARK    3  A    between atoms: N1_6  and  C4_8 
REMARK    4  A    between atoms: C5_11  and  C6_12 
REMARK    5  A    between atoms: C12_20  and  N4_21 
REMARK    6  A    between atoms: N4_21  and  C13_22 
REMARK    7  A    between atoms: C16_25  and  C17_26 
REMARK    8  A    between atoms: C17_26  and  N5_27 
REMARK    9  A    between atoms: N5_27  and  O2_28 
REMARK       I    between atoms: N5_27  and  C18_30 
ROOT
HETATM    1  C4  UNL     1      36.554  58.693  47.412  1.00  0.00     0.166 A 
HETATM    2  N2  UNL     1      37.661  58.285  48.150  1.00  0.00    -0.340 N 
ATOM      3  H2  UNL     1      37.809  58.695  49.072  1.00  0.00     0.167 HD
HETATM    4  C5  UNL     1      38.526  57.395  47.714  1.00  0.00     0.030 A 
HETATM    5  C11 UNL     1      38.346  56.833  46.477  1.00  0.00     0.116 A 
HETATM    6  N3  UNL     1      37.313  57.193  45.749  1.00  0.00    -0.337 N 
ATOM      7  H3  UNL     1      37.201  56.762  44.832  1.00  0.00     0.168 HD
HETATM    8  C12 UNL     1      36.370  58.119  46.148  1.00  0.00     0.217 A 
ENDROOT
BRANCH   8   9
HETATM    9  N4  UNL     1      35.452  58.352  45.397  1.00  0.00    -0.422 NA
BRANCH   9  10
HETATM   10  C13 UNL     1      34.457  58.620  44.561  1.00  0.00     0.165 C 
HETATM   11  C14 UNL     1      33.753  57.360  44.042  1.00  0.00     0.040 C 
HETATM   12  C15 UNL     1      32.429  57.842  43.481  1.00  0.00     0.009 C 
HETATM   13  C16 UNL     1      32.750  58.562  42.180  1.00  0.00     0.006 C 
HETATM   14  C20 UNL     1      34.138  59.022  42.108  1.00  0.00     0.009 C 
HETATM   15  C21 UNL     1      34.770  59.530  43.375  1.00  0.00     0.040 C 
BRANCH  13  16
HETATM   16  C17 UNL     1      31.651  59.480  41.767  1.00  0.00     0.163 C 
BRANCH  16  17
HETATM   17  N5  UNL     1      31.990  60.770  41.291  1.00  0.00    -0.229 N 
HETATM   18  C18 UNL     1      32.378  61.107  39.994  1.00  0.00     0.239 C 
HETATM   19  C19 UNL     1      32.452  60.156  38.834  1.00  0.00     0.119 C 
HETATM   20  O3  UNL     1      32.695  62.340  39.775  1.00  0.00    -0.272 OA
BRANCH  17  21
HETATM   21  O2  UNL     1      31.908  61.799  42.211  1.00  0.00    -0.285 OA
ATOM     22  H2  UNL     1      31.208  62.426  42.075  1.00  0.00     0.245 HD
ENDBRANCH  17  21
ENDBRANCH  16  17
ENDBRANCH  13  16
ENDBRANCH   9  10
ENDBRANCH   8   9
BRANCH   1  23
HETATM   23  N1  UNL     1      35.800  59.527  47.861  1.00  0.00    -0.319 N 
HETATM   24  C3  UNL     1      34.677  59.941  48.399  1.00  0.00     0.140 C 
ATOM     25  H1  UNL     1      36.338  60.388  47.770  1.00  0.00     0.169 HD
BRANCH  24  26
HETATM   26  C2  UNL     1      34.595  60.593  49.756  1.00  0.00     0.046 C 
HETATM   27  C1  UNL     1      34.222  61.845  49.799  1.00  0.00     0.015 C 
ENDBRANCH  24  26
BRANCH  24  28
HETATM   28  O1  UNL     1      33.513  59.842  47.828  1.00  0.00    -0.346 OA
ATOM     29  H1  UNL     1      33.486  59.143  47.185  1.00  0.00     0.219 HD
ENDBRANCH  24  28
ENDBRANCH   1  23
BRANCH   4  30
HETATM   30  C6  UNL     1      39.670  57.001  48.532  1.00  0.00     0.037 C 
HETATM   31  C7  UNL     1      40.236  58.144  49.374  1.00  0.00     0.011 C 
HETATM   32  C8  UNL     1      41.535  57.472  49.842  1.00  0.00     0.001 C 
HETATM   33  C9  UNL     1      42.086  56.978  48.513  1.00  0.00     0.001 C 
HETATM   34  C10 UNL     1      40.866  56.607  47.695  1.00  0.00     0.011 C 
ENDBRANCH   4  30
TORSDOF 9
ENDMDL
