MODEL 1
REMARK VINA RESULT: -6.985312944      0.000      0.000
REMARK  7 active torsions:
REMARK  status: ('A' for Active; 'I' for Inactive)
REMARK    1  A    between atoms: N1_2  and  C3_4 
REMARK    2  A    between atoms: C5_9  and  C6_10 
REMARK    3  A    between atoms: C6_10  and  C7_11 
REMARK    4  A    between atoms: C7_11  and  C8_12 
REMARK    5  A    between atoms: C8_12  and  C9_13 
REMARK    6  A    between atoms: C13_17  and  N4_18 
REMARK    7  A    between atoms: N4_18  and  C14_20 
ROOT
HETATM    1  C3  UNL     1     -16.845  -0.917  -4.007  1.00  0.00     0.682 A 
HETATM    2  N2  UNL     1     -17.414  -2.152  -4.136  1.00  0.00    -0.178 N 
ATOM      3  H2  UNL     1     -18.293  -2.222  -4.649  1.00  0.00     0.185 HD
HETATM    4  C4  UNL     1     -16.889  -3.275  -3.633  1.00  0.00     0.141 A 
HETATM    5  N3  UNL     1     -17.548  -4.535  -3.820  1.00  0.00    -0.081 NA
HETATM    6  C5  UNL     1     -15.701  -3.174  -2.941  1.00  0.00     0.028 A 
HETATM    7  C13 UNL     1     -15.081  -1.932  -2.783  1.00  0.00     0.127 A 
HETATM    8  N5  UNL     1     -15.686  -0.861  -3.326  1.00  0.00    -0.176 N 
ATOM      9  H5  UNL     1     -15.239   0.048  -3.215  1.00  0.00     0.186 HD
ENDROOT
BRANCH   7  10
HETATM   10  N4  UNL     1     -13.994  -1.836  -2.151  1.00  0.00    -0.371 N 
ATOM     11  H4  UNL     1     -13.598  -2.711  -1.808  1.00  0.00     0.161 HD
BRANCH  10  12
HETATM   12  C14 UNL     1     -13.245  -0.651  -1.855  1.00  0.00     0.083 C 
HETATM   13  C15 UNL     1     -11.892  -0.799  -2.553  1.00  0.00     0.025 C 
HETATM   14  C16 UNL     1     -10.968   0.338  -2.186  1.00  0.00     0.002 C 
HETATM   15  C17 UNL     1     -10.608   0.222  -0.723  1.00  0.00     0.000 C 
HETATM   16  C18 UNL     1     -11.554  -0.698   0.009  1.00  0.00     0.002 C 
HETATM   17  C19 UNL     1     -12.999  -0.487  -0.367  1.00  0.00     0.025 C 
ENDBRANCH  10  12
ENDBRANCH   7  10
BRANCH   6  18
HETATM   18  C6  UNL     1     -15.088  -4.368  -2.336  1.00  0.00     0.046 C 
BRANCH  18  19
HETATM   19  C7  UNL     1     -15.584  -4.651  -0.950  1.00  0.00     0.005 C 
BRANCH  19  20
HETATM   20  C8  UNL     1     -14.622  -5.535  -0.204  1.00  0.00     0.005 C 
BRANCH  20  21
HETATM   21  C9  UNL     1     -14.369  -4.952   1.170  1.00  0.00    -0.014 C 
HETATM   22  C10 UNL     1     -14.516  -3.463   1.251  1.00  0.00     0.005 C 
HETATM   23  C11 UNL     1     -13.145  -3.377   1.873  1.00  0.00     0.001 C 
HETATM   24  C12 UNL     1     -12.908  -4.814   1.489  1.00  0.00     0.005 C 
ENDBRANCH  20  21
ENDBRANCH  19  20
ENDBRANCH  18  19
ENDBRANCH   6  18
BRANCH   1  25
HETATM   25  N1  UNL     1     -17.480   0.218  -4.582  1.00  0.00    -0.226 N 
HETATM   26  C1  UNL     1     -18.389   1.006  -3.778  1.00  0.00     0.168 C 
HETATM   27  C2  UNL     1     -17.239   0.617  -5.941  1.00  0.00     0.168 C 
ENDBRANCH   1  25
TORSDOF 7
ENDMDL
MODEL 2
REMARK VINA RESULT: -6.906333302      0.511      1.072
REMARK  7 active torsions:
REMARK  status: ('A' for Active; 'I' for Inactive)
REMARK    1  A    between atoms: N1_2  and  C3_4 
REMARK    2  A    between atoms: C5_9  and  C6_10 
REMARK    3  A    between atoms: C6_10  and  C7_11 
REMARK    4  A    between atoms: C7_11  and  C8_12 
REMARK    5  A    between atoms: C8_12  and  C9_13 
REMARK    6  A    between atoms: C13_17  and  N4_18 
REMARK    7  A    between atoms: N4_18  and  C14_20 
ROOT
HETATM    1  C3  UNL     1     -16.789  -0.835  -3.943  1.00  0.00     0.682 A 
HETATM    2  N2  UNL     1     -17.425  -2.044  -3.948  1.00  0.00    -0.178 N 
ATOM      3  H2  UNL     1     -18.343  -2.100  -4.391  1.00  0.00     0.185 HD
HETATM    4  C4  UNL     1     -16.919  -3.159  -3.408  1.00  0.00     0.141 A 
HETATM    5  N3  UNL     1     -17.650  -4.391  -3.463  1.00  0.00    -0.081 NA
HETATM    6  C5  UNL     1     -15.679  -3.077  -2.811  1.00  0.00     0.028 A 
HETATM    7  C13 UNL     1     -14.991  -1.862  -2.782  1.00  0.00     0.127 A 
HETATM    8  N5  UNL     1     -15.581  -0.798  -3.351  1.00  0.00    -0.176 N 
ATOM      9  H5  UNL     1     -15.084   0.092  -3.334  1.00  0.00     0.186 HD
ENDROOT
BRANCH   7  10
HETATM   10  N4  UNL     1     -13.855  -1.784  -2.237  1.00  0.00    -0.371 N 
ATOM     11  H4  UNL     1     -13.385  -2.670  -2.058  1.00  0.00     0.161 HD
BRANCH  10  12
HETATM   12  C14 UNL     1     -13.145  -0.605  -1.839  1.00  0.00     0.083 C 
HETATM   13  C15 UNL     1     -11.747  -0.706  -2.449  1.00  0.00     0.025 C 
HETATM   14  C16 UNL     1     -10.866   0.423  -1.971  1.00  0.00     0.002 C 
HETATM   15  C17 UNL     1     -10.603   0.245  -0.494  1.00  0.00     0.000 C 
HETATM   16  C18 UNL     1     -11.583  -0.716   0.132  1.00  0.00     0.002 C 
HETATM   17  C19 UNL     1     -13.002  -0.506  -0.332  1.00  0.00     0.025 C 
ENDBRANCH  10  12
ENDBRANCH   7  10
BRANCH   6  18
HETATM   18  C6  UNL     1     -15.081  -4.261  -2.172  1.00  0.00     0.046 C 
BRANCH  18  19
HETATM   19  C7  UNL     1     -15.760  -4.650  -0.894  1.00  0.00     0.005 C 
BRANCH  19  20
HETATM   20  C8  UNL     1     -15.271  -3.809   0.254  1.00  0.00     0.005 C 
BRANCH  20  21
HETATM   21  C9  UNL     1     -13.805  -4.098   0.496  1.00  0.00    -0.014 C 
HETATM   22  C10 UNL     1     -13.517  -5.479   1.001  1.00  0.00     0.005 C 
HETATM   23  C11 UNL     1     -12.735  -4.882   2.143  1.00  0.00     0.001 C 
HETATM   24  C12 UNL     1     -13.301  -3.531   1.793  1.00  0.00     0.005 C 
ENDBRANCH  20  21
ENDBRANCH  19  20
ENDBRANCH  18  19
ENDBRANCH   6  18
BRANCH   1  25
HETATM   25  N1  UNL     1     -17.410   0.293  -4.547  1.00  0.00    -0.226 N 
HETATM   26  C1  UNL     1     -17.179   0.563  -5.950  1.00  0.00     0.168 C 
HETATM   27  C2  UNL     1     -18.273   1.172  -3.808  1.00  0.00     0.168 C 
ENDBRANCH   1  25
TORSDOF 7
ENDMDL
MODEL 3
REMARK VINA RESULT: -6.853766111      1.800      6.364
REMARK  7 active torsions:
REMARK  status: ('A' for Active; 'I' for Inactive)
REMARK    1  A    between atoms: N1_2  and  C3_4 
REMARK    2  A    between atoms: C5_9  and  C6_10 
REMARK    3  A    between atoms: C6_10  and  C7_11 
REMARK    4  A    between atoms: C7_11  and  C8_12 
REMARK    5  A    between atoms: C8_12  and  C9_13 
REMARK    6  A    between atoms: C13_17  and  N4_18 
REMARK    7  A    between atoms: N4_18  and  C14_20 
ROOT
HETATM    1  C3  UNL     1     -15.346  -4.435  -1.150  1.00  0.00     0.682 A 
HETATM    2  N2  UNL     1     -14.411  -3.991  -0.259  1.00  0.00    -0.178 N 
ATOM      3  H2  UNL     1     -14.164  -4.601   0.520  1.00  0.00     0.185 HD
HETATM    4  C4  UNL     1     -13.798  -2.804  -0.345  1.00  0.00     0.141 A 
HETATM    5  N3  UNL     1     -12.821  -2.416   0.630  1.00  0.00    -0.081 NA
HETATM    6  C5  UNL     1     -14.136  -1.983  -1.400  1.00  0.00     0.028 A 
HETATM    7  C13 UNL     1     -15.086  -2.395  -2.336  1.00  0.00     0.127 A 
HETATM    8  N5  UNL     1     -15.646  -3.605  -2.165  1.00  0.00    -0.176 N 
ATOM      9  H5  UNL     1     -16.341  -3.912  -2.845  1.00  0.00     0.186 HD
ENDROOT
BRANCH   7  10
HETATM   10  N4  UNL     1     -15.397  -1.647  -3.304  1.00  0.00    -0.371 N 
ATOM     11  H4  UNL     1     -14.638  -1.398  -3.937  1.00  0.00     0.161 HD
BRANCH  10  12
HETATM   12  C14 UNL     1     -16.684  -1.103  -3.624  1.00  0.00     0.083 C 
HETATM   13  C15 UNL     1     -17.205  -1.886  -4.829  1.00  0.00     0.025 C 
HETATM   14  C16 UNL     1     -18.498  -1.296  -5.338  1.00  0.00     0.002 C 
HETATM   15  C17 UNL     1     -18.216   0.070  -5.919  1.00  0.00     0.000 C 
HETATM   16  C18 UNL     1     -16.876   0.598  -5.470  1.00  0.00     0.002 C 
HETATM   17  C19 UNL     1     -16.606   0.363  -4.005  1.00  0.00     0.025 C 
ENDBRANCH  10  12
ENDBRANCH   7  10
BRANCH   6  18
HETATM   18  C6  UNL     1     -13.521  -0.652  -1.534  1.00  0.00     0.046 C 
BRANCH  18  19
HETATM   19  C7  UNL     1     -12.253  -0.664  -2.334  1.00  0.00     0.005 C 
BRANCH  19  20
HETATM   20  C8  UNL     1     -11.106  -0.108  -1.535  1.00  0.00     0.005 C 
BRANCH  20  21
HETATM   21  C9  UNL     1     -10.162   0.628  -2.461  1.00  0.00    -0.014 C 
HETATM   22  C10 UNL     1      -9.643   1.926  -1.920  1.00  0.00     0.005 C 
HETATM   23  C11 UNL     1     -10.094   2.614  -3.183  1.00  0.00     0.001 C 
HETATM   24  C12 UNL     1     -10.873   1.379  -3.551  1.00  0.00     0.005 C 
ENDBRANCH  20  21
ENDBRANCH  19  20
ENDBRANCH  18  19
ENDBRANCH   6  18
BRANCH   1  25
HETATM   25  N1  UNL     1     -15.938  -5.716  -0.973  1.00  0.00    -0.226 N 
HETATM   26  C1  UNL     1     -16.126  -6.232   0.366  1.00  0.00     0.168 C 
HETATM   27  C2  UNL     1     -16.368  -6.515  -2.086  1.00  0.00     0.168 C 
ENDBRANCH   1  25
TORSDOF 7
ENDMDL
MODEL 4
REMARK VINA RESULT: -6.775771133      2.149      7.176
REMARK  7 active torsions:
REMARK  status: ('A' for Active; 'I' for Inactive)
REMARK    1  A    between atoms: N1_2  and  C3_4 
REMARK    2  A    between atoms: C5_9  and  C6_10 
REMARK    3  A    between atoms: C6_10  and  C7_11 
REMARK    4  A    between atoms: C7_11  and  C8_12 
REMARK    5  A    between atoms: C8_12  and  C9_13 
REMARK    6  A    between atoms: C13_17  and  N4_18 
REMARK    7  A    between atoms: N4_18  and  C14_20 
ROOT
HETATM    1  C3  UNL     1     -13.276  -3.299   0.971  1.00  0.00     0.682 A 
HETATM    2  N2  UNL     1     -12.353  -2.319   1.204  1.00  0.00    -0.178 N 
ATOM      3  H2  UNL     1     -11.836  -2.349   2.083  1.00  0.00     0.185 HD
HETATM    4  C4  UNL     1     -12.086  -1.323   0.352  1.00  0.00     0.141 A 
HETATM    5  N3  UNL     1     -11.095  -0.337   0.671  1.00  0.00    -0.081 NA
HETATM    6  C5  UNL     1     -12.788  -1.288  -0.834  1.00  0.00     0.028 A 
HETATM    7  C13 UNL     1     -13.741  -2.268  -1.117  1.00  0.00     0.127 A 
HETATM    8  N5  UNL     1     -13.938  -3.229  -0.198  1.00  0.00    -0.176 N 
ATOM      9  H5  UNL     1     -14.633  -3.949  -0.398  1.00  0.00     0.186 HD
ENDROOT
BRANCH   7  10
HETATM   10  N4  UNL     1     -14.385  -2.240  -2.202  1.00  0.00    -0.371 N 
ATOM     11  H4  UNL     1     -13.945  -1.732  -2.968  1.00  0.00     0.161 HD
BRANCH  10  12
HETATM   12  C14 UNL     1     -15.657  -2.832  -2.491  1.00  0.00     0.083 C 
HETATM   13  C15 UNL     1     -15.376  -4.153  -3.207  1.00  0.00     0.025 C 
HETATM   14  C16 UNL     1     -16.657  -4.792  -3.686  1.00  0.00     0.002 C 
HETATM   15  C17 UNL     1     -17.252  -3.936  -4.779  1.00  0.00     0.000 C 
HETATM   16  C18 UNL     1     -16.652  -2.551  -4.786  1.00  0.00     0.002 C 
HETATM   17  C19 UNL     1     -16.497  -1.963  -3.406  1.00  0.00     0.025 C 
ENDBRANCH  10  12
ENDBRANCH   7  10
BRANCH   6  18
HETATM   18  C6  UNL     1     -12.563  -0.201  -1.800  1.00  0.00     0.046 C 
BRANCH  18  19
HETATM   19  C7  UNL     1     -11.528  -0.531  -2.833  1.00  0.00     0.005 C 
BRANCH  19  20
HETATM   20  C8  UNL     1     -10.231   0.174  -2.542  1.00  0.00     0.005 C 
BRANCH  20  21
HETATM   21  C9  UNL     1     -10.453   1.670  -2.600  1.00  0.00    -0.014 C 
HETATM   22  C10 UNL     1     -10.840   2.192  -3.951  1.00  0.00     0.005 C 
HETATM   23  C11 UNL     1      -9.719   3.197  -3.867  1.00  0.00     0.001 C 
HETATM   24  C12 UNL     1      -9.172   2.452  -2.678  1.00  0.00     0.005 C 
ENDBRANCH  20  21
ENDBRANCH  19  20
ENDBRANCH  18  19
ENDBRANCH   6  18
BRANCH   1  25
HETATM   25  N1  UNL     1     -13.485  -4.318   1.940  1.00  0.00    -0.226 N 
HETATM   26  C1  UNL     1     -14.765  -4.992   1.996  1.00  0.00     0.168 C 
HETATM   27  C2  UNL     1     -12.458  -4.712   2.864  1.00  0.00     0.168 C 
ENDBRANCH   1  25
TORSDOF 7
ENDMDL
MODEL 5
REMARK VINA RESULT: -6.573538822      2.401      7.185
REMARK  7 active torsions:
REMARK  status: ('A' for Active; 'I' for Inactive)
REMARK    1  A    between atoms: N1_2  and  C3_4 
REMARK    2  A    between atoms: C5_9  and  C6_10 
REMARK    3  A    between atoms: C6_10  and  C7_11 
REMARK    4  A    between atoms: C7_11  and  C8_12 
REMARK    5  A    between atoms: C8_12  and  C9_13 
REMARK    6  A    between atoms: C13_17  and  N4_18 
REMARK    7  A    between atoms: N4_18  and  C14_20 
ROOT
HETATM    1  C3  UNL     1     -13.354  -3.763   1.499  1.00  0.00     0.682 A 
HETATM    2  N2  UNL     1     -12.430  -2.759   1.559  1.00  0.00    -0.178 N 
ATOM      3  H2  UNL     1     -11.775  -2.757   2.342  1.00  0.00     0.185 HD
HETATM    4  C4  UNL     1     -12.328  -1.779   0.654  1.00  0.00     0.141 A 
HETATM    5  N3  UNL     1     -11.323  -0.765   0.787  1.00  0.00    -0.081 NA
HETATM    6  C5  UNL     1     -13.215  -1.787  -0.402  1.00  0.00     0.028 A 
HETATM    7  C13 UNL     1     -14.178  -2.793  -0.505  1.00  0.00     0.127 A 
HETATM    8  N5  UNL     1     -14.200  -3.735   0.453  1.00  0.00    -0.176 N 
ATOM      9  H5  UNL     1     -14.900  -4.473   0.384  1.00  0.00     0.186 HD
ENDROOT
BRANCH   7  10
HETATM   10  N4  UNL     1     -14.990  -2.804  -1.470  1.00  0.00    -0.371 N 
ATOM     11  H4  UNL     1     -15.723  -2.095  -1.445  1.00  0.00     0.161 HD
BRANCH  10  12
HETATM   12  C14 UNL     1     -15.013  -3.688  -2.598  1.00  0.00     0.083 C 
HETATM   13  C15 UNL     1     -16.151  -3.218  -3.504  1.00  0.00     0.025 C 
HETATM   14  C16 UNL     1     -16.353  -4.172  -4.656  1.00  0.00     0.002 C 
HETATM   15  C17 UNL     1     -16.871  -5.485  -4.117  1.00  0.00     0.000 C 
HETATM   16  C18 UNL     1     -16.650  -5.600  -2.629  1.00  0.00     0.002 C 
HETATM   17  C19 UNL     1     -15.288  -5.124  -2.192  1.00  0.00     0.025 C 
ENDBRANCH  10  12
ENDBRANCH   7  10
BRANCH   6  18
HETATM   18  C6  UNL     1     -13.176  -0.719  -1.414  1.00  0.00     0.046 C 
BRANCH  18  19
HETATM   19  C7  UNL     1     -12.026  -0.848  -2.367  1.00  0.00     0.005 C 
BRANCH  19  20
HETATM   20  C8  UNL     1     -11.733   0.466  -3.039  1.00  0.00     0.005 C 
BRANCH  20  21
HETATM   21  C9  UNL     1     -10.266   0.798  -2.872  1.00  0.00    -0.014 C 
HETATM   22  C10 UNL     1      -9.893   1.304  -1.511  1.00  0.00     0.005 C 
HETATM   23  C11 UNL     1      -9.237   2.500  -2.154  1.00  0.00     0.001 C 
HETATM   24  C12 UNL     1      -9.894   2.130  -3.457  1.00  0.00     0.005 C 
ENDBRANCH  20  21
ENDBRANCH  19  20
ENDBRANCH  18  19
ENDBRANCH   6  18
BRANCH   1  25
HETATM   25  N1  UNL     1     -13.379  -4.762   2.510  1.00  0.00    -0.226 N 
HETATM   26  C1  UNL     1     -12.179  -5.028   3.275  1.00  0.00     0.168 C 
HETATM   27  C2  UNL     1     -14.565  -5.515   2.807  1.00  0.00     0.168 C 
ENDBRANCH   1  25
TORSDOF 7
ENDMDL
