MODEL 1
REMARK VINA RESULT: -6.679547841      0.000      0.000
REMARK  7 active torsions:
REMARK  status: ('A' for Active; 'I' for Inactive)
REMARK    1  A    between atoms: C3_5  and  C4_6 
REMARK    2  A    between atoms: C8_11  and  C9_12 
REMARK       I    between atoms: C9_12  and  N2_14 
REMARK    3  A    between atoms: N2_14  and  C10_16 
REMARK    4  A    between atoms: C10_16  and  C11_17 
REMARK    5  A    between atoms: C11_17  and  C12_18 
REMARK    6  A    between atoms: C12_18  and  N3_19 
REMARK    7  A    between atoms: N3_19  and  C13_21 
ROOT
HETATM    1  C9  UNL     1     -15.626  -4.326  -2.919  1.00  0.00     0.277 C 
HETATM    2  O2  UNL     1     -14.981  -5.265  -3.530  1.00  0.00    -0.265 OA
HETATM    3  N2  UNL     1     -15.693  -4.378  -1.512  1.00  0.00    -0.355 N 
ATOM      4  H2  UNL     1     -16.213  -3.675  -0.988  1.00  0.00     0.162 HD
ENDROOT
BRANCH   1   5
HETATM    5  C8  UNL     1     -16.232  -3.286  -3.738  1.00  0.00     0.167 A 
HETATM    6  C2  UNL     1     -16.827  -3.363  -4.970  1.00  0.00     0.046 A 
HETATM    7  C1  UNL     1     -17.051  -4.570  -5.804  1.00  0.00     0.071 C 
HETATM    8  N1  UNL     1     -17.206  -2.114  -5.270  1.00  0.00    -0.341 N 
HETATM    9  C3  UNL     1     -16.867  -1.267  -4.265  1.00  0.00     0.132 A 
ATOM     10  H1  UNL     1     -17.681  -1.839  -6.129  1.00  0.00     0.167 HD
HETATM   11  O1  UNL     1     -16.289  -2.008  -3.372  1.00  0.00    -0.289 OA
BRANCH   9  12
HETATM   12  C4  UNL     1     -17.134   0.212  -4.252  1.00  0.00     0.014 C 
HETATM   13  C5  UNL     1     -18.475   0.491  -3.618  1.00  0.00     0.023 C 
HETATM   14  C6  UNL     1     -16.062   0.984  -3.555  1.00  0.00     0.023 C 
HETATM   15  C7  UNL     1     -17.188   0.676  -5.711  1.00  0.00     0.023 C 
ENDBRANCH   9  12
ENDBRANCH   1   5
BRANCH   3  16
HETATM   16  C10 UNL     1     -14.993  -5.473  -0.817  1.00  0.00     0.124 C 
BRANCH  16  17
HETATM   17  C11 UNL     1     -14.286  -4.967   0.406  1.00  0.00     0.039 C 
BRANCH  17  18
HETATM   18  C12 UNL     1     -14.375  -3.427   0.461  1.00  0.00     0.115 C 
BRANCH  18  19
HETATM   19  N3  UNL     1     -13.094  -2.845   0.376  1.00  0.00    -0.417 N 
ATOM     20  H3  UNL     1     -12.261  -3.428   0.457  1.00  0.00     0.153 HD
BRANCH  19  21
HETATM   21  C13 UNL     1     -12.966  -1.450   0.178  1.00  0.00     0.076 C 
HETATM   22  C14 UNL     1     -13.484  -0.935  -1.132  1.00  0.00     0.024 C 
HETATM   23  C15 UNL     1     -12.527  -0.850  -2.257  1.00  0.00     0.002 C 
HETATM   24  C16 UNL     1     -11.202  -0.301  -1.809  1.00  0.00     0.000 C 
HETATM   25  C17 UNL     1     -11.301   0.251  -0.382  1.00  0.00     0.002 C 
HETATM   26  C18 UNL     1     -11.622  -0.885   0.574  1.00  0.00     0.024 C 
ENDBRANCH  19  21
ENDBRANCH  18  19
ENDBRANCH  17  18
ENDBRANCH  16  17
ENDBRANCH   3  16
TORSDOF 7
ENDMDL
MODEL 2
REMARK VINA RESULT: -6.652038730      2.729      4.101
REMARK  7 active torsions:
REMARK  status: ('A' for Active; 'I' for Inactive)
REMARK    1  A    between atoms: C3_5  and  C4_6 
REMARK    2  A    between atoms: C8_11  and  C9_12 
REMARK       I    between atoms: C9_12  and  N2_14 
REMARK    3  A    between atoms: N2_14  and  C10_16 
REMARK    4  A    between atoms: C10_16  and  C11_17 
REMARK    5  A    between atoms: C11_17  and  C12_18 
REMARK    6  A    between atoms: C12_18  and  N3_19 
REMARK    7  A    between atoms: N3_19  and  C13_21 
ROOT
HETATM    1  C9  UNL     1     -13.959  -2.018  -1.481  1.00  0.00     0.277 C 
HETATM    2  O2  UNL     1     -14.108  -2.671  -0.375  1.00  0.00    -0.265 OA
HETATM    3  N2  UNL     1     -12.783  -1.257  -1.646  1.00  0.00    -0.355 N 
ATOM      4  H2  UNL     1     -12.633  -0.704  -2.489  1.00  0.00     0.162 HD
ENDROOT
BRANCH   1   5
HETATM    5  C8  UNL     1     -15.022  -2.122  -2.471  1.00  0.00     0.167 A 
HETATM    6  C2  UNL     1     -15.547  -3.224  -3.094  1.00  0.00     0.046 A 
HETATM    7  C1  UNL     1     -15.186  -4.649  -2.890  1.00  0.00     0.071 C 
HETATM    8  N1  UNL     1     -16.495  -2.758  -3.917  1.00  0.00    -0.341 N 
HETATM    9  C3  UNL     1     -16.574  -1.406  -3.825  1.00  0.00     0.132 A 
ATOM     10  H1  UNL     1     -17.074  -3.336  -4.526  1.00  0.00     0.167 HD
HETATM   11  O1  UNL     1     -15.678  -1.069  -2.950  1.00  0.00    -0.289 OA
BRANCH   9  12
HETATM   12  C4  UNL     1     -17.526  -0.540  -4.602  1.00  0.00     0.014 C 
HETATM   13  C5  UNL     1     -18.491   0.142  -3.663  1.00  0.00     0.023 C 
HETATM   14  C6  UNL     1     -16.822   0.473  -5.446  1.00  0.00     0.023 C 
HETATM   15  C7  UNL     1     -18.326  -1.462  -5.527  1.00  0.00     0.023 C 
ENDBRANCH   9  12
ENDBRANCH   1   5
BRANCH   3  16
HETATM   16  C10 UNL     1     -11.776  -1.282  -0.570  1.00  0.00     0.124 C 
BRANCH  16  17
HETATM   17  C11 UNL     1     -11.263   0.098  -0.283  1.00  0.00     0.039 C 
BRANCH  17  18
HETATM   18  C12 UNL     1      -9.938   0.331  -1.042  1.00  0.00     0.115 C 
BRANCH  18  19
HETATM   19  N3  UNL     1      -9.785   1.691  -1.383  1.00  0.00    -0.417 N 
ATOM     20  H3  UNL     1      -9.678   2.392  -0.650  1.00  0.00     0.153 HD
BRANCH  19  21
HETATM   21  C13 UNL     1      -9.781   2.079  -2.743  1.00  0.00     0.076 C 
HETATM   22  C14 UNL     1      -9.531   3.536  -2.996  1.00  0.00     0.024 C 
HETATM   23  C15 UNL     1     -10.711   4.424  -3.087  1.00  0.00     0.002 C 
HETATM   24  C16 UNL     1     -11.811   3.793  -3.894  1.00  0.00     0.000 C 
HETATM   25  C17 UNL     1     -11.306   2.530  -4.602  1.00  0.00     0.002 C 
HETATM   26  C18 UNL     1     -10.909   1.496  -3.561  1.00  0.00     0.024 C 
ENDBRANCH  19  21
ENDBRANCH  18  19
ENDBRANCH  17  18
ENDBRANCH  16  17
ENDBRANCH   3  16
TORSDOF 7
ENDMDL
MODEL 3
REMARK VINA RESULT: -6.534985779      4.318      8.233
REMARK  7 active torsions:
REMARK  status: ('A' for Active; 'I' for Inactive)
REMARK    1  A    between atoms: C3_5  and  C4_6 
REMARK    2  A    between atoms: C8_11  and  C9_12 
REMARK       I    between atoms: C9_12  and  N2_14 
REMARK    3  A    between atoms: N2_14  and  C10_16 
REMARK    4  A    between atoms: C10_16  and  C11_17 
REMARK    5  A    between atoms: C11_17  and  C12_18 
REMARK    6  A    between atoms: C12_18  and  N3_19 
REMARK    7  A    between atoms: N3_19  and  C13_21 
ROOT
HETATM    1  C9  UNL     1     -13.128  -3.968   1.775  1.00  0.00     0.277 C 
HETATM    2  O2  UNL     1     -14.401  -4.169   1.876  1.00  0.00    -0.265 OA
HETATM    3  N2  UNL     1     -12.683  -3.001   0.851  1.00  0.00    -0.355 N 
ATOM      4  H2  UNL     1     -11.687  -2.827   0.716  1.00  0.00     0.162 HD
ENDROOT
BRANCH   1   5
HETATM    5  C8  UNL     1     -12.254  -4.760   2.630  1.00  0.00     0.167 A 
HETATM    6  C2  UNL     1     -11.723  -6.009   2.437  1.00  0.00     0.046 A 
HETATM    7  C1  UNL     1     -11.871  -6.895   1.256  1.00  0.00     0.071 C 
HETATM    8  N1  UNL     1     -10.999  -6.268   3.535  1.00  0.00    -0.341 N 
HETATM    9  C3  UNL     1     -11.064  -5.222   4.398  1.00  0.00     0.132 A 
ATOM     10  H1  UNL     1     -10.475  -7.127   3.698  1.00  0.00     0.167 HD
HETATM   11  O1  UNL     1     -11.823  -4.345   3.818  1.00  0.00    -0.289 OA
BRANCH   9  12
HETATM   12  C4  UNL     1     -10.377  -5.158   5.732  1.00  0.00     0.014 C 
HETATM   13  C5  UNL     1     -11.151  -4.267   6.673  1.00  0.00     0.023 C 
HETATM   14  C6  UNL     1     -10.180  -6.508   6.343  1.00  0.00     0.023 C 
HETATM   15  C7  UNL     1      -8.998  -4.531   5.503  1.00  0.00     0.023 C 
ENDBRANCH   9  12
ENDBRANCH   1   5
BRANCH   3  16
HETATM   16  C10 UNL     1     -13.691  -2.248   0.084  1.00  0.00     0.124 C 
BRANCH  16  17
HETATM   17  C11 UNL     1     -13.099  -0.997  -0.496  1.00  0.00     0.039 C 
BRANCH  17  18
HETATM   18  C12 UNL     1     -12.728  -1.233  -1.976  1.00  0.00     0.115 C 
BRANCH  18  19
HETATM   19  N3  UNL     1     -12.439  -0.014  -2.623  1.00  0.00    -0.417 N 
ATOM     20  H3  UNL     1     -13.189   0.648  -2.825  1.00  0.00     0.153 HD
BRANCH  19  21
HETATM   21  C13 UNL     1     -11.107   0.290  -2.992  1.00  0.00     0.076 C 
HETATM   22  C14 UNL     1     -10.071   0.016  -1.944  1.00  0.00     0.024 C 
HETATM   23  C15 UNL     1      -9.721   1.122  -1.026  1.00  0.00     0.002 C 
HETATM   24  C16 UNL     1      -9.585   2.424  -1.764  1.00  0.00     0.000 C 
HETATM   25  C17 UNL     1      -9.595   2.190  -3.279  1.00  0.00     0.002 C 
HETATM   26  C18 UNL     1     -10.942   1.619  -3.690  1.00  0.00     0.024 C 
ENDBRANCH  19  21
ENDBRANCH  18  19
ENDBRANCH  17  18
ENDBRANCH  16  17
ENDBRANCH   3  16
TORSDOF 7
ENDMDL
MODEL 4
REMARK VINA RESULT: -6.260197735      1.411      2.181
REMARK  7 active torsions:
REMARK  status: ('A' for Active; 'I' for Inactive)
REMARK    1  A    between atoms: C3_5  and  C4_6 
REMARK    2  A    between atoms: C8_11  and  C9_12 
REMARK       I    between atoms: C9_12  and  N2_14 
REMARK    3  A    between atoms: N2_14  and  C10_16 
REMARK    4  A    between atoms: C10_16  and  C11_17 
REMARK    5  A    between atoms: C11_17  and  C12_18 
REMARK    6  A    between atoms: C12_18  and  N3_19 
REMARK    7  A    between atoms: N3_19  and  C13_21 
ROOT
HETATM    1  C9  UNL     1     -15.094  -3.237  -2.216  1.00  0.00     0.277 C 
HETATM    2  O2  UNL     1     -14.714  -4.464  -2.362  1.00  0.00    -0.265 OA
HETATM    3  N2  UNL     1     -14.690  -2.554  -1.051  1.00  0.00    -0.355 N 
ATOM      4  H2  UNL     1     -14.988  -1.595  -0.878  1.00  0.00     0.162 HD
ENDROOT
BRANCH   1   5
HETATM    5  C8  UNL     1     -15.914  -2.658  -3.272  1.00  0.00     0.167 A 
HETATM    6  C2  UNL     1     -16.449  -3.235  -4.393  1.00  0.00     0.046 A 
HETATM    7  C1  UNL     1     -16.366  -4.653  -4.822  1.00  0.00     0.071 C 
HETATM    8  N1  UNL     1     -17.107  -2.255  -5.027  1.00  0.00    -0.341 N 
HETATM    9  C3  UNL     1     -16.997  -1.092  -4.335  1.00  0.00     0.132 A 
ATOM     10  H1  UNL     1     -17.617  -2.366  -5.903  1.00  0.00     0.167 HD
HETATM   11  O1  UNL     1     -16.277  -1.379  -3.295  1.00  0.00    -0.289 OA
BRANCH   9  12
HETATM   12  C4  UNL     1     -17.607   0.219  -4.744  1.00  0.00     0.014 C 
HETATM   13  C5  UNL     1     -19.091   0.055  -4.962  1.00  0.00     0.023 C 
HETATM   14  C6  UNL     1     -17.347   1.307  -3.754  1.00  0.00     0.023 C 
HETATM   15  C7  UNL     1     -16.968   0.621  -6.076  1.00  0.00     0.023 C 
ENDBRANCH   9  12
ENDBRANCH   1   5
BRANCH   3  16
HETATM   16  C10 UNL     1     -13.826  -3.261  -0.089  1.00  0.00     0.124 C 
BRANCH  16  17
HETATM   17  C11 UNL     1     -12.856  -2.315   0.557  1.00  0.00     0.039 C 
BRANCH  17  18
HETATM   18  C12 UNL     1     -13.185  -0.865   0.140  1.00  0.00     0.115 C 
BRANCH  18  19
HETATM   19  N3  UNL     1     -12.009  -0.098   0.012  1.00  0.00    -0.417 N 
ATOM     20  H3  UNL     1     -11.794   0.626   0.697  1.00  0.00     0.153 HD
BRANCH  19  21
HETATM   21  C13 UNL     1     -11.127  -0.337  -1.068  1.00  0.00     0.076 C 
HETATM   22  C14 UNL     1      -9.862   0.468  -1.057  1.00  0.00     0.024 C 
HETATM   23  C15 UNL     1      -9.871   1.759  -1.779  1.00  0.00     0.002 C 
HETATM   24  C16 UNL     1     -10.567   1.641  -3.106  1.00  0.00     0.000 C 
HETATM   25  C17 UNL     1     -10.841   0.171  -3.443  1.00  0.00     0.002 C 
HETATM   26  C18 UNL     1     -11.801  -0.409  -2.418  1.00  0.00     0.024 C 
ENDBRANCH  19  21
ENDBRANCH  18  19
ENDBRANCH  17  18
ENDBRANCH  16  17
ENDBRANCH   3  16
TORSDOF 7
ENDMDL
MODEL 5
REMARK VINA RESULT: -6.187827579      4.458      7.790
REMARK  7 active torsions:
REMARK  status: ('A' for Active; 'I' for Inactive)
REMARK    1  A    between atoms: C3_5  and  C4_6 
REMARK    2  A    between atoms: C8_11  and  C9_12 
REMARK       I    between atoms: C9_12  and  N2_14 
REMARK    3  A    between atoms: N2_14  and  C10_16 
REMARK    4  A    between atoms: C10_16  and  C11_17 
REMARK    5  A    between atoms: C11_17  and  C12_18 
REMARK    6  A    between atoms: C12_18  and  N3_19 
REMARK    7  A    between atoms: N3_19  and  C13_21 
ROOT
HETATM    1  C9  UNL     1     -13.092  -2.794   0.769  1.00  0.00     0.277 C 
HETATM    2  O2  UNL     1     -14.275  -2.363   0.471  1.00  0.00    -0.265 OA
HETATM    3  N2  UNL     1     -11.984  -2.082   0.267  1.00  0.00    -0.355 N 
ATOM      4  H2  UNL     1     -11.033  -2.399   0.452  1.00  0.00     0.162 HD
ENDROOT
BRANCH   1   5
HETATM    5  C8  UNL     1     -13.003  -3.985   1.603  1.00  0.00     0.167 A 
HETATM    6  C2  UNL     1     -13.498  -5.246   1.400  1.00  0.00     0.046 A 
HETATM    7  C1  UNL     1     -14.248  -5.758   0.227  1.00  0.00     0.071 C 
HETATM    8  N1  UNL     1     -13.139  -5.955   2.479  1.00  0.00    -0.341 N 
HETATM    9  C3  UNL     1     -12.437  -5.174   3.340  1.00  0.00     0.132 A 
ATOM     10  H1  UNL     1     -13.360  -6.938   2.631  1.00  0.00     0.167 HD
HETATM   11  O1  UNL     1     -12.379  -4.008   2.777  1.00  0.00    -0.289 OA
BRANCH   9  12
HETATM   12  C4  UNL     1     -11.872  -5.630   4.656  1.00  0.00     0.014 C 
HETATM   13  C5  UNL     1     -10.793  -4.680   5.114  1.00  0.00     0.023 C 
HETATM   14  C6  UNL     1     -12.919  -5.772   5.713  1.00  0.00     0.023 C 
HETATM   15  C7  UNL     1     -11.235  -7.004   4.425  1.00  0.00     0.023 C 
ENDBRANCH   9  12
ENDBRANCH   1   5
BRANCH   3  16
HETATM   16  C10 UNL     1     -12.233  -0.869  -0.531  1.00  0.00     0.124 C 
BRANCH  16  17
HETATM   17  C11 UNL     1     -11.318   0.245  -0.114  1.00  0.00     0.039 C 
BRANCH  17  18
HETATM   18  C12 UNL     1     -10.088   0.287  -1.046  1.00  0.00     0.115 C 
BRANCH  18  19
HETATM   19  N3  UNL     1      -9.745   1.616  -1.368  1.00  0.00    -0.417 N 
ATOM     20  H3  UNL     1      -9.509   2.277  -0.628  1.00  0.00     0.153 HD
BRANCH  19  21
HETATM   21  C13 UNL     1      -9.727   2.030  -2.721  1.00  0.00     0.076 C 
HETATM   22  C14 UNL     1      -9.449   3.486  -2.945  1.00  0.00     0.024 C 
HETATM   23  C15 UNL     1     -10.611   4.398  -3.023  1.00  0.00     0.002 C 
HETATM   24  C16 UNL     1     -11.720   3.804  -3.846  1.00  0.00     0.000 C 
HETATM   25  C17 UNL     1     -11.236   2.546  -4.576  1.00  0.00     0.002 C 
HETATM   26  C18 UNL     1     -10.863   1.485  -3.554  1.00  0.00     0.024 C 
ENDBRANCH  19  21
ENDBRANCH  18  19
ENDBRANCH  17  18
ENDBRANCH  16  17
ENDBRANCH   3  16
TORSDOF 7
ENDMDL
