MODEL 1
REMARK VINA RESULT: -6.426537377      0.000      0.000
REMARK  3 active torsions:
REMARK  status: ('A' for Active; 'I' for Inactive)
REMARK    1  A    between atoms: C9_10  and  C10_11 
REMARK    2  A    between atoms: C10_11  and  O2_12 
REMARK    3  A    between atoms: C10_11  and  C11_14 
ROOT
HETATM    1  C1  UNL     1     -14.219  21.408   8.563  1.00  0.00     0.013 C 
HETATM    2  C2  UNL     1     -13.797  22.734   9.171  1.00  0.00     0.017 C 
HETATM    3  C3  UNL     1     -12.587  22.600  10.035  1.00  0.00    -0.008 C 
HETATM    4  C4  UNL     1     -12.935  21.903  11.323  1.00  0.00     0.007 C 
HETATM    5  C5  UNL     1     -13.755  22.728  12.254  1.00  0.00     0.032 C 
HETATM    6  C6  UNL     1     -13.762  24.149  11.793  1.00  0.00     0.122 C 
HETATM    7  C7  UNL     1     -12.297  24.534  11.539  1.00  0.00     0.032 C 
HETATM    8  C8  UNL     1     -11.928  23.919  10.211  1.00  0.00     0.007 C 
HETATM    9  O1  UNL     1     -14.538  24.406  10.703  1.00  0.00    -0.377 OA
HETATM   10  C9  UNL     1     -14.939  23.328   9.971  1.00  0.00     0.159 C 
ENDROOT
BRANCH  10  11
HETATM   11  C10 UNL     1     -15.954  23.827   8.933  1.00  0.00     0.183 C 
BRANCH  11  12
HETATM   12  O2  UNL     1     -15.286  24.781   8.172  1.00  0.00    -0.388 OA
ATOM     13  H2  UNL     1     -15.961  25.286   7.735  1.00  0.00     0.210 HD
ENDBRANCH  11  12
BRANCH  11  14
HETATM   14  C11 UNL     1     -17.132  24.410   9.603  1.00  0.00     0.015 A 
HETATM   15  C12 UNL     1     -17.168  25.603  10.282  1.00  0.00     0.126 A 
HETATM   16  N1  UNL     1     -18.432  25.728  10.721  1.00  0.00    -0.272 N 
HETATM   17  O3  UNL     1     -19.124  24.695  10.343  1.00  0.00    -0.250 OA
ATOM     18  H1  UNL     1     -18.792  26.512  11.266  1.00  0.00     0.193 HD
HETATM   19  C13 UNL     1     -18.390  23.854   9.657  1.00  0.00     0.178 A 
ENDBRANCH  11  14
ENDBRANCH  10  11
TORSDOF 3
ENDMDL
MODEL 2
REMARK VINA RESULT: -5.823308284      3.713      5.749
REMARK  3 active torsions:
REMARK  status: ('A' for Active; 'I' for Inactive)
REMARK    1  A    between atoms: C9_10  and  C10_11 
REMARK    2  A    between atoms: C10_11  and  O2_12 
REMARK    3  A    between atoms: C10_11  and  C11_14 
ROOT
HETATM    1  C1  UNL     1     -10.448  21.562  10.895  1.00  0.00     0.013 C 
HETATM    2  C2  UNL     1     -11.361  22.494  11.672  1.00  0.00     0.017 C 
HETATM    3  C3  UNL     1     -12.745  21.947  11.805  1.00  0.00    -0.008 C 
HETATM    4  C4  UNL     1     -13.470  22.024  10.488  1.00  0.00     0.007 C 
HETATM    5  C5  UNL     1     -13.840  23.410  10.083  1.00  0.00     0.032 C 
HETATM    6  C6  UNL     1     -13.663  24.337  11.241  1.00  0.00     0.122 C 
HETATM    7  C7  UNL     1     -14.377  23.687  12.436  1.00  0.00     0.032 C 
HETATM    8  C8  UNL     1     -13.454  22.602  12.934  1.00  0.00     0.007 C 
HETATM    9  O1  UNL     1     -12.373  24.651  11.547  1.00  0.00    -0.377 OA
HETATM   10  C9  UNL     1     -11.407  23.855  11.007  1.00  0.00     0.159 C 
ENDROOT
BRANCH  10  11
HETATM   11  C10 UNL     1     -10.050  24.507  11.309  1.00  0.00     0.183 C 
BRANCH  11  12
HETATM   12  O2  UNL     1     -10.219  25.207  12.499  1.00  0.00    -0.388 OA
ATOM     13  H2  UNL     1     -10.159  26.127  12.272  1.00  0.00     0.210 HD
ENDBRANCH  11  12
BRANCH  11  14
HETATM   14  C11 UNL     1      -9.657  25.411  10.211  1.00  0.00     0.015 A 
HETATM   15  C12 UNL     1      -9.021  26.620  10.348  1.00  0.00     0.126 A 
HETATM   16  N1  UNL     1      -8.866  27.087   9.097  1.00  0.00    -0.272 N 
HETATM   17  O3  UNL     1      -9.366  26.234   8.253  1.00  0.00    -0.250 OA
ATOM     18  H1  UNL     1      -8.424  27.972   8.849  1.00  0.00     0.193 HD
HETATM   19  C13 UNL     1      -9.864  25.190   8.868  1.00  0.00     0.178 A 
ENDBRANCH  11  14
ENDBRANCH  10  11
TORSDOF 3
ENDMDL
MODEL 3
REMARK VINA RESULT: -5.695140901      3.337      4.437
REMARK  3 active torsions:
REMARK  status: ('A' for Active; 'I' for Inactive)
REMARK    1  A    between atoms: C9_10  and  C10_11 
REMARK    2  A    between atoms: C10_11  and  O2_12 
REMARK    3  A    between atoms: C10_11  and  C11_14 
ROOT
HETATM    1  C1  UNL     1     -10.585  21.438  10.313  1.00  0.00     0.013 C 
HETATM    2  C2  UNL     1     -11.589  22.576  10.366  1.00  0.00     0.017 C 
HETATM    3  C3  UNL     1     -11.507  23.343  11.645  1.00  0.00    -0.008 C 
HETATM    4  C4  UNL     1     -12.076  22.535  12.780  1.00  0.00     0.007 C 
HETATM    5  C5  UNL     1     -13.558  22.385  12.731  1.00  0.00     0.032 C 
HETATM    6  C6  UNL     1     -14.127  23.337  11.729  1.00  0.00     0.122 C 
HETATM    7  C7  UNL     1     -13.520  24.714  12.039  1.00  0.00     0.032 C 
HETATM    8  C8  UNL     1     -12.118  24.687  11.483  1.00  0.00     0.007 C 
HETATM    9  O1  UNL     1     -13.937  22.995  10.424  1.00  0.00    -0.377 OA
HETATM   10  C9  UNL     1     -12.994  22.042  10.174  1.00  0.00     0.159 C 
ENDROOT
BRANCH  10  11
HETATM   11  C10 UNL     1     -13.095  21.673   8.687  1.00  0.00     0.183 C 
BRANCH  11  12
HETATM   12  O2  UNL     1     -13.973  22.593   8.124  1.00  0.00    -0.388 OA
ATOM     13  H2  UNL     1     -13.492  23.409   8.062  1.00  0.00     0.210 HD
ENDBRANCH  11  12
BRANCH  11  14
HETATM   14  C11 UNL     1     -13.597  20.294   8.532  1.00  0.00     0.015 A 
HETATM   15  C12 UNL     1     -14.553  19.877   7.639  1.00  0.00     0.126 A 
HETATM   16  N1  UNL     1     -14.690  18.557   7.851  1.00  0.00    -0.272 N 
HETATM   17  O3  UNL     1     -13.883  18.186   8.800  1.00  0.00    -0.250 OA
ATOM     18  H1  UNL     1     -15.328  17.942   7.346  1.00  0.00     0.193 HD
HETATM   19  C13 UNL     1     -13.188  19.198   9.258  1.00  0.00     0.178 A 
ENDBRANCH  11  14
ENDBRANCH  10  11
TORSDOF 3
ENDMDL
MODEL 4
REMARK VINA RESULT: -5.694243390      2.099      5.430
REMARK  3 active torsions:
REMARK  status: ('A' for Active; 'I' for Inactive)
REMARK    1  A    between atoms: C9_10  and  C10_11 
REMARK    2  A    between atoms: C10_11  and  O2_12 
REMARK    3  A    between atoms: C10_11  and  C11_14 
ROOT
HETATM    1  C1  UNL     1     -17.507  25.675  11.345  1.00  0.00     0.013 C 
HETATM    2  C2  UNL     1     -17.781  25.279   9.904  1.00  0.00     0.017 C 
HETATM    3  C3  UNL     1     -19.230  25.016   9.656  1.00  0.00    -0.008 C 
HETATM    4  C4  UNL     1     -19.645  23.716  10.292  1.00  0.00     0.007 C 
HETATM    5  C5  UNL     1     -19.101  22.509   9.608  1.00  0.00     0.032 C 
HETATM    6  C6  UNL     1     -18.532  22.895   8.282  1.00  0.00     0.122 C 
HETATM    7  C7  UNL     1     -19.602  23.742   7.576  1.00  0.00     0.032 C 
HETATM    8  C8  UNL     1     -19.533  25.112   8.205  1.00  0.00     0.007 C 
HETATM    9  O1  UNL     1     -17.336  23.546   8.326  1.00  0.00    -0.377 OA
HETATM   10  C9  UNL     1     -16.964  24.058   9.534  1.00  0.00     0.159 C 
ENDROOT
BRANCH  10  11
HETATM   11  C10 UNL     1     -15.517  24.555   9.399  1.00  0.00     0.183 C 
BRANCH  11  12
HETATM   12  O2  UNL     1     -15.203  24.452   8.047  1.00  0.00    -0.388 OA
ATOM     13  H2  UNL     1     -15.230  25.338   7.706  1.00  0.00     0.210 HD
ENDBRANCH  11  12
BRANCH  11  14
HETATM   14  C11 UNL     1     -14.610  23.730  10.220  1.00  0.00     0.015 A 
HETATM   15  C12 UNL     1     -14.378  23.878  11.565  1.00  0.00     0.126 A 
HETATM   16  N1  UNL     1     -13.491  22.919  11.883  1.00  0.00    -0.272 N 
HETATM   17  O3  UNL     1     -13.198  22.231  10.819  1.00  0.00    -0.250 OA
ATOM     18  H1  UNL     1     -13.108  22.755  12.814  1.00  0.00     0.193 HD
HETATM   19  C13 UNL     1     -13.848  22.675   9.771  1.00  0.00     0.178 A 
ENDBRANCH  11  14
ENDBRANCH  10  11
TORSDOF 3
ENDMDL
MODEL 5
REMARK VINA RESULT: -5.677187186      1.722      2.803
REMARK  3 active torsions:
REMARK  status: ('A' for Active; 'I' for Inactive)
REMARK    1  A    between atoms: C9_10  and  C10_11 
REMARK    2  A    between atoms: C10_11  and  O2_12 
REMARK    3  A    between atoms: C10_11  and  C11_14 
ROOT
HETATM    1  C1  UNL     1     -13.669  22.605  12.771  1.00  0.00     0.013 C 
HETATM    2  C2  UNL     1     -12.746  22.469  11.572  1.00  0.00     0.017 C 
HETATM    3  C3  UNL     1     -11.305  22.528  11.960  1.00  0.00    -0.008 C 
HETATM    4  C4  UNL     1     -10.919  23.932  12.339  1.00  0.00     0.007 C 
HETATM    5  C5  UNL     1     -10.855  24.873  11.185  1.00  0.00     0.032 C 
HETATM    6  C6  UNL     1     -10.894  24.103   9.905  1.00  0.00     0.122 C 
HETATM    7  C7  UNL     1      -9.840  22.992  10.030  1.00  0.00     0.032 C 
HETATM    8  C8  UNL     1     -10.459  21.925  10.899  1.00  0.00     0.007 C 
HETATM    9  O1  UNL     1     -12.112  23.594   9.566  1.00  0.00    -0.377 OA
HETATM   10  C9  UNL     1     -13.051  23.549  10.554  1.00  0.00     0.159 C 
ENDROOT
BRANCH  10  11
HETATM   11  C10 UNL     1     -14.382  23.142   9.907  1.00  0.00     0.183 C 
BRANCH  11  12
HETATM   12  O2  UNL     1     -14.111  22.966   8.553  1.00  0.00    -0.388 OA
ATOM     13  H2  UNL     1     -14.941  23.070   8.105  1.00  0.00     0.210 HD
ENDBRANCH  11  12
BRANCH  11  14
HETATM   14  C11 UNL     1     -15.398  24.191  10.114  1.00  0.00     0.015 A 
HETATM   15  C12 UNL     1     -16.356  24.579   9.210  1.00  0.00     0.126 A 
HETATM   16  N1  UNL     1     -17.051  25.554   9.820  1.00  0.00    -0.272 N 
HETATM   17  O3  UNL     1     -16.562  25.754  11.008  1.00  0.00    -0.250 OA
ATOM     18  H1  UNL     1     -17.840  26.059   9.415  1.00  0.00     0.193 HD
HETATM   19  C13 UNL     1     -15.552  24.955  11.249  1.00  0.00     0.178 A 
ENDBRANCH  11  14
ENDBRANCH  10  11
TORSDOF 3
ENDMDL
