MODEL 1
REMARK VINA RESULT: -5.658298846      0.000      0.000
REMARK  3 active torsions:
REMARK  status: ('A' for Active; 'I' for Inactive)
REMARK    1  A    between atoms: C2_2  and  C3_3 
REMARK    2  A    between atoms: C3_3  and  O1_4 
REMARK    3  A    between atoms: C3_3  and  C4_6 
ROOT
HETATM    1  C4  UNL     1     -15.254  24.098  11.580  1.00  0.00     0.189 C 
HETATM    2  C5  UNL     1     -14.434  23.788  10.333  1.00  0.00     0.044 C 
HETATM    3  C6  UNL     1     -13.281  22.898  10.816  1.00  0.00     0.083 C 
HETATM    4  C7  UNL     1     -12.520  23.761  11.833  1.00  0.00     0.258 C 
HETATM    5  O2  UNL     1     -12.400  22.977  12.977  1.00  0.00    -0.347 OA
HETATM    6  C8  UNL     1     -11.201  23.188  13.642  1.00  0.00     0.172 C 
HETATM    7  C9  UNL     1     -10.103  22.322  13.100  1.00  0.00     0.027 C 
HETATM    8  C10 UNL     1      -9.240  23.074  12.093  1.00  0.00     0.010 C 
HETATM    9  C11 UNL     1     -10.086  23.270  10.857  1.00  0.00     0.084 C 
HETATM   10  C12 UNL     1     -11.244  24.120  11.226  1.00  0.00     0.191 C 
HETATM   11  O3  UNL     1     -11.094  25.299  10.981  1.00  0.00    -0.292 OA
HETATM   12  O4  UNL     1     -13.284  24.894  12.052  1.00  0.00    -0.192 OA
HETATM   13  O5  UNL     1     -14.408  24.544  12.607  1.00  0.00    -0.229 OA
ENDROOT
BRANCH   1  14
HETATM   14  C3  UNL     1     -16.209  25.201  11.250  1.00  0.00     0.149 C 
BRANCH  14  15
HETATM   15  C2  UNL     1     -17.021  24.857  10.015  1.00  0.00     0.030 C 
HETATM   16  C1  UNL     1     -18.339  25.593  10.013  1.00  0.00     0.007 C 
ENDBRANCH  14  15
BRANCH  14  17
HETATM   17  O1  UNL     1     -15.519  26.380  11.041  1.00  0.00    -0.393 OA
ATOM     18  H1  UNL     1     -14.617  26.278  11.320  1.00  0.00     0.210 HD
ENDBRANCH  14  17
ENDBRANCH   1  14
TORSDOF 3
ENDMDL
MODEL 2
REMARK VINA RESULT: -5.498350752      5.219      6.800
REMARK  3 active torsions:
REMARK  status: ('A' for Active; 'I' for Inactive)
REMARK    1  A    between atoms: C2_2  and  C3_3 
REMARK    2  A    between atoms: C3_3  and  O1_4 
REMARK    3  A    between atoms: C3_3  and  C4_6 
ROOT
HETATM    1  C4  UNL     1     -13.187  20.846  10.082  1.00  0.00     0.189 C 
HETATM    2  C5  UNL     1     -13.852  21.587   8.928  1.00  0.00     0.044 C 
HETATM    3  C6  UNL     1     -14.643  20.521   8.160  1.00  0.00     0.083 C 
HETATM    4  C7  UNL     1     -13.585  19.511   7.691  1.00  0.00     0.258 C 
HETATM    5  O2  UNL     1     -14.050  18.263   8.096  1.00  0.00    -0.347 OA
HETATM    6  C8  UNL     1     -13.736  17.260   7.192  1.00  0.00     0.172 C 
HETATM    7  C9  UNL     1     -14.767  17.140   6.110  1.00  0.00     0.027 C 
HETATM    8  C10 UNL     1     -14.346  17.886   4.849  1.00  0.00     0.010 C 
HETATM    9  C11 UNL     1     -14.436  19.360   5.167  1.00  0.00     0.084 C 
HETATM   10  C12 UNL     1     -13.461  19.654   6.246  1.00  0.00     0.191 C 
HETATM   11  O3  UNL     1     -12.395  20.080   5.851  1.00  0.00    -0.292 OA
HETATM   12  O4  UNL     1     -12.397  19.854   8.312  1.00  0.00    -0.192 OA
HETATM   13  O5  UNL     1     -12.533  19.701   9.597  1.00  0.00    -0.229 OA
ENDROOT
BRANCH   1  14
HETATM   14  C3  UNL     1     -12.160  21.748  10.690  1.00  0.00     0.149 C 
BRANCH  14  15
HETATM   15  C2  UNL     1     -12.814  22.983  11.282  1.00  0.00     0.030 C 
HETATM   16  C1  UNL     1     -13.491  22.659  12.592  1.00  0.00     0.007 C 
ENDBRANCH  14  15
BRANCH  14  17
HETATM   17  O1  UNL     1     -11.233  22.123   9.736  1.00  0.00    -0.393 OA
ATOM     18  H1  UNL     1     -10.362  21.872  10.019  1.00  0.00     0.210 HD
ENDBRANCH  14  17
ENDBRANCH   1  14
TORSDOF 3
ENDMDL
MODEL 3
REMARK VINA RESULT: -5.453875530      6.830      7.824
REMARK  3 active torsions:
REMARK  status: ('A' for Active; 'I' for Inactive)
REMARK    1  A    between atoms: C2_2  and  C3_3 
REMARK    2  A    between atoms: C3_3  and  O1_4 
REMARK    3  A    between atoms: C3_3  and  C4_6 
ROOT
HETATM    1  C4  UNL     1     -14.886  19.475   4.782  1.00  0.00     0.189 C 
HETATM    2  C5  UNL     1     -15.144  18.532   5.952  1.00  0.00     0.044 C 
HETATM    3  C6  UNL     1     -14.975  19.391   7.211  1.00  0.00     0.083 C 
HETATM    4  C7  UNL     1     -13.522  19.888   7.154  1.00  0.00     0.258 C 
HETATM    5  O2  UNL     1     -13.590  21.268   7.324  1.00  0.00    -0.347 OA
HETATM    6  C8  UNL     1     -12.513  21.768   8.041  1.00  0.00     0.172 C 
HETATM    7  C9  UNL     1     -12.753  21.711   9.521  1.00  0.00     0.027 C 
HETATM    8  C10 UNL     1     -12.111  20.478  10.147  1.00  0.00     0.010 C 
HETATM    9  C11 UNL     1     -12.915  19.288   9.681  1.00  0.00     0.084 C 
HETATM   10  C12 UNL     1     -12.786  19.198   8.206  1.00  0.00     0.191 C 
HETATM   11  O3  UNL     1     -11.929  18.427   7.827  1.00  0.00    -0.292 OA
HETATM   12  O4  UNL     1     -13.025  19.537   5.910  1.00  0.00    -0.192 OA
HETATM   13  O5  UNL     1     -13.690  20.180   4.994  1.00  0.00    -0.229 OA
ENDROOT
BRANCH   1  14
HETATM   14  C3  UNL     1     -14.729  18.653   3.542  1.00  0.00     0.149 C 
BRANCH  14  15
HETATM   15  C2  UNL     1     -14.337  17.228   3.889  1.00  0.00     0.030 C 
HETATM   16  C1  UNL     1     -14.341  16.353   2.659  1.00  0.00     0.007 C 
ENDBRANCH  14  15
BRANCH  14  17
HETATM   17  O1  UNL     1     -13.771  19.214   2.718  1.00  0.00    -0.393 OA
ATOM     18  H1  UNL     1     -13.878  18.887   1.833  1.00  0.00     0.210 HD
ENDBRANCH  14  17
ENDBRANCH   1  14
TORSDOF 3
ENDMDL
MODEL 4
REMARK VINA RESULT: -5.318742400      2.600      3.367
REMARK  3 active torsions:
REMARK  status: ('A' for Active; 'I' for Inactive)
REMARK    1  A    between atoms: C2_2  and  C3_3 
REMARK    2  A    between atoms: C3_3  and  O1_4 
REMARK    3  A    between atoms: C3_3  and  C4_6 
ROOT
HETATM    1  C4  UNL     1     -14.072  24.170  11.237  1.00  0.00     0.189 C 
HETATM    2  C5  UNL     1     -13.783  22.934  12.082  1.00  0.00     0.044 C 
HETATM    3  C6  UNL     1     -12.430  22.410  11.586  1.00  0.00     0.083 C 
HETATM    4  C7  UNL     1     -12.658  22.079  10.103  1.00  0.00     0.258 C 
HETATM    5  O2  UNL     1     -11.636  22.724   9.412  1.00  0.00    -0.347 OA
HETATM    6  C8  UNL     1     -11.200  22.001   8.312  1.00  0.00     0.172 C 
HETATM    7  C9  UNL     1     -10.138  21.008   8.682  1.00  0.00     0.027 C 
HETATM    8  C10 UNL     1     -10.721  19.615   8.891  1.00  0.00     0.010 C 
HETATM    9  C11 UNL     1     -11.520  19.667  10.171  1.00  0.00     0.084 C 
HETATM   10  C12 UNL     1     -12.634  20.628   9.975  1.00  0.00     0.191 C 
HETATM   11  O3  UNL     1     -13.685  20.112   9.656  1.00  0.00    -0.292 OA
HETATM   12  O4  UNL     1     -13.908  22.571   9.769  1.00  0.00    -0.192 OA
HETATM   13  O5  UNL     1     -13.894  23.868   9.877  1.00  0.00    -0.229 OA
ENDROOT
BRANCH   1  14
HETATM   14  C3  UNL     1     -15.502  24.556  11.445  1.00  0.00     0.149 C 
BRANCH  14  15
HETATM   15  C2  UNL     1     -16.127  25.024  10.144  1.00  0.00     0.030 C 
HETATM   16  C1  UNL     1     -17.558  25.454  10.355  1.00  0.00     0.007 C 
ENDBRANCH  14  15
BRANCH  14  17
HETATM   17  O1  UNL     1     -15.590  25.560  12.392  1.00  0.00    -0.393 OA
ATOM     18  H1  UNL     1     -15.662  25.178  13.259  1.00  0.00     0.210 HD
ENDBRANCH  14  17
ENDBRANCH   1  14
TORSDOF 3
ENDMDL
MODEL 5
REMARK VINA RESULT: -5.299471704      3.845      4.606
REMARK  3 active torsions:
REMARK  status: ('A' for Active; 'I' for Inactive)
REMARK    1  A    between atoms: C2_2  and  C3_3 
REMARK    2  A    between atoms: C3_3  and  O1_4 
REMARK    3  A    between atoms: C3_3  and  C4_6 
ROOT
HETATM    1  C4  UNL     1     -13.804  23.415   9.354  1.00  0.00     0.189 C 
HETATM    2  C5  UNL     1     -13.878  22.458  10.537  1.00  0.00     0.044 C 
HETATM    3  C6  UNL     1     -12.631  21.573  10.423  1.00  0.00     0.083 C 
HETATM    4  C7  UNL     1     -12.778  20.861   9.070  1.00  0.00     0.258 C 
HETATM    5  O2  UNL     1     -11.576  21.073   8.400  1.00  0.00    -0.347 OA
HETATM    6  C8  UNL     1     -11.203  19.988   7.622  1.00  0.00     0.172 C 
HETATM    7  C9  UNL     1     -10.427  18.975   8.411  1.00  0.00     0.027 C 
HETATM    8  C10 UNL     1     -11.319  17.838   8.896  1.00  0.00     0.010 C 
HETATM    9  C11 UNL     1     -12.211  18.415   9.970  1.00  0.00     0.084 C 
HETATM   10  C12 UNL     1     -13.061  19.458   9.346  1.00  0.00     0.191 C 
HETATM   11  O3  UNL     1     -14.163  19.071   9.018  1.00  0.00    -0.292 OA
HETATM   12  O4  UNL     1     -13.850  21.449   8.421  1.00  0.00    -0.192 OA
HETATM   13  O5  UNL     1     -13.562  22.694   8.173  1.00  0.00    -0.229 OA
ENDROOT
BRANCH   1  14
HETATM   14  C3  UNL     1     -15.127  24.099   9.220  1.00  0.00     0.149 C 
BRANCH  14  15
HETATM   15  C2  UNL     1     -15.643  24.542  10.577  1.00  0.00     0.030 C 
HETATM   16  C1  UNL     1     -16.956  25.273  10.444  1.00  0.00     0.007 C 
ENDBRANCH  14  15
BRANCH  14  17
HETATM   17  O1  UNL     1     -16.043  23.250   8.627  1.00  0.00    -0.393 OA
ATOM     18  H1  UNL     1     -16.090  22.437   9.116  1.00  0.00     0.210 HD
ENDBRANCH  14  17
ENDBRANCH   1  14
TORSDOF 3
ENDMDL
