MODEL 1
REMARK VINA RESULT: -7.013577030      0.000      0.000
REMARK  6 active torsions:
REMARK  status: ('A' for Active; 'I' for Inactive)
REMARK    1  A    between atoms: C7_7  and  N1_8 
REMARK    2  A    between atoms: N1_8  and  C8_10 
REMARK    3  A    between atoms: C9_15  and  S1_16 
REMARK    4  A    between atoms: S1_16  and  C10_17 
REMARK    5  A    between atoms: C10_17  and  C11_18 
REMARK       I    between atoms: C11_18  and  N4_20 
REMARK    6  A    between atoms: N4_20  and  C12_22 
ROOT
HETATM    1  C8  UNL     1     -11.820  23.367  11.565  1.00  0.00     0.162 A 
HETATM    2  N2  UNL     1     -11.867  23.930  12.779  1.00  0.00    -0.279 N 
ATOM      3  H2  UNL     1     -12.739  23.960  13.307  1.00  0.00     0.189 HD
HETATM    4  N3  UNL     1     -10.799  24.426  13.257  1.00  0.00    -0.286 N 
ATOM      5  H3  UNL     1     -10.811  24.861  14.180  1.00  0.00     0.188 HD
HETATM    6  C9  UNL     1      -9.672  24.382  12.567  1.00  0.00     0.130 A 
HETATM    7  S2  UNL     1     -10.178  23.582  11.146  1.00  0.00    -0.027 SA
ENDROOT
BRANCH   6   8
HETATM    8  S1  UNL     1      -8.083  25.028  13.087  1.00  0.00    -0.094 SA
BRANCH   8   9
HETATM    9  C10 UNL     1      -7.588  26.431  12.090  1.00  0.00     0.184 C 
BRANCH   9  10
HETATM   10  C11 UNL     1      -7.181  25.976  10.750  1.00  0.00     0.227 C 
HETATM   11  O1  UNL     1      -6.161  25.246  10.660  1.00  0.00    -0.273 OA
HETATM   12  N4  UNL     1      -7.933  26.362   9.618  1.00  0.00    -0.356 N 
ATOM     13  H4  UNL     1      -8.757  26.955   9.717  1.00  0.00     0.162 HD
BRANCH  12  14
HETATM   14  C12 UNL     1      -7.507  25.899   8.314  1.00  0.00     0.084 C 
HETATM   15  C13 UNL     1      -7.591  27.022   7.298  1.00  0.00     0.025 C 
HETATM   16  C14 UNL     1      -8.994  27.510   7.159  1.00  0.00     0.002 C 
HETATM   17  C15 UNL     1      -9.837  26.361   6.642  1.00  0.00     0.000 C 
HETATM   18  C16 UNL     1      -9.812  25.299   7.732  1.00  0.00     0.002 C 
HETATM   19  C17 UNL     1      -8.428  24.775   7.899  1.00  0.00     0.025 C 
ENDBRANCH  12  14
ENDBRANCH   9  10
ENDBRANCH   8   9
ENDBRANCH   6   8
BRANCH   1  20
HETATM   20  N1  UNL     1     -12.804  22.805  10.899  1.00  0.00    -0.364 N 
ATOM     21  H1  UNL     1     -12.822  21.802  10.713  1.00  0.00     0.162 HD
BRANCH  20  22
HETATM   22  C7  UNL     1     -13.853  23.675  10.450  1.00  0.00     0.087 C 
HETATM   23  C2  UNL     1     -14.340  23.343   9.060  1.00  0.00     0.004 C 
HETATM   24  C1  UNL     1     -14.134  21.893   8.726  1.00  0.00     0.012 C 
HETATM   25  C3  UNL     1     -15.796  23.729   8.975  1.00  0.00     0.006 C 
HETATM   26  C4  UNL     1     -16.078  25.023   9.701  1.00  0.00     0.001 C 
HETATM   27  C5  UNL     1     -15.830  24.897  11.191  1.00  0.00     0.002 C 
HETATM   28  C6  UNL     1     -15.042  23.636  11.411  1.00  0.00     0.025 C 
ENDBRANCH  20  22
ENDBRANCH   1  20
TORSDOF 6
ENDMDL
MODEL 2
REMARK VINA RESULT: -6.781999135      5.470      7.546
REMARK  6 active torsions:
REMARK  status: ('A' for Active; 'I' for Inactive)
REMARK    1  A    between atoms: C7_7  and  N1_8 
REMARK    2  A    between atoms: N1_8  and  C8_10 
REMARK    3  A    between atoms: C9_15  and  S1_16 
REMARK    4  A    between atoms: S1_16  and  C10_17 
REMARK    5  A    between atoms: C10_17  and  C11_18 
REMARK       I    between atoms: C11_18  and  N4_20 
REMARK    6  A    between atoms: N4_20  and  C12_22 
ROOT
HETATM    1  C8  UNL     1     -13.974  22.345   8.488  1.00  0.00     0.162 A 
HETATM    2  N2  UNL     1     -12.684  22.705   8.478  1.00  0.00    -0.279 N 
ATOM      3  H2  UNL     1     -12.415  23.676   8.319  1.00  0.00     0.189 HD
HETATM    4  N3  UNL     1     -11.805  21.808   8.671  1.00  0.00    -0.286 N 
ATOM      5  H3  UNL     1     -10.816  22.058   8.667  1.00  0.00     0.188 HD
HETATM    6  C9  UNL     1     -12.163  20.552   8.877  1.00  0.00     0.130 A 
HETATM    7  S2  UNL     1     -13.864  20.667   8.787  1.00  0.00    -0.027 SA
ENDROOT
BRANCH   6   8
HETATM    8  S1  UNL     1     -11.061  19.168   9.166  1.00  0.00    -0.094 SA
BRANCH   8   9
HETATM    9  C10 UNL     1     -11.106  18.001   7.808  1.00  0.00     0.184 C 
BRANCH   9  10
HETATM   10  C11 UNL     1     -12.498  17.610   7.528  1.00  0.00     0.227 C 
HETATM   11  O1  UNL     1     -13.191  17.173   8.481  1.00  0.00    -0.273 OA
HETATM   12  N4  UNL     1     -13.012  17.735   6.218  1.00  0.00    -0.356 N 
ATOM     13  H4  UNL     1     -12.430  18.094   5.461  1.00  0.00     0.162 HD
BRANCH  12  14
HETATM   14  C12 UNL     1     -14.384  17.342   5.974  1.00  0.00     0.084 C 
HETATM   15  C13 UNL     1     -14.483  16.517   4.705  1.00  0.00     0.025 C 
HETATM   16  C14 UNL     1     -14.029  17.305   3.522  1.00  0.00     0.002 C 
HETATM   17  C15 UNL     1     -14.959  18.492   3.368  1.00  0.00     0.000 C 
HETATM   18  C16 UNL     1     -14.755  19.347   4.611  1.00  0.00     0.002 C 
HETATM   19  C17 UNL     1     -15.205  18.602   5.820  1.00  0.00     0.025 C 
ENDBRANCH  12  14
ENDBRANCH   9  10
ENDBRANCH   8   9
ENDBRANCH   6   8
BRANCH   1  20
HETATM   20  N1  UNL     1     -15.026  23.113   8.308  1.00  0.00    -0.364 N 
ATOM     21  H1  UNL     1     -15.604  23.045   7.471  1.00  0.00     0.162 HD
BRANCH  20  22
HETATM   22  C7  UNL     1     -15.319  24.052   9.353  1.00  0.00     0.087 C 
HETATM   23  C2  UNL     1     -16.727  24.592   9.282  1.00  0.00     0.004 C 
HETATM   24  C1  UNL     1     -17.665  23.626   8.617  1.00  0.00     0.012 C 
HETATM   25  C3  UNL     1     -17.170  24.915  10.688  1.00  0.00     0.006 C 
HETATM   26  C4  UNL     1     -16.054  25.522  11.505  1.00  0.00     0.001 C 
HETATM   27  C5  UNL     1     -14.911  24.547  11.707  1.00  0.00     0.002 C 
HETATM   28  C6  UNL     1     -15.102  23.421  10.729  1.00  0.00     0.025 C 
ENDBRANCH  20  22
ENDBRANCH   1  20
TORSDOF 6
ENDMDL
MODEL 3
REMARK VINA RESULT: -6.709351141      5.091      7.448
REMARK  6 active torsions:
REMARK  status: ('A' for Active; 'I' for Inactive)
REMARK    1  A    between atoms: C7_7  and  N1_8 
REMARK    2  A    between atoms: N1_8  and  C8_10 
REMARK    3  A    between atoms: C9_15  and  S1_16 
REMARK    4  A    between atoms: S1_16  and  C10_17 
REMARK    5  A    between atoms: C10_17  and  C11_18 
REMARK       I    between atoms: C11_18  and  N4_20 
REMARK    6  A    between atoms: N4_20  and  C12_22 
ROOT
HETATM    1  C8  UNL     1     -13.683  20.928   7.768  1.00  0.00     0.162 A 
HETATM    2  N2  UNL     1     -13.455  22.237   7.933  1.00  0.00    -0.279 N 
ATOM      3  H2  UNL     1     -13.481  22.876   7.138  1.00  0.00     0.189 HD
HETATM    4  N3  UNL     1     -13.205  22.664   9.104  1.00  0.00    -0.286 N 
ATOM      5  H3  UNL     1     -13.027  23.657   9.254  1.00  0.00     0.188 HD
HETATM    6  C9  UNL     1     -13.174  21.830  10.130  1.00  0.00     0.130 A 
HETATM    7  S2  UNL     1     -13.524  20.343   9.365  1.00  0.00    -0.027 SA
ENDROOT
BRANCH   6   8
HETATM    8  S1  UNL     1     -12.840  22.259  11.838  1.00  0.00    -0.094 SA
BRANCH   8   9
HETATM    9  C10 UNL     1     -14.177  23.218  12.545  1.00  0.00     0.184 C 
BRANCH   9  10
HETATM   10  C11 UNL     1     -14.629  24.236  11.582  1.00  0.00     0.227 C 
HETATM   11  O1  UNL     1     -13.826  25.152  11.271  1.00  0.00    -0.273 OA
HETATM   12  N4  UNL     1     -15.931  24.160  11.039  1.00  0.00    -0.356 N 
ATOM     13  H4  UNL     1     -16.565  23.406  11.306  1.00  0.00     0.162 HD
BRANCH  12  14
HETATM   14  C12 UNL     1     -16.347  25.176  10.095  1.00  0.00     0.084 C 
HETATM   15  C13 UNL     1     -17.830  25.461  10.239  1.00  0.00     0.025 C 
HETATM   16  C14 UNL     1     -18.636  24.237   9.959  1.00  0.00     0.002 C 
HETATM   17  C15 UNL     1     -18.387  23.835   8.519  1.00  0.00     0.000 C 
HETATM   18  C16 UNL     1     -16.914  23.458   8.439  1.00  0.00     0.002 C 
HETATM   19  C17 UNL     1     -16.069  24.656   8.703  1.00  0.00     0.025 C 
ENDBRANCH  12  14
ENDBRANCH   9  10
ENDBRANCH   8   9
ENDBRANCH   6   8
BRANCH   1  20
HETATM   20  N1  UNL     1     -13.956  20.293   6.650  1.00  0.00    -0.364 N 
ATOM     21  H1  UNL     1     -13.984  20.776   5.752  1.00  0.00     0.162 HD
BRANCH  20  22
HETATM   22  C7  UNL     1     -14.211  18.886   6.758  1.00  0.00     0.087 C 
HETATM   23  C2  UNL     1     -15.273  18.403   5.799  1.00  0.00     0.004 C 
HETATM   24  C1  UNL     1     -15.353  19.266   4.572  1.00  0.00     0.012 C 
HETATM   25  C3  UNL     1     -14.962  16.969   5.447  1.00  0.00     0.006 C 
HETATM   26  C4  UNL     1     -14.463  16.192   6.642  1.00  0.00     0.001 C 
HETATM   27  C5  UNL     1     -13.138  16.729   7.148  1.00  0.00     0.002 C 
HETATM   28  C6  UNL     1     -12.933  18.080   6.523  1.00  0.00     0.025 C 
ENDBRANCH  20  22
ENDBRANCH   1  20
TORSDOF 6
ENDMDL
MODEL 4
REMARK VINA RESULT: -6.659417884      5.782      7.771
REMARK  6 active torsions:
REMARK  status: ('A' for Active; 'I' for Inactive)
REMARK    1  A    between atoms: C7_7  and  N1_8 
REMARK    2  A    between atoms: N1_8  and  C8_10 
REMARK    3  A    between atoms: C9_15  and  S1_16 
REMARK    4  A    between atoms: S1_16  and  C10_17 
REMARK    5  A    between atoms: C10_17  and  C11_18 
REMARK       I    between atoms: C11_18  and  N4_20 
REMARK    6  A    between atoms: N4_20  and  C12_22 
ROOT
HETATM    1  C8  UNL     1     -14.446  22.606   8.722  1.00  0.00     0.162 A 
HETATM    2  N2  UNL     1     -14.744  21.409   8.199  1.00  0.00    -0.279 N 
ATOM      3  H2  UNL     1     -15.616  21.264   7.691  1.00  0.00     0.189 HD
HETATM    4  N3  UNL     1     -13.913  20.459   8.352  1.00  0.00    -0.286 N 
ATOM      5  H3  UNL     1     -14.119  19.539   7.963  1.00  0.00     0.188 HD
HETATM    6  C9  UNL     1     -12.784  20.656   9.012  1.00  0.00     0.130 A 
HETATM    7  S2  UNL     1     -12.926  22.303   9.439  1.00  0.00    -0.027 SA
ENDROOT
BRANCH   6   8
HETATM    8  S1  UNL     1     -11.508  19.435   9.318  1.00  0.00    -0.094 SA
BRANCH   8   9
HETATM    9  C10 UNL     1     -11.361  18.284   7.954  1.00  0.00     0.184 C 
BRANCH   9  10
HETATM   10  C11 UNL     1     -12.692  17.773   7.583  1.00  0.00     0.227 C 
HETATM   11  O1  UNL     1     -13.429  17.329   8.499  1.00  0.00    -0.273 OA
HETATM   12  N4  UNL     1     -13.100  17.795   6.231  1.00  0.00    -0.356 N 
ATOM     13  H4  UNL     1     -12.484  18.161   5.505  1.00  0.00     0.162 HD
BRANCH  12  14
HETATM   14  C12 UNL     1     -14.414  17.284   5.897  1.00  0.00     0.084 C 
HETATM   15  C13 UNL     1     -14.366  16.504   4.598  1.00  0.00     0.025 C 
HETATM   16  C14 UNL     1     -13.929  17.376   3.469  1.00  0.00     0.002 C 
HETATM   17  C15 UNL     1     -14.959  18.475   3.304  1.00  0.00     0.000 C 
HETATM   18  C16 UNL     1     -14.904  19.297   4.584  1.00  0.00     0.002 C 
HETATM   19  C17 UNL     1     -15.343  18.466   5.740  1.00  0.00     0.025 C 
ENDBRANCH  12  14
ENDBRANCH   9  10
ENDBRANCH   8   9
ENDBRANCH   6   8
BRANCH   1  20
HETATM   20  N1  UNL     1     -15.165  23.706   8.676  1.00  0.00    -0.364 N 
ATOM     21  H1  UNL     1     -14.768  24.593   8.367  1.00  0.00     0.162 HD
BRANCH  20  22
HETATM   22  C7  UNL     1     -16.536  23.593   9.084  1.00  0.00     0.087 C 
HETATM   23  C2  UNL     1     -16.913  24.580  10.162  1.00  0.00     0.004 C 
HETATM   24  C1  UNL     1     -16.062  25.816  10.112  1.00  0.00     0.012 C 
HETATM   25  C3  UNL     1     -18.377  24.910   9.997  1.00  0.00     0.006 C 
HETATM   26  C4  UNL     1     -19.188  23.693   9.619  1.00  0.00     0.001 C 
HETATM   27  C5  UNL     1     -18.789  23.150   8.260  1.00  0.00     0.002 C 
HETATM   28  C6  UNL     1     -17.476  23.781   7.893  1.00  0.00     0.025 C 
ENDBRANCH  20  22
ENDBRANCH   1  20
TORSDOF 6
ENDMDL
MODEL 5
REMARK VINA RESULT: -6.529821357      6.739     10.570
REMARK  6 active torsions:
REMARK  status: ('A' for Active; 'I' for Inactive)
REMARK    1  A    between atoms: C7_7  and  N1_8 
REMARK    2  A    between atoms: N1_8  and  C8_10 
REMARK    3  A    between atoms: C9_15  and  S1_16 
REMARK    4  A    between atoms: S1_16  and  C10_17 
REMARK    5  A    between atoms: C10_17  and  C11_18 
REMARK       I    between atoms: C11_18  and  N4_20 
REMARK    6  A    between atoms: N4_20  and  C12_22 
ROOT
HETATM    1  C8  UNL     1     -13.522  21.375   8.765  1.00  0.00     0.162 A 
HETATM    2  N2  UNL     1     -13.848  21.144   7.487  1.00  0.00    -0.279 N 
ATOM      3  H2  UNL     1     -14.090  21.914   6.863  1.00  0.00     0.189 HD
HETATM    4  N3  UNL     1     -13.847  19.943   7.070  1.00  0.00    -0.286 N 
ATOM      5  H3  UNL     1     -14.093  19.743   6.100  1.00  0.00     0.188 HD
HETATM    6  C9  UNL     1     -13.531  18.951   7.884  1.00  0.00     0.130 A 
HETATM    7  S2  UNL     1     -13.216  19.794   9.336  1.00  0.00    -0.027 SA
ENDROOT
BRANCH   6   8
HETATM    8  S1  UNL     1     -13.479  17.209   7.465  1.00  0.00    -0.094 SA
BRANCH   8   9
HETATM    9  C10 UNL     1     -14.789  16.771   6.326  1.00  0.00     0.184 C 
BRANCH   9  10
HETATM   10  C11 UNL     1     -15.040  15.321   6.383  1.00  0.00     0.227 C 
HETATM   11  O1  UNL     1     -14.094  14.546   6.090  1.00  0.00    -0.273 OA
HETATM   12  N4  UNL     1     -16.315  14.843   6.761  1.00  0.00    -0.356 N 
ATOM     13  H4  UNL     1     -17.067  15.491   6.995  1.00  0.00     0.162 HD
BRANCH  12  14
HETATM   14  C12 UNL     1     -16.531  13.412   6.807  1.00  0.00     0.084 C 
HETATM   15  C13 UNL     1     -17.237  12.940   5.551  1.00  0.00     0.025 C 
HETATM   16  C14 UNL     1     -18.575  13.587   5.418  1.00  0.00     0.002 C 
HETATM   17  C15 UNL     1     -19.418  13.161   6.604  1.00  0.00     0.000 C 
HETATM   18  C16 UNL     1     -18.734  13.740   7.834  1.00  0.00     0.002 C 
HETATM   19  C17 UNL     1     -17.394  13.113   8.011  1.00  0.00     0.025 C 
ENDBRANCH  12  14
ENDBRANCH   9  10
ENDBRANCH   8   9
ENDBRANCH   6   8
BRANCH   1  20
HETATM   20  N1  UNL     1     -13.464  22.533   9.385  1.00  0.00    -0.364 N 
ATOM     21  H1  UNL     1     -12.576  23.003   9.561  1.00  0.00     0.162 HD
BRANCH  20  22
HETATM   22  C7  UNL     1     -14.714  23.100   9.800  1.00  0.00     0.087 C 
HETATM   23  C2  UNL     1     -14.655  23.713  11.178  1.00  0.00     0.004 C 
HETATM   24  C1  UNL     1     -13.268  24.174  11.527  1.00  0.00     0.012 C 
HETATM   25  C3  UNL     1     -15.644  24.852  11.222  1.00  0.00     0.006 C 
HETATM   26  C4  UNL     1     -16.917  24.520  10.480  1.00  0.00     0.001 C 
HETATM   27  C5  UNL     1     -16.669  24.321   8.998  1.00  0.00     0.002 C 
HETATM   28  C6  UNL     1     -15.186  24.164   8.808  1.00  0.00     0.025 C 
ENDBRANCH  20  22
ENDBRANCH   1  20
TORSDOF 6
ENDMDL
