MODEL 1
REMARK VINA RESULT: -6.772798308      0.000      0.000
REMARK  7 active torsions:
REMARK  status: ('A' for Active; 'I' for Inactive)
REMARK    1  A    between atoms: O1_2  and  C2_3 
REMARK    2  A    between atoms: C3_5  and  O3_6 
REMARK    3  A    between atoms: C7_10  and  O4_11 
REMARK    4  A    between atoms: C11_16  and  O5_17 
REMARK    5  A    between atoms: C14_21  and  C16_23 
REMARK    6  A    between atoms: C16_23  and  C17_24 
REMARK    7  A    between atoms: C17_24  and  C18_25 
ROOT
HETATM    1  C2  UNL     1     -12.474  16.427   6.960  1.00  0.00     0.269 C 
HETATM    2  O2  UNL     1     -12.906  16.596   5.676  1.00  0.00    -0.325 OA
HETATM    3  C3  UNL     1     -14.161  17.171   5.683  1.00  0.00     0.171 C 
HETATM    4  C5  UNL     1     -14.522  17.902   4.436  1.00  0.00     0.071 C 
HETATM    5  C6  UNL     1     -14.858  19.364   4.757  1.00  0.00     0.037 C 
HETATM    6  C7  UNL     1     -13.548  19.984   5.264  1.00  0.00     0.123 C 
HETATM    7  C8  UNL     1     -13.030  19.191   6.404  1.00  0.00     0.033 C 
HETATM    8  C9  UNL     1     -14.012  18.165   6.857  1.00  0.00     0.067 C 
HETATM    9  C10 UNL     1     -13.389  17.253   7.876  1.00  0.00     0.080 C 
HETATM   10  C11 UNL     1     -12.628  17.910   8.946  1.00  0.00     0.132 C 
HETATM   11  C12 UNL     1     -12.020  19.224   8.673  1.00  0.00     0.019 C 
HETATM   12  C13 UNL     1     -10.539  19.083   8.289  1.00  0.00     0.013 C 
HETATM   13  C14 UNL     1     -12.667  20.055   7.606  1.00  0.00    -0.032 C 
HETATM   14  C15 UNL     1     -11.659  21.057   7.073  1.00  0.00     0.016 C 
ENDROOT
BRANCH  13  15
HETATM   15  C16 UNL     1     -13.874  20.765   8.110  1.00  0.00     0.014 C 
BRANCH  15  16
HETATM   16  C17 UNL     1     -13.697  22.183   8.520  1.00  0.00     0.028 C 
BRANCH  16  17
HETATM   17  C18 UNL     1     -14.162  22.272   9.956  1.00  0.00    -0.025 C 
HETATM   18  C19 UNL     1     -13.308  22.382  10.944  1.00  0.00    -0.091 C 
HETATM   19  C20 UNL     1     -13.799  22.467  12.342  1.00  0.00     0.042 C 
HETATM   20  C21 UNL     1     -11.846  22.420  10.657  1.00  0.00     0.042 C 
ENDBRANCH  16  17
ENDBRANCH  15  16
ENDBRANCH  13  15
BRANCH   6  21
HETATM   21  O4  UNL     1     -12.659  19.823   4.171  1.00  0.00    -0.395 OA
ATOM     22  H4  UNL     1     -11.820  19.661   4.587  1.00  0.00     0.210 HD
ENDBRANCH   6  21
BRANCH  10  23
HETATM   23  O5  UNL     1     -13.451  17.975  10.096  1.00  0.00    -0.395 OA
ATOM     24  H5  UNL     1     -12.913  17.786  10.856  1.00  0.00     0.210 HD
ENDBRANCH  10  23
BRANCH   3  25
HETATM   25  O3  UNL     1     -15.114  16.217   5.987  1.00  0.00    -0.359 OA
HETATM   26  C4  UNL     1     -15.233  15.334   4.930  1.00  0.00     0.205 C 
ENDBRANCH   3  25
BRANCH   1  27
HETATM   27  O1  UNL     1     -12.455  15.102   7.291  1.00  0.00    -0.365 OA
HETATM   28  C1  UNL     1     -11.864  14.287   6.339  1.00  0.00     0.204 C 
ENDBRANCH   1  27
TORSDOF 7
ENDMDL
MODEL 2
REMARK VINA RESULT: -6.292001291      2.833      5.187
REMARK  7 active torsions:
REMARK  status: ('A' for Active; 'I' for Inactive)
REMARK    1  A    between atoms: O1_2  and  C2_3 
REMARK    2  A    between atoms: C3_5  and  O3_6 
REMARK    3  A    between atoms: C7_10  and  O4_11 
REMARK    4  A    between atoms: C11_16  and  O5_17 
REMARK    5  A    between atoms: C14_21  and  C16_23 
REMARK    6  A    between atoms: C16_23  and  C17_24 
REMARK    7  A    between atoms: C17_24  and  C18_25 
ROOT
HETATM    1  C2  UNL     1     -10.744  19.627   7.465  1.00  0.00     0.269 C 
HETATM    2  O2  UNL     1      -9.735  20.462   7.851  1.00  0.00    -0.325 OA
HETATM    3  C3  UNL     1      -9.956  21.723   7.333  1.00  0.00     0.171 C 
HETATM    4  C5  UNL     1      -9.294  22.831   8.077  1.00  0.00     0.071 C 
HETATM    5  C6  UNL     1     -10.339  23.847   8.554  1.00  0.00     0.037 C 
HETATM    6  C7  UNL     1     -11.208  23.095   9.572  1.00  0.00     0.123 C 
HETATM    7  C8  UNL     1     -11.760  21.870   8.946  1.00  0.00     0.033 C 
HETATM    8  C9  UNL     1     -11.491  21.826   7.480  1.00  0.00     0.067 C 
HETATM    9  C10 UNL     1     -11.885  20.493   6.912  1.00  0.00     0.080 C 
HETATM   10  C11 UNL     1     -13.198  19.980   7.325  1.00  0.00     0.132 C 
HETATM   11  C12 UNL     1     -13.745  20.411   8.623  1.00  0.00     0.019 C 
HETATM   12  C13 UNL     1     -13.469  19.368   9.718  1.00  0.00     0.013 C 
HETATM   13  C14 UNL     1     -13.264  21.730   9.151  1.00  0.00    -0.032 C 
HETATM   14  C15 UNL     1     -13.455  21.766  10.656  1.00  0.00     0.016 C 
ENDROOT
BRANCH  13  15
HETATM   15  C16 UNL     1     -13.976  22.874   8.519  1.00  0.00     0.014 C 
BRANCH  15  16
HETATM   16  C17 UNL     1     -14.744  23.770   9.424  1.00  0.00     0.028 C 
BRANCH  16  17
HETATM   17  C18 UNL     1     -16.178  23.729   8.946  1.00  0.00    -0.025 C 
HETATM   18  C19 UNL     1     -17.111  24.443   9.526  1.00  0.00    -0.091 C 
HETATM   19  C20 UNL     1     -18.509  24.379   9.031  1.00  0.00     0.042 C 
HETATM   20  C21 UNL     1     -16.762  25.316  10.683  1.00  0.00     0.042 C 
ENDBRANCH  16  17
ENDBRANCH  15  16
ENDBRANCH  13  15
BRANCH   6  21
HETATM   21  O4  UNL     1     -10.284  22.704  10.574  1.00  0.00    -0.395 OA
ATOM     22  H4  UNL     1      -9.508  23.216  10.375  1.00  0.00     0.210 HD
ENDBRANCH   6  21
BRANCH  10  23
HETATM   23  O5  UNL     1     -14.122  20.247   6.286  1.00  0.00    -0.395 OA
ATOM     24  H5  UNL     1     -14.885  20.664   6.669  1.00  0.00     0.210 HD
ENDBRANCH  10  23
BRANCH   3  25
HETATM   25  O3  UNL     1      -9.605  21.750   5.996  1.00  0.00    -0.359 OA
HETATM   26  C4  UNL     1      -8.288  22.149   5.876  1.00  0.00     0.205 C 
ENDBRANCH   3  25
BRANCH   1  27
HETATM   27  O1  UNL     1     -10.290  18.712   6.558  1.00  0.00    -0.365 OA
HETATM   28  C1  UNL     1     -10.463  17.393   6.946  1.00  0.00     0.204 C 
ENDBRANCH   1  27
TORSDOF 7
ENDMDL
MODEL 3
REMARK VINA RESULT: -6.069474228      5.055      7.636
REMARK  7 active torsions:
REMARK  status: ('A' for Active; 'I' for Inactive)
REMARK    1  A    between atoms: O1_2  and  C2_3 
REMARK    2  A    between atoms: C3_5  and  O3_6 
REMARK    3  A    between atoms: C7_10  and  O4_11 
REMARK    4  A    between atoms: C11_16  and  O5_17 
REMARK    5  A    between atoms: C14_21  and  C16_23 
REMARK    6  A    between atoms: C16_23  and  C17_24 
REMARK    7  A    between atoms: C17_24  and  C18_25 
ROOT
HETATM    1  C2  UNL     1      -9.175  23.197   7.863  1.00  0.00     0.269 C 
HETATM    2  O2  UNL     1      -8.389  24.225   8.300  1.00  0.00    -0.325 OA
HETATM    3  C3  UNL     1      -9.182  25.307   8.628  1.00  0.00     0.171 C 
HETATM    4  C5  UNL     1      -8.573  26.259   9.598  1.00  0.00     0.071 C 
HETATM    5  C6  UNL     1      -9.468  26.397  10.836  1.00  0.00     0.037 C 
HETATM    6  C7  UNL     1      -9.453  25.018  11.509  1.00  0.00     0.123 C 
HETATM    7  C8  UNL     1      -9.879  23.984  10.536  1.00  0.00     0.033 C 
HETATM    8  C9  UNL     1     -10.389  24.589   9.272  1.00  0.00     0.067 C 
HETATM    9  C10 UNL     1     -10.627  23.526   8.238  1.00  0.00     0.080 C 
HETATM   10  C11 UNL     1     -11.348  22.332   8.698  1.00  0.00     0.132 C 
HETATM   11  C12 UNL     1     -11.258  21.960  10.120  1.00  0.00     0.019 C 
HETATM   12  C13 UNL     1     -10.189  20.879  10.346  1.00  0.00     0.013 C 
HETATM   13  C14 UNL     1     -10.965  23.067  11.088  1.00  0.00    -0.032 C 
HETATM   14  C15 UNL     1     -10.370  22.481  12.354  1.00  0.00     0.016 C 
ENDROOT
BRANCH  13  15
HETATM   15  C16 UNL     1     -12.184  23.855  11.415  1.00  0.00     0.014 C 
BRANCH  15  16
HETATM   16  C17 UNL     1     -13.439  23.091  11.640  1.00  0.00     0.028 C 
BRANCH  16  17
HETATM   17  C18 UNL     1     -14.498  24.108  12.001  1.00  0.00    -0.025 C 
HETATM   18  C19 UNL     1     -15.405  24.486  11.133  1.00  0.00    -0.091 C 
HETATM   19  C20 UNL     1     -16.430  25.487  11.521  1.00  0.00     0.042 C 
HETATM   20  C21 UNL     1     -15.399  23.909   9.759  1.00  0.00     0.042 C 
ENDBRANCH  16  17
ENDBRANCH  15  16
ENDBRANCH  13  15
BRANCH   6  21
HETATM   21  O4  UNL     1      -8.083  24.807  11.808  1.00  0.00    -0.395 OA
ATOM     22  H4  UNL     1      -7.958  25.277  12.624  1.00  0.00     0.210 HD
ENDBRANCH   6  21
BRANCH  10  23
HETATM   23  O5  UNL     1     -12.702  22.456   8.303  1.00  0.00    -0.395 OA
ATOM     24  H5  UNL     1     -13.171  21.690   8.614  1.00  0.00     0.210 HD
ENDBRANCH  10  23
BRANCH   3  25
HETATM   25  O3  UNL     1      -9.579  25.964   7.477  1.00  0.00    -0.359 OA
HETATM   26  C4  UNL     1      -8.695  26.991   7.208  1.00  0.00     0.205 C 
ENDBRANCH   3  25
BRANCH   1  27
HETATM   27  O1  UNL     1      -9.009  23.001   6.522  1.00  0.00    -0.365 OA
HETATM   28  C1  UNL     1      -7.698  23.119   6.089  1.00  0.00     0.204 C 
ENDBRANCH   1  27
TORSDOF 7
ENDMDL
MODEL 4
REMARK VINA RESULT: -6.056368179      1.821      2.799
REMARK  7 active torsions:
REMARK  status: ('A' for Active; 'I' for Inactive)
REMARK    1  A    between atoms: O1_2  and  C2_3 
REMARK    2  A    between atoms: C3_5  and  O3_6 
REMARK    3  A    between atoms: C7_10  and  O4_11 
REMARK    4  A    between atoms: C11_16  and  O5_17 
REMARK    5  A    between atoms: C14_21  and  C16_23 
REMARK    6  A    between atoms: C16_23  and  C17_24 
REMARK    7  A    between atoms: C17_24  and  C18_25 
ROOT
HETATM    1  C2  UNL     1     -13.880  16.745   6.720  1.00  0.00     0.269 C 
HETATM    2  O2  UNL     1     -12.759  16.321   6.066  1.00  0.00    -0.325 OA
HETATM    3  C3  UNL     1     -12.318  17.315   5.214  1.00  0.00     0.171 C 
HETATM    4  C5  UNL     1     -10.872  17.242   4.864  1.00  0.00     0.071 C 
HETATM    5  C6  UNL     1     -10.165  18.544   5.262  1.00  0.00     0.037 C 
HETATM    6  C7  UNL     1     -10.242  18.599   6.795  1.00  0.00     0.123 C 
HETATM    7  C8  UNL     1     -11.655  18.492   7.227  1.00  0.00     0.033 C 
HETATM    8  C9  UNL     1     -12.595  18.569   6.072  1.00  0.00     0.067 C 
HETATM    9  C10 UNL     1     -13.998  18.262   6.514  1.00  0.00     0.080 C 
HETATM   10  C11 UNL     1     -14.449  18.938   7.737  1.00  0.00     0.132 C 
HETATM   11  C12 UNL     1     -13.440  19.336   8.734  1.00  0.00     0.019 C 
HETATM   12  C13 UNL     1     -13.329  18.296   9.860  1.00  0.00     0.013 C 
HETATM   13  C14 UNL     1     -12.050  19.574   8.226  1.00  0.00    -0.032 C 
HETATM   14  C15 UNL     1     -11.066  19.422   9.371  1.00  0.00     0.016 C 
ENDROOT
BRANCH  13  15
HETATM   15  C16 UNL     1     -11.907  20.920   7.606  1.00  0.00     0.014 C 
BRANCH  15  16
HETATM   16  C17 UNL     1     -11.864  22.084   8.530  1.00  0.00     0.028 C 
BRANCH  16  17
HETATM   17  C18 UNL     1     -13.173  22.819   8.350  1.00  0.00    -0.025 C 
HETATM   18  C19 UNL     1     -14.013  22.972   9.344  1.00  0.00    -0.091 C 
HETATM   19  C20 UNL     1     -15.288  23.700   9.131  1.00  0.00     0.042 C 
HETATM   20  C21 UNL     1     -13.680  22.411  10.685  1.00  0.00     0.042 C 
ENDBRANCH  16  17
ENDBRANCH  15  16
ENDBRANCH  13  15
BRANCH   6  21
HETATM   21  O4  UNL     1      -9.562  17.424   7.205  1.00  0.00    -0.395 OA
ATOM     22  H4  UNL     1      -9.552  17.491   8.153  1.00  0.00     0.210 HD
ENDBRANCH   6  21
BRANCH  10  23
HETATM   23  O5  UNL     1     -15.238  20.052   7.360  1.00  0.00    -0.395 OA
ATOM     24  H5  UNL     1     -15.790  20.286   8.097  1.00  0.00     0.210 HD
ENDBRANCH  10  23
BRANCH   3  25
HETATM   25  O3  UNL     1     -13.100  17.337   4.074  1.00  0.00    -0.359 OA
HETATM   26  C4  UNL     1     -12.668  16.356   3.202  1.00  0.00     0.205 C 
ENDBRANCH   3  25
BRANCH   1  27
HETATM   27  O1  UNL     1     -14.981  16.067   6.279  1.00  0.00    -0.365 OA
HETATM   28  C1  UNL     1     -14.792  14.700   6.151  1.00  0.00     0.204 C 
ENDBRANCH   1  27
TORSDOF 7
ENDMDL
MODEL 5
REMARK VINA RESULT: -6.009901225      3.352      6.025
REMARK  7 active torsions:
REMARK  status: ('A' for Active; 'I' for Inactive)
REMARK    1  A    between atoms: O1_2  and  C2_3 
REMARK    2  A    between atoms: C3_5  and  O3_6 
REMARK    3  A    between atoms: C7_10  and  O4_11 
REMARK    4  A    between atoms: C11_16  and  O5_17 
REMARK    5  A    between atoms: C14_21  and  C16_23 
REMARK    6  A    between atoms: C16_23  and  C17_24 
REMARK    7  A    between atoms: C17_24  and  C18_25 
ROOT
HETATM    1  C2  UNL     1     -10.325  20.441   8.448  1.00  0.00     0.269 C 
HETATM    2  O2  UNL     1      -9.450  21.285   9.070  1.00  0.00    -0.325 OA
HETATM    3  C3  UNL     1      -9.646  22.573   8.613  1.00  0.00     0.171 C 
HETATM    4  C5  UNL     1      -9.190  23.644   9.543  1.00  0.00     0.071 C 
HETATM    5  C6  UNL     1     -10.359  24.573   9.895  1.00  0.00     0.037 C 
HETATM    6  C7  UNL     1     -11.352  23.704  10.681  1.00  0.00     0.123 C 
HETATM    7  C8  UNL     1     -11.713  22.511   9.878  1.00  0.00     0.033 C 
HETATM    8  C9  UNL     1     -11.186  22.599   8.486  1.00  0.00     0.067 C 
HETATM    9  C10 UNL     1     -11.397  21.300   7.761  1.00  0.00     0.080 C 
HETATM   10  C11 UNL     1     -12.731  20.701   7.890  1.00  0.00     0.132 C 
HETATM   11  C12 UNL     1     -13.524  21.001   9.095  1.00  0.00     0.019 C 
HETATM   12  C13 UNL     1     -13.389  19.885  10.143  1.00  0.00     0.013 C 
HETATM   13  C14 UNL     1     -13.220  22.292   9.796  1.00  0.00    -0.032 C 
HETATM   14  C15 UNL     1     -13.678  22.197  11.239  1.00  0.00     0.016 C 
ENDROOT
BRANCH  13  15
HETATM   15  C16 UNL     1     -13.871  23.452   9.129  1.00  0.00     0.014 C 
BRANCH  15  16
HETATM   16  C17 UNL     1     -15.295  23.288   8.733  1.00  0.00     0.028 C 
BRANCH  16  17
HETATM   17  C18 UNL     1     -16.055  24.410   9.404  1.00  0.00    -0.025 C 
HETATM   18  C19 UNL     1     -17.360  24.498   9.317  1.00  0.00    -0.091 C 
HETATM   19  C20 UNL     1     -18.073  25.613   9.987  1.00  0.00     0.042 C 
HETATM   20  C21 UNL     1     -18.119  23.476   8.543  1.00  0.00     0.042 C 
ENDBRANCH  16  17
ENDBRANCH  15  16
ENDBRANCH  13  15
BRANCH   6  21
HETATM   21  O4  UNL     1     -10.600  23.272  11.803  1.00  0.00    -0.395 OA
ATOM     22  H4  UNL     1     -10.146  22.500  11.484  1.00  0.00     0.210 HD
ENDBRANCH   6  21
BRANCH  10  23
HETATM   23  O5  UNL     1     -13.469  21.012   6.722  1.00  0.00    -0.395 OA
ATOM     24  H5  UNL     1     -12.860  21.321   6.062  1.00  0.00     0.210 HD
ENDBRANCH  10  23
BRANCH   3  25
HETATM   25  O3  UNL     1      -9.065  22.723   7.368  1.00  0.00    -0.359 OA
HETATM   26  C4  UNL     1      -7.766  23.169   7.519  1.00  0.00     0.205 C 
ENDBRANCH   3  25
BRANCH   1  27
HETATM   27  O1  UNL     1      -9.667  19.624   7.574  1.00  0.00    -0.365 OA
HETATM   28  C1  UNL     1      -9.817  18.272   7.839  1.00  0.00     0.204 C 
ENDBRANCH   1  27
TORSDOF 7
ENDMDL
