MODEL 1
REMARK VINA RESULT: -7.115346390      0.000      0.000
REMARK  10 active torsions:
REMARK  status: ('A' for Active; 'I' for Inactive)
REMARK    1  A    between atoms: C2_2  and  N1_4 
REMARK    2  A    between atoms: N1_4  and  C4_5 
REMARK    3  A    between atoms: N1_4  and  C9_15 
REMARK    4  A    between atoms: C4_5  and  O1_6 
REMARK    5  A    between atoms: C4_5  and  C5_8 
REMARK    6  A    between atoms: C8_12  and  O2_13 
REMARK    7  A    between atoms: C9_15  and  C17_27 
REMARK    8  A    between atoms: C10_16  and  O3_17 
REMARK    9  A    between atoms: C10_16  and  N2_19 
REMARK   10  A    between atoms: N2_19  and  C11_21 
ROOT
HETATM    1  C9  UNL     1     -13.351  22.776   9.844  1.00  0.00     0.072 C 
HETATM    2  C10 UNL     1     -14.611  23.296   9.387  1.00  0.00     0.160 C 
ENDROOT
BRANCH   1   3
HETATM    3  N1  UNL     1     -12.892  21.685   9.035  1.00  0.00    -0.322 N 
BRANCH   3   4
HETATM    4  C2  UNL     1     -11.681  21.934   8.185  1.00  0.00     0.084 C 
HETATM    5  C1  UNL     1     -10.555  21.017   8.659  1.00  0.00     0.032 C 
HETATM    6  C3  UNL     1     -11.251  23.367   8.243  1.00  0.00     0.032 C 
ENDBRANCH   3   4
BRANCH   3   7
HETATM    7  C4  UNL     1     -13.324  20.365   8.890  1.00  0.00     0.163 C 
BRANCH   7   8
HETATM    8  O1  UNL     1     -13.360  19.619   9.965  1.00  0.00    -0.345 OA
ATOM      9  H1  UNL     1     -14.208  19.299  10.249  1.00  0.00     0.219 HD
ENDBRANCH   7   8
BRANCH   7  10
HETATM   10  C5  UNL     1     -13.756  19.627   7.711  1.00  0.00     0.089 A 
HETATM   11  S1  UNL     1     -12.922  18.479   6.733  1.00  0.00    -0.095 SA
HETATM   12  C6  UNL     1     -14.160  18.019   5.679  1.00  0.00     0.053 A 
HETATM   13  C7  UNL     1     -15.205  18.773   6.110  1.00  0.00     0.045 A 
HETATM   14  C8  UNL     1     -15.016  19.604   7.151  1.00  0.00     0.087 A 
BRANCH  14  15
HETATM   15  O2  UNL     1     -16.119  20.396   7.596  1.00  0.00    -0.359 OA
ATOM     16  H2  UNL     1     -16.744  20.824   7.022  1.00  0.00     0.217 HD
ENDBRANCH  14  15
ENDBRANCH   7  10
ENDBRANCH   3   7
ENDBRANCH   1   3
BRANCH   1  17
HETATM   17  C17 UNL     1     -12.906  22.802  11.234  1.00  0.00    -0.004 C 
HETATM   18  C18 UNL     1     -11.611  22.158  11.630  1.00  0.00     0.021 C 
HETATM   19  C19 UNL     1     -12.722  24.275  11.721  1.00  0.00     0.021 C 
HETATM   20  C20 UNL     1     -13.915  22.275  12.249  1.00  0.00     0.021 C 
ENDBRANCH   1  17
BRANCH   2  21
HETATM   21  O3  UNL     1     -14.904  23.041   8.139  1.00  0.00    -0.345 OA
ATOM     22  H3  UNL     1     -15.560  22.367   8.004  1.00  0.00     0.219 HD
ENDBRANCH   2  21
BRANCH   2  23
HETATM   23  N2  UNL     1     -15.634  24.035   9.970  1.00  0.00    -0.365 N 
ATOM     24  H2  UNL     1     -15.571  24.227  10.970  1.00  0.00     0.162 HD
BRANCH  23  25
HETATM   25  C11 UNL     1     -16.799  24.556   9.245  1.00  0.00     0.083 C 
HETATM   26  C12 UNL     1     -17.333  25.811   9.855  1.00  0.00     0.025 C 
HETATM   27  C13 UNL     1     -18.750  25.664  10.359  1.00  0.00     0.002 C 
HETATM   28  C14 UNL     1     -19.670  25.216   9.239  1.00  0.00     0.000 C 
HETATM   29  C15 UNL     1     -19.033  24.140   8.383  1.00  0.00     0.002 C 
HETATM   30  C16 UNL     1     -17.894  23.519   9.166  1.00  0.00     0.025 C 
ENDBRANCH  23  25
ENDBRANCH   2  23
TORSDOF 10
ENDMDL
MODEL 2
REMARK VINA RESULT: -6.590280760      0.953      1.197
REMARK  10 active torsions:
REMARK  status: ('A' for Active; 'I' for Inactive)
REMARK    1  A    between atoms: C2_2  and  N1_4 
REMARK    2  A    between atoms: N1_4  and  C4_5 
REMARK    3  A    between atoms: N1_4  and  C9_15 
REMARK    4  A    between atoms: C4_5  and  O1_6 
REMARK    5  A    between atoms: C4_5  and  C5_8 
REMARK    6  A    between atoms: C8_12  and  O2_13 
REMARK    7  A    between atoms: C9_15  and  C17_27 
REMARK    8  A    between atoms: C10_16  and  O3_17 
REMARK    9  A    between atoms: C10_16  and  N2_19 
REMARK   10  A    between atoms: N2_19  and  C11_21 
ROOT
HETATM    1  C9  UNL     1     -13.053  22.938   9.912  1.00  0.00     0.072 C 
HETATM    2  C10 UNL     1     -14.375  23.228   9.427  1.00  0.00     0.160 C 
ENDROOT
BRANCH   1   3
HETATM    3  N1  UNL     1     -12.378  21.973   9.094  1.00  0.00    -0.322 N 
BRANCH   3   4
HETATM    4  C2  UNL     1     -11.348  22.499   8.138  1.00  0.00     0.084 C 
HETATM    5  C1  UNL     1     -10.049  21.722   8.344  1.00  0.00     0.032 C 
HETATM    6  C3  UNL     1     -11.119  23.966   8.325  1.00  0.00     0.032 C 
ENDBRANCH   3   4
BRANCH   3   7
HETATM    7  C4  UNL     1     -12.445  20.581   9.018  1.00  0.00     0.163 C 
BRANCH   7   8
HETATM    8  O1  UNL     1     -11.746  19.893   9.887  1.00  0.00    -0.345 OA
ATOM      9  H1  UNL     1     -10.896  19.574   9.611  1.00  0.00     0.219 HD
ENDBRANCH   7   8
BRANCH   7  10
HETATM   10  C5  UNL     1     -13.176  19.709   8.109  1.00  0.00     0.089 A 
HETATM   11  S1  UNL     1     -13.646  19.936   6.466  1.00  0.00    -0.095 SA
HETATM   12  C6  UNL     1     -14.321  18.424   6.129  1.00  0.00     0.053 A 
HETATM   13  C7  UNL     1     -14.167  17.768   7.309  1.00  0.00     0.045 A 
HETATM   14  C8  UNL     1     -13.582  18.411   8.336  1.00  0.00     0.087 A 
BRANCH  14  15
HETATM   15  O2  UNL     1     -13.428  17.715   9.574  1.00  0.00    -0.359 OA
ATOM     16  H2  UNL     1     -14.010  17.031   9.887  1.00  0.00     0.217 HD
ENDBRANCH  14  15
ENDBRANCH   7  10
ENDBRANCH   3   7
ENDBRANCH   1   3
BRANCH   1  17
HETATM   17  C17 UNL     1     -12.659  23.005  11.317  1.00  0.00    -0.004 C 
HETATM   18  C18 UNL     1     -11.274  22.610  11.737  1.00  0.00     0.021 C 
HETATM   19  C19 UNL     1     -12.775  24.471  11.846  1.00  0.00     0.021 C 
HETATM   20  C20 UNL     1     -13.573  22.263  12.285  1.00  0.00     0.021 C 
ENDBRANCH   1  17
BRANCH   2  21
HETATM   21  O3  UNL     1     -14.581  22.959   8.165  1.00  0.00    -0.345 OA
ATOM     22  H3  UNL     1     -15.481  22.761   7.932  1.00  0.00     0.219 HD
ENDBRANCH   2  21
BRANCH   2  23
HETATM   23  N2  UNL     1     -15.532  23.749   9.994  1.00  0.00    -0.365 N 
ATOM     24  H2  UNL     1     -15.621  23.714  11.010  1.00  0.00     0.162 HD
BRANCH  23  25
HETATM   25  C11 UNL     1     -16.635  24.345   9.231  1.00  0.00     0.083 C 
HETATM   26  C12 UNL     1     -17.057  25.669   9.781  1.00  0.00     0.025 C 
HETATM   27  C13 UNL     1     -18.488  25.675  10.268  1.00  0.00     0.002 C 
HETATM   28  C14 UNL     1     -19.432  25.266   9.154  1.00  0.00     0.000 C 
HETATM   29  C15 UNL     1     -18.888  24.100   8.352  1.00  0.00     0.002 C 
HETATM   30  C16 UNL     1     -17.821  23.410   9.177  1.00  0.00     0.025 C 
ENDBRANCH  23  25
ENDBRANCH   2  23
TORSDOF 10
ENDMDL
MODEL 3
REMARK VINA RESULT: -6.153350831      3.139      4.852
REMARK  10 active torsions:
REMARK  status: ('A' for Active; 'I' for Inactive)
REMARK    1  A    between atoms: C2_2  and  N1_4 
REMARK    2  A    between atoms: N1_4  and  C4_5 
REMARK    3  A    between atoms: N1_4  and  C9_15 
REMARK    4  A    between atoms: C4_5  and  O1_6 
REMARK    5  A    between atoms: C4_5  and  C5_8 
REMARK    6  A    between atoms: C8_12  and  O2_13 
REMARK    7  A    between atoms: C9_15  and  C17_27 
REMARK    8  A    between atoms: C10_16  and  O3_17 
REMARK    9  A    between atoms: C10_16  and  N2_19 
REMARK   10  A    between atoms: N2_19  and  C11_21 
ROOT
HETATM    1  C9  UNL     1     -12.894  19.623   7.791  1.00  0.00     0.072 C 
HETATM    2  C10 UNL     1     -13.647  20.700   8.373  1.00  0.00     0.160 C 
ENDROOT
BRANCH   1   3
HETATM    3  N1  UNL     1     -13.329  19.318   6.461  1.00  0.00    -0.322 N 
BRANCH   3   4
HETATM    4  C2  UNL     1     -12.370  19.621   5.347  1.00  0.00     0.084 C 
HETATM    5  C1  UNL     1     -11.229  20.470   5.902  1.00  0.00     0.032 C 
HETATM    6  C3  UNL     1     -13.047  20.327   4.213  1.00  0.00     0.032 C 
ENDBRANCH   3   4
BRANCH   3   7
HETATM    7  C4  UNL     1     -14.492  18.734   5.954  1.00  0.00     0.163 C 
BRANCH   7   8
HETATM    8  O1  UNL     1     -15.599  19.431   6.022  1.00  0.00    -0.345 OA
ATOM      9  H1  UNL     1     -16.270  19.252   5.375  1.00  0.00     0.219 HD
ENDBRANCH   7   8
BRANCH   7  10
HETATM   10  C5  UNL     1     -14.716  17.432   5.338  1.00  0.00     0.089 A 
HETATM   11  S1  UNL     1     -14.527  16.911   3.706  1.00  0.00    -0.095 SA
HETATM   12  C6  UNL     1     -14.857  15.262   3.872  1.00  0.00     0.053 A 
HETATM   13  C7  UNL     1     -15.110  15.148   5.202  1.00  0.00     0.045 A 
HETATM   14  C8  UNL     1     -15.043  16.251   5.970  1.00  0.00     0.087 A 
BRANCH  14  15
HETATM   15  O2  UNL     1     -15.314  16.123   7.367  1.00  0.00    -0.359 OA
ATOM     16  H2  UNL     1     -15.175  15.332   7.875  1.00  0.00     0.217 HD
ENDBRANCH  14  15
ENDBRANCH   7  10
ENDBRANCH   3   7
ENDBRANCH   1   3
BRANCH   1  17
HETATM   17  C17 UNL     1     -12.288  18.536   8.555  1.00  0.00    -0.004 C 
HETATM   18  C18 UNL     1     -11.816  17.292   7.863  1.00  0.00     0.021 C 
HETATM   19  C19 UNL     1     -11.000  19.034   9.286  1.00  0.00     0.021 C 
HETATM   20  C20 UNL     1     -13.119  18.024   9.727  1.00  0.00     0.021 C 
ENDBRANCH   1  17
BRANCH   2  21
HETATM   21  O3  UNL     1     -14.247  21.490   7.522  1.00  0.00    -0.345 OA
ATOM     22  H3  UNL     1     -13.758  21.682   6.730  1.00  0.00     0.219 HD
ENDBRANCH   2  21
BRANCH   2  23
HETATM   23  N2  UNL     1     -13.903  21.125   9.672  1.00  0.00    -0.365 N 
ATOM     24  H2  UNL     1     -14.477  20.526  10.264  1.00  0.00     0.162 HD
BRANCH  23  25
HETATM   25  C11 UNL     1     -13.402  22.379  10.249  1.00  0.00     0.083 C 
HETATM   26  C12 UNL     1     -11.916  22.497  10.150  1.00  0.00     0.025 C 
HETATM   27  C13 UNL     1     -11.240  22.571  11.500  1.00  0.00     0.002 C 
HETATM   28  C14 UNL     1     -11.787  23.733  12.306  1.00  0.00     0.000 C 
HETATM   29  C15 UNL     1     -13.294  23.847  12.183  1.00  0.00     0.002 C 
HETATM   30  C16 UNL     1     -13.833  22.520  11.690  1.00  0.00     0.025 C 
ENDBRANCH  23  25
ENDBRANCH   2  23
TORSDOF 10
ENDMDL
MODEL 4
REMARK VINA RESULT: -6.027087145      2.042      3.216
REMARK  10 active torsions:
REMARK  status: ('A' for Active; 'I' for Inactive)
REMARK    1  A    between atoms: C2_2  and  N1_4 
REMARK    2  A    between atoms: N1_4  and  C4_5 
REMARK    3  A    between atoms: N1_4  and  C9_15 
REMARK    4  A    between atoms: C4_5  and  O1_6 
REMARK    5  A    between atoms: C4_5  and  C5_8 
REMARK    6  A    between atoms: C8_12  and  O2_13 
REMARK    7  A    between atoms: C9_15  and  C17_27 
REMARK    8  A    between atoms: C10_16  and  O3_17 
REMARK    9  A    between atoms: C10_16  and  N2_19 
REMARK   10  A    between atoms: N2_19  and  C11_21 
ROOT
HETATM    1  C9  UNL     1     -13.076  22.643   9.754  1.00  0.00     0.072 C 
HETATM    2  C10 UNL     1     -14.397  23.036   9.345  1.00  0.00     0.160 C 
ENDROOT
BRANCH   1   3
HETATM    3  N1  UNL     1     -12.595  21.515   9.012  1.00  0.00    -0.322 N 
BRANCH   3   4
HETATM    4  C2  UNL     1     -12.826  20.159   9.613  1.00  0.00     0.084 C 
HETATM    5  C1  UNL     1     -11.546  19.338   9.471  1.00  0.00     0.032 C 
HETATM    6  C3  UNL     1     -13.977  19.457   8.963  1.00  0.00     0.032 C 
ENDBRANCH   3   4
BRANCH   3   7
HETATM    7  C4  UNL     1     -11.963  21.395   7.773  1.00  0.00     0.163 C 
BRANCH   7   8
HETATM    8  O1  UNL     1     -12.704  21.059   6.746  1.00  0.00    -0.345 OA
ATOM      9  H1  UNL     1     -12.334  20.448   6.120  1.00  0.00     0.219 HD
ENDBRANCH   7   8
BRANCH   7  10
HETATM   10  C5  UNL     1     -10.569  21.577   7.391  1.00  0.00     0.089 A 
HETATM   11  S1  UNL     1      -9.269  22.357   8.212  1.00  0.00    -0.095 SA
HETATM   12  C6  UNL     1      -7.991  22.005   7.164  1.00  0.00     0.053 A 
HETATM   13  C7  UNL     1      -8.604  21.283   6.190  1.00  0.00     0.045 A 
HETATM   14  C8  UNL     1      -9.926  21.054   6.289  1.00  0.00     0.087 A 
BRANCH  14  15
HETATM   15  O2  UNL     1     -10.563  20.298   5.258  1.00  0.00    -0.359 OA
ATOM     16  H2  UNL     1     -11.501  20.161   5.187  1.00  0.00     0.217 HD
ENDBRANCH  14  15
ENDBRANCH   7  10
ENDBRANCH   3   7
ENDBRANCH   1   3
BRANCH   1  17
HETATM   17  C17 UNL     1     -12.545  22.824  11.102  1.00  0.00    -0.004 C 
HETATM   18  C18 UNL     1     -11.177  22.318  11.454  1.00  0.00     0.021 C 
HETATM   19  C19 UNL     1     -12.452  24.343  11.454  1.00  0.00     0.021 C 
HETATM   20  C20 UNL     1     -13.437  22.310  12.227  1.00  0.00     0.021 C 
ENDBRANCH   1  17
BRANCH   2  21
HETATM   21  O3  UNL     1     -14.751  22.650   8.148  1.00  0.00    -0.345 OA
ATOM     22  H3  UNL     1     -14.316  23.095   7.430  1.00  0.00     0.219 HD
ENDBRANCH   2  21
BRANCH   2  23
HETATM   23  N2  UNL     1     -15.429  23.757   9.934  1.00  0.00    -0.365 N 
ATOM     24  H2  UNL     1     -15.399  23.891  10.945  1.00  0.00     0.162 HD
BRANCH  23  25
HETATM   25  C11 UNL     1     -16.560  24.337   9.200  1.00  0.00     0.083 C 
HETATM   26  C12 UNL     1     -16.982  25.658   9.758  1.00  0.00     0.025 C 
HETATM   27  C13 UNL     1     -18.398  25.649  10.285  1.00  0.00     0.002 C 
HETATM   28  C14 UNL     1     -19.369  25.226   9.199  1.00  0.00     0.000 C 
HETATM   29  C15 UNL     1     -18.834  24.064   8.386  1.00  0.00     0.002 C 
HETATM   30  C16 UNL     1     -17.737  23.389   9.183  1.00  0.00     0.025 C 
ENDBRANCH  23  25
ENDBRANCH   2  23
TORSDOF 10
ENDMDL
MODEL 5
REMARK VINA RESULT: -5.983061447      3.214      4.654
REMARK  10 active torsions:
REMARK  status: ('A' for Active; 'I' for Inactive)
REMARK    1  A    between atoms: C2_2  and  N1_4 
REMARK    2  A    between atoms: N1_4  and  C4_5 
REMARK    3  A    between atoms: N1_4  and  C9_15 
REMARK    4  A    between atoms: C4_5  and  O1_6 
REMARK    5  A    between atoms: C4_5  and  C5_8 
REMARK    6  A    between atoms: C8_12  and  O2_13 
REMARK    7  A    between atoms: C9_15  and  C17_27 
REMARK    8  A    between atoms: C10_16  and  O3_17 
REMARK    9  A    between atoms: C10_16  and  N2_19 
REMARK   10  A    between atoms: N2_19  and  C11_21 
ROOT
HETATM    1  C9  UNL     1     -12.595  19.871   7.846  1.00  0.00     0.072 C 
HETATM    2  C10 UNL     1     -13.436  20.932   8.331  1.00  0.00     0.160 C 
ENDROOT
BRANCH   1   3
HETATM    3  N1  UNL     1     -12.797  19.617   6.450  1.00  0.00    -0.322 N 
BRANCH   3   4
HETATM    4  C2  UNL     1     -11.647  19.915   5.533  1.00  0.00     0.084 C 
HETATM    5  C1  UNL     1     -10.956  18.602   5.173  1.00  0.00     0.032 C 
HETATM    6  C3  UNL     1     -10.675  20.866   6.160  1.00  0.00     0.032 C 
ENDBRANCH   3   4
BRANCH   3   7
HETATM    7  C4  UNL     1     -13.869  19.090   5.727  1.00  0.00     0.163 C 
BRANCH   7   8
HETATM    8  O1  UNL     1     -14.751  19.933   5.251  1.00  0.00    -0.345 OA
ATOM      9  H1  UNL     1     -15.617  19.596   5.052  1.00  0.00     0.219 HD
ENDBRANCH   7   8
BRANCH   7  10
HETATM   10  C5  UNL     1     -14.209  17.713   5.392  1.00  0.00     0.089 A 
HETATM   11  S1  UNL     1     -13.956  16.812   3.944  1.00  0.00    -0.095 SA
HETATM   12  C6  UNL     1     -14.509  15.292   4.430  1.00  0.00     0.053 A 
HETATM   13  C7  UNL     1     -14.883  15.516   5.717  1.00  0.00     0.045 A 
HETATM   14  C8  UNL     1     -14.737  16.752   6.227  1.00  0.00     0.087 A 
BRANCH  14  15
HETATM   15  O2  UNL     1     -15.136  16.980   7.580  1.00  0.00    -0.359 OA
ATOM     16  H2  UNL     1     -15.900  17.480   7.843  1.00  0.00     0.217 HD
ENDBRANCH  14  15
ENDBRANCH   7  10
ENDBRANCH   3   7
ENDBRANCH   1   3
BRANCH   1  17
HETATM   17  C17 UNL     1     -12.131  18.752   8.662  1.00  0.00    -0.004 C 
HETATM   18  C18 UNL     1     -11.680  17.476   8.015  1.00  0.00     0.021 C 
HETATM   19  C19 UNL     1     -10.883  19.171   9.504  1.00  0.00     0.021 C 
HETATM   20  C20 UNL     1     -13.093  18.301   9.755  1.00  0.00     0.021 C 
ENDBRANCH   1  17
BRANCH   2  21
HETATM   21  O3  UNL     1     -13.880  21.756   7.419  1.00  0.00    -0.345 OA
ATOM     22  H3  UNL     1     -14.343  22.517   7.749  1.00  0.00     0.219 HD
ENDBRANCH   2  21
BRANCH   2  23
HETATM   23  N2  UNL     1     -13.909  21.311   9.581  1.00  0.00    -0.365 N 
ATOM     24  H2  UNL     1     -14.916  21.275   9.740  1.00  0.00     0.162 HD
BRANCH  23  25
HETATM   25  C11 UNL     1     -13.058  21.761  10.689  1.00  0.00     0.083 C 
HETATM   26  C12 UNL     1     -13.849  22.355  11.809  1.00  0.00     0.025 C 
HETATM   27  C13 UNL     1     -13.518  23.810  12.056  1.00  0.00     0.002 C 
HETATM   28  C14 UNL     1     -12.038  23.979  12.338  1.00  0.00     0.000 C 
HETATM   29  C15 UNL     1     -11.186  23.134  11.411  1.00  0.00     0.002 C 
HETATM   30  C16 UNL     1     -12.025  22.754  10.208  1.00  0.00     0.025 C 
ENDBRANCH  23  25
ENDBRANCH   2  23
TORSDOF 10
ENDMDL
