MODEL 1
REMARK VINA RESULT: -6.873936062      0.000      0.000
REMARK  6 active torsions:
REMARK  status: ('A' for Active; 'I' for Inactive)
REMARK    1  A    between atoms: C2_2  and  C3_4 
REMARK    2  A    between atoms: C3_4  and  C4_5 
REMARK    3  A    between atoms: C4_5  and  C5_6 
REMARK    4  A    between atoms: C5_6  and  O2_7 
REMARK    5  A    between atoms: C21_25  and  C23_27 
REMARK    6  A    between atoms: C23_27  and  O4_28 
ROOT
HETATM    1  C5  UNL     1      56.823  11.511  56.354  1.00  0.00     0.063 C 
HETATM    2  C6  UNL     1      55.304  11.864  56.701  1.00  0.00     0.042 C 
HETATM    3  C7  UNL     1      55.329  13.272  57.114  1.00  0.00     0.036 C 
HETATM    4  C8  UNL     1      54.334  13.819  58.040  1.00  0.00    -0.087 C 
HETATM    5  C9  UNL     1      53.549  15.009  57.447  1.00  0.00     0.043 C 
HETATM    6  C10 UNL     1      53.988  13.496  59.256  1.00  0.00    -0.024 C 
HETATM    7  C11 UNL     1      54.463  12.455  60.167  1.00  0.00     0.030 C 
HETATM    8  C12 UNL     1      55.296  12.772  61.314  1.00  0.00     0.044 C 
HETATM    9  C13 UNL     1      56.468  13.623  61.312  1.00  0.00     0.084 A 
HETATM   10  C14 UNL     1      56.689  14.592  62.503  1.00  0.00     0.049 C 
HETATM   11  O3  UNL     1      56.902  14.167  60.163  1.00  0.00    -0.370 OA
HETATM   12  C15 UNL     1      57.724  13.213  60.616  1.00  0.00     0.157 A 
HETATM   13  C16 UNL     1      57.822  11.782  60.418  1.00  0.00     0.040 C 
HETATM   14  C17 UNL     1      58.746  11.132  59.501  1.00  0.00    -0.001 C 
HETATM   15  C18 UNL     1      58.255   9.712  59.218  1.00  0.00     0.006 C 
HETATM   16  C19 UNL     1      57.431   9.813  57.954  1.00  0.00     0.009 C 
HETATM   17  C20 UNL     1      57.496  11.328  57.579  1.00  0.00     0.030 C 
HETATM   18  C21 UNL     1      58.828  11.619  58.037  1.00  0.00    -0.013 C 
HETATM   19  C22 UNL     1      59.405  12.984  57.965  1.00  0.00     0.018 C 
ENDROOT
BRANCH   1  20
HETATM   20  C4  UNL     1      57.106  12.471  55.289  1.00  0.00     0.045 C 
BRANCH  20  21
HETATM   21  C3  UNL     1      56.373  12.309  53.975  1.00  0.00     0.081 C 
BRANCH  21  22
HETATM   22  C2  UNL     1      57.333  12.542  52.824  1.00  0.00     0.123 C 
HETATM   23  C1  UNL     1      56.877  12.484  51.419  1.00  0.00     0.091 C 
HETATM   24  O1  UNL     1      58.485  12.776  53.129  1.00  0.00    -0.298 OA
ENDBRANCH  21  22
ENDBRANCH  20  21
ENDBRANCH   1  20
BRANCH   1  25
HETATM   25  O2  UNL     1      56.601  10.253  55.700  1.00  0.00    -0.389 OA
ATOM     26  H2  UNL     1      55.857   9.859  56.141  1.00  0.00     0.210 HD
ENDBRANCH   1  25
BRANCH  18  27
HETATM   27  C23 UNL     1      59.958  10.710  57.538  1.00  0.00     0.174 C 
BRANCH  27  28
HETATM   28  O4  UNL     1      61.079  11.515  57.199  1.00  0.00    -0.400 OA
ATOM     29  H4  UNL     1      61.873  11.022  57.369  1.00  0.00     0.209 HD
ENDBRANCH  27  28
ENDBRANCH  18  27
TORSDOF 6
ENDMDL
MODEL 2
REMARK VINA RESULT: -6.414113690     14.278     17.623
REMARK  6 active torsions:
REMARK  status: ('A' for Active; 'I' for Inactive)
REMARK    1  A    between atoms: C2_2  and  C3_4 
REMARK    2  A    between atoms: C3_4  and  C4_5 
REMARK    3  A    between atoms: C4_5  and  C5_6 
REMARK    4  A    between atoms: C5_6  and  O2_7 
REMARK    5  A    between atoms: C21_25  and  C23_27 
REMARK    6  A    between atoms: C23_27  and  O4_28 
ROOT
HETATM    1  C5  UNL     1      63.665  23.005  48.540  1.00  0.00     0.063 C 
HETATM    2  C6  UNL     1      62.291  23.760  48.842  1.00  0.00     0.042 C 
HETATM    3  C7  UNL     1      61.579  23.773  47.558  1.00  0.00     0.036 C 
HETATM    4  C8  UNL     1      60.609  24.820  47.227  1.00  0.00    -0.087 C 
HETATM    5  C9  UNL     1      59.208  24.261  46.900  1.00  0.00     0.043 C 
HETATM    6  C10 UNL     1      60.702  26.120  47.158  1.00  0.00    -0.024 C 
HETATM    7  C11 UNL     1      61.818  27.037  47.388  1.00  0.00     0.030 C 
HETATM    8  C12 UNL     1      62.493  27.702  46.287  1.00  0.00     0.044 C 
HETATM    9  C13 UNL     1      62.960  27.078  45.066  1.00  0.00     0.084 A 
HETATM   10  C14 UNL     1      62.776  27.834  43.723  1.00  0.00     0.049 C 
HETATM   11  O3  UNL     1      62.823  25.753  44.893  1.00  0.00    -0.370 OA
HETATM   12  C15 UNL     1      64.100  26.114  45.073  1.00  0.00     0.157 A 
HETATM   13  C16 UNL     1      64.957  26.258  46.230  1.00  0.00     0.040 C 
HETATM   14  C17 UNL     1      65.930  25.270  46.672  1.00  0.00    -0.001 C 
HETATM   15  C18 UNL     1      66.292  25.540  48.132  1.00  0.00     0.006 C 
HETATM   16  C19 UNL     1      65.370  24.661  48.947  1.00  0.00     0.009 C 
HETATM   17  C20 UNL     1      64.506  23.921  47.877  1.00  0.00     0.030 C 
HETATM   18  C21 UNL     1      65.491  23.797  46.835  1.00  0.00    -0.013 C 
HETATM   19  C22 UNL     1      65.175  23.190  45.519  1.00  0.00     0.018 C 
ENDROOT
BRANCH   1  20
HETATM   20  C4  UNL     1      63.185  21.704  48.079  1.00  0.00     0.045 C 
BRANCH  20  21
HETATM   21  C3  UNL     1      63.706  20.466  48.776  1.00  0.00     0.081 C 
BRANCH  21  22
HETATM   22  C2  UNL     1      62.780  19.298  48.502  1.00  0.00     0.123 C 
HETATM   23  C1  UNL     1      62.732  18.127  49.403  1.00  0.00     0.091 C 
HETATM   24  O1  UNL     1      62.088  19.387  47.507  1.00  0.00    -0.298 OA
ENDBRANCH  21  22
ENDBRANCH  20  21
ENDBRANCH   1  20
BRANCH   1  25
HETATM   25  O2  UNL     1      64.096  22.806  49.895  1.00  0.00    -0.389 OA
ATOM     26  H2  UNL     1      63.426  23.201  50.441  1.00  0.00     0.210 HD
ENDBRANCH   1  25
BRANCH  18  27
HETATM   27  C23 UNL     1      66.842  23.179  47.216  1.00  0.00     0.174 C 
BRANCH  27  28
HETATM   28  O4  UNL     1      66.738  21.764  47.138  1.00  0.00    -0.400 OA
ATOM     29  H4  UNL     1      66.308  21.532  46.323  1.00  0.00     0.209 HD
ENDBRANCH  27  28
ENDBRANCH  18  27
TORSDOF 6
ENDMDL
MODEL 3
REMARK VINA RESULT: -6.343501745      1.966      4.595
REMARK  6 active torsions:
REMARK  status: ('A' for Active; 'I' for Inactive)
REMARK    1  A    between atoms: C2_2  and  C3_4 
REMARK    2  A    between atoms: C3_4  and  C4_5 
REMARK    3  A    between atoms: C4_5  and  C5_6 
REMARK    4  A    between atoms: C5_6  and  O2_7 
REMARK    5  A    between atoms: C21_25  and  C23_27 
REMARK    6  A    between atoms: C23_27  and  O4_28 
ROOT
HETATM    1  C5  UNL     1      56.351  12.767  56.031  1.00  0.00     0.063 C 
HETATM    2  C6  UNL     1      57.701  12.769  56.885  1.00  0.00     0.042 C 
HETATM    3  C7  UNL     1      57.904  11.368  57.271  1.00  0.00     0.036 C 
HETATM    4  C8  UNL     1      58.635  11.004  58.488  1.00  0.00    -0.087 C 
HETATM    5  C9  UNL     1      59.853  10.097  58.210  1.00  0.00     0.043 C 
HETATM    6  C10 UNL     1      58.455  11.297  59.747  1.00  0.00    -0.024 C 
HETATM    7  C11 UNL     1      57.449  12.109  60.431  1.00  0.00     0.030 C 
HETATM    8  C12 UNL     1      56.392  11.501  61.219  1.00  0.00     0.044 C 
HETATM    9  C13 UNL     1      55.551  10.392  60.814  1.00  0.00     0.084 A 
HETATM   10  C14 UNL     1      55.202   9.299  61.860  1.00  0.00     0.049 C 
HETATM   11  O3  UNL     1      55.686   9.858  59.589  1.00  0.00    -0.370 OA
HETATM   12  C15 UNL     1      54.542  10.539  59.724  1.00  0.00     0.157 A 
HETATM   13  C16 UNL     1      54.149  11.914  59.497  1.00  0.00     0.040 C 
HETATM   14  C17 UNL     1      53.452  12.394  58.313  1.00  0.00    -0.001 C 
HETATM   15  C18 UNL     1      53.624  13.909  58.211  1.00  0.00     0.006 C 
HETATM   16  C19 UNL     1      54.821  14.122  57.312  1.00  0.00     0.009 C 
HETATM   17  C20 UNL     1      55.282  12.675  56.945  1.00  0.00     0.030 C 
HETATM   18  C21 UNL     1      53.997  12.028  56.914  1.00  0.00    -0.013 C 
HETATM   19  C22 UNL     1      53.853  10.574  56.653  1.00  0.00     0.018 C 
ENDROOT
BRANCH   1  20
HETATM   20  C4  UNL     1      56.702  11.862  54.938  1.00  0.00     0.045 C 
BRANCH  20  21
HETATM   21  C3  UNL     1      56.173  12.179  53.557  1.00  0.00     0.081 C 
BRANCH  21  22
HETATM   22  C2  UNL     1      57.330  12.483  52.625  1.00  0.00     0.123 C 
HETATM   23  C1  UNL     1      57.204  12.316  51.162  1.00  0.00     0.091 C 
HETATM   24  O1  UNL     1      58.353  12.868  53.154  1.00  0.00    -0.298 OA
ENDBRANCH  21  22
ENDBRANCH  20  21
ENDBRANCH   1  20
BRANCH   1  25
HETATM   25  O2  UNL     1      56.445  14.092  55.488  1.00  0.00    -0.389 OA
ATOM     26  H2  UNL     1      55.847  14.625  56.000  1.00  0.00     0.210 HD
ENDBRANCH   1  25
BRANCH  18  27
HETATM   27  C23 UNL     1      52.907  12.672  56.049  1.00  0.00     0.174 C 
BRANCH  27  28
HETATM   28  O4  UNL     1      51.688  11.967  56.247  1.00  0.00    -0.400 OA
ATOM     29  H4  UNL     1      51.705  11.173  55.726  1.00  0.00     0.209 HD
ENDBRANCH  27  28
ENDBRANCH  18  27
TORSDOF 6
ENDMDL
MODEL 4
REMARK VINA RESULT: -6.281029942     16.239     19.165
REMARK  6 active torsions:
REMARK  status: ('A' for Active; 'I' for Inactive)
REMARK    1  A    between atoms: C2_2  and  C3_4 
REMARK    2  A    between atoms: C3_4  and  C4_5 
REMARK    3  A    between atoms: C4_5  and  C5_6 
REMARK    4  A    between atoms: C5_6  and  O2_7 
REMARK    5  A    between atoms: C21_25  and  C23_27 
REMARK    6  A    between atoms: C23_27  and  O4_28 
ROOT
HETATM    1  C5  UNL     1      63.547  26.064  46.210  1.00  0.00     0.063 C 
HETATM    2  C6  UNL     1      64.454  26.434  44.948  1.00  0.00     0.042 C 
HETATM    3  C7  UNL     1      64.516  25.200  44.155  1.00  0.00     0.036 C 
HETATM    4  C8  UNL     1      65.655  24.904  43.282  1.00  0.00    -0.087 C 
HETATM    5  C9  UNL     1      65.244  24.685  41.810  1.00  0.00     0.043 C 
HETATM    6  C10 UNL     1      66.935  24.791  43.509  1.00  0.00    -0.024 C 
HETATM    7  C11 UNL     1      67.730  24.920  44.730  1.00  0.00     0.030 C 
HETATM    8  C12 UNL     1      68.294  23.759  45.395  1.00  0.00     0.044 C 
HETATM    9  C13 UNL     1      67.597  22.528  45.708  1.00  0.00     0.084 A 
HETATM   10  C14 UNL     1      68.339  21.179  45.515  1.00  0.00     0.049 C 
HETATM   11  O3  UNL     1      66.291  22.403  45.418  1.00  0.00    -0.370 OA
HETATM   12  C15 UNL     1      66.514  22.488  46.736  1.00  0.00     0.157 A 
HETATM   13  C16 UNL     1      66.590  23.581  47.681  1.00  0.00     0.040 C 
HETATM   14  C17 UNL     1      65.511  23.986  48.571  1.00  0.00    -0.001 C 
HETATM   15  C18 UNL     1      65.773  25.411  49.058  1.00  0.00     0.006 C 
HETATM   16  C19 UNL     1      65.017  26.310  48.106  1.00  0.00     0.009 C 
HETATM   17  C20 UNL     1      64.352  25.321  47.096  1.00  0.00     0.030 C 
HETATM   18  C21 UNL     1      64.099  24.221  47.989  1.00  0.00    -0.013 C 
HETATM   19  C22 UNL     1      63.501  22.947  47.520  1.00  0.00     0.018 C 
ENDROOT
BRANCH   1  20
HETATM   20  C4  UNL     1      62.296  25.673  45.562  1.00  0.00     0.045 C 
BRANCH  20  21
HETATM   21  C3  UNL     1      61.021  26.348  46.016  1.00  0.00     0.081 C 
BRANCH  21  22
HETATM   22  C2  UNL     1      60.475  25.638  47.240  1.00  0.00     0.123 C 
HETATM   23  C1  UNL     1      60.178  26.373  48.488  1.00  0.00     0.091 C 
HETATM   24  O1  UNL     1      60.301  24.441  47.128  1.00  0.00    -0.298 OA
ENDBRANCH  21  22
ENDBRANCH  20  21
ENDBRANCH   1  20
BRANCH   1  25
HETATM   25  O2  UNL     1      63.332  27.393  46.709  1.00  0.00    -0.389 OA
ATOM     26  H2  UNL     1      63.898  27.958  46.196  1.00  0.00     0.210 HD
ENDBRANCH   1  25
BRANCH  18  27
HETATM   27  C23 UNL     1      63.346  24.530  49.289  1.00  0.00     0.174 C 
BRANCH  27  28
HETATM   28  O4  UNL     1      62.247  23.636  49.406  1.00  0.00    -0.400 OA
ATOM     29  H4  UNL     1      62.570  22.744  49.349  1.00  0.00     0.209 HD
ENDBRANCH  27  28
ENDBRANCH  18  27
TORSDOF 6
ENDMDL
MODEL 5
REMARK VINA RESULT: -6.229212643     16.471     20.287
REMARK  6 active torsions:
REMARK  status: ('A' for Active; 'I' for Inactive)
REMARK    1  A    between atoms: C2_2  and  C3_4 
REMARK    2  A    between atoms: C3_4  and  C4_5 
REMARK    3  A    between atoms: C4_5  and  C5_6 
REMARK    4  A    between atoms: C5_6  and  O2_7 
REMARK    5  A    between atoms: C21_25  and  C23_27 
REMARK    6  A    between atoms: C23_27  and  O4_28 
ROOT
HETATM    1  C5  UNL     1      63.775  24.327  45.954  1.00  0.00     0.063 C 
HETATM    2  C6  UNL     1      64.802  23.323  45.254  1.00  0.00     0.042 C 
HETATM    3  C7  UNL     1      66.070  23.524  45.967  1.00  0.00     0.036 C 
HETATM    4  C8  UNL     1      67.362  23.278  45.322  1.00  0.00    -0.087 C 
HETATM    5  C9  UNL     1      68.220  22.236  46.070  1.00  0.00     0.043 C 
HETATM    6  C10 UNL     1      67.919  23.767  44.247  1.00  0.00    -0.024 C 
HETATM    7  C11 UNL     1      67.463  24.752  43.267  1.00  0.00     0.030 C 
HETATM    8  C12 UNL     1      68.014  26.096  43.229  1.00  0.00     0.044 C 
HETATM    9  C13 UNL     1      68.204  26.976  44.364  1.00  0.00     0.084 A 
HETATM   10  C14 UNL     1      69.497  27.831  44.437  1.00  0.00     0.049 C 
HETATM   11  O3  UNL     1      67.816  26.587  45.589  1.00  0.00    -0.370 OA
HETATM   12  C15 UNL     1      67.042  27.562  45.096  1.00  0.00     0.157 A 
HETATM   13  C16 UNL     1      65.830  27.590  44.305  1.00  0.00     0.040 C 
HETATM   14  C17 UNL     1      64.492  27.791  44.843  1.00  0.00    -0.001 C 
HETATM   15  C18 UNL     1      63.464  27.303  43.823  1.00  0.00     0.006 C 
HETATM   16  C19 UNL     1      63.157  25.873  44.210  1.00  0.00     0.009 C 
HETATM   17  C20 UNL     1      64.056  25.617  45.461  1.00  0.00     0.030 C 
HETATM   18  C21 UNL     1      64.022  26.934  46.040  1.00  0.00    -0.013 C 
HETATM   19  C22 UNL     1      64.782  27.276  47.267  1.00  0.00     0.018 C 
ENDROOT
BRANCH   1  20
HETATM   20  C4  UNL     1      63.799  23.849  47.335  1.00  0.00     0.045 C 
BRANCH  20  21
HETATM   21  C3  UNL     1      62.779  22.809  47.744  1.00  0.00     0.081 C 
BRANCH  21  22
HETATM   22  C2  UNL     1      63.487  21.537  48.165  1.00  0.00     0.123 C 
HETATM   23  C1  UNL     1      62.811  20.223  48.103  1.00  0.00     0.091 C 
HETATM   24  O1  UNL     1      64.632  21.666  48.551  1.00  0.00    -0.298 OA
ENDBRANCH  21  22
ENDBRANCH  20  21
ENDBRANCH   1  20
BRANCH   1  25
HETATM   25  O2  UNL     1      62.562  23.816  45.383  1.00  0.00    -0.389 OA
ATOM     26  H2  UNL     1      61.857  24.163  45.917  1.00  0.00     0.210 HD
ENDBRANCH   1  25
BRANCH  18  27
HETATM   27  C23 UNL     1      62.643  27.566  46.267  1.00  0.00     0.174 C 
BRANCH  27  28
HETATM   28  O4  UNL     1      62.046  26.967  47.410  1.00  0.00    -0.400 OA
ATOM     29  H4  UNL     1      61.143  27.255  47.471  1.00  0.00     0.209 HD
ENDBRANCH  27  28
ENDBRANCH  18  27
TORSDOF 6
ENDMDL
