MODEL 1
REMARK VINA RESULT: -7.707283151      0.000      0.000
REMARK  11 active torsions:
REMARK  status: ('A' for Active; 'I' for Inactive)
REMARK    1  A    between atoms: C2_2  and  C3_3 
REMARK    2  A    between atoms: C3_3  and  C4_4 
REMARK    3  A    between atoms: C4_4  and  N1_5 
REMARK       I    between atoms: N1_5  and  C5_6 
REMARK       I    between atoms: C5_6  and  N2_8 
REMARK    4  A    between atoms: N2_8  and  C6_10 
REMARK    5  A    between atoms: C9_13  and  N3_14 
REMARK    6  A    between atoms: N3_14  and  C10_16 
REMARK    7  A    between atoms: C10_16  and  N4_18 
REMARK    8  A    between atoms: N4_18  and  N5_20 
REMARK       I    between atoms: N5_20  and  C11_22 
REMARK    9  A    between atoms: C11_22  and  C12_24 
REMARK   10  A    between atoms: C12_24  and  O3_25 
REMARK   11  A    between atoms: O3_25  and  C13_26 
ROOT
HETATM    1  N3  UNL     1      42.075 -22.049  30.993  1.00  0.00    -0.332 N 
ATOM      2  H3  UNL     1      41.516 -21.633  31.737  1.00  0.00     0.168 HD
ENDROOT
BRANCH   1   3
HETATM    3  C9  UNL     1      43.421 -21.675  30.924  1.00  0.00     0.034 A 
HETATM    4  C8  UNL     1      43.916 -20.915  29.852  1.00  0.00     0.032 A 
HETATM    5  C7  UNL     1      45.230 -20.566  29.798  1.00  0.00     0.032 A 
HETATM    6  C6  UNL     1      46.167 -20.928  30.783  1.00  0.00     0.037 A 
HETATM    7  C20 UNL     1      45.669 -21.671  31.830  1.00  0.00     0.032 A 
HETATM    8  C19 UNL     1      44.333 -22.029  31.888  1.00  0.00     0.032 A 
BRANCH   6   9
HETATM    9  N2  UNL     1      47.516 -20.570  30.613  1.00  0.00    -0.297 N 
HETATM   10  C5  UNL     1      48.563 -21.505  30.159  1.00  0.00     0.397 C 
HETATM   11  N1  UNL     1      49.805 -21.030  30.000  1.00  0.00    -0.369 NA
HETATM   12  O1  UNL     1      48.113 -22.687  29.976  1.00  0.00    -0.230 OA
ATOM     13  H2  UNL     1      47.786 -19.608  30.816  1.00  0.00     0.172 HD
BRANCH  11  14
HETATM   14  C4  UNL     1      51.075 -20.545  29.837  1.00  0.00     0.161 C 
BRANCH  14  15
HETATM   15  C3  UNL     1      51.807 -20.248  31.122  1.00  0.00     0.059 C 
BRANCH  15  16
HETATM   16  C2  UNL     1      50.916 -19.793  32.228  1.00  0.00     0.002 C 
HETATM   17  C1  UNL     1      51.543 -19.786  33.580  1.00  0.00     0.005 C 
ENDBRANCH  15  16
ENDBRANCH  14  15
ENDBRANCH  11  14
ENDBRANCH   6   9
ENDBRANCH   1   3
BRANCH   1  18
HETATM   18  C10 UNL     1      41.424 -22.944  30.132  1.00  0.00     0.191 C 
HETATM   19  S1  UNL     1      42.155 -24.270  29.589  1.00  0.00    -0.039 SA
BRANCH  18  20
HETATM   20  N4  UNL     1      40.088 -22.660  29.741  1.00  0.00    -0.273 N 
ATOM     21  H4  UNL     1      39.325 -23.214  30.131  1.00  0.00     0.189 HD
BRANCH  20  22
HETATM   22  N5  UNL     1      39.800 -21.641  28.839  1.00  0.00    -0.266 N 
HETATM   23  C11 UNL     1      39.877 -20.261  29.025  1.00  0.00     0.260 C 
HETATM   24  O2  UNL     1      40.244 -19.646  30.051  1.00  0.00    -0.269 OA
ATOM     25  H5  UNL     1      39.491 -21.944  27.916  1.00  0.00     0.190 HD
BRANCH  23  26
HETATM   26  C12 UNL     1      39.459 -19.393  27.852  1.00  0.00     0.280 C 
BRANCH  26  27
HETATM   27  O3  UNL     1      39.789 -18.058  28.108  1.00  0.00    -0.342 OA
BRANCH  27  28
HETATM   28  C13 UNL     1      38.866 -17.060  28.162  1.00  0.00     0.069 A 
HETATM   29  C14 UNL     1      37.664 -17.118  28.831  1.00  0.00     0.038 A 
HETATM   30  C15 UNL     1      36.769 -16.065  28.842  1.00  0.00     0.022 A 
HETATM   31  C16 UNL     1      37.051 -14.906  28.175  1.00  0.00     0.011 A 
HETATM   32 BR1  UNL     1      35.813 -13.459  28.188  1.00  0.00    -0.051 Br
HETATM   33  C17 UNL     1      38.263 -14.817  27.488  1.00  0.00     0.022 A 
HETATM   34  C18 UNL     1      39.139 -15.872  27.487  1.00  0.00     0.038 A 
ENDBRANCH  27  28
ENDBRANCH  26  27
ENDBRANCH  23  26
ENDBRANCH  20  22
ENDBRANCH  18  20
ENDBRANCH   1  18
TORSDOF 11
ENDMDL
MODEL 2
REMARK VINA RESULT: -7.521222451      1.381      1.626
REMARK  11 active torsions:
REMARK  status: ('A' for Active; 'I' for Inactive)
REMARK    1  A    between atoms: C2_2  and  C3_3 
REMARK    2  A    between atoms: C3_3  and  C4_4 
REMARK    3  A    between atoms: C4_4  and  N1_5 
REMARK       I    between atoms: N1_5  and  C5_6 
REMARK       I    between atoms: C5_6  and  N2_8 
REMARK    4  A    between atoms: N2_8  and  C6_10 
REMARK    5  A    between atoms: C9_13  and  N3_14 
REMARK    6  A    between atoms: N3_14  and  C10_16 
REMARK    7  A    between atoms: C10_16  and  N4_18 
REMARK    8  A    between atoms: N4_18  and  N5_20 
REMARK       I    between atoms: N5_20  and  C11_22 
REMARK    9  A    between atoms: C11_22  and  C12_24 
REMARK   10  A    between atoms: C12_24  and  O3_25 
REMARK   11  A    between atoms: O3_25  and  C13_26 
ROOT
HETATM    1  N3  UNL     1      41.941 -22.976  28.547  1.00  0.00    -0.332 N 
ATOM      2  H3  UNL     1      41.757 -23.109  27.552  1.00  0.00     0.168 HD
ENDROOT
BRANCH   1   3
HETATM    3  C9  UNL     1      43.180 -22.429  28.894  1.00  0.00     0.034 A 
HETATM    4  C8  UNL     1      43.274 -21.232  29.623  1.00  0.00     0.032 A 
HETATM    5  C7  UNL     1      44.487 -20.709  29.946  1.00  0.00     0.032 A 
HETATM    6  C6  UNL     1      45.708 -21.311  29.587  1.00  0.00     0.037 A 
HETATM    7  C20 UNL     1      45.603 -22.484  28.875  1.00  0.00     0.032 A 
HETATM    8  C19 UNL     1      44.370 -23.018  28.544  1.00  0.00     0.032 A 
BRANCH   6   9
HETATM    9  N2  UNL     1      46.913 -20.667  29.916  1.00  0.00    -0.297 N 
HETATM   10  C5  UNL     1      47.772 -21.058  31.050  1.00  0.00     0.397 C 
HETATM   11  N1  UNL     1      48.916 -20.387  31.234  1.00  0.00    -0.369 NA
HETATM   12  O1  UNL     1      47.276 -22.022  31.725  1.00  0.00    -0.230 OA
ATOM     13  H2  UNL     1      47.212 -19.883  29.335  1.00  0.00     0.172 HD
BRANCH  11  14
HETATM   14  C4  UNL     1      50.087 -19.702  31.423  1.00  0.00     0.161 C 
BRANCH  14  15
HETATM   15  C3  UNL     1      50.822 -20.046  32.694  1.00  0.00     0.059 C 
BRANCH  15  16
HETATM   16  C2  UNL     1      50.764 -21.493  33.048  1.00  0.00     0.002 C 
HETATM   17  C1  UNL     1      50.393 -21.782  34.462  1.00  0.00     0.005 C 
ENDBRANCH  15  16
ENDBRANCH  14  15
ENDBRANCH  11  14
ENDBRANCH   6   9
ENDBRANCH   1   3
BRANCH   1  18
HETATM   18  C10 UNL     1      40.929 -23.359  29.438  1.00  0.00     0.191 C 
HETATM   19  S1  UNL     1      40.986 -24.766  30.217  1.00  0.00    -0.039 SA
BRANCH  18  20
HETATM   20  N4  UNL     1      39.839 -22.474  29.649  1.00  0.00    -0.273 N 
ATOM     21  H4  UNL     1      39.247 -22.596  30.471  1.00  0.00     0.189 HD
BRANCH  20  22
HETATM   22  N5  UNL     1      39.561 -21.444  28.755  1.00  0.00    -0.266 N 
HETATM   23  C11 UNL     1      39.724 -20.071  28.928  1.00  0.00     0.260 C 
HETATM   24  O2  UNL     1      40.177 -19.473  29.929  1.00  0.00    -0.269 OA
ATOM     25  H5  UNL     1      39.188 -21.733  27.851  1.00  0.00     0.190 HD
BRANCH  23  26
HETATM   26  C12 UNL     1      39.295 -19.185  27.772  1.00  0.00     0.280 C 
BRANCH  26  27
HETATM   27  O3  UNL     1      37.940 -18.860  27.900  1.00  0.00    -0.342 OA
BRANCH  27  28
HETATM   28  C13 UNL     1      37.481 -17.580  27.928  1.00  0.00     0.069 A 
HETATM   29  C14 UNL     1      36.757 -17.010  28.951  1.00  0.00     0.038 A 
HETATM   30  C15 UNL     1      36.318 -15.701  28.911  1.00  0.00     0.022 A 
HETATM   31  C16 UNL     1      36.595 -14.908  27.833  1.00  0.00     0.011 A 
HETATM   32 BR1  UNL     1      35.985 -13.104  27.780  1.00  0.00    -0.051 Br
HETATM   33  C17 UNL     1      37.329 -15.455  26.779  1.00  0.00     0.022 A 
HETATM   34  C18 UNL     1      37.755 -16.758  26.835  1.00  0.00     0.038 A 
ENDBRANCH  27  28
ENDBRANCH  26  27
ENDBRANCH  23  26
ENDBRANCH  20  22
ENDBRANCH  18  20
ENDBRANCH   1  18
TORSDOF 11
ENDMDL
MODEL 3
REMARK VINA RESULT: -7.416798974      4.447      7.420
REMARK  11 active torsions:
REMARK  status: ('A' for Active; 'I' for Inactive)
REMARK    1  A    between atoms: C2_2  and  C3_3 
REMARK    2  A    between atoms: C3_3  and  C4_4 
REMARK    3  A    between atoms: C4_4  and  N1_5 
REMARK       I    between atoms: N1_5  and  C5_6 
REMARK       I    between atoms: C5_6  and  N2_8 
REMARK    4  A    between atoms: N2_8  and  C6_10 
REMARK    5  A    between atoms: C9_13  and  N3_14 
REMARK    6  A    between atoms: N3_14  and  C10_16 
REMARK    7  A    between atoms: C10_16  and  N4_18 
REMARK    8  A    between atoms: N4_18  and  N5_20 
REMARK       I    between atoms: N5_20  and  C11_22 
REMARK    9  A    between atoms: C11_22  and  C12_24 
REMARK   10  A    between atoms: C12_24  and  O3_25 
REMARK   11  A    between atoms: O3_25  and  C13_26 
ROOT
HETATM    1  N3  UNL     1      37.210 -16.946  26.768  1.00  0.00    -0.332 N 
ATOM      2  H3  UNL     1      36.379 -17.234  26.250  1.00  0.00     0.168 HD
ENDROOT
BRANCH   1   3
HETATM    3  C9  UNL     1      38.073 -17.958  27.197  1.00  0.00     0.034 A 
HETATM    4  C8  UNL     1      39.467 -17.792  27.172  1.00  0.00     0.032 A 
HETATM    5  C7  UNL     1      40.293 -18.791  27.585  1.00  0.00     0.032 A 
HETATM    6  C6  UNL     1      39.828 -20.032  28.058  1.00  0.00     0.037 A 
HETATM    7  C20 UNL     1      38.459 -20.182  28.080  1.00  0.00     0.032 A 
HETATM    8  C19 UNL     1      37.617 -19.169  27.658  1.00  0.00     0.032 A 
BRANCH   6   9
HETATM    9  N2  UNL     1      40.758 -21.025  28.410  1.00  0.00    -0.297 N 
HETATM   10  C5  UNL     1      41.193 -21.292  29.795  1.00  0.00     0.397 C 
HETATM   11  N1  UNL     1      42.057 -22.293  30.002  1.00  0.00    -0.369 NA
HETATM   12  O1  UNL     1      40.659 -20.490  30.634  1.00  0.00    -0.230 OA
ATOM     13  H2  UNL     1      41.155 -21.596  27.664  1.00  0.00     0.172 HD
BRANCH  11  14
HETATM   14  C4  UNL     1      42.941 -23.317  30.215  1.00  0.00     0.161 C 
BRANCH  14  15
HETATM   15  C3  UNL     1      44.355 -22.881  30.503  1.00  0.00     0.059 C 
BRANCH  15  16
HETATM   16  C2  UNL     1      44.445 -21.624  31.300  1.00  0.00     0.002 C 
HETATM   17  C1  UNL     1      45.149 -20.498  30.624  1.00  0.00     0.005 C 
ENDBRANCH  15  16
ENDBRANCH  14  15
ENDBRANCH  11  14
ENDBRANCH   6   9
ENDBRANCH   1   3
BRANCH   1  18
HETATM   18  C10 UNL     1      37.380 -15.571  26.983  1.00  0.00     0.191 C 
HETATM   19  S1  UNL     1      37.071 -14.901  28.413  1.00  0.00    -0.039 SA
BRANCH  18  20
HETATM   20  N4  UNL     1      37.838 -14.766  25.906  1.00  0.00    -0.273 N 
ATOM     21  H4  UNL     1      37.823 -13.750  26.000  1.00  0.00     0.189 HD
BRANCH  20  22
HETATM   22  N5  UNL     1      38.307 -15.336  24.727  1.00  0.00    -0.266 N 
HETATM   23  C11 UNL     1      39.624 -15.539  24.318  1.00  0.00     0.260 C 
HETATM   24  O2  UNL     1      40.672 -15.265  24.945  1.00  0.00    -0.269 OA
ATOM     25  H5  UNL     1      37.590 -15.647  24.072  1.00  0.00     0.190 HD
BRANCH  23  26
HETATM   26  C12 UNL     1      39.822 -16.160  22.947  1.00  0.00     0.280 C 
BRANCH  26  27
HETATM   27  O3  UNL     1      38.759 -17.023  22.659  1.00  0.00    -0.342 OA
BRANCH  27  28
HETATM   28  C13 UNL     1      38.615 -18.245  23.240  1.00  0.00     0.069 A 
HETATM   29  C14 UNL     1      39.643 -19.090  23.593  1.00  0.00     0.038 A 
HETATM   30  C15 UNL     1      39.423 -20.322  24.179  1.00  0.00     0.022 A 
HETATM   31  C16 UNL     1      38.152 -20.754  24.433  1.00  0.00     0.011 A 
HETATM   32 BR1  UNL     1      37.853 -22.455  25.237  1.00  0.00    -0.051 Br
HETATM   33  C17 UNL     1      37.088 -19.919  24.087  1.00  0.00     0.022 A 
HETATM   34  C18 UNL     1      37.324 -18.699  23.506  1.00  0.00     0.038 A 
ENDBRANCH  27  28
ENDBRANCH  26  27
ENDBRANCH  23  26
ENDBRANCH  20  22
ENDBRANCH  18  20
ENDBRANCH   1  18
TORSDOF 11
ENDMDL
MODEL 4
REMARK VINA RESULT: -7.270740875      1.153      1.617
REMARK  11 active torsions:
REMARK  status: ('A' for Active; 'I' for Inactive)
REMARK    1  A    between atoms: C2_2  and  C3_3 
REMARK    2  A    between atoms: C3_3  and  C4_4 
REMARK    3  A    between atoms: C4_4  and  N1_5 
REMARK       I    between atoms: N1_5  and  C5_6 
REMARK       I    between atoms: C5_6  and  N2_8 
REMARK    4  A    between atoms: N2_8  and  C6_10 
REMARK    5  A    between atoms: C9_13  and  N3_14 
REMARK    6  A    between atoms: N3_14  and  C10_16 
REMARK    7  A    between atoms: C10_16  and  N4_18 
REMARK    8  A    between atoms: N4_18  and  N5_20 
REMARK       I    between atoms: N5_20  and  C11_22 
REMARK    9  A    between atoms: C11_22  and  C12_24 
REMARK   10  A    between atoms: C12_24  and  O3_25 
REMARK   11  A    between atoms: O3_25  and  C13_26 
ROOT
HETATM    1  N3  UNL     1      42.526 -22.407  28.998  1.00  0.00    -0.332 N 
ATOM      2  H3  UNL     1      42.488 -22.579  27.993  1.00  0.00     0.168 HD
ENDROOT
BRANCH   1   3
HETATM    3  C9  UNL     1      43.715 -21.874  29.505  1.00  0.00     0.034 A 
HETATM    4  C8  UNL     1      44.711 -21.366  28.656  1.00  0.00     0.032 A 
HETATM    5  C7  UNL     1      45.866 -20.858  29.166  1.00  0.00     0.032 A 
HETATM    6  C6  UNL     1      46.142 -20.803  30.545  1.00  0.00     0.037 A 
HETATM    7  C20 UNL     1      45.158 -21.303  31.367  1.00  0.00     0.032 A 
HETATM    8  C19 UNL     1      43.983 -21.821  30.851  1.00  0.00     0.032 A 
BRANCH   6   9
HETATM    9  N2  UNL     1      47.387 -20.314  30.977  1.00  0.00    -0.297 N 
HETATM   10  C5  UNL     1      48.547 -21.173  31.286  1.00  0.00     0.397 C 
HETATM   11  N1  UNL     1      49.690 -20.580  31.652  1.00  0.00    -0.369 NA
HETATM   12  O1  UNL     1      48.279 -22.415  31.154  1.00  0.00    -0.230 OA
ATOM     13  H2  UNL     1      47.495 -19.305  31.083  1.00  0.00     0.172 HD
BRANCH  11  14
HETATM   14  C4  UNL     1      50.859 -19.973  32.026  1.00  0.00     0.161 C 
BRANCH  14  15
HETATM   15  C3  UNL     1      51.278 -20.234  33.451  1.00  0.00     0.059 C 
BRANCH  15  16
HETATM   16  C2  UNL     1      52.446 -19.419  33.892  1.00  0.00     0.002 C 
HETATM   17  C1  UNL     1      52.256 -18.689  35.177  1.00  0.00     0.005 C 
ENDBRANCH  15  16
ENDBRANCH  14  15
ENDBRANCH  11  14
ENDBRANCH   6   9
ENDBRANCH   1   3
BRANCH   1  18
HETATM   18  C10 UNL     1      41.382 -22.728  29.742  1.00  0.00     0.191 C 
HETATM   19  S1  UNL     1      40.958 -24.256  30.013  1.00  0.00    -0.039 SA
BRANCH  18  20
HETATM   20  N4  UNL     1      40.591 -21.668  30.262  1.00  0.00    -0.273 N 
ATOM     21  H4  UNL     1      40.243 -21.728  31.219  1.00  0.00     0.189 HD
BRANCH  20  22
HETATM   22  N5  UNL     1      40.284 -20.551  29.492  1.00  0.00    -0.266 N 
HETATM   23  C11 UNL     1      39.327 -20.419  28.487  1.00  0.00     0.260 C 
HETATM   24  O2  UNL     1      38.523 -21.286  28.076  1.00  0.00    -0.269 OA
ATOM     25  H5  UNL     1      40.833 -19.715  29.690  1.00  0.00     0.190 HD
BRANCH  23  26
HETATM   26  C12 UNL     1      39.250 -19.070  27.796  1.00  0.00     0.280 C 
BRANCH  26  27
HETATM   27  O3  UNL     1      39.030 -18.063  28.742  1.00  0.00    -0.342 OA
BRANCH  27  28
HETATM   28  C13 UNL     1      38.357 -16.914  28.463  1.00  0.00     0.069 A 
HETATM   29  C14 UNL     1      38.869 -15.831  27.785  1.00  0.00     0.038 A 
HETATM   30  C15 UNL     1      38.129 -14.691  27.538  1.00  0.00     0.022 A 
HETATM   31  C16 UNL     1      36.835 -14.597  27.968  1.00  0.00     0.011 A 
HETATM   32 BR1  UNL     1      35.819 -13.021  27.630  1.00  0.00    -0.051 Br
HETATM   33  C17 UNL     1      36.286 -15.678  28.659  1.00  0.00     0.022 A 
HETATM   34  C18 UNL     1      37.036 -16.802  28.895  1.00  0.00     0.038 A 
ENDBRANCH  27  28
ENDBRANCH  26  27
ENDBRANCH  23  26
ENDBRANCH  20  22
ENDBRANCH  18  20
ENDBRANCH   1  18
TORSDOF 11
ENDMDL
MODEL 5
REMARK VINA RESULT: -7.162773994      6.766      8.538
REMARK  11 active torsions:
REMARK  status: ('A' for Active; 'I' for Inactive)
REMARK    1  A    between atoms: C2_2  and  C3_3 
REMARK    2  A    between atoms: C3_3  and  C4_4 
REMARK    3  A    between atoms: C4_4  and  N1_5 
REMARK       I    between atoms: N1_5  and  C5_6 
REMARK       I    between atoms: C5_6  and  N2_8 
REMARK    4  A    between atoms: N2_8  and  C6_10 
REMARK    5  A    between atoms: C9_13  and  N3_14 
REMARK    6  A    between atoms: N3_14  and  C10_16 
REMARK    7  A    between atoms: C10_16  and  N4_18 
REMARK    8  A    between atoms: N4_18  and  N5_20 
REMARK       I    between atoms: N5_20  and  C11_22 
REMARK    9  A    between atoms: C11_22  and  C12_24 
REMARK   10  A    between atoms: C12_24  and  O3_25 
REMARK   11  A    between atoms: O3_25  and  C13_26 
ROOT
HETATM    1  N3  UNL     1      38.429 -15.644  28.300  1.00  0.00    -0.332 N 
ATOM      2  H3  UNL     1      39.098 -15.140  28.882  1.00  0.00     0.168 HD
ENDROOT
BRANCH   1   3
HETATM    3  C9  UNL     1      38.597 -17.028  28.194  1.00  0.00     0.034 A 
HETATM    4  C8  UNL     1      39.832 -17.590  27.834  1.00  0.00     0.032 A 
HETATM    5  C7  UNL     1      39.976 -18.939  27.727  1.00  0.00     0.032 A 
HETATM    6  C6  UNL     1      38.929 -19.849  27.964  1.00  0.00     0.037 A 
HETATM    7  C20 UNL     1      37.724 -19.286  28.318  1.00  0.00     0.032 A 
HETATM    8  C19 UNL     1      37.574 -17.914  28.426  1.00  0.00     0.032 A 
BRANCH   6   9
HETATM    9  N2  UNL     1      39.157 -21.223  27.774  1.00  0.00    -0.297 N 
HETATM   10  C5  UNL     1      39.835 -22.089  28.758  1.00  0.00     0.397 C 
HETATM   11  N1  UNL     1      39.956 -23.391  28.472  1.00  0.00    -0.369 NA
HETATM   12  O1  UNL     1      40.227 -21.440  29.786  1.00  0.00    -0.230 OA
ATOM     13  H2  UNL     1      38.834 -21.646  26.903  1.00  0.00     0.172 HD
BRANCH  11  14
HETATM   14  C4  UNL     1      40.080 -24.723  28.181  1.00  0.00     0.161 C 
BRANCH  14  15
HETATM   15  C3  UNL     1      40.185 -25.626  29.385  1.00  0.00     0.059 C 
BRANCH  15  16
HETATM   16  C2  UNL     1      41.242 -26.671  29.261  1.00  0.00     0.002 C 
HETATM   17  C1  UNL     1      40.804 -27.936  28.608  1.00  0.00     0.005 C 
ENDBRANCH  15  16
ENDBRANCH  14  15
ENDBRANCH  11  14
ENDBRANCH   6   9
ENDBRANCH   1   3
BRANCH   1  18
HETATM   18  C10 UNL     1      37.425 -14.885  27.681  1.00  0.00     0.191 C 
HETATM   19  S1  UNL     1      36.071 -14.493  28.457  1.00  0.00    -0.039 SA
BRANCH  18  20
HETATM   20  N4  UNL     1      37.624 -14.460  26.341  1.00  0.00    -0.273 N 
ATOM     21  H4  UNL     1      37.571 -13.465  26.119  1.00  0.00     0.189 HD
BRANCH  20  22
HETATM   22  N5  UNL     1      37.891 -15.373  25.325  1.00  0.00    -0.266 N 
HETATM   23  C11 UNL     1      39.109 -15.671  24.716  1.00  0.00     0.260 C 
HETATM   24  O2  UNL     1      40.233 -15.187  24.974  1.00  0.00    -0.269 OA
ATOM     25  H5  UNL     1      37.086 -15.894  24.979  1.00  0.00     0.190 HD
BRANCH  23  26
HETATM   26  C12 UNL     1      39.076 -16.700  23.600  1.00  0.00     0.280 C 
BRANCH  26  27
HETATM   27  O3  UNL     1      39.617 -17.909  24.052  1.00  0.00    -0.342 OA
BRANCH  27  28
HETATM   28  C13 UNL     1      38.872 -19.028  24.255  1.00  0.00     0.069 A 
HETATM   29  C14 UNL     1      39.326 -20.323  24.150  1.00  0.00     0.038 A 
HETATM   30  C15 UNL     1      38.511 -21.417  24.368  1.00  0.00     0.022 A 
HETATM   31  C16 UNL     1      37.196 -21.248  24.703  1.00  0.00     0.011 A 
HETATM   32 BR1  UNL     1      36.074 -22.758  24.998  1.00  0.00    -0.051 Br
HETATM   33  C17 UNL     1      36.705 -19.946  24.819  1.00  0.00     0.022 A 
HETATM   34  C18 UNL     1      37.529 -18.872  24.598  1.00  0.00     0.038 A 
ENDBRANCH  27  28
ENDBRANCH  26  27
ENDBRANCH  23  26
ENDBRANCH  20  22
ENDBRANCH  18  20
ENDBRANCH   1  18
TORSDOF 11
ENDMDL
