MODEL 1
REMARK VINA RESULT: -7.305213747      0.000      0.000
REMARK  8 active torsions:
REMARK  status: ('A' for Active; 'I' for Inactive)
REMARK    1  A    between atoms: C4_4  and  C5_5 
REMARK    2  A    between atoms: C5_5  and  C6_6 
REMARK    3  A    between atoms: C6_6  and  S1_7 
REMARK    4  A    between atoms: S1_7  and  C7_8 
REMARK    5  A    between atoms: C12_14  and  N1_15 
REMARK       I    between atoms: N1_15  and  C13_17 
REMARK       I    between atoms: C13_17  and  N2_19 
REMARK    6  A    between atoms: N2_19  and  C14_21 
REMARK    7  A    between atoms: C14_21  and  C15_22 
REMARK    8  A    between atoms: C15_22  and  N3_23 
REMARK       I    between atoms: N3_23  and  C16_25 
ROOT
HETATM    1  C7  UNL     1      35.400 -22.159  23.374  1.00  0.00     0.020 A 
HETATM    2  C8  UNL     1      34.956 -21.110  22.575  1.00  0.00     0.028 A 
HETATM    3  C9  UNL     1      35.518 -19.889  22.845  1.00  0.00    -0.041 A 
HETATM    4  C10 UNL     1      35.174 -18.653  22.102  1.00  0.00     0.049 C 
HETATM    5  C11 UNL     1      36.473 -19.735  23.862  1.00  0.00     0.042 A 
HETATM    6  S2  UNL     1      37.367 -18.423  24.486  1.00  0.00    -0.051 SA
HETATM    7  C12 UNL     1      38.234 -19.260  25.695  1.00  0.00     0.153 A 
HETATM    8  N6  UNL     1      37.797 -20.516  25.566  1.00  0.00    -0.334 N 
ATOM      9  H6  UNL     1      38.149 -21.258  26.172  1.00  0.00     0.168 HD
HETATM   10  C17 UNL     1      36.901 -20.773  24.639  1.00  0.00     0.070 A 
HETATM   11  C18 UNL     1      36.326 -22.034  24.367  1.00  0.00     0.056 A 
HETATM   12 BR1  UNL     1      36.793 -23.602  25.340  1.00  0.00    -0.047 Br
ENDROOT
BRANCH   7  13
HETATM   13  N1  UNL     1      39.101 -18.804  26.550  1.00  0.00    -0.288 N 
HETATM   14  C13 UNL     1      38.599 -18.448  27.864  1.00  0.00     0.325 C 
HETATM   15  O1  UNL     1      39.190 -19.018  28.794  1.00  0.00    -0.247 OA
HETATM   16  N2  UNL     1      37.554 -17.554  28.049  1.00  0.00    -0.321 N 
ATOM     17  H2  UNL     1      37.178 -17.186  27.175  1.00  0.00     0.169 HD
ATOM     18  H1  UNL     1      40.088 -18.701  26.308  1.00  0.00     0.172 HD
BRANCH  16  19
HETATM   19  C14 UNL     1      36.906 -17.049  29.188  1.00  0.00     0.085 C 
BRANCH  19  20
HETATM   20  C15 UNL     1      36.494 -15.638  29.274  1.00  0.00     0.166 C 
BRANCH  20  21
HETATM   21  N3  UNL     1      35.999 -15.002  28.106  1.00  0.00    -0.360 N 
HETATM   22  C16 UNL     1      36.582 -13.774  27.612  1.00  0.00     0.182 C 
HETATM   23  N4  UNL     1      37.845 -13.643  27.536  1.00  0.00    -0.374 N 
HETATM   24  N5  UNL     1      35.711 -12.740  27.223  1.00  0.00    -0.064 NA
ATOM     25  H42 UNL     1      38.476 -14.393  27.818  1.00  0.00     0.158 HD
ATOM     26  H41 UNL     1      38.256 -12.777  27.187  1.00  0.00     0.158 HD
ATOM     27  H3  UNL     1      35.216 -15.420  27.604  1.00  0.00     0.162 HD
ENDBRANCH  20  21
ENDBRANCH  19  20
ENDBRANCH  16  19
ENDBRANCH   7  13
BRANCH   1  28
HETATM   28  S1  UNL     1      34.658 -23.768  23.045  1.00  0.00    -0.128 SA
BRANCH  28  29
HETATM   29  C6  UNL     1      35.672 -24.610  21.739  1.00  0.00     0.083 C 
BRANCH  29  30
HETATM   30  C5  UNL     1      35.415 -26.061  21.912  1.00  0.00     0.038 C 
BRANCH  30  31
HETATM   31  C4  UNL     1      35.467 -26.642  23.242  1.00  0.00    -0.024 C 
HETATM   32  C2  UNL     1      36.459 -27.135  23.931  1.00  0.00    -0.091 C 
HETATM   33  C1  UNL     1      37.855 -27.241  23.515  1.00  0.00     0.042 C 
HETATM   34  C3  UNL     1      36.134 -27.664  25.324  1.00  0.00     0.042 C 
ENDBRANCH  30  31
ENDBRANCH  29  30
ENDBRANCH  28  29
ENDBRANCH   1  28
TORSDOF 8
ENDMDL
MODEL 2
REMARK VINA RESULT: -7.170521446      2.546      3.197
REMARK  8 active torsions:
REMARK  status: ('A' for Active; 'I' for Inactive)
REMARK    1  A    between atoms: C4_4  and  C5_5 
REMARK    2  A    between atoms: C5_5  and  C6_6 
REMARK    3  A    between atoms: C6_6  and  S1_7 
REMARK    4  A    between atoms: S1_7  and  C7_8 
REMARK    5  A    between atoms: C12_14  and  N1_15 
REMARK       I    between atoms: N1_15  and  C13_17 
REMARK       I    between atoms: C13_17  and  N2_19 
REMARK    6  A    between atoms: N2_19  and  C14_21 
REMARK    7  A    between atoms: C14_21  and  C15_22 
REMARK    8  A    between atoms: C15_22  and  N3_23 
REMARK       I    between atoms: N3_23  and  C16_25 
ROOT
HETATM    1  C7  UNL     1      37.788 -24.275  25.811  1.00  0.00     0.020 A 
HETATM    2  C8  UNL     1      36.712 -23.529  25.340  1.00  0.00     0.028 A 
HETATM    3  C9  UNL     1      36.670 -22.227  25.768  1.00  0.00    -0.041 A 
HETATM    4  C10 UNL     1      35.603 -21.276  25.374  1.00  0.00     0.049 C 
HETATM    5  C11 UNL     1      37.657 -21.708  26.621  1.00  0.00     0.042 A 
HETATM    6  S2  UNL     1      37.939 -20.193  27.353  1.00  0.00    -0.051 SA
HETATM    7  C12 UNL     1      39.374 -20.583  28.193  1.00  0.00     0.153 A 
HETATM    8  N6  UNL     1      39.573 -21.865  27.873  1.00  0.00    -0.334 N 
ATOM      9  H6  UNL     1      40.376 -22.377  28.239  1.00  0.00     0.168 HD
HETATM   10  C17 UNL     1      38.708 -22.451  27.075  1.00  0.00     0.070 A 
HETATM   11  C18 UNL     1      38.758 -23.793  26.639  1.00  0.00     0.056 A 
HETATM   12 BR1  UNL     1      40.144 -24.987  27.162  1.00  0.00    -0.047 Br
ENDROOT
BRANCH   7  13
HETATM   13  N1  UNL     1      40.101 -19.835  28.969  1.00  0.00    -0.288 N 
HETATM   14  C13 UNL     1      39.643 -18.474  29.181  1.00  0.00     0.325 C 
HETATM   15  O1  UNL     1      39.501 -18.176  30.377  1.00  0.00    -0.247 OA
HETATM   16  N2  UNL     1      39.391 -17.597  28.135  1.00  0.00    -0.321 N 
ATOM     17  H2  UNL     1      39.550 -18.009  27.216  1.00  0.00     0.169 HD
ATOM     18  H1  UNL     1      40.952 -20.187  29.408  1.00  0.00     0.172 HD
BRANCH  16  19
HETATM   19  C14 UNL     1      38.961 -16.261  28.077  1.00  0.00     0.085 C 
BRANCH  19  20
HETATM   20  C15 UNL     1      37.679 -15.842  28.666  1.00  0.00     0.166 C 
BRANCH  20  21
HETATM   21  N3  UNL     1      37.346 -14.463  28.659  1.00  0.00    -0.360 N 
HETATM   22  C16 UNL     1      35.996 -14.014  28.395  1.00  0.00     0.182 C 
HETATM   23  N4  UNL     1      35.006 -14.578  28.960  1.00  0.00    -0.374 N 
HETATM   24  N5  UNL     1      35.820 -12.942  27.501  1.00  0.00    -0.064 NA
ATOM     25  H42 UNL     1      35.134 -15.355  29.608  1.00  0.00     0.158 HD
ATOM     26  H41 UNL     1      34.053 -14.262  28.774  1.00  0.00     0.158 HD
ATOM     27  H3  UNL     1      38.073 -13.773  28.844  1.00  0.00     0.162 HD
ENDBRANCH  20  21
ENDBRANCH  19  20
ENDBRANCH  16  19
ENDBRANCH   7  13
BRANCH   1  28
HETATM   28  S1  UNL     1      37.850 -25.994  25.273  1.00  0.00    -0.128 SA
BRANCH  28  29
HETATM   29  C6  UNL     1      36.467 -26.267  24.067  1.00  0.00     0.083 C 
BRANCH  29  30
HETATM   30  C5  UNL     1      35.853 -27.562  24.454  1.00  0.00     0.038 C 
BRANCH  30  31
HETATM   31  C4  UNL     1      35.347 -28.450  23.422  1.00  0.00    -0.024 C 
HETATM   32  C2  UNL     1      34.687 -29.571  23.495  1.00  0.00    -0.091 C 
HETATM   33  C1  UNL     1      34.262 -30.268  24.707  1.00  0.00     0.042 C 
HETATM   34  C3  UNL     1      34.312 -30.238  22.175  1.00  0.00     0.042 C 
ENDBRANCH  30  31
ENDBRANCH  29  30
ENDBRANCH  28  29
ENDBRANCH   1  28
TORSDOF 8
ENDMDL
MODEL 3
REMARK VINA RESULT: -7.170049905      2.985      4.034
REMARK  8 active torsions:
REMARK  status: ('A' for Active; 'I' for Inactive)
REMARK    1  A    between atoms: C4_4  and  C5_5 
REMARK    2  A    between atoms: C5_5  and  C6_6 
REMARK    3  A    between atoms: C6_6  and  S1_7 
REMARK    4  A    between atoms: S1_7  and  C7_8 
REMARK    5  A    between atoms: C12_14  and  N1_15 
REMARK       I    between atoms: N1_15  and  C13_17 
REMARK       I    between atoms: C13_17  and  N2_19 
REMARK    6  A    between atoms: N2_19  and  C14_21 
REMARK    7  A    between atoms: C14_21  and  C15_22 
REMARK    8  A    between atoms: C15_22  and  N3_23 
REMARK       I    between atoms: N3_23  and  C16_25 
ROOT
HETATM    1  C7  UNL     1      38.788 -23.076  25.944  1.00  0.00     0.020 A 
HETATM    2  C8  UNL     1      40.090 -23.542  26.101  1.00  0.00     0.028 A 
HETATM    3  C9  UNL     1      40.876 -22.806  26.949  1.00  0.00    -0.041 A 
HETATM    4  C10 UNL     1      42.290 -23.143  27.245  1.00  0.00     0.049 C 
HETATM    5  C11 UNL     1      40.379 -21.666  27.601  1.00  0.00     0.042 A 
HETATM    6  S2  UNL     1      41.028 -20.522  28.688  1.00  0.00    -0.051 SA
HETATM    7  C12 UNL     1      39.642 -19.542  28.878  1.00  0.00     0.153 A 
HETATM    8  N6  UNL     1      38.739 -20.140  28.095  1.00  0.00    -0.334 N 
ATOM      9  H6  UNL     1      37.794 -19.767  28.008  1.00  0.00     0.168 HD
HETATM   10  C17 UNL     1      39.100 -21.220  27.438  1.00  0.00     0.070 A 
HETATM   11  C18 UNL     1      38.283 -21.973  26.566  1.00  0.00     0.056 A 
HETATM   12 BR1  UNL     1      36.470 -21.512  26.210  1.00  0.00    -0.047 Br
ENDROOT
BRANCH   7  13
HETATM   13  N1  UNL     1      39.488 -18.468  29.594  1.00  0.00    -0.288 N 
HETATM   14  C13 UNL     1      38.888 -17.324  28.933  1.00  0.00     0.325 C 
HETATM   15  O1  UNL     1      37.886 -16.880  29.516  1.00  0.00    -0.247 OA
HETATM   16  N2  UNL     1      39.397 -16.785  27.760  1.00  0.00    -0.321 N 
ATOM     17  H2  UNL     1      40.220 -17.277  27.413  1.00  0.00     0.169 HD
ATOM     18  H1  UNL     1      39.774 -18.432  30.573  1.00  0.00     0.172 HD
BRANCH  16  19
HETATM   19  C14 UNL     1      39.017 -15.702  26.950  1.00  0.00     0.085 C 
BRANCH  19  20
HETATM   20  C15 UNL     1      38.179 -14.610  27.473  1.00  0.00     0.166 C 
BRANCH  20  21
HETATM   21  N3  UNL     1      36.777 -14.810  27.559  1.00  0.00    -0.360 N 
HETATM   22  C16 UNL     1      35.944 -13.965  28.386  1.00  0.00     0.182 C 
HETATM   23  N4  UNL     1      36.084 -12.702  28.367  1.00  0.00    -0.374 N 
HETATM   24  N5  UNL     1      34.982 -14.585  29.204  1.00  0.00    -0.064 NA
ATOM     25  H42 UNL     1      36.782 -12.252  27.773  1.00  0.00     0.158 HD
ATOM     26  H41 UNL     1      35.497 -12.105  28.951  1.00  0.00     0.158 HD
ATOM     27  H3  UNL     1      36.347 -15.566  27.026  1.00  0.00     0.162 HD
ENDBRANCH  20  21
ENDBRANCH  19  20
ENDBRANCH  16  19
ENDBRANCH   7  13
BRANCH   1  28
HETATM   28  S1  UNL     1      37.744 -24.020  24.819  1.00  0.00    -0.128 SA
BRANCH  28  29
HETATM   29  C6  UNL     1      38.349 -25.774  24.811  1.00  0.00     0.083 C 
BRANCH  29  30
HETATM   30  C5  UNL     1      37.275 -26.566  25.461  1.00  0.00     0.038 C 
BRANCH  30  31
HETATM   31  C4  UNL     1      36.458 -27.457  24.655  1.00  0.00    -0.024 C 
HETATM   32  C2  UNL     1      35.402 -27.234  23.923  1.00  0.00    -0.091 C 
HETATM   33  C1  UNL     1      34.726 -25.956  23.716  1.00  0.00     0.042 C 
HETATM   34  C3  UNL     1      34.799 -28.435  23.201  1.00  0.00     0.042 C 
ENDBRANCH  30  31
ENDBRANCH  29  30
ENDBRANCH  28  29
ENDBRANCH   1  28
TORSDOF 8
ENDMDL
MODEL 4
REMARK VINA RESULT: -7.121345441      1.776      2.564
REMARK  8 active torsions:
REMARK  status: ('A' for Active; 'I' for Inactive)
REMARK    1  A    between atoms: C4_4  and  C5_5 
REMARK    2  A    between atoms: C5_5  and  C6_6 
REMARK    3  A    between atoms: C6_6  and  S1_7 
REMARK    4  A    between atoms: S1_7  and  C7_8 
REMARK    5  A    between atoms: C12_14  and  N1_15 
REMARK       I    between atoms: N1_15  and  C13_17 
REMARK       I    between atoms: C13_17  and  N2_19 
REMARK    6  A    between atoms: N2_19  and  C14_21 
REMARK    7  A    between atoms: C14_21  and  C15_22 
REMARK    8  A    between atoms: C15_22  and  N3_23 
REMARK       I    between atoms: N3_23  and  C16_25 
ROOT
HETATM    1  C7  UNL     1      36.510 -21.565  24.703  1.00  0.00     0.020 A 
HETATM    2  C8  UNL     1      35.791 -21.160  23.583  1.00  0.00     0.028 A 
HETATM    3  C9  UNL     1      36.051 -19.885  23.150  1.00  0.00    -0.041 A 
HETATM    4  C10 UNL     1      35.386 -19.274  21.974  1.00  0.00     0.049 C 
HETATM    5  C11 UNL     1      36.983 -19.068  23.808  1.00  0.00     0.042 A 
HETATM    6  S2  UNL     1      37.558 -17.476  23.586  1.00  0.00    -0.051 SA
HETATM    7  C12 UNL     1      38.653 -17.419  24.894  1.00  0.00     0.153 A 
HETATM    8  N6  UNL     1      38.528 -18.629  25.447  1.00  0.00    -0.334 N 
ATOM      9  H6  UNL     1      39.075 -18.888  26.268  1.00  0.00     0.168 HD
HETATM   10  C17 UNL     1      37.683 -19.478  24.906  1.00  0.00     0.070 A 
HETATM   11  C18 UNL     1      37.420 -20.790  25.358  1.00  0.00     0.056 A 
HETATM   12 BR1  UNL     1      38.294 -21.544  26.872  1.00  0.00    -0.047 Br
ENDROOT
BRANCH   7  13
HETATM   13  N1  UNL     1      39.419 -16.443  25.282  1.00  0.00    -0.288 N 
HETATM   14  C13 UNL     1      38.937 -15.632  26.384  1.00  0.00     0.325 C 
HETATM   15  O1  UNL     1      39.731 -15.560  27.335  1.00  0.00    -0.247 OA
HETATM   16  N2  UNL     1      37.701 -15.001  26.365  1.00  0.00    -0.321 N 
ATOM     17  H2  UNL     1      37.173 -15.174  25.510  1.00  0.00     0.169 HD
ATOM     18  H1  UNL     1      40.317 -16.256  24.833  1.00  0.00     0.172 HD
BRANCH  16  19
HETATM   19  C14 UNL     1      37.024 -14.175  27.277  1.00  0.00     0.085 C 
BRANCH  19  20
HETATM   20  C15 UNL     1      36.594 -14.675  28.593  1.00  0.00     0.166 C 
BRANCH  20  21
HETATM   21  N3  UNL     1      36.300 -16.056  28.732  1.00  0.00    -0.360 N 
HETATM   22  C16 UNL     1      37.320 -17.010  29.109  1.00  0.00     0.182 C 
HETATM   23  N4  UNL     1      38.121 -16.756  30.064  1.00  0.00    -0.374 N 
HETATM   24  N5  UNL     1      37.394 -18.216  28.388  1.00  0.00    -0.064 NA
ATOM     25  H42 UNL     1      38.066 -15.882  30.587  1.00  0.00     0.158 HD
ATOM     26  H41 UNL     1      38.841 -17.429  30.330  1.00  0.00     0.158 HD
ATOM     27  H3  UNL     1      35.349 -16.384  28.563  1.00  0.00     0.162 HD
ENDBRANCH  20  21
ENDBRANCH  19  20
ENDBRANCH  16  19
ENDBRANCH   7  13
BRANCH   1  28
HETATM   28  S1  UNL     1      36.168 -23.232  25.297  1.00  0.00    -0.128 SA
BRANCH  28  29
HETATM   29  C6  UNL     1      36.152 -24.371  23.833  1.00  0.00     0.083 C 
BRANCH  29  30
HETATM   30  C5  UNL     1      34.847 -25.075  23.892  1.00  0.00     0.038 C 
BRANCH  30  31
HETATM   31  C4  UNL     1      34.762 -26.459  23.459  1.00  0.00    -0.024 C 
HETATM   32  C2  UNL     1      35.279 -27.550  23.949  1.00  0.00    -0.091 C 
HETATM   33  C1  UNL     1      36.131 -27.670  25.129  1.00  0.00     0.042 C 
HETATM   34  C3  UNL     1      34.965 -28.851  23.217  1.00  0.00     0.042 C 
ENDBRANCH  30  31
ENDBRANCH  29  30
ENDBRANCH  28  29
ENDBRANCH   1  28
TORSDOF 8
ENDMDL
MODEL 5
REMARK VINA RESULT: -7.105130442      2.797      3.714
REMARK  8 active torsions:
REMARK  status: ('A' for Active; 'I' for Inactive)
REMARK    1  A    between atoms: C4_4  and  C5_5 
REMARK    2  A    between atoms: C5_5  and  C6_6 
REMARK    3  A    between atoms: C6_6  and  S1_7 
REMARK    4  A    between atoms: S1_7  and  C7_8 
REMARK    5  A    between atoms: C12_14  and  N1_15 
REMARK       I    between atoms: N1_15  and  C13_17 
REMARK       I    between atoms: C13_17  and  N2_19 
REMARK    6  A    between atoms: N2_19  and  C14_21 
REMARK    7  A    between atoms: C14_21  and  C15_22 
REMARK    8  A    between atoms: C15_22  and  N3_23 
REMARK       I    between atoms: N3_23  and  C16_25 
ROOT
HETATM    1  C7  UNL     1      39.150 -23.847  26.744  1.00  0.00     0.020 A 
HETATM    2  C8  UNL     1      38.054 -23.545  25.942  1.00  0.00     0.028 A 
HETATM    3  C9  UNL     1      37.546 -22.281  26.096  1.00  0.00    -0.041 A 
HETATM    4  C10 UNL     1      36.382 -21.773  25.331  1.00  0.00     0.049 C 
HETATM    5  C11 UNL     1      38.110 -21.374  27.008  1.00  0.00     0.042 A 
HETATM    6  S2  UNL     1      37.769 -19.770  27.477  1.00  0.00    -0.051 SA
HETATM    7  C12 UNL     1      39.008 -19.578  28.636  1.00  0.00     0.153 A 
HETATM    8  N6  UNL     1      39.631 -20.759  28.611  1.00  0.00    -0.334 N 
ATOM      9  H6  UNL     1      40.432 -20.941  29.216  1.00  0.00     0.168 HD
HETATM   10  C17 UNL     1      39.185 -21.683  27.789  1.00  0.00     0.070 A 
HETATM   11  C18 UNL     1      39.715 -22.983  27.636  1.00  0.00     0.056 A 
HETATM   12 BR1  UNL     1      41.213 -23.602  28.635  1.00  0.00    -0.047 Br
ENDROOT
BRANCH   7  13
HETATM   13  N1  UNL     1      39.285 -18.548  29.379  1.00  0.00    -0.288 N 
HETATM   14  C13 UNL     1      38.899 -17.247  28.864  1.00  0.00     0.325 C 
HETATM   15  O1  UNL     1      38.181 -16.597  29.640  1.00  0.00    -0.247 OA
HETATM   16  N2  UNL     1      39.300 -16.785  27.619  1.00  0.00    -0.321 N 
ATOM     17  H2  UNL     1      39.880 -17.452  27.109  1.00  0.00     0.169 HD
ATOM     18  H1  UNL     1      39.751 -18.649  30.281  1.00  0.00     0.172 HD
BRANCH  16  19
HETATM   19  C14 UNL     1      39.076 -15.592  26.913  1.00  0.00     0.085 C 
BRANCH  19  20
HETATM   20  C15 UNL     1      38.196 -14.539  27.446  1.00  0.00     0.166 C 
BRANCH  20  21
HETATM   21  N3  UNL     1      36.805 -14.803  27.549  1.00  0.00    -0.360 N 
HETATM   22  C16 UNL     1      35.948 -14.008  28.400  1.00  0.00     0.182 C 
HETATM   23  N4  UNL     1      36.032 -12.739  28.398  1.00  0.00    -0.374 N 
HETATM   24  N5  UNL     1      35.027 -14.682  29.222  1.00  0.00    -0.064 NA
ATOM     25  H42 UNL     1      36.699 -12.251  27.801  1.00  0.00     0.158 HD
ATOM     26  H41 UNL     1      35.427 -12.178  28.999  1.00  0.00     0.158 HD
ATOM     27  H3  UNL     1      36.402 -15.570  27.011  1.00  0.00     0.162 HD
ENDBRANCH  20  21
ENDBRANCH  19  20
ENDBRANCH  16  19
ENDBRANCH   7  13
BRANCH   1  28
HETATM   28  S1  UNL     1      39.821 -25.510  26.568  1.00  0.00    -0.128 SA
BRANCH  28  29
HETATM   29  C6  UNL     1      40.551 -25.656  24.868  1.00  0.00     0.083 C 
BRANCH  29  30
HETATM   30  C5  UNL     1      39.768 -26.719  24.191  1.00  0.00     0.038 C 
BRANCH  30  31
HETATM   31  C4  UNL     1      38.372 -26.912  24.542  1.00  0.00    -0.024 C 
HETATM   32  C2  UNL     1      37.348 -27.298  23.832  1.00  0.00    -0.091 C 
HETATM   33  C1  UNL     1      37.341 -27.653  22.416  1.00  0.00     0.042 C 
HETATM   34  C3  UNL     1      36.006 -27.391  24.552  1.00  0.00     0.042 C 
ENDBRANCH  30  31
ENDBRANCH  29  30
ENDBRANCH  28  29
ENDBRANCH   1  28
TORSDOF 8
ENDMDL
