MODEL 1
REMARK VINA RESULT: -6.266590951      0.000      0.000
REMARK  3 active torsions:
REMARK  status: ('A' for Active; 'I' for Inactive)
REMARK    1  A    between atoms: C4_5  and  C5_6 
REMARK    2  A    between atoms: C6_9  and  C7_10 
REMARK    3  A    between atoms: C7_10  and  O3_11 
ROOT
HETATM    1  C1  UNL     1      25.373 -47.007   9.077  1.00  0.00     0.049 C 
HETATM    2  C2  UNL     1      24.283 -46.011   9.450  1.00  0.00    -0.045 A 
HETATM    3  C3  UNL     1      23.123 -46.037   8.754  1.00  0.00     0.058 A 
HETATM    4  S1  UNL     1      22.186 -44.828   9.430  1.00  0.00    -0.094 SA
HETATM    5  C4  UNL     1      23.329 -44.250  10.669  1.00  0.00     0.091 A 
HETATM    6  C6  UNL     1      24.392 -45.061  10.467  1.00  0.00     0.006 A 
ENDROOT
BRANCH   6   7
HETATM    7  C7  UNL     1      25.700 -45.023  11.240  1.00  0.00     0.087 C 
HETATM    8  C8  UNL     1      25.646 -45.929  12.447  1.00  0.00     0.043 C 
HETATM    9  C9  UNL     1      26.931 -46.722  12.558  1.00  0.00     0.003 C 
HETATM   10  C10 UNL     1      28.175 -45.923  12.469  1.00  0.00     0.000 C 
HETATM   11  C11 UNL     1      28.075 -44.776  11.520  1.00  0.00     0.003 C 
HETATM   12  C12 UNL     1      26.952 -45.179  10.500  1.00  0.00     0.043 C 
BRANCH   7  13
HETATM   13  O3  UNL     1      25.813 -43.678  11.758  1.00  0.00    -0.385 OA
ATOM     14  H3  UNL     1      26.735 -43.552  11.953  1.00  0.00     0.211 HD
ENDBRANCH   7  13
ENDBRANCH   6   7
BRANCH   5  15
HETATM   15  C5  UNL     1      22.917 -43.152  11.508  1.00  0.00     0.217 C 
HETATM   16  O1  UNL     1      21.681 -42.724  11.272  1.00  0.00    -0.643 OA
HETATM   17  O2  UNL     1      23.502 -42.463  12.472  1.00  0.00    -0.643 OA
ENDBRANCH   5  15
TORSDOF 3
ENDMDL
MODEL 2
REMARK VINA RESULT: -6.028345252      0.870      1.047
REMARK  3 active torsions:
REMARK  status: ('A' for Active; 'I' for Inactive)
REMARK    1  A    between atoms: C4_5  and  C5_6 
REMARK    2  A    between atoms: C6_9  and  C7_10 
REMARK    3  A    between atoms: C7_10  and  O3_11 
ROOT
HETATM    1  C1  UNL     1      26.158 -47.477   9.622  1.00  0.00     0.049 C 
HETATM    2  C2  UNL     1      25.050 -46.434   9.678  1.00  0.00    -0.045 A 
HETATM    3  C3  UNL     1      23.990 -46.577   8.849  1.00  0.00     0.058 A 
HETATM    4  S1  UNL     1      22.999 -45.273   9.185  1.00  0.00    -0.094 SA
HETATM    5  C4  UNL     1      23.982 -44.495  10.451  1.00  0.00     0.091 A 
HETATM    6  C6  UNL     1      25.045 -45.327  10.529  1.00  0.00     0.006 A 
ENDROOT
BRANCH   6   7
HETATM    7  C7  UNL     1      26.241 -45.159  11.451  1.00  0.00     0.087 C 
HETATM    8  C8  UNL     1      26.191 -46.144  12.595  1.00  0.00     0.043 C 
HETATM    9  C9  UNL     1      27.559 -46.755  12.814  1.00  0.00     0.003 C 
HETATM   10  C10 UNL     1      28.674 -45.785  12.913  1.00  0.00     0.000 C 
HETATM   11  C11 UNL     1      28.510 -44.601  12.021  1.00  0.00     0.003 C 
HETATM   12  C12 UNL     1      27.576 -45.087  10.856  1.00  0.00     0.043 C 
BRANCH   7  13
HETATM   13  O3  UNL     1      26.099 -43.850  12.049  1.00  0.00    -0.385 OA
ATOM     14  H3  UNL     1      26.689 -43.839  12.793  1.00  0.00     0.211 HD
ENDBRANCH   7  13
ENDBRANCH   6   7
BRANCH   5  15
HETATM   15  C5  UNL     1      23.487 -43.273  11.035  1.00  0.00     0.217 C 
HETATM   16  O1  UNL     1      24.279 -42.223  10.847  1.00  0.00    -0.643 OA
HETATM   17  O2  UNL     1      22.406 -42.957  11.727  1.00  0.00    -0.643 OA
ENDBRANCH   5  15
TORSDOF 3
ENDMDL
MODEL 3
REMARK VINA RESULT: -5.911339279      2.624      4.745
REMARK  3 active torsions:
REMARK  status: ('A' for Active; 'I' for Inactive)
REMARK    1  A    between atoms: C4_5  and  C5_6 
REMARK    2  A    between atoms: C6_9  and  C7_10 
REMARK    3  A    between atoms: C7_10  and  O3_11 
ROOT
HETATM    1  C1  UNL     1      25.154 -46.920   9.469  1.00  0.00     0.049 C 
HETATM    2  C2  UNL     1      26.417 -46.965  10.319  1.00  0.00    -0.045 A 
HETATM    3  C3  UNL     1      27.190 -48.074  10.263  1.00  0.00     0.058 A 
HETATM    4  S1  UNL     1      28.462 -47.768  11.306  1.00  0.00    -0.094 SA
HETATM    5  C4  UNL     1      27.990 -46.138  11.849  1.00  0.00     0.091 A 
HETATM    6  C6  UNL     1      26.843 -45.936  11.162  1.00  0.00     0.006 A 
ENDROOT
BRANCH   6   7
HETATM    7  C7  UNL     1      25.969 -44.696  11.234  1.00  0.00     0.087 C 
HETATM    8  C8  UNL     1      26.259 -43.756  10.087  1.00  0.00     0.043 C 
HETATM    9  C9  UNL     1      24.963 -43.237   9.502  1.00  0.00     0.003 C 
HETATM   10  C10 UNL     1      24.000 -42.693  10.487  1.00  0.00     0.000 C 
HETATM   11  C11 UNL     1      24.000 -43.429  11.784  1.00  0.00     0.003 C 
HETATM   12  C12 UNL     1      24.531 -44.867  11.444  1.00  0.00     0.043 C 
BRANCH   7  13
HETATM   13  O3  UNL     1      26.374 -43.996  12.432  1.00  0.00    -0.385 OA
ATOM     14  H3  UNL     1      25.580 -43.618  12.793  1.00  0.00     0.211 HD
ENDBRANCH   7  13
ENDBRANCH   6   7
BRANCH   5  15
HETATM   15  C5  UNL     1      28.836 -45.476  12.811  1.00  0.00     0.217 C 
HETATM   16  O1  UNL     1      29.410 -44.368  12.355  1.00  0.00    -0.643 OA
HETATM   17  O2  UNL     1      29.175 -45.729  14.063  1.00  0.00    -0.643 OA
ENDBRANCH   5  15
TORSDOF 3
ENDMDL
MODEL 4
REMARK VINA RESULT: -5.876462795      3.123      4.837
REMARK  3 active torsions:
REMARK  status: ('A' for Active; 'I' for Inactive)
REMARK    1  A    between atoms: C4_5  and  C5_6 
REMARK    2  A    between atoms: C6_9  and  C7_10 
REMARK    3  A    between atoms: C7_10  and  O3_11 
ROOT
HETATM    1  C1  UNL     1      27.127 -45.313  12.366  1.00  0.00     0.049 C 
HETATM    2  C2  UNL     1      26.918 -46.490  11.421  1.00  0.00    -0.045 A 
HETATM    3  C3  UNL     1      27.697 -47.585  11.577  1.00  0.00     0.058 A 
HETATM    4  S1  UNL     1      27.192 -48.648  10.388  1.00  0.00    -0.094 SA
HETATM    5  C4  UNL     1      25.918 -47.648   9.645  1.00  0.00     0.091 A 
HETATM    6  C6  UNL     1      25.973 -46.524  10.394  1.00  0.00     0.006 A 
ENDROOT
BRANCH   6   7
HETATM    7  C7  UNL     1      25.107 -45.289  10.211  1.00  0.00     0.087 C 
HETATM    8  C8  UNL     1      24.074 -45.179  11.307  1.00  0.00     0.043 C 
HETATM    9  C9  UNL     1      23.998 -43.753  11.808  1.00  0.00     0.003 C 
HETATM   10  C10 UNL     1      23.859 -42.721  10.754  1.00  0.00     0.000 C 
HETATM   11  C11 UNL     1      24.610 -43.043   9.507  1.00  0.00     0.003 C 
HETATM   12  C12 UNL     1      25.765 -44.007   9.956  1.00  0.00     0.043 C 
BRANCH   7  13
HETATM   13  O3  UNL     1      24.367 -45.503   8.987  1.00  0.00    -0.385 OA
ATOM     14  H3  UNL     1      23.786 -46.235   9.160  1.00  0.00     0.211 HD
ENDBRANCH   7  13
ENDBRANCH   6   7
BRANCH   5  15
HETATM   15  C5  UNL     1      25.201 -48.195   8.519  1.00  0.00     0.217 C 
HETATM   16  O1  UNL     1      25.985 -48.671   7.558  1.00  0.00    -0.643 OA
HETATM   17  O2  UNL     1      23.920 -48.330   8.223  1.00  0.00    -0.643 OA
ENDBRANCH   5  15
TORSDOF 3
ENDMDL
MODEL 5
REMARK VINA RESULT: -5.841265436      2.338      3.608
REMARK  3 active torsions:
REMARK  status: ('A' for Active; 'I' for Inactive)
REMARK    1  A    between atoms: C4_5  and  C5_6 
REMARK    2  A    between atoms: C6_9  and  C7_10 
REMARK    3  A    between atoms: C7_10  and  O3_11 
ROOT
HETATM    1  C1  UNL     1      23.529 -42.562  11.889  1.00  0.00     0.049 C 
HETATM    2  C2  UNL     1      22.604 -43.286  10.919  1.00  0.00    -0.045 A 
HETATM    3  C3  UNL     1      21.345 -42.816  10.760  1.00  0.00     0.058 A 
HETATM    4  S1  UNL     1      20.639 -43.840   9.642  1.00  0.00    -0.094 SA
HETATM    5  C4  UNL     1      22.018 -44.933   9.356  1.00  0.00     0.091 A 
HETATM    6  C6  UNL     1      22.961 -44.411  10.172  1.00  0.00     0.006 A 
ENDROOT
BRANCH   6   7
HETATM    7  C7  UNL     1      24.371 -44.945  10.360  1.00  0.00     0.087 C 
HETATM    8  C8  UNL     1      25.400 -43.961   9.856  1.00  0.00     0.043 C 
HETATM    9  C9  UNL     1      26.541 -43.851  10.844  1.00  0.00     0.003 C 
HETATM   10  C10 UNL     1      27.119 -45.141  11.286  1.00  0.00     0.000 C 
HETATM   11  C11 UNL     1      26.107 -46.229  11.420  1.00  0.00     0.003 C 
HETATM   12  C12 UNL     1      24.740 -45.495  11.664  1.00  0.00     0.043 C 
BRANCH   7  13
HETATM   13  O3  UNL     1      24.473 -46.102   9.499  1.00  0.00    -0.385 OA
ATOM     14  H3  UNL     1      23.991 -45.882   8.710  1.00  0.00     0.211 HD
ENDBRANCH   7  13
ENDBRANCH   6   7
BRANCH   5  15
HETATM   15  C5  UNL     1      21.834 -46.023   8.431  1.00  0.00     0.217 C 
HETATM   16  O1  UNL     1      20.998 -45.754   7.435  1.00  0.00    -0.643 OA
HETATM   17  O2  UNL     1      22.318 -47.251   8.351  1.00  0.00    -0.643 OA
ENDBRANCH   5  15
TORSDOF 3
ENDMDL
