MODEL 1
REMARK VINA RESULT: -9.138017931      0.000      0.000
REMARK  6 active torsions:
REMARK  status: ('A' for Active; 'I' for Inactive)
REMARK    1  A    between atoms: C2_2  and  C4_4 
REMARK    2  A    between atoms: C4_4  and  C5_6 
REMARK    3  A    between atoms: C5_6  and  C6_7 
REMARK    4  A    between atoms: C6_7  and  C7_8 
REMARK    5  A    between atoms: C7_8  and  C9_10 
REMARK    6  A    between atoms: C20_23  and  O3_24 
ROOT
HETATM    1  C9  UNL     1      34.823   6.683  49.208  1.00  0.00    -0.002 C 
HETATM    2  C10 UNL     1      33.348   6.445  49.513  1.00  0.00     0.006 C 
HETATM    3  C11 UNL     1      33.598   5.007  50.068  1.00  0.00     0.006 C 
HETATM    4  C12 UNL     1      34.586   5.366  51.124  1.00  0.00     0.006 C 
HETATM    5  C13 UNL     1      35.146   4.312  51.945  1.00  0.00     0.069 C 
HETATM    6  C14 UNL     1      35.001   3.045  51.299  1.00  0.00     0.047 C 
HETATM    7  C15 UNL     1      36.077   2.037  51.279  1.00  0.00     0.151 C 
HETATM    8  O2  UNL     1      36.123   1.327  50.031  1.00  0.00    -0.382 OA
HETATM    9  C16 UNL     1      36.867   2.427  49.421  1.00  0.00     0.200 C 
HETATM   10  C17 UNL     1      37.404   2.565  50.805  1.00  0.00     0.129 C 
HETATM   11  C18 UNL     1      38.408   1.456  50.913  1.00  0.00     0.079 C 
HETATM   12  N1  UNL     1      39.202   0.593  51.019  1.00  0.00    -0.196 NA
HETATM   13  C19 UNL     1      37.831   3.785  51.414  1.00  0.00     0.050 C 
HETATM   14  C20 UNL     1      37.668   5.078  51.050  1.00  0.00     0.056 C 
HETATM   15  C21 UNL     1      36.934   5.703  49.973  1.00  0.00     0.075 C 
HETATM   16  C22 UNL     1      35.572   6.269  50.406  1.00  0.00    -0.030 C 
HETATM   17  C23 UNL     1      35.894   7.467  51.295  1.00  0.00     0.016 C 
HETATM   18  C24 UNL     1      38.119   3.634  52.917  1.00  0.00     0.206 C 
HETATM   19  O4  UNL     1      39.219   4.056  53.307  1.00  0.00    -0.286 OA
HETATM   20  C25 UNL     1      37.189   3.050  53.892  1.00  0.00     0.110 C 
HETATM   21 CL1  UNL     1      38.056   2.030  55.073  1.00  0.00    -0.078 Cl
HETATM   22  C26 UNL     1      35.898   3.181  54.074  1.00  0.00     0.105 C 
HETATM   23 CL2  UNL     1      35.178   2.235  55.441  1.00  0.00    -0.078 Cl
HETATM   24  C27 UNL     1      34.872   3.991  53.402  1.00  0.00     0.177 C 
HETATM   25  O5  UNL     1      33.835   4.424  53.894  1.00  0.00    -0.291 OA
ENDROOT
BRANCH  14  26
HETATM   26  O3  UNL     1      38.322   5.981  51.935  1.00  0.00    -0.364 OA
ATOM     27  H3  UNL     1      38.013   5.901  52.831  1.00  0.00     0.217 HD
ENDBRANCH  14  26
BRANCH   1  28
HETATM   28  C7  UNL     1      35.051   7.924  48.495  1.00  0.00    -0.013 C 
HETATM   29  C8  UNL     1      34.022   9.019  48.786  1.00  0.00     0.010 C 
BRANCH  28  30
HETATM   30  C6  UNL     1      35.004   7.607  46.989  1.00  0.00     0.012 C 
BRANCH  30  31
HETATM   31  C5  UNL     1      34.112   8.479  46.200  1.00  0.00     0.079 C 
BRANCH  31  32
HETATM   32  C4  UNL     1      34.705   9.146  45.020  1.00  0.00     0.130 C 
HETATM   33  O1  UNL     1      35.704   9.805  44.976  1.00  0.00    -0.298 OA
BRANCH  32  34
HETATM   34  C2  UNL     1      33.915   8.940  43.738  1.00  0.00     0.047 C 
HETATM   35  C1  UNL     1      34.247   9.996  42.735  1.00  0.00     0.017 C 
HETATM   36  C3  UNL     1      34.241   7.580  43.192  1.00  0.00     0.017 C 
ENDBRANCH  32  34
ENDBRANCH  31  32
ENDBRANCH  30  31
ENDBRANCH  28  30
ENDBRANCH   1  28
TORSDOF 6
ENDMDL
MODEL 2
REMARK VINA RESULT: -9.064065368      2.671      3.965
REMARK  6 active torsions:
REMARK  status: ('A' for Active; 'I' for Inactive)
REMARK    1  A    between atoms: C2_2  and  C4_4 
REMARK    2  A    between atoms: C4_4  and  C5_6 
REMARK    3  A    between atoms: C5_6  and  C6_7 
REMARK    4  A    between atoms: C6_7  and  C7_8 
REMARK    5  A    between atoms: C7_8  and  C9_10 
REMARK    6  A    between atoms: C20_23  and  O3_24 
ROOT
HETATM    1  C9  UNL     1      35.808   5.334  49.975  1.00  0.00    -0.002 C 
HETATM    2  C10 UNL     1      34.393   4.806  49.762  1.00  0.00     0.006 C 
HETATM    3  C11 UNL     1      34.574   3.639  50.783  1.00  0.00     0.006 C 
HETATM    4  C12 UNL     1      34.952   4.462  51.967  1.00  0.00     0.006 C 
HETATM    5  C13 UNL     1      35.243   3.794  53.219  1.00  0.00     0.069 C 
HETATM    6  C14 UNL     1      35.565   2.421  52.990  1.00  0.00     0.047 C 
HETATM    7  C15 UNL     1      36.671   1.739  53.686  1.00  0.00     0.151 C 
HETATM    8  O2  UNL     1      37.348   0.804  52.831  1.00  0.00    -0.382 OA
HETATM    9  C16 UNL     1      38.124   1.891  52.238  1.00  0.00     0.200 C 
HETATM   10  C17 UNL     1      37.987   2.465  53.607  1.00  0.00     0.129 C 
HETATM   11  C18 UNL     1      38.988   1.699  54.419  1.00  0.00     0.079 C 
HETATM   12  N1  UNL     1      39.769   1.111  55.075  1.00  0.00    -0.196 NA
HETATM   13  C19 UNL     1      37.938   3.858  53.924  1.00  0.00     0.050 C 
HETATM   14  C20 UNL     1      37.772   4.953  53.147  1.00  0.00     0.056 C 
HETATM   15  C21 UNL     1      37.496   5.116  51.738  1.00  0.00     0.075 C 
HETATM   16  C22 UNL     1      36.017   5.401  51.431  1.00  0.00    -0.030 C 
HETATM   17  C23 UNL     1      35.756   6.809  51.960  1.00  0.00     0.016 C 
HETATM   18  C24 UNL     1      37.568   4.124  55.393  1.00  0.00     0.206 C 
HETATM   19  O4  UNL     1      38.324   4.886  56.016  1.00  0.00    -0.286 OA
HETATM   20  C25 UNL     1      36.398   3.556  56.077  1.00  0.00     0.110 C 
HETATM   21 CL1  UNL     1      36.803   3.078  57.748  1.00  0.00    -0.078 Cl
HETATM   22  C26 UNL     1      35.151   3.394  55.712  1.00  0.00     0.105 C 
HETATM   23 CL2  UNL     1      34.049   2.626  56.927  1.00  0.00    -0.078 Cl
HETATM   24  C27 UNL     1      34.414   3.747  54.489  1.00  0.00     0.177 C 
HETATM   25  O5  UNL     1      33.218   4.003  54.398  1.00  0.00    -0.291 OA
ENDROOT
BRANCH  14  26
HETATM   26  O3  UNL     1      37.850   6.165  53.889  1.00  0.00    -0.364 OA
ATOM     27  H3  UNL     1      37.394   6.882  53.463  1.00  0.00     0.217 HD
ENDBRANCH  14  26
BRANCH   1  28
HETATM   28  C7  UNL     1      36.149   6.401  49.056  1.00  0.00    -0.013 C 
HETATM   29  C8  UNL     1      34.948   7.029  48.343  1.00  0.00     0.010 C 
BRANCH  28  30
HETATM   30  C6  UNL     1      37.087   5.809  47.988  1.00  0.00     0.012 C 
BRANCH  30  31
HETATM   31  C5  UNL     1      38.210   5.015  48.522  1.00  0.00     0.079 C 
BRANCH  31  32
HETATM   32  C4  UNL     1      38.867   4.076  47.586  1.00  0.00     0.130 C 
HETATM   33  O1  UNL     1      39.382   4.331  46.535  1.00  0.00    -0.298 OA
BRANCH  32  34
HETATM   34  C2  UNL     1      38.863   2.632  48.060  1.00  0.00     0.047 C 
HETATM   35  C1  UNL     1      37.573   2.300  48.737  1.00  0.00     0.017 C 
HETATM   36  C3  UNL     1      39.073   1.741  46.871  1.00  0.00     0.017 C 
ENDBRANCH  32  34
ENDBRANCH  31  32
ENDBRANCH  30  31
ENDBRANCH  28  30
ENDBRANCH   1  28
TORSDOF 6
ENDMDL
MODEL 3
REMARK VINA RESULT: -8.632861644      3.619      5.372
REMARK  6 active torsions:
REMARK  status: ('A' for Active; 'I' for Inactive)
REMARK    1  A    between atoms: C2_2  and  C4_4 
REMARK    2  A    between atoms: C4_4  and  C5_6 
REMARK    3  A    between atoms: C5_6  and  C6_7 
REMARK    4  A    between atoms: C6_7  and  C7_8 
REMARK    5  A    between atoms: C7_8  and  C9_10 
REMARK    6  A    between atoms: C20_23  and  O3_24 
ROOT
HETATM    1  C9  UNL     1      36.479   4.497  51.029  1.00  0.00    -0.002 C 
HETATM    2  C10 UNL     1      35.104   4.006  50.589  1.00  0.00     0.006 C 
HETATM    3  C11 UNL     1      34.961   3.030  51.799  1.00  0.00     0.006 C 
HETATM    4  C12 UNL     1      35.143   4.030  52.889  1.00  0.00     0.006 C 
HETATM    5  C13 UNL     1      35.100   3.579  54.265  1.00  0.00     0.069 C 
HETATM    6  C14 UNL     1      35.346   2.173  54.338  1.00  0.00     0.047 C 
HETATM    7  C15 UNL     1      36.214   1.573  55.368  1.00  0.00     0.151 C 
HETATM    8  O2  UNL     1      36.977   0.472  54.850  1.00  0.00    -0.382 OA
HETATM    9  C16 UNL     1      37.952   1.400  54.282  1.00  0.00     0.200 C 
HETATM   10  C17 UNL     1      37.573   2.212  55.474  1.00  0.00     0.129 C 
HETATM   11  C18 UNL     1      38.307   1.553  56.604  1.00  0.00     0.079 C 
HETATM   12  N1  UNL     1      38.875   1.054  57.506  1.00  0.00    -0.196 NA
HETATM   13  C19 UNL     1      37.575   3.639  55.543  1.00  0.00     0.050 C 
HETATM   14  C20 UNL     1      37.674   4.587  54.583  1.00  0.00     0.056 C 
HETATM   15  C21 UNL     1      37.723   4.512  53.140  1.00  0.00     0.075 C 
HETATM   16  C22 UNL     1      36.374   4.809  52.464  1.00  0.00    -0.030 C 
HETATM   17  C23 UNL     1      36.127   6.298  52.688  1.00  0.00     0.016 C 
HETATM   18  C24 UNL     1      36.921   4.176  56.828  1.00  0.00     0.206 C 
HETATM   19  O4  UNL     1      37.587   4.999  57.475  1.00  0.00    -0.286 OA
HETATM   20  C25 UNL     1      35.588   3.792  57.310  1.00  0.00     0.110 C 
HETATM   21 CL1  UNL     1      35.581   3.597  59.084  1.00  0.00    -0.078 Cl
HETATM   22  C26 UNL     1      34.439   3.627  56.703  1.00  0.00     0.105 C 
HETATM   23 CL2  UNL     1      33.041   3.138  57.744  1.00  0.00    -0.078 Cl
HETATM   24  C27 UNL     1      34.016   3.795  55.305  1.00  0.00     0.177 C 
HETATM   25  O5  UNL     1      32.893   4.086  54.904  1.00  0.00    -0.291 OA
ENDROOT
BRANCH  14  26
HETATM   26  O3  UNL     1      37.693   5.906  55.118  1.00  0.00    -0.364 OA
ATOM     27  H3  UNL     1      37.519   5.922  56.052  1.00  0.00     0.217 HD
ENDBRANCH  14  26
BRANCH   1  28
HETATM   28  C7  UNL     1      37.099   5.369  50.052  1.00  0.00    -0.013 C 
HETATM   29  C8  UNL     1      36.192   5.752  48.881  1.00  0.00     0.010 C 
BRANCH  28  30
HETATM   30  C6  UNL     1      38.327   4.630  49.487  1.00  0.00     0.012 C 
BRANCH  30  31
HETATM   31  C5  UNL     1      38.052   3.778  48.315  1.00  0.00     0.079 C 
BRANCH  31  32
HETATM   32  C4  UNL     1      38.528   2.378  48.381  1.00  0.00     0.130 C 
HETATM   33  O1  UNL     1      38.788   1.650  47.467  1.00  0.00    -0.298 OA
BRANCH  32  34
HETATM   34  C2  UNL     1      38.690   1.852  49.797  1.00  0.00     0.047 C 
HETATM   35  C1  UNL     1      37.554   0.952  50.162  1.00  0.00     0.017 C 
HETATM   36  C3  UNL     1      39.992   1.111  49.884  1.00  0.00     0.017 C 
ENDBRANCH  32  34
ENDBRANCH  31  32
ENDBRANCH  30  31
ENDBRANCH  28  30
ENDBRANCH   1  28
TORSDOF 6
ENDMDL
MODEL 4
REMARK VINA RESULT: -8.616778429      2.254      3.084
REMARK  6 active torsions:
REMARK  status: ('A' for Active; 'I' for Inactive)
REMARK    1  A    between atoms: C2_2  and  C4_4 
REMARK    2  A    between atoms: C4_4  and  C5_6 
REMARK    3  A    between atoms: C5_6  and  C6_7 
REMARK    4  A    between atoms: C6_7  and  C7_8 
REMARK    5  A    between atoms: C7_8  and  C9_10 
REMARK    6  A    between atoms: C20_23  and  O3_24 
ROOT
HETATM    1  C9  UNL     1      34.548   6.698  51.085  1.00  0.00    -0.002 C 
HETATM    2  C10 UNL     1      33.393   5.947  50.433  1.00  0.00     0.006 C 
HETATM    3  C11 UNL     1      34.334   4.912  49.740  1.00  0.00     0.006 C 
HETATM    4  C12 UNL     1      35.023   4.413  50.964  1.00  0.00     0.006 C 
HETATM    5  C13 UNL     1      36.044   3.395  50.825  1.00  0.00     0.069 C 
HETATM    6  C14 UNL     1      36.543   3.366  49.487  1.00  0.00     0.047 C 
HETATM    7  C15 UNL     1      37.978   3.228  49.178  1.00  0.00     0.151 C 
HETATM    8  O2  UNL     1      38.359   4.010  48.035  1.00  0.00    -0.382 OA
HETATM    9  C16 UNL     1      38.447   5.206  48.869  1.00  0.00     0.200 C 
HETATM   10  C17 UNL     1      38.859   4.211  49.901  1.00  0.00     0.129 C 
HETATM   11  C18 UNL     1      40.284   3.900  49.550  1.00  0.00     0.079 C 
HETATM   12  N1  UNL     1      41.404   3.642  49.295  1.00  0.00    -0.196 NA
HETATM   13  C19 UNL     1      38.627   4.325  51.306  1.00  0.00     0.050 C 
HETATM   14  C20 UNL     1      37.836   5.156  52.023  1.00  0.00     0.056 C 
HETATM   15  C21 UNL     1      36.876   6.165  51.636  1.00  0.00     0.075 C 
HETATM   16  C22 UNL     1      35.418   5.681  51.699  1.00  0.00    -0.030 C 
HETATM   17  C23 UNL     1      35.109   5.516  53.184  1.00  0.00     0.016 C 
HETATM   18  C24 UNL     1      38.969   3.038  52.075  1.00  0.00     0.206 C 
HETATM   19  O4  UNL     1      39.716   3.171  53.056  1.00  0.00    -0.286 OA
HETATM   20  C25 UNL     1      38.466   1.701  51.732  1.00  0.00     0.110 C 
HETATM   21 CL1  UNL     1      39.740   0.467  51.932  1.00  0.00    -0.078 Cl
HETATM   22  C26 UNL     1      37.285   1.264  51.372  1.00  0.00     0.105 C 
HETATM   23 CL2  UNL     1      37.148  -0.512  51.045  1.00  0.00    -0.078 Cl
HETATM   24  C27 UNL     1      35.983   1.927  51.203  1.00  0.00     0.177 C 
HETATM   25  O5  UNL     1      34.874   1.419  51.335  1.00  0.00    -0.291 OA
ENDROOT
BRANCH  14  26
HETATM   26  O3  UNL     1      37.962   4.953  53.426  1.00  0.00    -0.364 OA
ATOM     27  H3  UNL     1      37.136   5.059  53.885  1.00  0.00     0.217 HD
ENDBRANCH  14  26
BRANCH   1  28
HETATM   28  C7  UNL     1      34.119   7.910  51.754  1.00  0.00    -0.013 C 
HETATM   29  C8  UNL     1      32.603   8.125  51.761  1.00  0.00     0.010 C 
BRANCH  28  30
HETATM   30  C6  UNL     1      34.770   9.098  51.022  1.00  0.00     0.012 C 
BRANCH  30  31
HETATM   31  C5  UNL     1      35.157   8.826  49.623  1.00  0.00     0.079 C 
BRANCH  31  32
HETATM   32  C4  UNL     1      34.169   9.176  48.579  1.00  0.00     0.130 C 
HETATM   33  O1  UNL     1      33.374  10.071  48.594  1.00  0.00    -0.298 OA
BRANCH  32  34
HETATM   34  C2  UNL     1      34.210   8.262  47.365  1.00  0.00     0.047 C 
HETATM   35  C1  UNL     1      34.411   9.052  46.113  1.00  0.00     0.017 C 
HETATM   36  C3  UNL     1      35.328   7.278  47.547  1.00  0.00     0.017 C 
ENDBRANCH  32  34
ENDBRANCH  31  32
ENDBRANCH  30  31
ENDBRANCH  28  30
ENDBRANCH   1  28
TORSDOF 6
ENDMDL
MODEL 5
REMARK VINA RESULT: -8.504544619      4.381      8.211
REMARK  6 active torsions:
REMARK  status: ('A' for Active; 'I' for Inactive)
REMARK    1  A    between atoms: C2_2  and  C4_4 
REMARK    2  A    between atoms: C4_4  and  C5_6 
REMARK    3  A    between atoms: C5_6  and  C6_7 
REMARK    4  A    between atoms: C6_7  and  C7_8 
REMARK    5  A    between atoms: C7_8  and  C9_10 
REMARK    6  A    between atoms: C20_23  and  O3_24 
ROOT
HETATM    1  C9  UNL     1      35.368   3.584  54.432  1.00  0.00    -0.002 C 
HETATM    2  C10 UNL     1      34.925   5.035  54.279  1.00  0.00     0.006 C 
HETATM    3  C11 UNL     1      36.233   5.456  53.538  1.00  0.00     0.006 C 
HETATM    4  C12 UNL     1      36.158   4.473  52.420  1.00  0.00     0.006 C 
HETATM    5  C13 UNL     1      37.210   4.466  51.424  1.00  0.00     0.069 C 
HETATM    6  C14 UNL     1      38.385   5.099  51.934  1.00  0.00     0.047 C 
HETATM    7  C15 UNL     1      39.738   4.557  51.711  1.00  0.00     0.151 C 
HETATM    8  O2  UNL     1      40.586   4.743  52.855  1.00  0.00    -0.382 OA
HETATM    9  C16 UNL     1      40.001   3.566  53.494  1.00  0.00     0.200 C 
HETATM   10  C17 UNL     1      39.887   3.106  52.080  1.00  0.00     0.129 C 
HETATM   11  C18 UNL     1      41.281   2.679  51.728  1.00  0.00     0.079 C 
HETATM   12  N1  UNL     1      42.367   2.337  51.431  1.00  0.00    -0.196 NA
HETATM   13  C19 UNL     1      38.875   2.236  51.568  1.00  0.00     0.050 C 
HETATM   14  C20 UNL     1      37.703   1.810  52.093  1.00  0.00     0.056 C 
HETATM   15  C21 UNL     1      37.004   2.142  53.314  1.00  0.00     0.075 C 
HETATM   16  C22 UNL     1      35.866   3.156  53.114  1.00  0.00    -0.030 C 
HETATM   17  C23 UNL     1      34.787   2.407  52.335  1.00  0.00     0.016 C 
HETATM   18  C24 UNL     1      38.899   2.130  50.034  1.00  0.00     0.206 C 
HETATM   19  O4  UNL     1      38.916   0.981  49.567  1.00  0.00    -0.286 OA
HETATM   20  C25 UNL     1      38.889   3.277  49.116  1.00  0.00     0.110 C 
HETATM   21 CL1  UNL     1      39.981   3.000  47.733  1.00  0.00    -0.078 Cl
HETATM   22  C26 UNL     1      38.209   4.397  49.105  1.00  0.00     0.105 C 
HETATM   23 CL2  UNL     1      38.550   5.532  47.735  1.00  0.00    -0.078 Cl
HETATM   24  C27 UNL     1      37.161   4.938  49.983  1.00  0.00     0.177 C 
HETATM   25  O5  UNL     1      36.267   5.718  49.670  1.00  0.00    -0.291 OA
ENDROOT
BRANCH  14  26
HETATM   26  O3  UNL     1      37.028   0.888  51.245  1.00  0.00    -0.364 OA
ATOM     27  H3  UNL     1      36.167   1.195  50.985  1.00  0.00     0.217 HD
ENDBRANCH  14  26
BRANCH   1  28
HETATM   28  C7  UNL     1      34.459   2.806  55.249  1.00  0.00    -0.013 C 
HETATM   29  C8  UNL     1      33.205   3.562  55.695  1.00  0.00     0.010 C 
BRANCH  28  30
HETATM   30  C6  UNL     1      35.229   2.367  56.508  1.00  0.00     0.012 C 
BRANCH  30  31
HETATM   31  C5  UNL     1      36.424   3.177  56.816  1.00  0.00     0.079 C 
BRANCH  31  32
HETATM   32  C4  UNL     1      36.480   3.798  58.158  1.00  0.00     0.130 C 
HETATM   33  O1  UNL     1      37.208   4.673  58.529  1.00  0.00    -0.298 OA
BRANCH  32  34
HETATM   34  C2  UNL     1      35.474   3.225  59.142  1.00  0.00     0.047 C 
HETATM   35  C1  UNL     1      36.135   2.883  60.438  1.00  0.00     0.017 C 
HETATM   36  C3  UNL     1      34.390   4.240  59.361  1.00  0.00     0.017 C 
ENDBRANCH  32  34
ENDBRANCH  31  32
ENDBRANCH  30  31
ENDBRANCH  28  30
ENDBRANCH   1  28
TORSDOF 6
ENDMDL
