MODEL 1
REMARK VINA RESULT: -8.473793512      0.000      0.000
REMARK  9 active torsions:
REMARK  status: ('A' for Active; 'I' for Inactive)
REMARK    1  A    between atoms: N1_2  and  C2_4 
REMARK    2  A    between atoms: C3_7  and  N3_8 
REMARK    3  A    between atoms: N3_8  and  C4_10 
REMARK    4  A    between atoms: C5_13  and  N5_14 
REMARK    5  A    between atoms: C6_17  and  C7_18 
REMARK    6  A    between atoms: C7_18  and  C8_19 
REMARK    7  A    between atoms: C7_18  and  C10_23 
REMARK    8  A    between atoms: C8_19  and  S1_20 
REMARK       I    between atoms: C10_23  and  N7_25 
REMARK    9  A    between atoms: C14_36  and  N11_37 
ROOT
HETATM    1  S1  UNL     1     -10.040 -87.872  92.433  1.00  0.00    -0.046 SA
HETATM    2  C9  UNL     1     -11.198 -86.673  93.054  1.00  0.00     0.133 C 
HETATM    3  N6  UNL     1     -11.961 -85.935  93.468  1.00  0.00    -0.184 NA
ENDROOT
BRANCH   1   4
HETATM    4  C8  UNL     1      -9.018 -88.375  93.811  1.00  0.00     0.135 C 
BRANCH   4   5
HETATM    5  C7  UNL     1      -7.839 -89.298  93.362  1.00  0.00     0.038 C 
BRANCH   5   6
HETATM    6  C6  UNL     1      -6.805 -88.379  92.824  1.00  0.00     0.027 A 
HETATM    7  C5  UNL     1      -6.309 -88.451  91.524  1.00  0.00     0.112 A 
HETATM    8  N4  UNL     1      -5.414 -87.623  90.983  1.00  0.00    -0.322 N 
HETATM    9  C4  UNL     1      -4.780 -86.563  91.498  1.00  0.00     0.165 A 
ATOM     10  H4  UNL     1      -5.174 -87.832  90.013  1.00  0.00     0.169 HD
HETATM   11  S2  UNL     1      -5.249 -86.264  93.130  1.00  0.00    -0.064 SA
HETATM   12  C13 UNL     1      -6.383 -87.368  93.700  1.00  0.00     0.069 A 
BRANCH   7  13
HETATM   13  N5  UNL     1      -6.654 -89.465  90.822  1.00  0.00    -0.385 N 
ATOM     14  H52 UNL     1      -6.413 -90.387  91.186  1.00  0.00     0.157 HD
ATOM     15  H51 UNL     1      -7.066 -89.273  89.909  1.00  0.00     0.157 HD
ENDBRANCH   7  13
BRANCH   9  16
HETATM   16  N3  UNL     1      -3.924 -85.943  90.828  1.00  0.00    -0.169 N 
ATOM     17  H3  UNL     1      -4.314 -85.068  90.477  1.00  0.00     0.186 HD
BRANCH  16  18
HETATM   18  C3  UNL     1      -2.646 -86.080  90.428  1.00  0.00     0.713 A 
HETATM   19  N2  UNL     1      -1.644 -86.257  91.317  1.00  0.00    -0.021 N 
HETATM   20  C2  UNL     1      -0.383 -86.452  90.979  1.00  0.00     0.706 A 
ATOM     21  H2  UNL     1      -1.877 -86.238  92.310  1.00  0.00     0.203 HD
HETATM   22  N12 UNL     1      -0.109 -86.470  89.645  1.00  0.00    -0.022 N 
HETATM   23  C14 UNL     1      -1.054 -86.303  88.714  1.00  0.00     0.705 A 
ATOM     24  H12 UNL     1       0.854 -86.618  89.345  1.00  0.00     0.203 HD
HETATM   25  N10 UNL     1      -2.305 -86.112  89.126  1.00  0.00    -0.021 N 
ATOM     26  H10 UNL     1      -3.035 -85.985  88.427  1.00  0.00     0.203 HD
BRANCH  20  27
HETATM   27  N1  UNL     1       0.613 -86.641  91.781  1.00  0.00    -0.229 N 
HETATM   28  C1  UNL     1       0.731 -86.005  93.061  1.00  0.00     0.165 C 
ATOM     29  H1  UNL     1       1.356 -87.277  91.488  1.00  0.00     0.177 HD
ENDBRANCH  20  27
BRANCH  23  30
HETATM   30  N11 UNL     1      -0.808 -86.297  87.439  1.00  0.00    -0.234 N 
ATOM     31 2H11 UNL     1      -1.536 -86.336  86.726  1.00  0.00     0.174 HD
ATOM     32 1H11 UNL     1       0.163 -86.267  87.126  1.00  0.00     0.174 HD
ENDBRANCH  23  30
ENDBRANCH  16  18
ENDBRANCH   9  16
ENDBRANCH   5   6
BRANCH   5  33
HETATM   33  C10 UNL     1      -7.628 -90.445  94.175  1.00  0.00     0.289 C 
HETATM   34  O1  UNL     1      -7.146 -90.465  95.355  1.00  0.00    -0.264 OA
HETATM   35  N7  UNL     1      -7.961 -91.780  93.730  1.00  0.00    -0.157 N 
HETATM   36  N8  UNL     1      -8.487 -92.117  92.584  1.00  0.00    -0.286 N 
HETATM   37  N9  UNL     1      -7.742 -92.907  94.418  1.00  0.00    -0.286 N 
HETATM   38  C11 UNL     1      -8.617 -93.443  92.496  1.00  0.00     0.128 A 
ATOM     39  H8  UNL     1      -8.762 -91.457  91.856  1.00  0.00     0.188 HD
HETATM   40  C12 UNL     1      -8.136 -93.943  93.684  1.00  0.00     0.128 A 
ATOM     41  H9  UNL     1      -7.339 -92.962  95.353  1.00  0.00     0.188 HD
ENDBRANCH   5  33
ENDBRANCH   4   5
ENDBRANCH   1   4
TORSDOF 9
ENDMDL
MODEL 2
REMARK VINA RESULT: -8.286904389      1.403      1.446
REMARK  9 active torsions:
REMARK  status: ('A' for Active; 'I' for Inactive)
REMARK    1  A    between atoms: N1_2  and  C2_4 
REMARK    2  A    between atoms: C3_7  and  N3_8 
REMARK    3  A    between atoms: N3_8  and  C4_10 
REMARK    4  A    between atoms: C5_13  and  N5_14 
REMARK    5  A    between atoms: C6_17  and  C7_18 
REMARK    6  A    between atoms: C7_18  and  C8_19 
REMARK    7  A    between atoms: C7_18  and  C10_23 
REMARK    8  A    between atoms: C8_19  and  S1_20 
REMARK       I    between atoms: C10_23  and  N7_25 
REMARK    9  A    between atoms: C14_36  and  N11_37 
ROOT
HETATM    1  S1  UNL     1      -9.900 -86.996  92.227  1.00  0.00    -0.046 SA
HETATM    2  C9  UNL     1      -9.089 -85.705  91.311  1.00  0.00     0.133 C 
HETATM    3  N6  UNL     1      -8.581 -84.852  90.753  1.00  0.00    -0.184 NA
ENDROOT
BRANCH   1   4
HETATM    4  C8  UNL     1      -8.875 -87.354  93.647  1.00  0.00     0.135 C 
BRANCH   4   5
HETATM    5  C7  UNL     1      -7.875 -88.523  93.369  1.00  0.00     0.038 C 
BRANCH   5   6
HETATM    6  C6  UNL     1      -6.677 -87.880  92.773  1.00  0.00     0.027 A 
HETATM    7  C5  UNL     1      -6.211 -88.156  91.489  1.00  0.00     0.112 A 
HETATM    8  N4  UNL     1      -5.169 -87.574  90.895  1.00  0.00    -0.322 N 
HETATM    9  C4  UNL     1      -4.329 -86.627  91.332  1.00  0.00     0.165 A 
ATOM     10  H4  UNL     1      -4.980 -87.904  89.948  1.00  0.00     0.169 HD
HETATM   11  S2  UNL     1      -4.721 -86.109  92.929  1.00  0.00    -0.064 SA
HETATM   12  C13 UNL     1      -6.054 -86.909  93.571  1.00  0.00     0.069 A 
BRANCH   7  13
HETATM   13  N5  UNL     1      -6.759 -89.132  90.866  1.00  0.00    -0.385 N 
ATOM     14  H52 UNL     1      -6.407 -90.068  91.065  1.00  0.00     0.157 HD
ATOM     15  H51 UNL     1      -7.446 -88.891  90.151  1.00  0.00     0.157 HD
ENDBRANCH   7  13
BRANCH   9  16
HETATM   16  N3  UNL     1      -3.368 -86.251  90.626  1.00  0.00    -0.169 N 
ATOM     17  H3  UNL     1      -3.696 -85.642  89.876  1.00  0.00     0.186 HD
BRANCH  16  18
HETATM   18  C3  UNL     1      -2.032 -86.405  90.554  1.00  0.00     0.713 A 
HETATM   19  N2  UNL     1      -1.199 -85.722  91.369  1.00  0.00    -0.021 N 
HETATM   20  C2  UNL     1       0.112 -85.875  91.381  1.00  0.00     0.706 A 
ATOM     21  H2  UNL     1      -1.608 -85.047  92.015  1.00  0.00     0.203 HD
HETATM   22  N12 UNL     1       0.624 -86.784  90.505  1.00  0.00    -0.022 N 
HETATM   23  C14 UNL     1      -0.145 -87.492  89.672  1.00  0.00     0.705 A 
ATOM     24  H12 UNL     1       1.633 -86.929  90.484  1.00  0.00     0.203 HD
HETATM   25  N10 UNL     1      -1.459 -87.288  89.715  1.00  0.00    -0.021 N 
ATOM     26  H10 UNL     1      -2.058 -87.824  89.087  1.00  0.00     0.203 HD
BRANCH  20  27
HETATM   27  N1  UNL     1       0.957 -85.263  92.146  1.00  0.00    -0.229 N 
HETATM   28  C1  UNL     1       1.358 -85.752  93.433  1.00  0.00     0.165 C 
ATOM     29  H1  UNL     1       1.359 -84.386  91.816  1.00  0.00     0.177 HD
ENDBRANCH  20  27
BRANCH  23  30
HETATM   30  N11 UNL     1       0.327 -88.348  88.816  1.00  0.00    -0.234 N 
ATOM     31 2H11 UNL     1       0.042 -89.326  88.785  1.00  0.00     0.174 HD
ATOM     32 1H11 UNL     1       1.033 -88.036  88.148  1.00  0.00     0.174 HD
ENDBRANCH  23  30
ENDBRANCH  16  18
ENDBRANCH   9  16
ENDBRANCH   5   6
BRANCH   5  33
HETATM   33  C10 UNL     1      -7.897 -89.576  94.324  1.00  0.00     0.289 C 
HETATM   34  O1  UNL     1      -8.052 -89.459  95.585  1.00  0.00    -0.264 OA
HETATM   35  N7  UNL     1      -7.745 -90.964  93.950  1.00  0.00    -0.157 N 
HETATM   36  N8  UNL     1      -7.585 -91.438  92.743  1.00  0.00    -0.286 N 
HETATM   37  N9  UNL     1      -7.704 -91.999  94.796  1.00  0.00    -0.286 N 
HETATM   38  C11 UNL     1      -7.434 -92.765  92.774  1.00  0.00     0.128 A 
ATOM     39  H8  UNL     1      -7.577 -90.872  91.895  1.00  0.00     0.188 HD
HETATM   40  C12 UNL     1      -7.514 -93.117  94.101  1.00  0.00     0.128 A 
ATOM     41  H9  UNL     1      -7.802 -91.940  95.810  1.00  0.00     0.188 HD
ENDBRANCH   5  33
ENDBRANCH   4   5
ENDBRANCH   1   4
TORSDOF 9
ENDMDL
MODEL 3
REMARK VINA RESULT: -8.250696712      1.135      1.183
REMARK  9 active torsions:
REMARK  status: ('A' for Active; 'I' for Inactive)
REMARK    1  A    between atoms: N1_2  and  C2_4 
REMARK    2  A    between atoms: C3_7  and  N3_8 
REMARK    3  A    between atoms: N3_8  and  C4_10 
REMARK    4  A    between atoms: C5_13  and  N5_14 
REMARK    5  A    between atoms: C6_17  and  C7_18 
REMARK    6  A    between atoms: C7_18  and  C8_19 
REMARK    7  A    between atoms: C7_18  and  C10_23 
REMARK    8  A    between atoms: C8_19  and  S1_20 
REMARK       I    between atoms: C10_23  and  N7_25 
REMARK    9  A    between atoms: C14_36  and  N11_37 
ROOT
HETATM    1  S1  UNL     1     -10.138 -87.798  92.427  1.00  0.00    -0.046 SA
HETATM    2  C9  UNL     1      -9.993 -89.110  91.234  1.00  0.00     0.133 C 
HETATM    3  N6  UNL     1      -9.865 -89.936  90.460  1.00  0.00    -0.184 NA
ENDROOT
BRANCH   1   4
HETATM    4  C8  UNL     1      -9.057 -88.209  93.790  1.00  0.00     0.135 C 
BRANCH   4   5
HETATM    5  C7  UNL     1      -7.886 -89.146  93.349  1.00  0.00     0.038 C 
BRANCH   5   6
HETATM    6  C6  UNL     1      -6.842 -88.240  92.808  1.00  0.00     0.027 A 
HETATM    7  C5  UNL     1      -6.292 -88.368  91.534  1.00  0.00     0.112 A 
HETATM    8  N4  UNL     1      -5.387 -87.554  90.989  1.00  0.00    -0.322 N 
HETATM    9  C4  UNL     1      -4.786 -86.462  91.477  1.00  0.00     0.165 A 
ATOM     10  H4  UNL     1      -5.105 -87.807  90.042  1.00  0.00     0.169 HD
HETATM   11  S2  UNL     1      -5.325 -86.091  93.072  1.00  0.00    -0.064 SA
HETATM   12  C13 UNL     1      -6.468 -87.182  93.650  1.00  0.00     0.069 A 
BRANCH   7  13
HETATM   13  N5  UNL     1      -6.597 -89.420  90.870  1.00  0.00    -0.385 N 
ATOM     14  H52 UNL     1      -5.984 -89.675  90.096  1.00  0.00     0.157 HD
ATOM     15  H51 UNL     1      -7.478 -89.874  91.108  1.00  0.00     0.157 HD
ENDBRANCH   7  13
BRANCH   9  16
HETATM   16  N3  UNL     1      -3.912 -85.863  90.812  1.00  0.00    -0.169 N 
ATOM     17  H3  UNL     1      -4.276 -84.976  90.465  1.00  0.00     0.186 HD
BRANCH  16  18
HETATM   18  C3  UNL     1      -2.637 -86.035  90.415  1.00  0.00     0.713 A 
HETATM   19  N2  UNL     1      -1.642 -86.236  91.306  1.00  0.00    -0.021 N 
HETATM   20  C2  UNL     1      -0.386 -86.466  90.971  1.00  0.00     0.706 A 
ATOM     21  H2  UNL     1      -1.875 -86.210  92.298  1.00  0.00     0.203 HD
HETATM   22  N12 UNL     1      -0.110 -86.493  89.637  1.00  0.00    -0.022 N 
HETATM   23  C14 UNL     1      -1.048 -86.302  88.704  1.00  0.00     0.705 A 
ATOM     24  H12 UNL     1       0.849 -86.666  89.339  1.00  0.00     0.203 HD
HETATM   25  N10 UNL     1      -2.294 -86.077  89.114  1.00  0.00    -0.021 N 
ATOM     26  H10 UNL     1      -3.020 -85.932  88.413  1.00  0.00     0.203 HD
BRANCH  20  27
HETATM   27  N1  UNL     1       0.604 -86.680  91.775  1.00  0.00    -0.229 N 
HETATM   28  C1  UNL     1       0.732 -86.051  93.058  1.00  0.00     0.165 C 
ATOM     29  H1  UNL     1       1.333 -87.330  91.481  1.00  0.00     0.177 HD
ENDBRANCH  20  27
BRANCH  23  30
HETATM   30  N11 UNL     1      -0.800 -86.304  87.429  1.00  0.00    -0.234 N 
ATOM     31 2H11 UNL     1      -1.503 -86.509  86.720  1.00  0.00     0.174 HD
ATOM     32 1H11 UNL     1       0.150 -86.107  87.113  1.00  0.00     0.174 HD
ENDBRANCH  23  30
ENDBRANCH  16  18
ENDBRANCH   9  16
ENDBRANCH   5   6
BRANCH   5  33
HETATM   33  C10 UNL     1      -7.688 -90.291  94.169  1.00  0.00     0.289 C 
HETATM   34  O1  UNL     1      -7.253 -90.305  95.367  1.00  0.00    -0.264 OA
HETATM   35  N7  UNL     1      -7.979 -91.631  93.710  1.00  0.00    -0.157 N 
HETATM   36  N8  UNL     1      -8.453 -91.975  92.543  1.00  0.00    -0.286 N 
HETATM   37  N9  UNL     1      -7.768 -92.755  94.405  1.00  0.00    -0.286 N 
HETATM   38  C11 UNL     1      -8.556 -93.303  92.449  1.00  0.00     0.128 A 
ATOM     39  H8  UNL     1      -8.709 -91.319  91.805  1.00  0.00     0.188 HD
HETATM   40  C12 UNL     1      -8.114 -93.797  93.654  1.00  0.00     0.128 A 
ATOM     41  H9  UNL     1      -7.402 -92.804  95.355  1.00  0.00     0.188 HD
ENDBRANCH   5  33
ENDBRANCH   4   5
ENDBRANCH   1   4
TORSDOF 9
ENDMDL
MODEL 4
REMARK VINA RESULT: -8.125702333      1.523      2.248
REMARK  9 active torsions:
REMARK  status: ('A' for Active; 'I' for Inactive)
REMARK    1  A    between atoms: N1_2  and  C2_4 
REMARK    2  A    between atoms: C3_7  and  N3_8 
REMARK    3  A    between atoms: N3_8  and  C4_10 
REMARK    4  A    between atoms: C5_13  and  N5_14 
REMARK    5  A    between atoms: C6_17  and  C7_18 
REMARK    6  A    between atoms: C7_18  and  C8_19 
REMARK    7  A    between atoms: C7_18  and  C10_23 
REMARK    8  A    between atoms: C8_19  and  S1_20 
REMARK       I    between atoms: C10_23  and  N7_25 
REMARK    9  A    between atoms: C14_36  and  N11_37 
ROOT
HETATM    1  S1  UNL     1      -9.964 -86.985  92.345  1.00  0.00    -0.046 SA
HETATM    2  C9  UNL     1      -9.260 -85.749  91.277  1.00  0.00     0.133 C 
HETATM    3  N6  UNL     1      -8.819 -84.930  90.619  1.00  0.00    -0.184 NA
ENDROOT
BRANCH   1   4
HETATM    4  C8  UNL     1      -8.812 -87.231  93.690  1.00  0.00     0.135 C 
BRANCH   4   5
HETATM    5  C7  UNL     1      -7.846 -88.431  93.422  1.00  0.00     0.038 C 
BRANCH   5   6
HETATM    6  C6  UNL     1      -6.627 -87.828  92.829  1.00  0.00     0.027 A 
HETATM    7  C5  UNL     1      -6.218 -88.045  91.515  1.00  0.00     0.112 A 
HETATM    8  N4  UNL     1      -5.157 -87.491  90.926  1.00  0.00    -0.322 N 
HETATM    9  C4  UNL     1      -4.243 -86.633  91.397  1.00  0.00     0.165 A 
ATOM     10  H4  UNL     1      -5.019 -87.768  89.954  1.00  0.00     0.169 HD
HETATM   11  S2  UNL     1      -4.553 -86.202  93.038  1.00  0.00    -0.064 SA
HETATM   12  C13 UNL     1      -5.917 -86.956  93.669  1.00  0.00     0.069 A 
BRANCH   7  13
HETATM   13  N5  UNL     1      -6.848 -88.938  90.848  1.00  0.00    -0.385 N 
ATOM     14  H52 UNL     1      -7.763 -88.682  90.476  1.00  0.00     0.157 HD
ATOM     15  H51 UNL     1      -6.427 -89.866  90.812  1.00  0.00     0.157 HD
ENDBRANCH   7  13
BRANCH   9  16
HETATM   16  N3  UNL     1      -3.280 -86.272  90.685  1.00  0.00    -0.169 N 
ATOM     17  H3  UNL     1      -3.602 -85.654  89.941  1.00  0.00     0.186 HD
BRANCH  16  18
HETATM   18  C3  UNL     1      -1.949 -86.452  90.603  1.00  0.00     0.713 A 
HETATM   19  N2  UNL     1      -1.404 -87.283  89.688  1.00  0.00    -0.021 N 
HETATM   20  C2  UNL     1      -0.105 -87.454  89.526  1.00  0.00     0.706 A 
ATOM     21  H2  UNL     1      -2.036 -87.811  89.085  1.00  0.00     0.203 HD
HETATM   22  N12 UNL     1       0.708 -86.734  90.348  1.00  0.00    -0.022 N 
HETATM   23  C14 UNL     1       0.234 -85.894  91.274  1.00  0.00     0.705 A 
ATOM     24  H12 UNL     1       1.717 -86.840  90.254  1.00  0.00     0.203 HD
HETATM   25  N10 UNL     1      -1.087 -85.770  91.381  1.00  0.00    -0.021 N 
ATOM     26  H10 UNL     1      -1.462 -85.131  92.082  1.00  0.00     0.203 HD
BRANCH  20  27
HETATM   27  N1  UNL     1       0.473 -88.221  88.661  1.00  0.00    -0.229 N 
HETATM   28  C1  UNL     1      -0.115 -88.581  87.403  1.00  0.00     0.165 C 
ATOM     29  H1  UNL     1       1.397 -88.591  88.884  1.00  0.00     0.177 HD
ENDBRANCH  20  27
BRANCH  23  30
HETATM   30  N11 UNL     1       0.993 -85.216  92.080  1.00  0.00    -0.234 N 
ATOM     31 2H11 UNL     1       2.008 -85.176  91.994  1.00  0.00     0.174 HD
ATOM     32 1H11 UNL     1       0.561 -84.708  92.852  1.00  0.00     0.174 HD
ENDBRANCH  23  30
ENDBRANCH  16  18
ENDBRANCH   9  16
ENDBRANCH   5   6
BRANCH   5  33
HETATM   33  C10 UNL     1      -7.906 -89.479  94.381  1.00  0.00     0.289 C 
HETATM   34  O1  UNL     1      -8.192 -89.365  95.619  1.00  0.00    -0.264 OA
HETATM   35  N7  UNL     1      -7.642 -90.859  94.038  1.00  0.00    -0.157 N 
HETATM   36  N8  UNL     1      -7.337 -91.329  92.859  1.00  0.00    -0.286 N 
HETATM   37  N9  UNL     1      -7.628 -91.885  94.896  1.00  0.00    -0.286 N 
HETATM   38  C11 UNL     1      -7.117 -92.645  92.918  1.00  0.00     0.128 A 
ATOM     39  H8  UNL     1      -7.276 -90.768  92.009  1.00  0.00     0.188 HD
HETATM   40  C12 UNL     1      -7.309 -92.994  94.235  1.00  0.00     0.128 A 
ATOM     41  H9  UNL     1      -7.830 -91.827  95.894  1.00  0.00     0.188 HD
ENDBRANCH   5  33
ENDBRANCH   4   5
ENDBRANCH   1   4
TORSDOF 9
ENDMDL
MODEL 5
REMARK VINA RESULT: -8.076337738      3.337      9.430
REMARK  9 active torsions:
REMARK  status: ('A' for Active; 'I' for Inactive)
REMARK    1  A    between atoms: N1_2  and  C2_4 
REMARK    2  A    between atoms: C3_7  and  N3_8 
REMARK    3  A    between atoms: N3_8  and  C4_10 
REMARK    4  A    between atoms: C5_13  and  N5_14 
REMARK    5  A    between atoms: C6_17  and  C7_18 
REMARK    6  A    between atoms: C7_18  and  C8_19 
REMARK    7  A    between atoms: C7_18  and  C10_23 
REMARK    8  A    between atoms: C8_19  and  S1_20 
REMARK       I    between atoms: C10_23  and  N7_25 
REMARK    9  A    between atoms: C14_36  and  N11_37 
ROOT
HETATM    1  S1  UNL     1      -1.538 -87.484  89.885  1.00  0.00    -0.046 SA
HETATM    2  C9  UNL     1       0.028 -86.841  89.338  1.00  0.00     0.133 C 
HETATM    3  N6  UNL     1       1.014 -86.422  88.951  1.00  0.00    -0.184 NA
ENDROOT
BRANCH   1   4
HETATM    4  C8  UNL     1      -2.611 -86.082  90.164  1.00  0.00     0.135 C 
BRANCH   4   5
HETATM    5  C7  UNL     1      -2.918 -85.870  91.682  1.00  0.00     0.038 C 
BRANCH   5   6
HETATM    6  C6  UNL     1      -4.397 -85.909  91.792  1.00  0.00     0.027 A 
HETATM    7  C5  UNL     1      -5.178 -84.798  92.105  1.00  0.00     0.112 A 
HETATM    8  N4  UNL     1      -6.510 -84.774  92.172  1.00  0.00    -0.322 N 
HETATM    9  C4  UNL     1      -7.414 -85.742  91.975  1.00  0.00     0.165 A 
ATOM     10  H4  UNL     1      -6.906 -83.865  92.412  1.00  0.00     0.169 HD
HETATM   11  S2  UNL     1      -6.669 -87.241  91.558  1.00  0.00    -0.064 SA
HETATM   12  C13 UNL     1      -4.991 -87.146  91.500  1.00  0.00     0.069 A 
BRANCH   7  13
HETATM   13  N5  UNL     1      -4.563 -83.736  92.470  1.00  0.00    -0.385 N 
ATOM     14  H52 UNL     1      -5.133 -82.962  92.811  1.00  0.00     0.157 HD
ATOM     15  H51 UNL     1      -3.556 -83.711  92.309  1.00  0.00     0.157 HD
ENDBRANCH   7  13
BRANCH   9  16
HETATM   16  N3  UNL     1      -8.633 -85.520  92.142  1.00  0.00    -0.169 N 
ATOM     17  H3  UNL     1      -8.900 -84.647  91.689  1.00  0.00     0.186 HD
BRANCH  16  18
HETATM   18  C3  UNL     1      -9.700 -86.084  92.738  1.00  0.00     0.713 A 
HETATM   19  N2  UNL     1     -10.958 -85.669  92.473  1.00  0.00    -0.021 N 
HETATM   20  C2  UNL     1     -12.042 -86.222  92.984  1.00  0.00     0.706 A 
ATOM     21  H2  UNL     1     -11.077 -84.879  91.838  1.00  0.00     0.203 HD
HETATM   22  N12 UNL     1     -11.845 -87.273  93.828  1.00  0.00    -0.022 N 
HETATM   23  C14 UNL     1     -10.628 -87.734  94.132  1.00  0.00     0.705 A 
ATOM     24  H12 UNL     1     -12.658 -87.726  94.244  1.00  0.00     0.203 HD
HETATM   25  N10 UNL     1      -9.579 -87.129  93.579  1.00  0.00    -0.021 N 
ATOM     26  H10 UNL     1      -8.645 -87.472  93.800  1.00  0.00     0.203 HD
BRANCH  20  27
HETATM   27  N1  UNL     1     -13.268 -85.879  92.757  1.00  0.00    -0.229 N 
HETATM   28  C1  UNL     1     -14.361 -86.808  92.744  1.00  0.00     0.165 C 
ATOM     29  H1  UNL     1     -13.469 -84.895  92.578  1.00  0.00     0.177 HD
ENDBRANCH  20  27
BRANCH  23  30
HETATM   30  N11 UNL     1     -10.420 -88.721  94.950  1.00  0.00    -0.234 N 
ATOM     31 2H11 UNL     1      -9.656 -89.387  94.844  1.00  0.00     0.174 HD
ATOM     32 1H11 UNL     1     -11.061 -88.853  95.733  1.00  0.00     0.174 HD
ENDBRANCH  23  30
ENDBRANCH  16  18
ENDBRANCH   9  16
ENDBRANCH   5   6
BRANCH   5  33
HETATM   33  C10 UNL     1      -1.975 -86.452  92.574  1.00  0.00     0.289 C 
HETATM   34  O1  UNL     1      -2.176 -87.434  93.361  1.00  0.00    -0.264 OA
HETATM   35  N7  UNL     1      -0.617 -85.970  92.686  1.00  0.00    -0.157 N 
HETATM   36  N8  UNL     1      -0.074 -84.991  92.014  1.00  0.00    -0.286 N 
HETATM   37  N9  UNL     1       0.306 -86.432  93.538  1.00  0.00    -0.286 N 
HETATM   38  C11 UNL     1       1.187 -84.791  92.407  1.00  0.00     0.128 A 
ATOM     39  H8  UNL     1      -0.548 -84.452  91.289  1.00  0.00     0.188 HD
HETATM   40  C12 UNL     1       1.423 -85.727  93.388  1.00  0.00     0.128 A 
ATOM     41  H9  UNL     1       0.173 -87.200  94.195  1.00  0.00     0.188 HD
ENDBRANCH   5  33
ENDBRANCH   4   5
ENDBRANCH   1   4
TORSDOF 9
ENDMDL
