MODEL 1
REMARK VINA RESULT: -7.257954596      0.000      0.000
REMARK  8 active torsions:
REMARK  status: ('A' for Active; 'I' for Inactive)
REMARK    1  A    between atoms: C3_3  and  N1_4 
REMARK    2  A    between atoms: N2_7  and  C5_8 
REMARK    3  A    between atoms: C5_8  and  C6_9 
REMARK    4  A    between atoms: C6_9  and  C7_10 
REMARK    5  A    between atoms: C7_10  and  O2_11 
REMARK    6  A    between atoms: N3_13  and  N4_15 
REMARK    7  A    between atoms: N4_15  and  N5_17 
REMARK    8  A    between atoms: C10_25  and  N7_26 
ROOT
HETATM    1  C1  UNL     1     -45.795 -11.963  25.480  1.00  0.00     0.014 C 
HETATM    2  C2  UNL     1     -45.428 -11.699  24.365  1.00  0.00    -0.097 C 
HETATM    3  C3  UNL     1     -44.986 -11.359  23.013  1.00  0.00     0.228 C 
ENDROOT
BRANCH   3   4
HETATM    4  N1  UNL     1     -44.176 -10.176  22.963  1.00  0.00    -0.271 N 
HETATM    5  C4  UNL     1     -43.033  -9.957  23.612  1.00  0.00     0.332 A 
HETATM    6  O1  UNL     1     -42.423 -10.726  24.394  1.00  0.00    -0.246 OA
HETATM    7  N2  UNL     1     -42.553  -8.711  23.314  1.00  0.00    -0.286 N 
HETATM    8  C8  UNL     1     -43.437  -8.183  22.466  1.00  0.00     0.153 A 
HETATM    9  C9  UNL     1     -43.550  -6.988  21.781  1.00  0.00     0.290 A 
HETATM   10  C11 UNL     1     -44.477  -9.085  22.225  1.00  0.00     0.161 A 
HETATM   11  O3  UNL     1     -42.676  -6.094  21.908  1.00  0.00    -0.265 OA
HETATM   12  N6  UNL     1     -44.586  -6.729  20.954  1.00  0.00    -0.154 N 
HETATM   13  C10 UNL     1     -45.571  -7.656  20.765  1.00  0.00     0.680 A 
ATOM     14  H6  UNL     1     -44.633  -5.834  20.468  1.00  0.00     0.187 HD
HETATM   15  N8  UNL     1     -45.509  -8.833  21.405  1.00  0.00    -0.174 N 
ATOM     16  H8  UNL     1     -46.241  -9.531  21.269  1.00  0.00     0.186 HD
BRANCH   7  17
HETATM   17  C5  UNL     1     -41.331  -8.117  23.794  1.00  0.00     0.190 C 
BRANCH  17  18
HETATM   18  C6  UNL     1     -41.461  -7.373  25.042  1.00  0.00     0.046 C 
HETATM   19  N3  UNL     1     -41.333  -6.082  25.110  1.00  0.00    -0.291 N 
ATOM     20  H3  UNL     1     -41.440  -5.641  26.024  1.00  0.00     0.188 HD
BRANCH  18  21
HETATM   21  C7  UNL     1     -41.750  -8.053  26.319  1.00  0.00     0.219 C 
BRANCH  21  22
HETATM   22  O2  UNL     1     -40.925  -9.148  26.559  1.00  0.00    -0.395 OA
ATOM     23  H2  UNL     1     -40.981  -9.816  25.886  1.00  0.00     0.209 HD
ENDBRANCH  21  22
ENDBRANCH  18  21
BRANCH  19  24
HETATM   24  N4  UNL     1     -41.064  -5.269  24.032  1.00  0.00    -0.249 N 
ATOM     25  H4  UNL     1     -41.517  -5.449  23.136  1.00  0.00     0.207 HD
BRANCH  24  26
HETATM   26  N5  UNL     1     -40.174  -4.198  24.157  1.00  0.00    -0.331 N 
ATOM     27  H52 UNL     1     -39.227  -4.382  24.491  1.00  0.00     0.178 HD
ATOM     28  H51 UNL     1     -40.467  -3.251  23.918  1.00  0.00     0.178 HD
ENDBRANCH  24  26
ENDBRANCH  19  24
ENDBRANCH  17  18
ENDBRANCH   7  17
BRANCH  13  29
HETATM   29  N7  UNL     1     -46.546  -7.411  19.987  1.00  0.00    -0.234 N 
ATOM     30  H72 UNL     1     -47.344  -6.876  20.328  1.00  0.00     0.174 HD
ATOM     31  H71 UNL     1     -46.536  -7.746  19.023  1.00  0.00     0.174 HD
ENDBRANCH  13  29
ENDBRANCH   3   4
TORSDOF 8
ENDMDL
MODEL 2
REMARK VINA RESULT: -7.084430290      1.518      3.696
REMARK  8 active torsions:
REMARK  status: ('A' for Active; 'I' for Inactive)
REMARK    1  A    between atoms: C3_3  and  N1_4 
REMARK    2  A    between atoms: N2_7  and  C5_8 
REMARK    3  A    between atoms: C5_8  and  C6_9 
REMARK    4  A    between atoms: C6_9  and  C7_10 
REMARK    5  A    between atoms: C7_10  and  O2_11 
REMARK    6  A    between atoms: N3_13  and  N4_15 
REMARK    7  A    between atoms: N4_15  and  N5_17 
REMARK    8  A    between atoms: C10_25  and  N7_26 
ROOT
HETATM    1  C1  UNL     1     -46.267  -9.680  19.488  1.00  0.00     0.014 C 
HETATM    2  C2  UNL     1     -45.919  -8.763  20.186  1.00  0.00    -0.097 C 
HETATM    3  C3  UNL     1     -45.492  -7.663  21.049  1.00  0.00     0.228 C 
ENDROOT
BRANCH   3   4
HETATM    4  N1  UNL     1     -44.281  -7.943  21.766  1.00  0.00    -0.271 N 
HETATM    5  C4  UNL     1     -43.156  -7.230  21.752  1.00  0.00     0.332 A 
HETATM    6  O1  UNL     1     -42.912  -6.173  21.121  1.00  0.00    -0.246 OA
HETATM    7  N2  UNL     1     -42.218  -7.812  22.561  1.00  0.00    -0.286 N 
HETATM    8  C8  UNL     1     -42.809  -8.897  23.064  1.00  0.00     0.153 A 
HETATM    9  C9  UNL     1     -42.439  -9.899  23.942  1.00  0.00     0.290 A 
HETATM   10  C11 UNL     1     -44.115  -9.009  22.580  1.00  0.00     0.161 A 
HETATM   11  O3  UNL     1     -41.292  -9.910  24.453  1.00  0.00    -0.265 OA
HETATM   12  N6  UNL     1     -43.282 -10.896  24.288  1.00  0.00    -0.154 N 
HETATM   13  C10 UNL     1     -44.547 -10.947  23.775  1.00  0.00     0.680 A 
ATOM     14  H6  UNL     1     -42.971 -11.618  24.938  1.00  0.00     0.187 HD
HETATM   15  N8  UNL     1     -44.956  -9.997  22.920  1.00  0.00    -0.174 N 
ATOM     16  H8  UNL     1     -45.899 -10.027  22.532  1.00  0.00     0.186 HD
BRANCH   7  17
HETATM   17  C5  UNL     1     -40.888  -7.329  22.830  1.00  0.00     0.190 C 
BRANCH  17  18
HETATM   18  C6  UNL     1     -40.826  -6.158  23.698  1.00  0.00     0.046 C 
HETATM   19  N3  UNL     1     -40.540  -4.970  23.258  1.00  0.00    -0.291 N 
ATOM     20  H3  UNL     1     -40.519  -4.205  23.934  1.00  0.00     0.188 HD
BRANCH  18  21
HETATM   21  C7  UNL     1     -41.090  -6.255  25.146  1.00  0.00     0.219 C 
BRANCH  21  22
HETATM   22  O2  UNL     1     -40.651  -7.450  25.707  1.00  0.00    -0.395 OA
ATOM     23  H2  UNL     1     -39.735  -7.434  25.957  1.00  0.00     0.209 HD
ENDBRANCH  21  22
ENDBRANCH  18  21
BRANCH  19  24
HETATM   24  N4  UNL     1     -40.263  -4.672  21.943  1.00  0.00    -0.249 N 
ATOM     25  H4  UNL     1     -40.469  -5.356  21.215  1.00  0.00     0.207 HD
BRANCH  24  26
HETATM   26  N5  UNL     1     -39.701  -3.438  21.599  1.00  0.00    -0.331 N 
ATOM     27  H52 UNL     1     -39.621  -2.718  22.316  1.00  0.00     0.178 HD
ATOM     28  H51 UNL     1     -39.378  -3.265  20.647  1.00  0.00     0.178 HD
ENDBRANCH  24  26
ENDBRANCH  19  24
ENDBRANCH  17  18
ENDBRANCH   7  17
BRANCH  13  29
HETATM   29  N7  UNL     1     -45.339 -11.886  24.102  1.00  0.00    -0.234 N 
ATOM     30  H72 UNL     1     -45.111 -12.488  24.892  1.00  0.00     0.174 HD
ATOM     31  H71 UNL     1     -46.200 -12.042  23.579  1.00  0.00     0.174 HD
ENDBRANCH  13  29
ENDBRANCH   3   4
TORSDOF 8
ENDMDL
MODEL 3
REMARK VINA RESULT: -7.061084682      2.114      5.551
REMARK  8 active torsions:
REMARK  status: ('A' for Active; 'I' for Inactive)
REMARK    1  A    between atoms: C3_3  and  N1_4 
REMARK    2  A    between atoms: N2_7  and  C5_8 
REMARK    3  A    between atoms: C5_8  and  C6_9 
REMARK    4  A    between atoms: C6_9  and  C7_10 
REMARK    5  A    between atoms: C7_10  and  O2_11 
REMARK    6  A    between atoms: N3_13  and  N4_15 
REMARK    7  A    between atoms: N4_15  and  N5_17 
REMARK    8  A    between atoms: C10_25  and  N7_26 
ROOT
HETATM    1  C1  UNL     1     -39.541  -8.397  28.114  1.00  0.00     0.014 C 
HETATM    2  C2  UNL     1     -40.637  -8.266  27.635  1.00  0.00    -0.097 C 
HETATM    3  C3  UNL     1     -41.962  -8.095  27.041  1.00  0.00     0.228 C 
ENDROOT
BRANCH   3   4
HETATM    4  N1  UNL     1     -41.939  -8.066  25.606  1.00  0.00    -0.271 N 
HETATM    5  C4  UNL     1     -42.519  -8.932  24.777  1.00  0.00     0.332 A 
HETATM    6  O1  UNL     1     -43.203  -9.945  25.061  1.00  0.00    -0.246 OA
HETATM    7  N2  UNL     1     -42.276  -8.575  23.478  1.00  0.00    -0.286 N 
HETATM    8  C8  UNL     1     -41.533  -7.469  23.547  1.00  0.00     0.153 A 
HETATM    9  C9  UNL     1     -40.969  -6.605  22.627  1.00  0.00     0.290 A 
HETATM   10  C11 UNL     1     -41.302  -7.121  24.881  1.00  0.00     0.161 A 
HETATM   11  O3  UNL     1     -41.108  -6.803  21.395  1.00  0.00    -0.265 OA
HETATM   12  N6  UNL     1     -40.254  -5.523  23.004  1.00  0.00    -0.154 N 
HETATM   13  C10 UNL     1     -40.065  -5.241  24.327  1.00  0.00     0.680 A 
ATOM     14  H6  UNL     1     -39.853  -4.910  22.294  1.00  0.00     0.187 HD
HETATM   15  N8  UNL     1     -40.593  -6.047  25.260  1.00  0.00    -0.174 N 
ATOM     16  H8  UNL     1     -40.456  -5.845  26.251  1.00  0.00     0.186 HD
BRANCH   7  17
HETATM   17  C5  UNL     1     -42.753  -9.242  22.293  1.00  0.00     0.190 C 
BRANCH  17  18
HETATM   18  C6  UNL     1     -44.193  -9.150  22.078  1.00  0.00     0.046 C 
HETATM   19  N3  UNL     1     -45.016 -10.100  22.407  1.00  0.00    -0.291 N 
ATOM     20  H3  UNL     1     -46.009  -9.954  22.222  1.00  0.00     0.188 HD
BRANCH  18  21
HETATM   21  C7  UNL     1     -44.808  -7.957  21.465  1.00  0.00     0.219 C 
BRANCH  21  22
HETATM   22  O2  UNL     1     -43.887  -7.123  20.840  1.00  0.00    -0.395 OA
ATOM     23  H2  UNL     1     -44.210  -6.746  20.030  1.00  0.00     0.209 HD
ENDBRANCH  21  22
ENDBRANCH  18  21
BRANCH  19  24
HETATM   24  N4  UNL     1     -44.641 -11.289  22.990  1.00  0.00    -0.249 N 
ATOM     25  H4  UNL     1     -43.805 -11.773  22.660  1.00  0.00     0.207 HD
BRANCH  24  26
HETATM   26  N5  UNL     1     -45.396 -11.839  24.031  1.00  0.00    -0.331 N 
ATOM     27  H52 UNL     1     -46.368 -11.548  24.138  1.00  0.00     0.178 HD
ATOM     28  H51 UNL     1     -44.980 -12.517  24.669  1.00  0.00     0.178 HD
ENDBRANCH  24  26
ENDBRANCH  19  24
ENDBRANCH  17  18
ENDBRANCH   7  17
BRANCH  13  29
HETATM   29  N7  UNL     1     -39.392  -4.222  24.680  1.00  0.00    -0.234 N 
ATOM     30  H72 UNL     1     -38.544  -4.343  25.234  1.00  0.00     0.174 HD
ATOM     31  H71 UNL     1     -39.693  -3.285  24.414  1.00  0.00     0.174 HD
ENDBRANCH  13  29
ENDBRANCH   3   4
TORSDOF 8
ENDMDL
MODEL 4
REMARK VINA RESULT: -6.827858644      2.269      6.579
REMARK  8 active torsions:
REMARK  status: ('A' for Active; 'I' for Inactive)
REMARK    1  A    between atoms: C3_3  and  N1_4 
REMARK    2  A    between atoms: N2_7  and  C5_8 
REMARK    3  A    between atoms: C5_8  and  C6_9 
REMARK    4  A    between atoms: C6_9  and  C7_10 
REMARK    5  A    between atoms: C7_10  and  O2_11 
REMARK    6  A    between atoms: N3_13  and  N4_15 
REMARK    7  A    between atoms: N4_15  and  N5_17 
REMARK    8  A    between atoms: C10_25  and  N7_26 
ROOT
HETATM    1  C1  UNL     1     -39.055  -3.862  22.108  1.00  0.00     0.014 C 
HETATM    2  C2  UNL     1     -39.763  -4.200  23.020  1.00  0.00    -0.097 C 
HETATM    3  C3  UNL     1     -40.636  -4.618  24.116  1.00  0.00     0.228 C 
ENDROOT
BRANCH   3   4
HETATM    4  N1  UNL     1     -41.104  -5.968  23.982  1.00  0.00    -0.271 N 
HETATM    5  C4  UNL     1     -41.622  -6.534  22.893  1.00  0.00     0.332 A 
HETATM    6  O1  UNL     1     -41.809  -6.021  21.762  1.00  0.00    -0.246 OA
HETATM    7  N2  UNL     1     -41.955  -7.836  23.151  1.00  0.00    -0.286 N 
HETATM    8  C8  UNL     1     -41.622  -8.041  24.426  1.00  0.00     0.153 A 
HETATM    9  C9  UNL     1     -41.676  -9.114  25.295  1.00  0.00     0.290 A 
HETATM   10  C11 UNL     1     -41.082  -6.877  24.981  1.00  0.00     0.161 A 
HETATM   11  O3  UNL     1     -42.135 -10.220  24.917  1.00  0.00    -0.265 OA
HETATM   12  N6  UNL     1     -41.241  -9.027  26.571  1.00  0.00    -0.154 N 
HETATM   13  C10 UNL     1     -40.725  -7.857  27.051  1.00  0.00     0.680 A 
ATOM     14  H6  UNL     1     -41.299  -9.842  27.181  1.00  0.00     0.187 HD
HETATM   15  N8  UNL     1     -40.649  -6.785  26.247  1.00  0.00    -0.174 N 
ATOM     16  H8  UNL     1     -40.266  -5.907  26.597  1.00  0.00     0.186 HD
BRANCH   7  17
HETATM   17  C5  UNL     1     -42.514  -8.786  22.223  1.00  0.00     0.190 C 
BRANCH  17  18
HETATM   18  C6  UNL     1     -43.970  -8.773  22.136  1.00  0.00     0.046 C 
HETATM   19  N3  UNL     1     -44.715  -9.698  22.662  1.00  0.00    -0.291 N 
ATOM     20  H3  UNL     1     -45.727  -9.611  22.555  1.00  0.00     0.188 HD
BRANCH  18  21
HETATM   21  C7  UNL     1     -44.692  -7.693  21.438  1.00  0.00     0.219 C 
BRANCH  21  22
HETATM   22  O2  UNL     1     -46.073  -7.863  21.437  1.00  0.00    -0.395 OA
ATOM     23  H2  UNL     1     -46.341  -8.754  21.244  1.00  0.00     0.209 HD
ENDBRANCH  21  22
ENDBRANCH  18  21
BRANCH  19  24
HETATM   24  N4  UNL     1     -44.234 -10.787  23.353  1.00  0.00    -0.249 N 
ATOM     25  H4  UNL     1     -43.334 -11.191  23.097  1.00  0.00     0.207 HD
BRANCH  24  26
HETATM   26  N5  UNL     1     -44.971 -11.341  24.404  1.00  0.00    -0.331 N 
ATOM     27  H52 UNL     1     -44.543 -12.073  24.971  1.00  0.00     0.178 HD
ATOM     28  H51 UNL     1     -45.919 -11.018  24.599  1.00  0.00     0.178 HD
ENDBRANCH  24  26
ENDBRANCH  19  24
ENDBRANCH  17  18
ENDBRANCH   7  17
BRANCH  13  29
HETATM   29  N7  UNL     1     -40.317  -7.776  28.252  1.00  0.00    -0.234 N 
ATOM     30  H72 UNL     1     -40.313  -8.607  28.842  1.00  0.00     0.174 HD
ATOM     31  H71 UNL     1     -39.992  -6.886  28.629  1.00  0.00     0.174 HD
ENDBRANCH  13  29
ENDBRANCH   3   4
TORSDOF 8
ENDMDL
MODEL 5
REMARK VINA RESULT: -6.822012836      1.606      4.029
REMARK  8 active torsions:
REMARK  status: ('A' for Active; 'I' for Inactive)
REMARK    1  A    between atoms: C3_3  and  N1_4 
REMARK    2  A    between atoms: N2_7  and  C5_8 
REMARK    3  A    between atoms: C5_8  and  C6_9 
REMARK    4  A    between atoms: C6_9  and  C7_10 
REMARK    5  A    between atoms: C7_10  and  O2_11 
REMARK    6  A    between atoms: N3_13  and  N4_15 
REMARK    7  A    between atoms: N4_15  and  N5_17 
REMARK    8  A    between atoms: C10_25  and  N7_26 
ROOT
HETATM    1  C1  UNL     1     -46.293  -9.493  19.609  1.00  0.00     0.014 C 
HETATM    2  C2  UNL     1     -45.849  -8.565  20.234  1.00  0.00    -0.097 C 
HETATM    3  C3  UNL     1     -45.309  -7.448  21.007  1.00  0.00     0.228 C 
ENDROOT
BRANCH   3   4
HETATM    4  N1  UNL     1     -44.175  -7.812  21.809  1.00  0.00    -0.271 N 
HETATM    5  C4  UNL     1     -43.051  -7.116  21.973  1.00  0.00     0.332 A 
HETATM    6  O1  UNL     1     -42.742  -6.007  21.473  1.00  0.00    -0.246 OA
HETATM    7  N2  UNL     1     -42.200  -7.785  22.810  1.00  0.00    -0.286 N 
HETATM    8  C8  UNL     1     -42.842  -8.905  23.147  1.00  0.00     0.153 A 
HETATM    9  C9  UNL     1     -42.564  -9.990  23.957  1.00  0.00     0.290 A 
HETATM   10  C11 UNL     1     -44.095  -8.952  22.529  1.00  0.00     0.161 A 
HETATM   11  O3  UNL     1     -41.473 -10.065  24.574  1.00  0.00    -0.265 OA
HETATM   12  N6  UNL     1     -43.441 -11.004  24.122  1.00  0.00    -0.154 N 
HETATM   13  C10 UNL     1     -44.650 -10.989  23.486  1.00  0.00     0.680 A 
ATOM     14  H6  UNL     1     -43.199 -11.788  24.727  1.00  0.00     0.187 HD
HETATM   15  N8  UNL     1     -44.969  -9.957  22.690  1.00  0.00    -0.174 N 
ATOM     16  H8  UNL     1     -45.869  -9.937  22.211  1.00  0.00     0.186 HD
BRANCH   7  17
HETATM   17  C5  UNL     1     -40.900  -7.347  23.253  1.00  0.00     0.190 C 
BRANCH  17  18
HETATM   18  C6  UNL     1     -40.920  -6.268  24.234  1.00  0.00     0.046 C 
HETATM   19  N3  UNL     1     -41.246  -6.453  25.478  1.00  0.00    -0.291 N 
ATOM     20  H3  UNL     1     -41.233  -5.643  26.098  1.00  0.00     0.188 HD
BRANCH  18  21
HETATM   21  C7  UNL     1     -40.564  -4.884  23.867  1.00  0.00     0.219 C 
BRANCH  21  22
HETATM   22  O2  UNL     1     -40.227  -4.740  22.525  1.00  0.00    -0.395 OA
ATOM     23  H2  UNL     1     -40.920  -4.354  22.003  1.00  0.00     0.209 HD
ENDBRANCH  21  22
ENDBRANCH  18  21
BRANCH  19  24
HETATM   24  N4  UNL     1     -41.608  -7.667  26.016  1.00  0.00    -0.249 N 
ATOM     25  H4  UNL     1     -42.476  -8.114  25.719  1.00  0.00     0.207 HD
BRANCH  24  26
HETATM   26  N5  UNL     1     -40.796  -8.292  26.967  1.00  0.00    -0.331 N 
ATOM     27  H52 UNL     1     -39.832  -7.975  27.074  1.00  0.00     0.178 HD
ATOM     28  H51 UNL     1     -41.162  -9.050  27.543  1.00  0.00     0.178 HD
ENDBRANCH  24  26
ENDBRANCH  19  24
ENDBRANCH  17  18
ENDBRANCH   7  17
BRANCH  13  29
HETATM   29  N7  UNL     1     -45.474 -11.944  23.642  1.00  0.00    -0.234 N 
ATOM     30  H72 UNL     1     -45.960 -12.052  24.531  1.00  0.00     0.174 HD
ATOM     31  H71 UNL     1     -45.652 -12.603  22.884  1.00  0.00     0.174 HD
ENDBRANCH  13  29
ENDBRANCH   3   4
TORSDOF 8
ENDMDL
