MODEL 1
REMARK VINA RESULT: -7.860027065      0.000      0.000
REMARK  9 active torsions:
REMARK  status: ('A' for Active; 'I' for Inactive)
REMARK    1  A    between atoms: N1_1  and  C1_4 
REMARK    2  A    between atoms: C3_10  and  N4_11 
REMARK    3  A    between atoms: N4_11  and  C4_13 
REMARK    4  A    between atoms: C5_16  and  N6_17 
REMARK    5  A    between atoms: N6_17  and  C6_19 
REMARK    6  A    between atoms: C6_19  and  C7_20 
REMARK    7  A    between atoms: C7_20  and  O1_21 
REMARK    8  A    between atoms: C8_25  and  N8_26 
REMARK    9  A    between atoms: C9_29  and  N9_30 
ROOT
HETATM    1  C4  UNL     1     -42.342  -8.259  22.700  1.00  0.00     0.173 A 
HETATM    2  N5  UNL     1     -43.207  -7.972  21.704  1.00  0.00    -0.173 N 
ATOM      3  H5  UNL     1     -42.902  -7.352  20.953  1.00  0.00     0.186 HD
HETATM    4  C5  UNL     1     -44.447  -8.467  21.660  1.00  0.00     0.681 A 
HETATM    5  N7  UNL     1     -44.922  -9.287  22.606  1.00  0.00    -0.175 N 
ATOM      6  H7  UNL     1     -45.871  -9.656  22.556  1.00  0.00     0.186 HD
HETATM    7  C8  UNL     1     -44.104  -9.608  23.622  1.00  0.00     0.151 A 
HETATM    8  C9  UNL     1     -42.801  -9.102  23.689  1.00  0.00     0.191 A 
ENDROOT
BRANCH   1   9
HETATM    9  N4  UNL     1     -41.025  -7.726  22.734  1.00  0.00    -0.173 N 
ATOM     10  H4  UNL     1     -40.273  -8.362  22.466  1.00  0.00     0.186 HD
BRANCH   9  11
HETATM   11  C3  UNL     1     -40.681  -6.554  23.057  1.00  0.00     0.699 A 
HETATM   12  N3  UNL     1     -40.670  -6.233  24.361  1.00  0.00    -0.186 N 
HETATM   13  C2  UNL     1     -40.318  -5.010  24.796  1.00  0.00     0.215 A 
ATOM     14  H3  UNL     1     -40.938  -6.941  25.045  1.00  0.00     0.185 HD
HETATM   15  N2  UNL     1     -39.961  -4.074  23.880  1.00  0.00    -0.187 N 
HETATM   16  C1  UNL     1     -39.965  -4.377  22.579  1.00  0.00     0.691 A 
ATOM     17  H2  UNL     1     -39.690  -3.139  24.185  1.00  0.00     0.185 HD
HETATM   18  N10 UNL     1     -40.322  -5.603  22.185  1.00  0.00    -0.022 N 
ATOM     19  H10 UNL     1     -40.321  -5.822  21.188  1.00  0.00     0.203 HD
BRANCH  16  20
HETATM   20  N1  UNL     1     -39.627  -3.480  21.725  1.00  0.00    -0.234 N 
ATOM     21  H12 UNL     1     -38.649  -3.341  21.470  1.00  0.00     0.174 HD
ATOM     22  H11 UNL     1     -40.349  -2.902  21.298  1.00  0.00     0.174 HD
ENDBRANCH  16  20
ENDBRANCH   9  11
ENDBRANCH   1   9
BRANCH   8  23
HETATM   23  N9  UNL     1     -41.953  -9.446  24.760  1.00  0.00    -0.108 N 
HETATM   24  O2  UNL     1     -41.143 -10.387  24.714  1.00  0.00    -0.531 OA
HETATM   25  O3  UNL     1     -42.023  -8.701  25.911  1.00  0.00    -0.531 OA
ENDBRANCH   8  23
BRANCH   4  26
HETATM   26  N6  UNL     1     -45.209  -8.138  20.670  1.00  0.00    -0.224 N 
ATOM     27  H6  UNL     1     -45.199  -8.753  19.856  1.00  0.00     0.177 HD
BRANCH  26  28
HETATM   28  C6  UNL     1     -46.059  -7.000  20.607  1.00  0.00     0.164 C 
BRANCH  28  29
HETATM   29  C7  UNL     1     -47.416  -7.276  20.028  1.00  0.00     0.184 C 
BRANCH  29  30
HETATM   30  O1  UNL     1     -48.242  -6.178  20.228  1.00  0.00    -0.399 OA
ATOM     31  H1  UNL     1     -48.646  -6.235  21.087  1.00  0.00     0.209 HD
ENDBRANCH  29  30
ENDBRANCH  28  29
ENDBRANCH  26  28
ENDBRANCH   4  26
BRANCH   7  32
HETATM   32  N8  UNL     1     -44.525 -10.392  24.545  1.00  0.00    -0.383 N 
ATOM     33  H82 UNL     1     -45.358 -10.140  25.076  1.00  0.00     0.157 HD
ATOM     34  H81 UNL     1     -44.021 -11.258  24.734  1.00  0.00     0.157 HD
ENDBRANCH   7  32
TORSDOF 9
ENDMDL
MODEL 2
REMARK VINA RESULT: -7.492742361      2.047      5.953
REMARK  9 active torsions:
REMARK  status: ('A' for Active; 'I' for Inactive)
REMARK    1  A    between atoms: N1_1  and  C1_4 
REMARK    2  A    between atoms: C3_10  and  N4_11 
REMARK    3  A    between atoms: N4_11  and  C4_13 
REMARK    4  A    between atoms: C5_16  and  N6_17 
REMARK    5  A    between atoms: N6_17  and  C6_19 
REMARK    6  A    between atoms: C6_19  and  C7_20 
REMARK    7  A    between atoms: C7_20  and  O1_21 
REMARK    8  A    between atoms: C8_25  and  N8_26 
REMARK    9  A    between atoms: C9_29  and  N9_30 
ROOT
HETATM    1  C4  UNL     1     -43.448  -8.599  22.193  1.00  0.00     0.173 A 
HETATM    2  N5  UNL     1     -42.813  -7.447  21.885  1.00  0.00    -0.173 N 
ATOM      3  H5  UNL     1     -42.934  -7.056  20.950  1.00  0.00     0.186 HD
HETATM    4  C5  UNL     1     -42.033  -6.798  22.754  1.00  0.00     0.681 A 
HETATM    5  N7  UNL     1     -41.826  -7.246  23.998  1.00  0.00    -0.175 N 
ATOM      6  H7  UNL     1     -41.228  -6.737  24.649  1.00  0.00     0.186 HD
HETATM    7  C8  UNL     1     -42.433  -8.388  24.361  1.00  0.00     0.151 A 
HETATM    8  C9  UNL     1     -43.254  -9.085  23.468  1.00  0.00     0.191 A 
ENDROOT
BRANCH   1   9
HETATM    9  N4  UNL     1     -44.276  -9.278  21.259  1.00  0.00    -0.173 N 
ATOM     10  H4  UNL     1     -43.995 -10.227  21.012  1.00  0.00     0.186 HD
BRANCH   9  11
HETATM   11  C3  UNL     1     -45.321  -8.838  20.699  1.00  0.00     0.699 A 
HETATM   12  N3  UNL     1     -45.898  -9.593  19.751  1.00  0.00    -0.186 N 
HETATM   13  C2  UNL     1     -47.011  -9.204  19.103  1.00  0.00     0.215 A 
ATOM     14  H3  UNL     1     -45.479 -10.492  19.513  1.00  0.00     0.185 HD
HETATM   15  N2  UNL     1     -47.564  -8.006  19.425  1.00  0.00    -0.187 N 
HETATM   16  C1  UNL     1     -47.003  -7.243  20.367  1.00  0.00     0.691 A 
ATOM     17  H2  UNL     1     -48.408  -7.689  18.949  1.00  0.00     0.185 HD
HETATM   18  N10 UNL     1     -45.896  -7.664  20.989  1.00  0.00    -0.022 N 
ATOM     19  H10 UNL     1     -45.477  -7.071  21.706  1.00  0.00     0.203 HD
BRANCH  16  20
HETATM   20  N1  UNL     1     -47.537  -6.114  20.660  1.00  0.00    -0.234 N 
ATOM     21  H12 UNL     1     -47.825  -5.464  19.928  1.00  0.00     0.174 HD
ATOM     22  H11 UNL     1     -47.673  -5.867  21.640  1.00  0.00     0.174 HD
ENDBRANCH  16  20
ENDBRANCH   9  11
ENDBRANCH   1   9
BRANCH   8  23
HETATM   23  N9  UNL     1     -43.886 -10.281  23.859  1.00  0.00    -0.108 N 
HETATM   24  O2  UNL     1     -43.277 -11.246  24.350  1.00  0.00    -0.531 OA
HETATM   25  O3  UNL     1     -45.245 -10.385  23.691  1.00  0.00    -0.531 OA
ENDBRANCH   8  23
BRANCH   4  26
HETATM   26  N6  UNL     1     -41.464  -5.703  22.374  1.00  0.00    -0.224 N 
ATOM     27  H6  UNL     1     -42.056  -5.006  21.923  1.00  0.00     0.177 HD
BRANCH  26  28
HETATM   28  C6  UNL     1     -40.088  -5.377  22.526  1.00  0.00     0.164 C 
BRANCH  28  29
HETATM   29  C7  UNL     1     -39.767  -4.629  23.786  1.00  0.00     0.184 C 
BRANCH  29  30
HETATM   30  O1  UNL     1     -39.360  -5.521  24.769  1.00  0.00    -0.399 OA
ATOM     31  H1  UNL     1     -39.444  -5.115  25.624  1.00  0.00     0.209 HD
ENDBRANCH  29  30
ENDBRANCH  28  29
ENDBRANCH  26  28
ENDBRANCH   4  26
BRANCH   7  32
HETATM   32  N8  UNL     1     -42.257  -8.845  25.545  1.00  0.00    -0.383 N 
ATOM     33  H82 UNL     1     -41.933  -8.220  26.282  1.00  0.00     0.157 HD
ATOM     34  H81 UNL     1     -42.444  -9.829  25.734  1.00  0.00     0.157 HD
ENDBRANCH   7  32
TORSDOF 9
ENDMDL
MODEL 3
REMARK VINA RESULT: -7.406785212      2.933      4.580
REMARK  9 active torsions:
REMARK  status: ('A' for Active; 'I' for Inactive)
REMARK    1  A    between atoms: N1_1  and  C1_4 
REMARK    2  A    between atoms: C3_10  and  N4_11 
REMARK    3  A    between atoms: N4_11  and  C4_13 
REMARK    4  A    between atoms: C5_16  and  N6_17 
REMARK    5  A    between atoms: N6_17  and  C6_19 
REMARK    6  A    between atoms: C6_19  and  C7_20 
REMARK    7  A    between atoms: C7_20  and  O1_21 
REMARK    8  A    between atoms: C8_25  and  N8_26 
REMARK    9  A    between atoms: C9_29  and  N9_30 
ROOT
HETATM    1  C4  UNL     1     -42.140  -8.201  23.944  1.00  0.00     0.173 A 
HETATM    2  N5  UNL     1     -42.732  -9.317  24.422  1.00  0.00    -0.173 N 
ATOM      3  H5  UNL     1     -42.399  -9.708  25.303  1.00  0.00     0.186 HD
HETATM    4  C5  UNL     1     -43.737  -9.929  23.789  1.00  0.00     0.681 A 
HETATM    5  N7  UNL     1     -44.231  -9.477  22.630  1.00  0.00    -0.175 N 
ATOM      6  H7  UNL     1     -44.998  -9.957  22.160  1.00  0.00     0.186 HD
HETATM    7  C8  UNL     1     -43.681  -8.368  22.106  1.00  0.00     0.151 A 
HETATM    8  C9  UNL     1     -42.628  -7.710  22.751  1.00  0.00     0.191 A 
ENDROOT
BRANCH   1   9
HETATM    9  N4  UNL     1     -41.074  -7.559  24.628  1.00  0.00    -0.173 N 
ATOM     10  H4  UNL     1     -40.298  -7.233  24.052  1.00  0.00     0.186 HD
BRANCH   9  11
HETATM   11  C3  UNL     1     -40.979  -7.347  25.870  1.00  0.00     0.699 A 
HETATM   12  N3  UNL     1     -41.734  -8.084  26.700  1.00  0.00    -0.186 N 
HETATM   13  C2  UNL     1     -41.698  -7.926  28.036  1.00  0.00     0.215 A 
ATOM     14  H3  UNL     1     -42.358  -8.788  26.304  1.00  0.00     0.185 HD
HETATM   15  N2  UNL     1     -40.865  -6.988  28.555  1.00  0.00    -0.187 N 
HETATM   16  C1  UNL     1     -40.106  -6.247  27.744  1.00  0.00     0.691 A 
ATOM     17  H2  UNL     1     -40.819  -6.850  29.564  1.00  0.00     0.185 HD
HETATM   18  N10 UNL     1     -40.170  -6.432  26.421  1.00  0.00    -0.022 N 
ATOM     19  H10 UNL     1     -39.585  -5.859  25.813  1.00  0.00     0.203 HD
BRANCH  16  20
HETATM   20  N1  UNL     1     -39.324  -5.364  28.250  1.00  0.00    -0.234 N 
ATOM     21  H12 UNL     1     -39.533  -4.931  29.150  1.00  0.00     0.174 HD
ATOM     22  H11 UNL     1     -38.483  -5.093  27.742  1.00  0.00     0.174 HD
ENDBRANCH  16  20
ENDBRANCH   9  11
ENDBRANCH   1   9
BRANCH   8  23
HETATM   23  N9  UNL     1     -42.059  -6.548  22.193  1.00  0.00    -0.108 N 
HETATM   24  O2  UNL     1     -42.728  -5.564  21.838  1.00  0.00    -0.531 OA
HETATM   25  O3  UNL     1     -40.696  -6.503  22.034  1.00  0.00    -0.531 OA
ENDBRANCH   8  23
BRANCH   4  26
HETATM   26  N6  UNL     1     -44.243 -10.993  24.318  1.00  0.00    -0.224 N 
ATOM     27  H6  UNL     1     -43.842 -11.305  25.202  1.00  0.00     0.177 HD
BRANCH  26  28
HETATM   28  C6  UNL     1     -45.307 -11.770  23.784  1.00  0.00     0.164 C 
BRANCH  28  29
HETATM   29  C7  UNL     1     -46.137 -12.472  24.819  1.00  0.00     0.184 C 
BRANCH  29  30
HETATM   30  O1  UNL     1     -46.073 -11.777  26.020  1.00  0.00    -0.399 OA
ATOM     31  H1  UNL     1     -46.378 -12.333  26.728  1.00  0.00     0.209 HD
ENDBRANCH  29  30
ENDBRANCH  28  29
ENDBRANCH  26  28
ENDBRANCH   4  26
BRANCH   7  32
HETATM   32  N8  UNL     1     -44.129  -7.907  20.998  1.00  0.00    -0.383 N 
ATOM     33  H82 UNL     1     -43.547  -7.282  20.441  1.00  0.00     0.157 HD
ATOM     34  H81 UNL     1     -45.064  -8.171  20.687  1.00  0.00     0.157 HD
ENDBRANCH   7  32
TORSDOF 9
ENDMDL
MODEL 4
REMARK VINA RESULT: -7.392885055      2.701      5.778
REMARK  9 active torsions:
REMARK  status: ('A' for Active; 'I' for Inactive)
REMARK    1  A    between atoms: N1_1  and  C1_4 
REMARK    2  A    between atoms: C3_10  and  N4_11 
REMARK    3  A    between atoms: N4_11  and  C4_13 
REMARK    4  A    between atoms: C5_16  and  N6_17 
REMARK    5  A    between atoms: N6_17  and  C6_19 
REMARK    6  A    between atoms: C6_19  and  C7_20 
REMARK    7  A    between atoms: C7_20  and  O1_21 
REMARK    8  A    between atoms: C8_25  and  N8_26 
REMARK    9  A    between atoms: C9_29  and  N9_30 
ROOT
HETATM    1  C4  UNL     1     -43.398  -8.503  22.437  1.00  0.00     0.173 A 
HETATM    2  N5  UNL     1     -43.910  -9.666  22.896  1.00  0.00    -0.173 N 
ATOM      3  H5  UNL     1     -44.639 -10.129  22.352  1.00  0.00     0.186 HD
HETATM    4  C5  UNL     1     -43.502 -10.237  24.033  1.00  0.00     0.681 A 
HETATM    5  N7  UNL     1     -42.550  -9.693  24.801  1.00  0.00    -0.175 N 
ATOM      6  H7  UNL     1     -42.250 -10.142  25.666  1.00  0.00     0.186 HD
HETATM    7  C8  UNL     1     -42.003  -8.535  24.395  1.00  0.00     0.151 A 
HETATM    8  C9  UNL     1     -42.415  -7.919  23.207  1.00  0.00     0.191 A 
ENDROOT
BRANCH   1   9
HETATM    9  N4  UNL     1     -43.841  -7.909  21.226  1.00  0.00    -0.173 N 
ATOM     10  H4  UNL     1     -43.149  -7.365  20.709  1.00  0.00     0.186 HD
BRANCH   9  11
HETATM   11  C3  UNL     1     -44.995  -7.978  20.716  1.00  0.00     0.699 A 
HETATM   12  N3  UNL     1     -45.345  -9.111  20.086  1.00  0.00    -0.186 N 
HETATM   13  C2  UNL     1     -46.552  -9.272  19.514  1.00  0.00     0.215 A 
ATOM     14  H3  UNL     1     -44.671  -9.876  20.039  1.00  0.00     0.185 HD
HETATM   15  N2  UNL     1     -47.442  -8.249  19.581  1.00  0.00    -0.187 N 
HETATM   16  C1  UNL     1     -47.111  -7.116  20.205  1.00  0.00     0.691 A 
ATOM     17  H2  UNL     1     -48.364  -8.347  19.156  1.00  0.00     0.185 HD
HETATM   18  N10 UNL     1     -45.902  -6.992  20.761  1.00  0.00    -0.022 N 
ATOM     19  H10 UNL     1     -45.661  -6.121  21.234  1.00  0.00     0.203 HD
BRANCH  16  20
HETATM   20  N1  UNL     1     -47.964  -6.158  20.259  1.00  0.00    -0.234 N 
ATOM     21  H12 UNL     1     -47.816  -5.292  19.739  1.00  0.00     0.174 HD
ATOM     22  H11 UNL     1     -48.801  -6.268  20.830  1.00  0.00     0.174 HD
ENDBRANCH  16  20
ENDBRANCH   9  11
ENDBRANCH   1   9
BRANCH   8  23
HETATM   23  N9  UNL     1     -41.835  -6.705  22.790  1.00  0.00    -0.108 N 
HETATM   24  O2  UNL     1     -42.498  -5.710  22.457  1.00  0.00    -0.531 OA
HETATM   25  O3  UNL     1     -40.465  -6.619  22.752  1.00  0.00    -0.531 OA
ENDBRANCH   8  23
BRANCH   4  26
HETATM   26  N6  UNL     1     -44.048 -11.349  24.396  1.00  0.00    -0.224 N 
ATOM     27  H6  UNL     1     -43.537 -11.914  25.073  1.00  0.00     0.177 HD
BRANCH  26  28
HETATM   28  C6  UNL     1     -45.295 -11.859  23.941  1.00  0.00     0.164 C 
BRANCH  28  29
HETATM   29  C7  UNL     1     -46.091 -12.570  24.996  1.00  0.00     0.184 C 
BRANCH  29  30
HETATM   30  O1  UNL     1     -46.183 -11.773  26.129  1.00  0.00    -0.399 OA
ATOM     31  H1  UNL     1     -46.499 -12.292  26.860  1.00  0.00     0.209 HD
ENDBRANCH  29  30
ENDBRANCH  28  29
ENDBRANCH  26  28
ENDBRANCH   4  26
BRANCH   7  32
HETATM   32  N8  UNL     1     -41.089  -7.987  25.106  1.00  0.00    -0.383 N 
ATOM     33  H82 UNL     1     -40.577  -8.549  25.785  1.00  0.00     0.157 HD
ATOM     34  H81 UNL     1     -40.887  -6.995  24.983  1.00  0.00     0.157 HD
ENDBRANCH   7  32
TORSDOF 9
ENDMDL
MODEL 5
REMARK VINA RESULT: -7.349849944      2.709      4.988
REMARK  9 active torsions:
REMARK  status: ('A' for Active; 'I' for Inactive)
REMARK    1  A    between atoms: N1_1  and  C1_4 
REMARK    2  A    between atoms: C3_10  and  N4_11 
REMARK    3  A    between atoms: N4_11  and  C4_13 
REMARK    4  A    between atoms: C5_16  and  N6_17 
REMARK    5  A    between atoms: N6_17  and  C6_19 
REMARK    6  A    between atoms: C6_19  and  C7_20 
REMARK    7  A    between atoms: C7_20  and  O1_21 
REMARK    8  A    between atoms: C8_25  and  N8_26 
REMARK    9  A    between atoms: C9_29  and  N9_30 
ROOT
HETATM    1  C4  UNL     1     -41.907  -8.130  24.570  1.00  0.00     0.173 A 
HETATM    2  N5  UNL     1     -41.316  -7.036  24.041  1.00  0.00    -0.173 N 
ATOM      3  H5  UNL     1     -40.632  -6.529  24.603  1.00  0.00     0.186 HD
HETATM    4  C5  UNL     1     -41.590  -6.591  22.812  1.00  0.00     0.681 A 
HETATM    5  N7  UNL     1     -42.474  -7.202  22.013  1.00  0.00    -0.175 N 
ATOM      6  H7  UNL     1     -42.671  -6.848  21.077  1.00  0.00     0.186 HD
HETATM    7  C8  UNL     1     -43.093  -8.296  22.486  1.00  0.00     0.151 A 
HETATM    8  C9  UNL     1     -42.822  -8.781  23.771  1.00  0.00     0.191 A 
ENDROOT
BRANCH   1   9
HETATM    9  N4  UNL     1     -41.605  -8.593  25.878  1.00  0.00    -0.173 N 
ATOM     10  H4  UNL     1     -41.623  -9.604  26.016  1.00  0.00     0.186 HD
BRANCH   9  11
HETATM   11  C3  UNL     1     -41.316  -7.893  26.891  1.00  0.00     0.699 A 
HETATM   12  N3  UNL     1     -42.173  -7.889  27.925  1.00  0.00    -0.186 N 
HETATM   13  C2  UNL     1     -41.947  -7.174  29.042  1.00  0.00     0.215 A 
ATOM     14  H3  UNL     1     -43.025  -8.446  27.861  1.00  0.00     0.185 HD
HETATM   15  N2  UNL     1     -40.810  -6.435  29.119  1.00  0.00    -0.187 N 
HETATM   16  C1  UNL     1     -39.946  -6.430  28.101  1.00  0.00     0.691 A 
ATOM     17  H2  UNL     1     -40.616  -5.885  29.956  1.00  0.00     0.185 HD
HETATM   18  N10 UNL     1     -40.206  -7.153  27.006  1.00  0.00    -0.022 N 
ATOM     19  H10 UNL     1     -39.538  -7.140  26.235  1.00  0.00     0.203 HD
BRANCH  16  20
HETATM   20  N1  UNL     1     -38.877  -5.726  28.189  1.00  0.00    -0.234 N 
ATOM     21  H12 UNL     1     -38.470  -5.500  29.098  1.00  0.00     0.174 HD
ATOM     22  H11 UNL     1     -38.429  -5.390  27.336  1.00  0.00     0.174 HD
ENDBRANCH  16  20
ENDBRANCH   9  11
ENDBRANCH   1   9
BRANCH   8  23
HETATM   23  N9  UNL     1     -43.477  -9.929  24.257  1.00  0.00    -0.108 N 
HETATM   24  O2  UNL     1     -43.224 -11.079  23.860  1.00  0.00    -0.531 OA
HETATM   25  O3  UNL     1     -44.444  -9.769  25.219  1.00  0.00    -0.531 OA
ENDBRANCH   8  23
BRANCH   4  26
HETATM   26  N6  UNL     1     -40.979  -5.536  22.386  1.00  0.00    -0.224 N 
ATOM     27  H6  UNL     1     -41.415  -5.028  21.618  1.00  0.00     0.177 HD
BRANCH  26  28
HETATM   28  C6  UNL     1     -39.754  -5.016  22.889  1.00  0.00     0.164 C 
BRANCH  28  29
HETATM   29  C7  UNL     1     -39.870  -4.357  24.232  1.00  0.00     0.184 C 
BRANCH  29  30
HETATM   30  O1  UNL     1     -39.188  -5.106  25.182  1.00  0.00    -0.399 OA
ATOM     31  H1  UNL     1     -38.511  -5.620  24.757  1.00  0.00     0.209 HD
ENDBRANCH  29  30
ENDBRANCH  28  29
ENDBRANCH  26  28
ENDBRANCH   4  26
BRANCH   7  32
HETATM   32  N8  UNL     1     -43.945  -8.905  21.748  1.00  0.00    -0.383 N 
ATOM     33  H82 UNL     1     -43.840  -8.881  20.735  1.00  0.00     0.157 HD
ATOM     34  H81 UNL     1     -44.718  -9.407  22.186  1.00  0.00     0.157 HD
ENDBRANCH   7  32
TORSDOF 9
ENDMDL
