MODEL 1
REMARK VINA RESULT: -7.216433564      0.000      0.000
REMARK  6 active torsions:
REMARK  status: ('A' for Active; 'I' for Inactive)
REMARK    1  A    between atoms: C2_2  and  C3_3 
REMARK    2  A    between atoms: C3_3  and  C4_4 
REMARK    3  A    between atoms: C4_4  and  N1_5 
REMARK    4  A    between atoms: C5_7  and  C6_9 
REMARK    5  A    between atoms: C6_9  and  N3_10 
REMARK    6  A    between atoms: N3_10  and  C7_12 
ROOT
HETATM    1  N3  UNL     1      20.640  -2.708  10.578  1.00  0.00    -0.369 N 
ATOM      2  H3  UNL     1      20.447  -2.643   9.578  1.00  0.00     0.161 HD
ENDROOT
BRANCH   1   3
HETATM    3  C6  UNL     1      22.000  -2.692  11.013  1.00  0.00     0.194 C 
BRANCH   3   4
HETATM    4  C5  UNL     1      22.718  -3.837  10.423  1.00  0.00     0.106 C 
HETATM    5  N1  UNL     1      22.390  -5.016  10.808  1.00  0.00    -0.380 N 
ATOM      6  H1  UNL     1      21.655  -5.152  11.501  1.00  0.00     0.160 HD
HETATM    7  N2  UNL     1      23.728  -3.659   9.471  1.00  0.00    -0.086 NA
BRANCH   5   8
HETATM    8  C4  UNL     1      23.085  -6.148  10.240  1.00  0.00     0.124 C 
BRANCH   8   9
HETATM    9  C3  UNL     1      22.232  -7.403  10.319  1.00  0.00     0.046 C 
BRANCH   9  10
HETATM   10  C2  UNL     1      23.088  -8.591  10.013  1.00  0.00    -0.035 C 
HETATM   11  C1  UNL     1      24.251  -8.706  10.613  1.00  0.00     0.007 C 
ENDBRANCH   9  10
ENDBRANCH   8   9
ENDBRANCH   5   8
ENDBRANCH   3   4
ENDBRANCH   1   3
BRANCH   1  12
HETATM   12  C7  UNL     1      19.556  -2.810  11.469  1.00  0.00     0.104 A 
HETATM   13  C8  UNL     1      19.847  -3.301  12.747  1.00  0.00     0.103 A 
HETATM   14  C9  UNL     1      18.843  -3.397  13.683  1.00  0.00     0.176 A 
HETATM   15  O1  UNL     1      19.117  -3.840  14.831  1.00  0.00    -0.288 OA
HETATM   16  C10 UNL     1      17.587  -3.002  13.312  1.00  0.00     0.072 A 
HETATM   17  C11 UNL     1      17.301  -2.519  12.057  1.00  0.00     0.093 A 
HETATM   18  N4  UNL     1      18.313  -2.440  11.169  1.00  0.00    -0.352 N 
ATOM     19  H4  UNL     1      18.119  -2.083  10.233  1.00  0.00     0.166 HD
ENDBRANCH   1  12
TORSDOF 6
ENDMDL
MODEL 2
REMARK VINA RESULT: -6.700089945      1.518      1.920
REMARK  6 active torsions:
REMARK  status: ('A' for Active; 'I' for Inactive)
REMARK    1  A    between atoms: C2_2  and  C3_3 
REMARK    2  A    between atoms: C3_3  and  C4_4 
REMARK    3  A    between atoms: C4_4  and  N1_5 
REMARK    4  A    between atoms: C5_7  and  C6_9 
REMARK    5  A    between atoms: C6_9  and  N3_10 
REMARK    6  A    between atoms: N3_10  and  C7_12 
ROOT
HETATM    1  N3  UNL     1      20.158  -2.337  11.696  1.00  0.00    -0.369 N 
ATOM      2  H3  UNL     1      20.342  -1.356  11.906  1.00  0.00     0.161 HD
ENDROOT
BRANCH   1   3
HETATM    3  C6  UNL     1      20.516  -2.841  10.409  1.00  0.00     0.194 C 
BRANCH   3   4
HETATM    4  C5  UNL     1      21.809  -3.543  10.497  1.00  0.00     0.106 C 
HETATM    5  N1  UNL     1      21.978  -4.588   9.772  1.00  0.00    -0.380 N 
ATOM      6  H1  UNL     1      21.236  -4.918   9.154  1.00  0.00     0.160 HD
HETATM    7  N2  UNL     1      22.832  -3.096  11.341  1.00  0.00    -0.086 NA
BRANCH   5   8
HETATM    8  C4  UNL     1      23.239  -5.288   9.847  1.00  0.00     0.124 C 
BRANCH   8   9
HETATM    9  C3  UNL     1      23.094  -6.584  10.625  1.00  0.00     0.046 C 
BRANCH   9  10
HETATM   10  C2  UNL     1      24.185  -7.521  10.213  1.00  0.00    -0.035 C 
HETATM   11  C1  UNL     1      24.119  -8.777  10.594  1.00  0.00     0.007 C 
ENDBRANCH   9  10
ENDBRANCH   8   9
ENDBRANCH   5   8
ENDBRANCH   3   4
ENDBRANCH   1   3
BRANCH   1  12
HETATM   12  C7  UNL     1      19.563  -3.138  12.689  1.00  0.00     0.104 A 
HETATM   13  C8  UNL     1      18.350  -2.677  13.213  1.00  0.00     0.103 A 
HETATM   14  C9  UNL     1      17.694  -3.424  14.164  1.00  0.00     0.176 A 
HETATM   15  O1  UNL     1      16.602  -3.000  14.629  1.00  0.00    -0.288 OA
HETATM   16  C10 UNL     1      18.269  -4.601  14.558  1.00  0.00     0.072 A 
HETATM   17  C11 UNL     1      19.460  -5.054  14.042  1.00  0.00     0.093 A 
HETATM   18  N4  UNL     1      20.072  -4.293  13.111  1.00  0.00    -0.352 N 
ATOM     19  H4  UNL     1      20.956  -4.615  12.718  1.00  0.00     0.166 HD
ENDBRANCH   1  12
TORSDOF 6
ENDMDL
MODEL 3
REMARK VINA RESULT: -6.699780619      1.572      1.893
REMARK  6 active torsions:
REMARK  status: ('A' for Active; 'I' for Inactive)
REMARK    1  A    between atoms: C2_2  and  C3_3 
REMARK    2  A    between atoms: C3_3  and  C4_4 
REMARK    3  A    between atoms: C4_4  and  N1_5 
REMARK    4  A    between atoms: C5_7  and  C6_9 
REMARK    5  A    between atoms: C6_9  and  N3_10 
REMARK    6  A    between atoms: N3_10  and  C7_12 
ROOT
HETATM    1  N3  UNL     1      21.097  -3.827  11.950  1.00  0.00    -0.369 N 
ATOM      2  H3  UNL     1      21.771  -4.405  12.453  1.00  0.00     0.161 HD
ENDROOT
BRANCH   1   3
HETATM    3  C6  UNL     1      21.470  -3.293  10.679  1.00  0.00     0.194 C 
BRANCH   3   4
HETATM    4  C5  UNL     1      22.618  -4.049  10.146  1.00  0.00     0.106 C 
HETATM    5  N1  UNL     1      22.586  -5.329  10.228  1.00  0.00    -0.380 N 
ATOM      6  H1  UNL     1      21.788  -5.803  10.651  1.00  0.00     0.160 HD
HETATM    7  N2  UNL     1      23.714  -3.405   9.563  1.00  0.00    -0.086 NA
BRANCH   5   8
HETATM    8  C4  UNL     1      23.703  -6.085   9.710  1.00  0.00     0.124 C 
BRANCH   8   9
HETATM    9  C3  UNL     1      24.192  -7.097  10.731  1.00  0.00     0.046 C 
BRANCH   9  10
HETATM   10  C2  UNL     1      23.917  -8.475  10.218  1.00  0.00    -0.035 C 
HETATM   11  C1  UNL     1      22.700  -8.772   9.820  1.00  0.00     0.007 C 
ENDBRANCH   9  10
ENDBRANCH   8   9
ENDBRANCH   5   8
ENDBRANCH   3   4
ENDBRANCH   1   3
BRANCH   1  12
HETATM   12  C7  UNL     1      19.841  -3.591  12.537  1.00  0.00     0.104 A 
HETATM   13  C8  UNL     1      19.018  -2.662  11.890  1.00  0.00     0.103 A 
HETATM   14  C9  UNL     1      17.762  -2.403  12.388  1.00  0.00     0.176 A 
HETATM   15  O1  UNL     1      17.029  -1.566  11.796  1.00  0.00    -0.288 OA
HETATM   16  C10 UNL     1      17.371  -3.079  13.512  1.00  0.00     0.072 A 
HETATM   17  C11 UNL     1      18.179  -3.992  14.147  1.00  0.00     0.093 A 
HETATM   18  N4  UNL     1      19.403  -4.217  13.627  1.00  0.00    -0.352 N 
ATOM     19  H4  UNL     1      20.015  -4.892  14.086  1.00  0.00     0.166 HD
ENDBRANCH   1  12
TORSDOF 6
ENDMDL
MODEL 4
REMARK VINA RESULT: -6.619445564      2.260      6.273
REMARK  6 active torsions:
REMARK  status: ('A' for Active; 'I' for Inactive)
REMARK    1  A    between atoms: C2_2  and  C3_3 
REMARK    2  A    between atoms: C3_3  and  C4_4 
REMARK    3  A    between atoms: C4_4  and  N1_5 
REMARK    4  A    between atoms: C5_7  and  C6_9 
REMARK    5  A    between atoms: C6_9  and  N3_10 
REMARK    6  A    between atoms: N3_10  and  C7_12 
ROOT
HETATM    1  N3  UNL     1      21.426  -3.475   9.951  1.00  0.00    -0.369 N 
ATOM      2  H3  UNL     1      20.579  -3.562   9.389  1.00  0.00     0.161 HD
ENDROOT
BRANCH   1   3
HETATM    3  C6  UNL     1      21.446  -2.521  11.014  1.00  0.00     0.194 C 
BRANCH   3   4
HETATM    4  C5  UNL     1      20.502  -2.938  12.067  1.00  0.00     0.106 C 
HETATM    5  N1  UNL     1      19.700  -2.055  12.541  1.00  0.00    -0.380 N 
ATOM      6  H1  UNL     1      19.720  -1.096  12.196  1.00  0.00     0.160 HD
HETATM    7  N2  UNL     1      20.468  -4.252  12.544  1.00  0.00    -0.086 NA
BRANCH   5   8
HETATM    8  C4  UNL     1      18.769  -2.448  13.573  1.00  0.00     0.124 C 
BRANCH   8   9
HETATM    9  C3  UNL     1      17.439  -2.868  12.972  1.00  0.00     0.046 C 
BRANCH   9  10
HETATM   10  C2  UNL     1      17.092  -1.930  11.860  1.00  0.00    -0.035 C 
HETATM   11  C1  UNL     1      17.009  -2.400  10.636  1.00  0.00     0.007 C 
ENDBRANCH   9  10
ENDBRANCH   8   9
ENDBRANCH   5   8
ENDBRANCH   3   4
ENDBRANCH   1   3
BRANCH   1  12
HETATM   12  C7  UNL     1      22.525  -4.299   9.647  1.00  0.00     0.104 A 
HETATM   13  C8  UNL     1      22.547  -5.556  10.264  1.00  0.00     0.103 A 
HETATM   14  C9  UNL     1      23.574  -6.429   9.990  1.00  0.00     0.176 A 
HETATM   15  O1  UNL     1      23.583  -7.558  10.550  1.00  0.00    -0.288 OA
HETATM   16  C10 UNL     1      24.540  -6.020   9.112  1.00  0.00     0.072 A 
HETATM   17  C11 UNL     1      24.518  -4.787   8.506  1.00  0.00     0.093 A 
HETATM   18  N4  UNL     1      23.494  -3.960   8.801  1.00  0.00    -0.352 N 
ATOM     19  H4  UNL     1      23.462  -3.041   8.359  1.00  0.00     0.166 HD
ENDBRANCH   1  12
TORSDOF 6
ENDMDL
MODEL 5
REMARK VINA RESULT: -6.578855499      1.694      2.487
REMARK  6 active torsions:
REMARK  status: ('A' for Active; 'I' for Inactive)
REMARK    1  A    between atoms: C2_2  and  C3_3 
REMARK    2  A    between atoms: C3_3  and  C4_4 
REMARK    3  A    between atoms: C4_4  and  N1_5 
REMARK    4  A    between atoms: C5_7  and  C6_9 
REMARK    5  A    between atoms: C6_9  and  N3_10 
REMARK    6  A    between atoms: N3_10  and  C7_12 
ROOT
HETATM    1  N3  UNL     1      19.487  -2.356  11.957  1.00  0.00    -0.369 N 
ATOM      2  H3  UNL     1      19.478  -1.346  12.102  1.00  0.00     0.161 HD
ENDROOT
BRANCH   1   3
HETATM    3  C6  UNL     1      19.938  -2.861  10.700  1.00  0.00     0.194 C 
BRANCH   3   4
HETATM    4  C5  UNL     1      21.409  -2.960  10.710  1.00  0.00     0.106 C 
HETATM    5  N1  UNL     1      21.976  -3.588   9.744  1.00  0.00    -0.380 N 
ATOM      6  H1  UNL     1      21.421  -4.003   8.996  1.00  0.00     0.160 HD
HETATM    7  N2  UNL     1      22.177  -2.392  11.731  1.00  0.00    -0.086 NA
BRANCH   5   8
HETATM    8  C4  UNL     1      23.417  -3.694   9.739  1.00  0.00     0.124 C 
BRANCH   8   9
HETATM    9  C3  UNL     1      23.861  -5.018   9.142  1.00  0.00     0.046 C 
BRANCH   9  10
HETATM   10  C2  UNL     1      23.377  -6.131  10.017  1.00  0.00    -0.035 C 
HETATM   11  C1  UNL     1      24.186  -7.134  10.274  1.00  0.00     0.007 C 
ENDBRANCH   9  10
ENDBRANCH   8   9
ENDBRANCH   5   8
ENDBRANCH   3   4
ENDBRANCH   1   3
BRANCH   1  12
HETATM   12  C7  UNL     1      19.055  -3.191  13.003  1.00  0.00     0.104 A 
HETATM   13  C8  UNL     1      17.862  -2.826  13.637  1.00  0.00     0.103 A 
HETATM   14  C9  UNL     1      17.361  -3.613  14.648  1.00  0.00     0.176 A 
HETATM   15  O1  UNL     1      16.285  -3.275  15.211  1.00  0.00    -0.288 OA
HETATM   16  C10 UNL     1      18.065  -4.735  14.990  1.00  0.00     0.072 A 
HETATM   17  C11 UNL     1      19.236  -5.094  14.367  1.00  0.00     0.093 A 
HETATM   18  N4  UNL     1      19.694  -4.296  13.381  1.00  0.00    -0.352 N 
ATOM     19  H4  UNL     1      20.561  -4.549  12.907  1.00  0.00     0.166 HD
ENDBRANCH   1  12
TORSDOF 6
ENDMDL
