MODEL 1
REMARK VINA RESULT: -5.554332320      0.000      0.000
REMARK  4 active torsions:
REMARK  status: ('A' for Active; 'I' for Inactive)
REMARK    1  A    between atoms: C2_2  and  C4_4 
REMARK    2  A    between atoms: C4_4  and  S1_5 
REMARK    3  A    between atoms: S1_5  and  C5_6 
REMARK    4  A    between atoms: C6_9  and  O1_11 
ROOT
HETATM    1  C5  UNL     1      25.737  25.791  -6.687  1.00  0.00     0.106 C 
HETATM    2  N1  UNL     1      26.351  26.784  -6.285  1.00  0.00    -0.347 N 
ATOM      3  H1  UNL     1      27.275  26.964  -6.677  1.00  0.00     0.163 HD
HETATM    4  C6  UNL     1      25.873  27.658  -5.347  1.00  0.00     0.137 C 
HETATM    5  C7  UNL     1      26.560  27.588  -3.991  1.00  0.00     0.071 C 
HETATM    6  C8  UNL     1      24.366  27.557  -5.194  1.00  0.00     0.141 C 
HETATM    7  S2  UNL     1      24.178  25.805  -5.731  1.00  0.00    -0.101 SA
ENDROOT
BRANCH   1   8
HETATM    8  S1  UNL     1      26.071  24.511  -7.850  1.00  0.00    -0.105 SA
BRANCH   8   9
HETATM    9  C4  UNL     1      27.580  24.575  -8.750  1.00  0.00     0.085 C 
BRANCH   9  10
HETATM   10  C2  UNL     1      27.888  23.460  -9.683  1.00  0.00    -0.013 C 
HETATM   11  C1  UNL     1      26.765  22.499  -9.946  1.00  0.00     0.010 C 
HETATM   12  C3  UNL     1      29.096  22.650  -9.234  1.00  0.00     0.010 C 
ENDBRANCH   9  10
ENDBRANCH   8   9
ENDBRANCH   1   8
BRANCH   4  13
HETATM   13  O1  UNL     1      26.107  28.978  -5.809  1.00  0.00    -0.370 OA
ATOM     14  H1  UNL     1      25.678  29.582  -5.215  1.00  0.00     0.212 HD
ENDBRANCH   4  13
TORSDOF 4
ENDMDL
MODEL 2
REMARK VINA RESULT: -5.494137089      0.439      1.023
REMARK  4 active torsions:
REMARK  status: ('A' for Active; 'I' for Inactive)
REMARK    1  A    between atoms: C2_2  and  C4_4 
REMARK    2  A    between atoms: C4_4  and  S1_5 
REMARK    3  A    between atoms: S1_5  and  C5_6 
REMARK    4  A    between atoms: C6_9  and  O1_11 
ROOT
HETATM    1  C5  UNL     1      25.590  25.781  -6.611  1.00  0.00     0.106 C 
HETATM    2  N1  UNL     1      26.230  26.759  -6.213  1.00  0.00    -0.347 N 
ATOM      3  H1  UNL     1      27.167  26.900  -6.591  1.00  0.00     0.163 HD
HETATM    4  C6  UNL     1      25.765  27.665  -5.300  1.00  0.00     0.137 C 
HETATM    5  C7  UNL     1      26.423  27.595  -3.929  1.00  0.00     0.071 C 
HETATM    6  C8  UNL     1      24.252  27.619  -5.175  1.00  0.00     0.141 C 
HETATM    7  S2  UNL     1      24.013  25.865  -5.685  1.00  0.00    -0.101 SA
ENDROOT
BRANCH   1   8
HETATM    8  S1  UNL     1      25.900  24.470  -7.745  1.00  0.00    -0.105 SA
BRANCH   8   9
HETATM    9  C4  UNL     1      27.298  24.598  -8.805  1.00  0.00     0.085 C 
BRANCH   9  10
HETATM   10  C2  UNL     1      27.871  23.346  -9.364  1.00  0.00    -0.013 C 
HETATM   11  C1  UNL     1      29.026  23.519 -10.306  1.00  0.00     0.010 C 
HETATM   12  C3  UNL     1      26.822  22.496 -10.067  1.00  0.00     0.010 C 
ENDBRANCH   9  10
ENDBRANCH   8   9
ENDBRANCH   1   8
BRANCH   4  13
HETATM   13  O1  UNL     1      26.054  28.968  -5.779  1.00  0.00    -0.370 OA
ATOM     14  H1  UNL     1      26.382  29.486  -5.054  1.00  0.00     0.212 HD
ENDBRANCH   4  13
TORSDOF 4
ENDMDL
MODEL 3
REMARK VINA RESULT: -5.398890566      3.169      6.161
REMARK  4 active torsions:
REMARK  status: ('A' for Active; 'I' for Inactive)
REMARK    1  A    between atoms: C2_2  and  C4_4 
REMARK    2  A    between atoms: C4_4  and  S1_5 
REMARK    3  A    between atoms: S1_5  and  C5_6 
REMARK    4  A    between atoms: C6_9  and  O1_11 
ROOT
HETATM    1  C5  UNL     1      26.630  24.060  -8.799  1.00  0.00     0.106 C 
HETATM    2  N1  UNL     1      26.740  23.108  -9.576  1.00  0.00    -0.347 N 
ATOM      3  H1  UNL     1      25.910  22.543  -9.759  1.00  0.00     0.163 HD
HETATM    4  C6  UNL     1      27.903  22.758 -10.206  1.00  0.00     0.137 C 
HETATM    5  C7  UNL     1      28.553  21.479  -9.700  1.00  0.00     0.071 C 
HETATM    6  C8  UNL     1      28.903  23.901 -10.225  1.00  0.00     0.141 C 
HETATM    7  S2  UNL     1      28.313  24.773  -8.714  1.00  0.00    -0.101 SA
ENDROOT
BRANCH   1   8
HETATM    8  S1  UNL     1      25.311  24.748  -7.856  1.00  0.00    -0.105 SA
BRANCH   8   9
HETATM    9  C4  UNL     1      25.601  25.116  -6.161  1.00  0.00     0.085 C 
BRANCH   9  10
HETATM   10  C2  UNL     1      26.009  26.499  -5.803  1.00  0.00    -0.013 C 
HETATM   11  C1  UNL     1      27.455  26.682  -5.443  1.00  0.00     0.010 C 
HETATM   12  C3  UNL     1      25.173  27.072  -4.668  1.00  0.00     0.010 C 
ENDBRANCH   9  10
ENDBRANCH   8   9
ENDBRANCH   1   8
BRANCH   4  13
HETATM   13  O1  UNL     1      27.610  22.505 -11.571  1.00  0.00    -0.370 OA
ATOM     14  H1  UNL     1      28.311  22.869 -12.099  1.00  0.00     0.212 HD
ENDBRANCH   4  13
TORSDOF 4
ENDMDL
MODEL 4
REMARK VINA RESULT: -5.252592218      3.323      6.380
REMARK  4 active torsions:
REMARK  status: ('A' for Active; 'I' for Inactive)
REMARK    1  A    between atoms: C2_2  and  C4_4 
REMARK    2  A    between atoms: C4_4  and  S1_5 
REMARK    3  A    between atoms: S1_5  and  C5_6 
REMARK    4  A    between atoms: C6_9  and  O1_11 
ROOT
HETATM    1  C5  UNL     1      25.942  23.259  -9.133  1.00  0.00     0.106 C 
HETATM    2  N1  UNL     1      27.130  23.035  -9.378  1.00  0.00    -0.347 N 
ATOM      3  H1  UNL     1      27.830  23.610  -8.908  1.00  0.00     0.163 HD
HETATM    4  C6  UNL     1      27.570  22.068 -10.240  1.00  0.00     0.137 C 
HETATM    5  C7  UNL     1      28.153  22.584 -11.547  1.00  0.00     0.071 C 
HETATM    6  C8  UNL     1      26.507  21.015 -10.500  1.00  0.00     0.141 C 
HETATM    7  S2  UNL     1      25.030  22.068 -10.181  1.00  0.00    -0.101 SA
ENDROOT
BRANCH   1   8
HETATM    8  S1  UNL     1      25.079  24.399  -8.104  1.00  0.00    -0.105 SA
BRANCH   8   9
HETATM    9  C4  UNL     1      25.726  24.733  -6.503  1.00  0.00     0.085 C 
BRANCH   9  10
HETATM   10  C2  UNL     1      25.857  26.152  -6.082  1.00  0.00    -0.013 C 
HETATM   11  C1  UNL     1      27.226  26.578  -5.638  1.00  0.00     0.010 C 
HETATM   12  C3  UNL     1      24.876  26.518  -4.976  1.00  0.00     0.010 C 
ENDBRANCH   9  10
ENDBRANCH   8   9
ENDBRANCH   1   8
BRANCH   4  13
HETATM   13  O1  UNL     1      28.634  21.367  -9.616  1.00  0.00    -0.370 OA
ATOM     14  H1  UNL     1      28.391  20.451  -9.552  1.00  0.00     0.212 HD
ENDBRANCH   4  13
TORSDOF 4
ENDMDL
MODEL 5
REMARK VINA RESULT: -5.232154412      3.187      6.064
REMARK  4 active torsions:
REMARK  status: ('A' for Active; 'I' for Inactive)
REMARK    1  A    between atoms: C2_2  and  C4_4 
REMARK    2  A    between atoms: C4_4  and  S1_5 
REMARK    3  A    between atoms: S1_5  and  C5_6 
REMARK    4  A    between atoms: C6_9  and  O1_11 
ROOT
HETATM    1  C5  UNL     1      26.681  24.105  -8.795  1.00  0.00     0.106 C 
HETATM    2  N1  UNL     1      26.878  23.124  -9.518  1.00  0.00    -0.347 N 
ATOM      3  H1  UNL     1      26.088  22.510  -9.714  1.00  0.00     0.163 HD
HETATM    4  C6  UNL     1      28.087  22.807 -10.074  1.00  0.00     0.137 C 
HETATM    5  C7  UNL     1      28.773  21.588  -9.475  1.00  0.00     0.071 C 
HETATM    6  C8  UNL     1      29.029  23.998 -10.100  1.00  0.00     0.141 C 
HETATM    7  S2  UNL     1      28.321  24.907  -8.663  1.00  0.00    -0.101 SA
ENDROOT
BRANCH   1   8
HETATM    8  S1  UNL     1      25.284  24.766  -7.951  1.00  0.00    -0.105 SA
BRANCH   8   9
HETATM    9  C4  UNL     1      25.225  24.626  -6.198  1.00  0.00     0.085 C 
BRANCH   9  10
HETATM   10  C2  UNL     1      25.288  25.873  -5.393  1.00  0.00    -0.013 C 
HETATM   11  C1  UNL     1      24.060  26.736  -5.429  1.00  0.00     0.010 C 
HETATM   12  C3  UNL     1      26.478  26.743  -5.770  1.00  0.00     0.010 C 
ENDBRANCH   9  10
ENDBRANCH   8   9
ENDBRANCH   1   8
BRANCH   4  13
HETATM   13  O1  UNL     1      27.877  22.477 -11.437  1.00  0.00    -0.370 OA
ATOM     14  H1  UNL     1      28.471  21.773 -11.669  1.00  0.00     0.212 HD
ENDBRANCH   4  13
TORSDOF 4
ENDMDL
