MODEL 1
REMARK VINA RESULT: -4.537544878      0.000      0.000
REMARK  3 active torsions:
REMARK  status: ('A' for Active; 'I' for Inactive)
REMARK    1  A    between atoms: C2_2  and  C3_3 
REMARK    2  A    between atoms: C4_4  and  C5_5 
REMARK    3  A    between atoms: C6_6  and  C7_7 
ROOT
HETATM    1  C7  UNL     1       0.170 124.018 -11.470  1.00  0.00     0.029 C 
HETATM    2  C8  UNL     1       0.780 125.376 -11.753  1.00  0.00     0.119 C 
HETATM    3  N1  UNL     1       0.148 126.227 -10.816  1.00  0.00    -0.228 NA
HETATM    4  C9  UNL     1      -1.157 125.634 -10.461  1.00  0.00     0.167 A 
HETATM    5  C10 UNL     1      -1.304 124.437 -11.357  1.00  0.00     0.029 C 
HETATM    6  C11 UNL     1      -1.782 124.756 -12.728  1.00  0.00     0.009 C 
HETATM    7  C12 UNL     1      -2.481 126.092 -12.819  1.00  0.00     0.016 C 
HETATM    8  C13 UNL     1      -1.628 127.196 -12.229  1.00  0.00     0.110 C 
HETATM    9  N2  UNL     1      -1.032 126.867 -10.995  1.00  0.00    -0.228 NA
ENDROOT
BRANCH   1  10
HETATM   10  C6  UNL     1       0.413 123.017 -12.500  1.00  0.00    -0.020 C 
HETATM   11  C5  UNL     1       0.097 121.740 -12.246  1.00  0.00    -0.004 C 
BRANCH  11  12
HETATM   12  C4  UNL     1       0.322 120.701 -13.243  1.00  0.00    -0.000 C 
HETATM   13  C3  UNL     1      -0.663 120.261 -13.972  1.00  0.00    -0.001 C 
BRANCH  13  14
HETATM   14  C2  UNL     1      -2.021 120.744 -13.865  1.00  0.00    -0.010 C 
HETATM   15  C1  UNL     1      -2.563 121.446 -14.871  1.00  0.00     0.011 C 
ENDBRANCH  13  14
ENDBRANCH  11  12
ENDBRANCH   1  10
TORSDOF 3
ENDMDL
MODEL 2
REMARK VINA RESULT: -4.481236777      2.027      5.366
REMARK  3 active torsions:
REMARK  status: ('A' for Active; 'I' for Inactive)
REMARK    1  A    between atoms: C2_2  and  C3_3 
REMARK    2  A    between atoms: C4_4  and  C5_5 
REMARK    3  A    between atoms: C6_6  and  C7_7 
ROOT
HETATM    1  C7  UNL     1      -0.262 125.518 -10.629  1.00  0.00     0.029 C 
HETATM    2  C8  UNL     1      -0.301 124.176  -9.925  1.00  0.00     0.119 C 
HETATM    3  N1  UNL     1       0.790 123.472 -10.488  1.00  0.00    -0.228 NA
HETATM    4  C9  UNL     1       1.055 124.030 -11.830  1.00  0.00     0.167 A 
HETATM    5  C10 UNL     1      -0.044 125.026 -12.068  1.00  0.00     0.029 C 
HETATM    6  C11 UNL     1      -1.322 124.425 -12.532  1.00  0.00     0.009 C 
HETATM    7  C12 UNL     1      -1.150 123.050 -13.133  1.00  0.00     0.016 C 
HETATM    8  C13 UNL     1      -0.383 122.137 -12.200  1.00  0.00     0.110 C 
HETATM    9  N2  UNL     1       0.756 122.731 -11.620  1.00  0.00    -0.228 NA
ENDROOT
BRANCH   1  10
HETATM   10  C6  UNL     1      -1.465 126.323 -10.465  1.00  0.00    -0.020 C 
HETATM   11  C5  UNL     1      -1.344 127.656 -10.399  1.00  0.00    -0.004 C 
BRANCH  11  12
HETATM   12  C4  UNL     1      -2.516 128.506 -10.235  1.00  0.00    -0.000 C 
HETATM   13  C3  UNL     1      -3.069 129.076 -11.267  1.00  0.00    -0.001 C 
BRANCH  13  14
HETATM   14  C2  UNL     1      -2.589 128.925 -12.622  1.00  0.00    -0.010 C 
HETATM   15  C1  UNL     1      -3.235 128.114 -13.473  1.00  0.00     0.011 C 
ENDBRANCH  13  14
ENDBRANCH  11  12
ENDBRANCH   1  10
TORSDOF 3
ENDMDL
MODEL 3
REMARK VINA RESULT: -4.473415503      2.691      6.201
REMARK  3 active torsions:
REMARK  status: ('A' for Active; 'I' for Inactive)
REMARK    1  A    between atoms: C2_2  and  C3_3 
REMARK    2  A    between atoms: C4_4  and  C5_5 
REMARK    3  A    between atoms: C6_6  and  C7_7 
ROOT
HETATM    1  C7  UNL     1      -0.286 125.653 -10.682  1.00  0.00     0.029 C 
HETATM    2  C8  UNL     1      -0.358 124.349  -9.913  1.00  0.00     0.119 C 
HETATM    3  N1  UNL     1       0.742 123.609 -10.407  1.00  0.00    -0.228 NA
HETATM    4  C9  UNL     1       1.051 124.096 -11.767  1.00  0.00     0.167 A 
HETATM    5  C10 UNL     1      -0.031 125.087 -12.087  1.00  0.00     0.029 C 
HETATM    6  C11 UNL     1      -1.302 124.474 -12.558  1.00  0.00     0.009 C 
HETATM    7  C12 UNL     1      -1.126 123.070 -13.084  1.00  0.00     0.016 C 
HETATM    8  C13 UNL     1      -0.396 122.199 -12.084  1.00  0.00     0.110 C 
HETATM    9  N2  UNL     1       0.733 122.811 -11.502  1.00  0.00    -0.228 NA
ENDROOT
BRANCH   1  10
HETATM   10  C6  UNL     1      -1.484 126.476 -10.594  1.00  0.00    -0.020 C 
HETATM   11  C5  UNL     1      -1.365 127.748 -10.188  1.00  0.00    -0.004 C 
BRANCH  11  12
HETATM   12  C4  UNL     1      -2.534 128.612 -10.083  1.00  0.00    -0.000 C 
HETATM   13  C3  UNL     1      -2.888 129.108  -8.932  1.00  0.00    -0.001 C 
BRANCH  13  14
HETATM   14  C2  UNL     1      -2.181 128.856  -7.697  1.00  0.00    -0.010 C 
HETATM   15  C1  UNL     1      -2.116 129.811  -6.758  1.00  0.00     0.011 C 
ENDBRANCH  13  14
ENDBRANCH  11  12
ENDBRANCH   1  10
TORSDOF 3
ENDMDL
MODEL 4
REMARK VINA RESULT: -4.451114715      2.456      5.494
REMARK  3 active torsions:
REMARK  status: ('A' for Active; 'I' for Inactive)
REMARK    1  A    between atoms: C2_2  and  C3_3 
REMARK    2  A    between atoms: C4_4  and  C5_5 
REMARK    3  A    between atoms: C6_6  and  C7_7 
ROOT
HETATM    1  C7  UNL     1      -0.904 126.289 -12.190  1.00  0.00     0.029 C 
HETATM    2  C8  UNL     1      -0.632 126.496 -10.713  1.00  0.00     0.119 C 
HETATM    3  N1  UNL     1       0.558 125.765 -10.488  1.00  0.00    -0.228 NA
HETATM    4  C9  UNL     1       0.645 124.701 -11.508  1.00  0.00     0.167 A 
HETATM    5  C10 UNL     1      -0.647 124.777 -12.270  1.00  0.00     0.029 C 
HETATM    6  C11 UNL     1      -1.789 124.095 -11.606  1.00  0.00     0.009 C 
HETATM    7  C12 UNL     1      -1.358 123.070 -10.584  1.00  0.00     0.016 C 
HETATM    8  C13 UNL     1      -0.380 123.665  -9.593  1.00  0.00     0.110 C 
HETATM    9  N2  UNL     1       0.633 124.448 -10.182  1.00  0.00    -0.228 NA
ENDROOT
BRANCH   1  10
HETATM   10  C6  UNL     1      -2.241 126.677 -12.621  1.00  0.00    -0.020 C 
HETATM   11  C5  UNL     1      -2.423 127.900 -13.137  1.00  0.00    -0.004 C 
BRANCH  11  12
HETATM   12  C4  UNL     1      -3.741 128.335 -13.582  1.00  0.00    -0.000 C 
HETATM   13  C3  UNL     1      -3.860 129.195 -14.552  1.00  0.00    -0.001 C 
BRANCH  13  14
HETATM   14  C2  UNL     1      -2.738 129.778 -15.251  1.00  0.00    -0.010 C 
HETATM   15  C1  UNL     1      -2.707 129.768 -16.592  1.00  0.00     0.011 C 
ENDBRANCH  13  14
ENDBRANCH  11  12
ENDBRANCH   1  10
TORSDOF 3
ENDMDL
MODEL 5
REMARK VINA RESULT: -4.327880018      2.161      5.093
REMARK  3 active torsions:
REMARK  status: ('A' for Active; 'I' for Inactive)
REMARK    1  A    between atoms: C2_2  and  C3_3 
REMARK    2  A    between atoms: C4_4  and  C5_5 
REMARK    3  A    between atoms: C6_6  and  C7_7 
ROOT
HETATM    1  C7  UNL     1      -0.049 123.891 -10.892  1.00  0.00     0.029 C 
HETATM    2  C8  UNL     1      -0.491 122.526 -10.404  1.00  0.00     0.119 C 
HETATM    3  N1  UNL     1       0.298 121.629 -11.163  1.00  0.00    -0.228 NA
HETATM    4  C9  UNL     1       0.681 122.303 -12.420  1.00  0.00     0.167 A 
HETATM    5  C10 UNL     1      -0.049 123.616 -12.403  1.00  0.00     0.029 C 
HETATM    6  C11 UNL     1      -1.468 123.531 -12.840  1.00  0.00     0.009 C 
HETATM    7  C12 UNL     1      -1.766 122.299 -13.660  1.00  0.00     0.016 C 
HETATM    8  C13 UNL     1      -1.301 121.044 -12.951  1.00  0.00     0.110 C 
HETATM    9  N2  UNL     1      -0.012 121.145 -12.389  1.00  0.00    -0.228 NA
ENDROOT
BRANCH   1  10
HETATM   10  C6  UNL     1      -0.923 124.988 -10.499  1.00  0.00    -0.020 C 
HETATM   11  C5  UNL     1      -0.495 126.246 -10.670  1.00  0.00    -0.004 C 
BRANCH  11  12
HETATM   12  C4  UNL     1      -1.332 127.378 -10.293  1.00  0.00    -0.000 C 
HETATM   13  C3  UNL     1      -2.026 128.015 -11.191  1.00  0.00    -0.001 C 
BRANCH  13  14
HETATM   14  C2  UNL     1      -2.031 127.672 -12.595  1.00  0.00    -0.010 C 
HETATM   15  C1  UNL     1      -3.088 127.039 -13.125  1.00  0.00     0.011 C 
ENDBRANCH  13  14
ENDBRANCH  11  12
ENDBRANCH   1  10
TORSDOF 3
ENDMDL
