MODEL 1
REMARK VINA RESULT: -4.726272146      0.000      0.000
REMARK  3 active torsions:
REMARK  status: ('A' for Active; 'I' for Inactive)
REMARK    1  A    between atoms: C3_3  and  N1_4 
REMARK       I    between atoms: N1_4  and  C4_6 
REMARK    2  A    between atoms: C4_6  and  C5_8 
REMARK    3  A    between atoms: C11_14  and  C12_15 
ROOT
HETATM    1  C1  UNL     1      -2.169 129.799 -11.690  1.00  0.00     0.014 C 
HETATM    2  C2  UNL     1      -1.821 128.876 -10.998  1.00  0.00    -0.098 C 
HETATM    3  C3  UNL     1      -1.389 127.724 -10.168  1.00  0.00     0.216 C 
ENDROOT
BRANCH   3   4
HETATM    4  N1  UNL     1      -1.408 126.537 -10.991  1.00  0.00    -0.350 N 
HETATM    5  C4  UNL     1      -0.217 125.800 -11.202  1.00  0.00     0.222 C 
HETATM    6  O1  UNL     1       0.831 126.224 -10.649  1.00  0.00    -0.273 OA
ATOM      7  H1  UNL     1      -2.281 126.228 -11.420  1.00  0.00     0.163 HD
BRANCH   5   8
HETATM    8  C5  UNL     1      -0.184 124.573 -12.038  1.00  0.00     0.082 C 
HETATM    9  C6  UNL     1       1.005 123.694 -11.689  1.00  0.00     0.015 C 
HETATM   10  C7  UNL     1       0.831 122.404 -12.465  1.00  0.00     0.006 C 
HETATM   11  C8  UNL     1      -0.581 121.926 -12.386  1.00  0.00    -0.006 C 
HETATM   12  C9  UNL     1      -1.286 122.502 -11.150  1.00  0.00     0.011 C 
HETATM   13  C11 UNL     1      -1.463 122.874 -13.209  1.00  0.00     0.016 C 
HETATM   14  C10 UNL     1      -1.455 123.784 -11.972  1.00  0.00     0.007 C 
BRANCH  13  15
HETATM   15  C12 UNL     1      -2.778 122.323 -13.548  1.00  0.00    -0.031 C 
HETATM   16  C13 UNL     1      -3.113 122.100 -14.833  1.00  0.00     0.007 C 
ENDBRANCH  13  15
ENDBRANCH   5   8
ENDBRANCH   3   4
TORSDOF 3
ENDMDL
MODEL 2
REMARK VINA RESULT: -4.519189199      3.032      6.071
REMARK  3 active torsions:
REMARK  status: ('A' for Active; 'I' for Inactive)
REMARK    1  A    between atoms: C3_3  and  N1_4 
REMARK       I    between atoms: N1_4  and  C4_6 
REMARK    2  A    between atoms: C4_6  and  C5_8 
REMARK    3  A    between atoms: C11_14  and  C12_15 
ROOT
HETATM    1  C1  UNL     1      -0.066 117.525 -13.054  1.00  0.00     0.014 C 
HETATM    2  C2  UNL     1       0.314 118.583 -13.488  1.00  0.00    -0.098 C 
HETATM    3  C3  UNL     1       0.779 119.896 -13.999  1.00  0.00     0.216 C 
ENDROOT
BRANCH   3   4
HETATM    4  N1  UNL     1       0.533 120.893 -12.983  1.00  0.00    -0.350 N 
HETATM    5  C4  UNL     1      -0.551 121.796 -13.123  1.00  0.00     0.222 C 
HETATM    6  O1  UNL     1      -1.268 121.685 -14.151  1.00  0.00    -0.273 OA
ATOM      7  H1  UNL     1       1.139 120.948 -12.165  1.00  0.00     0.163 HD
BRANCH   5   8
HETATM    8  C5  UNL     1      -0.846 122.838 -12.107  1.00  0.00     0.082 C 
HETATM    9  C6  UNL     1      -0.233 122.492 -10.761  1.00  0.00     0.015 C 
HETATM   10  C7  UNL     1      -0.440 123.699  -9.868  1.00  0.00     0.006 C 
HETATM   11  C8  UNL     1      -0.123 124.958 -10.603  1.00  0.00    -0.006 C 
HETATM   12  C9  UNL     1       0.820 124.684 -11.782  1.00  0.00     0.011 C 
HETATM   13  C11 UNL     1      -1.212 125.196 -11.657  1.00  0.00     0.016 C 
HETATM   14  C10 UNL     1      -0.427 124.211 -12.535  1.00  0.00     0.007 C 
BRANCH  13  15
HETATM   15  C12 UNL     1      -1.255 126.566 -12.174  1.00  0.00    -0.031 C 
HETATM   16  C13 UNL     1      -2.424 127.114 -12.556  1.00  0.00     0.007 C 
ENDBRANCH  13  15
ENDBRANCH   5   8
ENDBRANCH   3   4
TORSDOF 3
ENDMDL
MODEL 3
REMARK VINA RESULT: -4.514050055      2.032      5.742
REMARK  3 active torsions:
REMARK  status: ('A' for Active; 'I' for Inactive)
REMARK    1  A    between atoms: C3_3  and  N1_4 
REMARK       I    between atoms: N1_4  and  C4_6 
REMARK    2  A    between atoms: C4_6  and  C5_8 
REMARK    3  A    between atoms: C11_14  and  C12_15 
ROOT
HETATM    1  C1  UNL     1      -0.022 120.777 -11.188  1.00  0.00     0.014 C 
HETATM    2  C2  UNL     1       0.458 121.866 -11.376  1.00  0.00    -0.098 C 
HETATM    3  C3  UNL     1       1.025 123.217 -11.611  1.00  0.00     0.216 C 
ENDROOT
BRANCH   3   4
HETATM    4  N1  UNL     1      -0.023 124.068 -12.126  1.00  0.00    -0.350 N 
HETATM    5  C4  UNL     1      -0.066 125.438 -11.766  1.00  0.00     0.222 C 
HETATM    6  O1  UNL     1       0.833 125.862 -10.995  1.00  0.00    -0.273 OA
ATOM      7  H1  UNL     1      -0.732 123.682 -12.750  1.00  0.00     0.163 HD
BRANCH   5   8
HETATM    8  C5  UNL     1      -1.122 126.353 -12.268  1.00  0.00     0.082 C 
HETATM    9  C6  UNL     1      -2.328 125.584 -12.781  1.00  0.00     0.015 C 
HETATM   10  C7  UNL     1      -3.398 126.611 -13.090  1.00  0.00     0.006 C 
HETATM   11  C8  UNL     1      -3.488 127.624 -11.997  1.00  0.00    -0.006 C 
HETATM   12  C9  UNL     1      -2.931 127.063 -10.682  1.00  0.00     0.011 C 
HETATM   13  C11 UNL     1      -2.230 128.502 -12.040  1.00  0.00     0.016 C 
HETATM   14  C10 UNL     1      -1.545 127.373 -11.256  1.00  0.00     0.007 C 
BRANCH  13  15
HETATM   15  C12 UNL     1      -2.356 129.762 -11.304  1.00  0.00    -0.031 C 
HETATM   16  C13 UNL     1      -2.220 130.941 -11.941  1.00  0.00     0.007 C 
ENDBRANCH  13  15
ENDBRANCH   5   8
ENDBRANCH   3   4
TORSDOF 3
ENDMDL
MODEL 4
REMARK VINA RESULT: -4.502933614      1.179      2.402
REMARK  3 active torsions:
REMARK  status: ('A' for Active; 'I' for Inactive)
REMARK    1  A    between atoms: C3_3  and  N1_4 
REMARK       I    between atoms: N1_4  and  C4_6 
REMARK    2  A    between atoms: C4_6  and  C5_8 
REMARK    3  A    between atoms: C11_14  and  C12_15 
ROOT
HETATM    1  C1  UNL     1      -2.187 129.640 -11.583  1.00  0.00     0.014 C 
HETATM    2  C2  UNL     1      -1.800 128.795 -10.817  1.00  0.00    -0.098 C 
HETATM    3  C3  UNL     1      -1.328 127.736  -9.891  1.00  0.00     0.216 C 
ENDROOT
BRANCH   3   4
HETATM    4  N1  UNL     1      -1.693 126.452 -10.444  1.00  0.00    -0.350 N 
HETATM    5  C4  UNL     1      -0.688 125.505 -10.763  1.00  0.00     0.222 C 
HETATM    6  O1  UNL     1       0.507 125.833 -10.543  1.00  0.00    -0.273 OA
ATOM      7  H1  UNL     1      -2.675 126.227 -10.606  1.00  0.00     0.163 HD
BRANCH   5   8
HETATM    8  C5  UNL     1      -1.011 124.172 -11.333  1.00  0.00     0.082 C 
HETATM    9  C6  UNL     1      -1.327 124.264 -12.816  1.00  0.00     0.015 C 
HETATM   10  C7  UNL     1      -1.457 122.840 -13.319  1.00  0.00     0.006 C 
HETATM   11  C8  UNL     1      -0.360 121.987 -12.776  1.00  0.00    -0.006 C 
HETATM   12  C9  UNL     1       0.848 122.840 -12.365  1.00  0.00     0.011 C 
HETATM   13  C11 UNL     1      -0.600 121.780 -11.275  1.00  0.00     0.016 C 
HETATM   14  C10 UNL     1       0.060 123.154 -11.089  1.00  0.00     0.007 C 
BRANCH  13  15
HETATM   15  C12 UNL     1       0.152 120.663 -10.698  1.00  0.00    -0.031 C 
HETATM   16  C13 UNL     1      -0.488 119.677 -10.040  1.00  0.00     0.007 C 
ENDBRANCH  13  15
ENDBRANCH   5   8
ENDBRANCH   3   4
TORSDOF 3
ENDMDL
MODEL 5
REMARK VINA RESULT: -4.483014266      3.939      6.862
REMARK  3 active torsions:
REMARK  status: ('A' for Active; 'I' for Inactive)
REMARK    1  A    between atoms: C3_3  and  N1_4 
REMARK       I    between atoms: N1_4  and  C4_6 
REMARK    2  A    between atoms: C4_6  and  C5_8 
REMARK    3  A    between atoms: C11_14  and  C12_15 
ROOT
HETATM    1  C1  UNL     1       3.478 117.168 -14.136  1.00  0.00     0.014 C 
HETATM    2  C2  UNL     1       2.384 117.586 -14.420  1.00  0.00    -0.098 C 
HETATM    3  C3  UNL     1       1.039 118.118 -14.749  1.00  0.00     0.216 C 
ENDROOT
BRANCH   3   4
HETATM    4  N1  UNL     1       0.596 118.947 -13.652  1.00  0.00    -0.350 N 
HETATM    5  C4  UNL     1      -0.140 120.131 -13.910  1.00  0.00     0.222 C 
HETATM    6  O1  UNL     1      -0.380 120.413 -15.112  1.00  0.00    -0.273 OA
ATOM      7  H1  UNL     1       0.813 118.681 -12.692  1.00  0.00     0.163 HD
BRANCH   5   8
HETATM    8  C5  UNL     1      -0.617 121.017 -12.818  1.00  0.00     0.082 C 
HETATM    9  C6  UNL     1      -0.151 120.524 -11.458  1.00  0.00     0.015 C 
HETATM   10  C7  UNL     1      -0.536 121.594 -10.455  1.00  0.00     0.006 C 
HETATM   11  C8  UNL     1      -0.209 122.951 -10.981  1.00  0.00    -0.006 C 
HETATM   12  C9  UNL     1       0.884 122.876 -12.055  1.00  0.00     0.011 C 
HETATM   13  C11 UNL     1      -1.175 123.277 -12.127  1.00  0.00     0.016 C 
HETATM   14  C10 UNL     1      -0.232 122.451 -13.014  1.00  0.00     0.007 C 
BRANCH  13  15
HETATM   15  C12 UNL     1      -1.238 124.700 -12.470  1.00  0.00    -0.031 C 
HETATM   16  C13 UNL     1      -2.402 125.258 -12.854  1.00  0.00     0.007 C 
ENDBRANCH  13  15
ENDBRANCH   5   8
ENDBRANCH   3   4
TORSDOF 3
ENDMDL
