MODEL 1
REMARK VINA RESULT: -4.894458383      0.000      0.000
REMARK  3 active torsions:
REMARK  status: ('A' for Active; 'I' for Inactive)
REMARK    1  A    between atoms: C1_2  and  C2_4 
REMARK    2  A    between atoms: C3_5  and  C4_6 
REMARK    3  A    between atoms: C5_7  and  C6_8 
ROOT
HETATM    1  C6  UNL     1       0.039 122.749 -12.481  1.00  0.00     0.017 C 
HETATM    2  C7  UNL     1       0.447 123.765 -11.388  1.00  0.00    -0.002 C 
HETATM    3  C8  UNL     1       0.511 125.138 -12.030  1.00  0.00     0.010 C 
HETATM    4  C9  UNL     1      -0.959 125.505 -12.074  1.00  0.00    -0.013 C 
HETATM    5  C10 UNL     1      -1.673 124.496 -12.919  1.00  0.00     0.010 C 
HETATM    6  C11 UNL     1      -1.379 123.196 -12.185  1.00  0.00    -0.002 C 
HETATM    7  C12 UNL     1      -0.924 123.594 -10.826  1.00  0.00    -0.005 C 
HETATM    8  C13 UNL     1      -1.378 125.046 -10.667  1.00  0.00     0.010 C 
ENDROOT
BRANCH   1   9
HETATM    9  C5  UNL     1       0.354 121.373 -12.106  1.00  0.00    -0.021 C 
HETATM   10  C4  UNL     1       0.175 120.358 -12.884  1.00  0.00    -0.003 C 
BRANCH  10  11
HETATM   11  C3  UNL     1      -0.355 120.462 -14.213  1.00  0.00     0.007 C 
HETATM   12  C2  UNL     1      -0.197 119.483 -15.112  1.00  0.00     0.084 C 
BRANCH  12  13
HETATM   13  C1  UNL     1      -0.737 119.610 -16.435  1.00  0.00     0.198 C 
HETATM   14  O1  UNL     1      -0.974 120.750 -16.910  1.00  0.00    -0.645 OA
HETATM   15  O2  UNL     1      -1.024 118.523 -17.249  1.00  0.00    -0.645 OA
ENDBRANCH  12  13
ENDBRANCH  10  11
ENDBRANCH   1   9
TORSDOF 3
ENDMDL
MODEL 2
REMARK VINA RESULT: -4.741189540      3.316      6.250
REMARK  3 active torsions:
REMARK  status: ('A' for Active; 'I' for Inactive)
REMARK    1  A    between atoms: C1_2  and  C2_4 
REMARK    2  A    between atoms: C3_5  and  C4_6 
REMARK    3  A    between atoms: C5_7  and  C6_8 
ROOT
HETATM    1  C6  UNL     1      -0.436 120.420 -13.824  1.00  0.00     0.017 C 
HETATM    2  C7  UNL     1       0.094 119.805 -15.141  1.00  0.00    -0.002 C 
HETATM    3  C8  UNL     1       1.463 119.215 -14.859  1.00  0.00     0.010 C 
HETATM    4  C9  UNL     1       1.083 117.907 -14.194  1.00  0.00    -0.013 C 
HETATM    5  C10 UNL     1       0.313 118.218 -12.947  1.00  0.00     0.010 C 
HETATM    6  C11 UNL     1      -0.871 119.007 -13.489  1.00  0.00    -0.002 C 
HETATM    7  C12 UNL     1      -0.912 118.720 -14.949  1.00  0.00    -0.005 C 
HETATM    8  C13 UNL     1      -0.055 117.466 -15.130  1.00  0.00     0.010 C 
ENDROOT
BRANCH   1   9
HETATM    9  C5  UNL     1      -1.521 121.372 -14.052  1.00  0.00    -0.021 C 
HETATM   10  C4  UNL     1      -1.566 122.549 -13.523  1.00  0.00    -0.003 C 
BRANCH  10  11
HETATM   11  C3  UNL     1      -0.554 123.063 -12.646  1.00  0.00     0.007 C 
HETATM   12  C2  UNL     1      -0.556 124.339 -12.242  1.00  0.00     0.084 C 
BRANCH  12  13
HETATM   13  C1  UNL     1       0.468 124.831 -11.364  1.00  0.00     0.198 C 
HETATM   14  O1  UNL     1       1.175 125.810 -11.711  1.00  0.00    -0.645 OA
HETATM   15  O2  UNL     1       0.735 124.275 -10.120  1.00  0.00    -0.645 OA
ENDBRANCH  12  13
ENDBRANCH  10  11
ENDBRANCH   1   9
TORSDOF 3
ENDMDL
MODEL 3
REMARK VINA RESULT: -4.678357849      4.182      4.960
REMARK  3 active torsions:
REMARK  status: ('A' for Active; 'I' for Inactive)
REMARK    1  A    between atoms: C1_2  and  C2_4 
REMARK    2  A    between atoms: C3_5  and  C4_6 
REMARK    3  A    between atoms: C5_7  and  C6_8 
ROOT
HETATM    1  C6  UNL     1      -0.109 121.436 -11.379  1.00  0.00     0.017 C 
HETATM    2  C7  UNL     1      -1.248 122.474 -11.234  1.00  0.00    -0.002 C 
HETATM    3  C8  UNL     1      -0.743 123.597 -10.348  1.00  0.00     0.010 C 
HETATM    4  C9  UNL     1       0.094 124.389 -11.332  1.00  0.00    -0.013 C 
HETATM    5  C10 UNL     1       1.192 123.504 -11.838  1.00  0.00     0.010 C 
HETATM    6  C11 UNL     1       0.415 122.355 -12.466  1.00  0.00    -0.002 C 
HETATM    7  C12 UNL     1      -0.973 122.859 -12.649  1.00  0.00    -0.005 C 
HETATM    8  C13 UNL     1      -0.858 124.381 -12.540  1.00  0.00     0.010 C 
ENDROOT
BRANCH   1   9
HETATM    9  C5  UNL     1      -0.596 120.138 -11.839  1.00  0.00    -0.021 C 
HETATM   10  C4  UNL     1      -0.325 119.021 -11.251  1.00  0.00    -0.003 C 
BRANCH  10  11
HETATM   11  C3  UNL     1       0.489 118.922 -10.074  1.00  0.00     0.007 C 
HETATM   12  C2  UNL     1       1.252 117.848  -9.835  1.00  0.00     0.084 C 
BRANCH  12  13
HETATM   13  C1  UNL     1       2.059 117.773  -8.651  1.00  0.00     0.198 C 
HETATM   14  O1  UNL     1       1.512 117.735  -7.519  1.00  0.00    -0.645 OA
HETATM   15  O2  UNL     1       3.446 117.738  -8.675  1.00  0.00    -0.645 OA
ENDBRANCH  12  13
ENDBRANCH  10  11
ENDBRANCH   1   9
TORSDOF 3
ENDMDL
MODEL 4
REMARK VINA RESULT: -4.647747185      3.554      6.017
REMARK  3 active torsions:
REMARK  status: ('A' for Active; 'I' for Inactive)
REMARK    1  A    between atoms: C1_2  and  C2_4 
REMARK    2  A    between atoms: C3_5  and  C4_6 
REMARK    3  A    between atoms: C5_7  and  C6_8 
ROOT
HETATM    1  C6  UNL     1      -1.028 121.683 -13.390  1.00  0.00     0.017 C 
HETATM    2  C7  UNL     1      -1.115 120.535 -14.425  1.00  0.00    -0.002 C 
HETATM    3  C8  UNL     1       0.207 119.791 -14.404  1.00  0.00     0.010 C 
HETATM    4  C9  UNL     1       0.034 118.929 -13.169  1.00  0.00    -0.013 C 
HETATM    5  C10 UNL     1      -0.149 119.830 -11.986  1.00  0.00     0.010 C 
HETATM    6  C11 UNL     1      -1.392 120.619 -12.372  1.00  0.00    -0.002 C 
HETATM    7  C12 UNL     1      -2.034 119.848 -13.471  1.00  0.00    -0.005 C 
HETATM    8  C13 UNL     1      -1.412 118.453 -13.391  1.00  0.00     0.010 C 
ENDROOT
BRANCH   1   9
HETATM    9  C5  UNL     1      -2.043 122.709 -13.613  1.00  0.00    -0.021 C 
HETATM   10  C4  UNL     1      -1.950 123.919 -13.171  1.00  0.00    -0.003 C 
BRANCH  10  11
HETATM   11  C3  UNL     1      -0.836 124.399 -12.406  1.00  0.00     0.007 C 
HETATM   12  C2  UNL     1      -0.878 124.469 -11.070  1.00  0.00     0.084 C 
BRANCH  12  13
HETATM   13  C1  UNL     1       0.249 124.953 -10.326  1.00  0.00     0.198 C 
HETATM   14  O1  UNL     1       0.818 124.205  -9.491  1.00  0.00    -0.645 OA
HETATM   15  O2  UNL     1       0.767 126.233 -10.473  1.00  0.00    -0.645 OA
ENDBRANCH  12  13
ENDBRANCH  10  11
ENDBRANCH   1   9
TORSDOF 3
ENDMDL
MODEL 5
REMARK VINA RESULT: -4.644759092      4.551      6.377
REMARK  3 active torsions:
REMARK  status: ('A' for Active; 'I' for Inactive)
REMARK    1  A    between atoms: C1_2  and  C2_4 
REMARK    2  A    between atoms: C3_5  and  C4_6 
REMARK    3  A    between atoms: C5_7  and  C6_8 
ROOT
HETATM    1  C6  UNL     1      -1.922 124.275 -12.064  1.00  0.00     0.017 C 
HETATM    2  C7  UNL     1      -0.458 124.440 -12.535  1.00  0.00    -0.002 C 
HETATM    3  C8  UNL     1       0.406 124.637 -11.304  1.00  0.00     0.010 C 
HETATM    4  C9  UNL     1       0.538 123.210 -10.811  1.00  0.00    -0.013 C 
HETATM    5  C10 UNL     1      -0.830 122.694 -10.488  1.00  0.00     0.010 C 
HETATM    6  C11 UNL     1      -1.547 122.825 -11.825  1.00  0.00    -0.002 C 
HETATM    7  C12 UNL     1      -0.474 122.980 -12.844  1.00  0.00    -0.005 C 
HETATM    8  C13 UNL     1       0.802 122.502 -12.150  1.00  0.00     0.010 C 
ENDROOT
BRANCH   1   9
HETATM    9  C5  UNL     1      -2.881 124.503 -13.142  1.00  0.00    -0.021 C 
HETATM   10  C4  UNL     1      -3.476 125.631 -13.346  1.00  0.00    -0.003 C 
BRANCH  10  11
HETATM   11  C3  UNL     1      -3.266 126.796 -12.536  1.00  0.00     0.007 C 
HETATM   12  C2  UNL     1      -2.412 127.761 -12.900  1.00  0.00     0.084 C 
BRANCH  12  13
HETATM   13  C1  UNL     1      -2.218 128.918 -12.073  1.00  0.00     0.198 C 
HETATM   14  O1  UNL     1      -1.488 128.844 -11.053  1.00  0.00    -0.645 OA
HETATM   15  O2  UNL     1      -2.804 130.148 -12.336  1.00  0.00    -0.645 OA
ENDBRANCH  12  13
ENDBRANCH  10  11
ENDBRANCH   1   9
TORSDOF 3
ENDMDL
