MODEL 1
REMARK VINA RESULT: -4.269174689      0.000      0.000
REMARK  3 active torsions:
REMARK  status: ('A' for Active; 'I' for Inactive)
REMARK    1  A    between atoms: C2_2  and  C3_3 
REMARK       I    between atoms: C3_3  and  N1_5 
REMARK    2  A    between atoms: N1_5  and  C4_7 
REMARK    3  A    between atoms: C4_7  and  C5_8 
ROOT
HETATM    1  C5  UNL     1       0.365 122.934 -12.025  1.00  0.00     0.241 C 
HETATM    2  C6  UNL     1       0.788 123.429 -10.670  1.00  0.00     0.040 C 
HETATM    3  C7  UNL     1      -0.088 124.677 -10.513  1.00  0.00     0.038 C 
HETATM    4  C8  UNL     1      -0.222 125.143 -11.918  1.00  0.00     0.223 C 
HETATM    5  C9  UNL     1      -1.468 125.933 -12.196  1.00  0.00     0.037 C 
HETATM    6  C10 UNL     1      -2.353 125.071 -13.070  1.00  0.00     0.032 C 
HETATM    7  C11 UNL     1      -1.789 123.677 -12.812  1.00  0.00     0.273 C 
HETATM    8  N2  UNL     1      -0.398 123.936 -12.667  1.00  0.00     0.099 N 
ENDROOT
BRANCH   1   9
HETATM    9  C4  UNL     1      -0.293 121.604 -11.895  1.00  0.00     0.158 C 
BRANCH   9  10
HETATM   10  N1  UNL     1       0.541 120.607 -12.563  1.00  0.00    -0.356 N 
HETATM   11  C3  UNL     1       0.316 120.241 -13.923  1.00  0.00     0.240 C 
HETATM   12  O1  UNL     1      -0.646 120.816 -14.555  1.00  0.00    -0.269 OA
ATOM     13  H1  UNL     1       1.300 120.163 -12.046  1.00  0.00     0.162 HD
BRANCH  11  14
HETATM   14  C2  UNL     1       1.076 119.276 -14.669  1.00  0.00     0.064 C 
HETATM   15  C1  UNL     1       2.299 119.544 -15.064  1.00  0.00     0.017 C 
ENDBRANCH  11  14
ENDBRANCH   9  10
ENDBRANCH   1   9
TORSDOF 3
ENDMDL
MODEL 2
REMARK VINA RESULT: -4.245036717      2.519      5.568
REMARK  3 active torsions:
REMARK  status: ('A' for Active; 'I' for Inactive)
REMARK    1  A    between atoms: C2_2  and  C3_3 
REMARK       I    between atoms: C3_3  and  N1_5 
REMARK    2  A    between atoms: N1_5  and  C4_7 
REMARK    3  A    between atoms: C4_7  and  C5_8 
ROOT
HETATM    1  C5  UNL     1       0.391 122.968 -11.971  1.00  0.00     0.241 C 
HETATM    2  C6  UNL     1      -0.706 123.443 -12.881  1.00  0.00     0.040 C 
HETATM    3  C7  UNL     1      -1.361 122.118 -13.286  1.00  0.00     0.038 C 
HETATM    4  C8  UNL     1      -0.208 121.180 -13.267  1.00  0.00     0.223 C 
HETATM    5  C9  UNL     1      -0.574 119.748 -13.008  1.00  0.00     0.037 C 
HETATM    6  C10 UNL     1      -0.060 119.402 -11.627  1.00  0.00     0.032 C 
HETATM    7  C11 UNL     1       0.107 120.782 -10.999  1.00  0.00     0.273 C 
HETATM    8  N2  UNL     1       0.532 121.568 -12.105  1.00  0.00     0.099 N 
ENDROOT
BRANCH   1   9
HETATM    9  C4  UNL     1       0.152 123.466 -10.587  1.00  0.00     0.158 C 
BRANCH   9  10
HETATM   10  N1  UNL     1      -0.833 124.543 -10.645  1.00  0.00    -0.356 N 
HETATM   11  C3  UNL     1      -0.445 125.911 -10.551  1.00  0.00     0.240 C 
HETATM   12  O1  UNL     1       0.806 126.179 -10.414  1.00  0.00    -0.269 OA
ATOM     13  H1  UNL     1      -1.821 124.311 -10.755  1.00  0.00     0.162 HD
BRANCH  11  14
HETATM   14  C2  UNL     1      -1.332 127.041 -10.596  1.00  0.00     0.064 C 
HETATM   15  C1  UNL     1      -1.749 127.522 -11.745  1.00  0.00     0.017 C 
ENDBRANCH  11  14
ENDBRANCH   9  10
ENDBRANCH   1   9
TORSDOF 3
ENDMDL
MODEL 3
REMARK VINA RESULT: -4.178409861      1.367      1.838
REMARK  3 active torsions:
REMARK  status: ('A' for Active; 'I' for Inactive)
REMARK    1  A    between atoms: C2_2  and  C3_3 
REMARK       I    between atoms: C3_3  and  N1_5 
REMARK    2  A    between atoms: N1_5  and  C4_7 
REMARK    3  A    between atoms: C4_7  and  C5_8 
ROOT
HETATM    1  C5  UNL     1      -0.012 121.822 -10.977  1.00  0.00     0.241 C 
HETATM    2  C6  UNL     1      -1.080 121.804  -9.920  1.00  0.00     0.040 C 
HETATM    3  C7  UNL     1      -1.308 123.303  -9.691  1.00  0.00     0.038 C 
HETATM    4  C8  UNL     1       0.042 123.868  -9.954  1.00  0.00     0.223 C 
HETATM    5  C9  UNL     1       0.040 125.295 -10.418  1.00  0.00     0.037 C 
HETATM    6  C10 UNL     1       0.459 125.289 -11.872  1.00  0.00     0.032 C 
HETATM    7  C11 UNL     1       0.179 123.844 -12.274  1.00  0.00     0.273 C 
HETATM    8  N2  UNL     1       0.509 123.131 -11.089  1.00  0.00     0.099 N 
ENDROOT
BRANCH   1   9
HETATM    9  C4  UNL     1      -0.537 121.225 -12.237  1.00  0.00     0.158 C 
BRANCH   9  10
HETATM   10  N1  UNL     1       0.470 120.310 -12.772  1.00  0.00    -0.356 N 
HETATM   11  C3  UNL     1       0.502 119.967 -14.155  1.00  0.00     0.240 C 
HETATM   12  O1  UNL     1      -0.384 120.487 -14.930  1.00  0.00    -0.269 OA
ATOM     13  H1  UNL     1       1.165 119.909 -12.142  1.00  0.00     0.162 HD
BRANCH  11  14
HETATM   14  C2  UNL     1       1.446 119.080 -14.778  1.00  0.00     0.064 C 
HETATM   15  C1  UNL     1       1.490 117.810 -14.453  1.00  0.00     0.017 C 
ENDBRANCH  11  14
ENDBRANCH   9  10
ENDBRANCH   1   9
TORSDOF 3
ENDMDL
MODEL 4
REMARK VINA RESULT: -4.167626585      2.962      5.633
REMARK  3 active torsions:
REMARK  status: ('A' for Active; 'I' for Inactive)
REMARK    1  A    between atoms: C2_2  and  C3_3 
REMARK       I    between atoms: C3_3  and  N1_5 
REMARK    2  A    between atoms: N1_5  and  C4_7 
REMARK    3  A    between atoms: C4_7  and  C5_8 
ROOT
HETATM    1  C5  UNL     1       0.380 123.881 -11.331  1.00  0.00     0.241 C 
HETATM    2  C6  UNL     1      -0.759 124.591 -12.007  1.00  0.00     0.040 C 
HETATM    3  C7  UNL     1      -1.455 123.432 -12.730  1.00  0.00     0.038 C 
HETATM    4  C8  UNL     1      -0.316 122.528 -13.039  1.00  0.00     0.223 C 
HETATM    5  C9  UNL     1      -0.690 121.080 -13.172  1.00  0.00     0.037 C 
HETATM    6  C10 UNL     1      -0.106 120.361 -11.975  1.00  0.00     0.032 C 
HETATM    7  C11 UNL     1       0.116 121.509 -10.995  1.00  0.00     0.273 C 
HETATM    8  N2  UNL     1       0.492 122.575 -11.859  1.00  0.00     0.099 N 
ENDROOT
BRANCH   1   9
HETATM    9  C4  UNL     1       0.225 123.969  -9.851  1.00  0.00     0.158 C 
BRANCH   9  10
HETATM   10  N1  UNL     1      -1.131 124.427  -9.554  1.00  0.00    -0.356 N 
HETATM   11  C3  UNL     1      -1.858 123.920  -8.437  1.00  0.00     0.240 C 
HETATM   12  O1  UNL     1      -1.287 123.042  -7.689  1.00  0.00    -0.269 OA
ATOM     13  H1  UNL     1      -1.567 125.125 -10.158  1.00  0.00     0.162 HD
BRANCH  11  14
HETATM   14  C2  UNL     1      -3.191 124.303  -8.059  1.00  0.00     0.064 C 
HETATM   15  C1  UNL     1      -3.409 124.964  -6.946  1.00  0.00     0.017 C 
ENDBRANCH  11  14
ENDBRANCH   9  10
ENDBRANCH   1   9
TORSDOF 3
ENDMDL
MODEL 5
REMARK VINA RESULT: -4.079367738      2.630      3.023
REMARK  3 active torsions:
REMARK  status: ('A' for Active; 'I' for Inactive)
REMARK    1  A    between atoms: C2_2  and  C3_3 
REMARK       I    between atoms: C3_3  and  N1_5 
REMARK    2  A    between atoms: N1_5  and  C4_7 
REMARK    3  A    between atoms: C4_7  and  C5_8 
ROOT
HETATM    1  C5  UNL     1       0.271 122.167 -11.962  1.00  0.00     0.241 C 
HETATM    2  C6  UNL     1       0.831 122.840 -10.740  1.00  0.00     0.040 C 
HETATM    3  C7  UNL     1       0.085 124.179 -10.760  1.00  0.00     0.038 C 
HETATM    4  C8  UNL     1      -0.104 124.410 -12.216  1.00  0.00     0.223 C 
HETATM    5  C9  UNL     1      -1.289 125.263 -12.563  1.00  0.00     0.037 C 
HETATM    6  C10 UNL     1      -2.307 124.359 -13.223  1.00  0.00     0.032 C 
HETATM    7  C11 UNL     1      -1.855 122.980 -12.753  1.00  0.00     0.273 C 
HETATM    8  N2  UNL     1      -0.440 123.117 -12.730  1.00  0.00     0.099 N 
ENDROOT
BRANCH   1   9
HETATM    9  C4  UNL     1      -0.494 120.952 -11.565  1.00  0.00     0.158 C 
BRANCH   9  10
HETATM   10  N1  UNL     1       0.455 119.881 -11.270  1.00  0.00    -0.356 N 
HETATM   11  C3  UNL     1       0.392 119.149 -10.048  1.00  0.00     0.240 C 
HETATM   12  O1  UNL     1      -0.529 119.454  -9.204  1.00  0.00    -0.269 OA
ATOM     13  H1  UNL     1       1.178 119.652 -11.953  1.00  0.00     0.162 HD
BRANCH  11  14
HETATM   14  C2  UNL     1       1.275 118.082  -9.663  1.00  0.00     0.064 C 
HETATM   15  C1  UNL     1       1.576 117.881  -8.402  1.00  0.00     0.017 C 
ENDBRANCH  11  14
ENDBRANCH   9  10
ENDBRANCH   1   9
TORSDOF 3
ENDMDL
