MODEL 1
REMARK VINA RESULT: -4.434845978      0.000      0.000
REMARK  12 active torsions:
REMARK  status: ('A' for Active; 'I' for Inactive)
REMARK    1  A    between atoms: C2_2  and  C3_3 
REMARK    2  A    between atoms: C3_3  and  C4_4 
REMARK    3  A    between atoms: C4_4  and  N1_5 
REMARK    4  A    between atoms: N1_5  and  C5_6 
REMARK    5  A    between atoms: C5_6  and  C6_7 
REMARK    6  A    between atoms: C6_7  and  N2_8 
REMARK    7  A    between atoms: C6_7  and  O1_12 
REMARK    8  A    between atoms: C6_7  and  C7_14 
REMARK    9  A    between atoms: C7_14  and  C8_15 
REMARK   10  A    between atoms: C8_15  and  N3_16 
REMARK   11  A    between atoms: C16_24  and  C17_25 
REMARK   12  A    between atoms: C17_25  and  O2_26 
ROOT
HETATM    1  C5  UNL     1       1.573  31.645   9.568  1.00  0.00     0.306 C 
ENDROOT
BRANCH   1   2
HETATM    2  N1  UNL     1       1.685  32.233  10.830  1.00  0.00    -0.056 N 
HETATM    3  C12 UNL     1       1.524  31.129  11.810  1.00  0.00     0.242 C 
HETATM    4  C13 UNL     1       0.563  31.533  12.850  1.00  0.00     0.010 C 
HETATM    5  C14 UNL     1      -0.691  30.646  12.879  1.00  0.00     0.011 C 
HETATM    6  C15 UNL     1       0.144  32.915  12.542  1.00  0.00     0.041 C 
HETATM    7  C16 UNL     1       0.707  33.217  11.176  1.00  0.00     0.214 C 
BRANCH   2   8
HETATM    8  C4  UNL     1       2.979  32.796  11.166  1.00  0.00     0.238 C 
BRANCH   8   9
HETATM    9  C3  UNL     1       3.011  34.279  11.371  1.00  0.00     0.028 C 
BRANCH   9  10
HETATM   10  C2  UNL     1       4.021  34.511  12.513  1.00  0.00    -0.003 C 
HETATM   11  C1  UNL     1       3.422  33.951  13.770  1.00  0.00     0.005 C 
ENDBRANCH   9  10
ENDBRANCH   8   9
ENDBRANCH   2   8
BRANCH   7  12
HETATM   12  C17 UNL     1      -0.501  33.312  10.265  1.00  0.00     0.197 C 
BRANCH  12  13
HETATM   13  O2  UNL     1      -0.784  34.709  10.229  1.00  0.00    -0.399 OA
ATOM     14  H2  UNL     1      -0.161  35.045   9.595  1.00  0.00     0.209 HD
ENDBRANCH  12  13
ENDBRANCH   7  12
ENDBRANCH   1   2
BRANCH   1  15
HETATM   15  C6  UNL     1       2.154  31.999   8.305  1.00  0.00     0.248 C 
BRANCH  15  16
HETATM   16  N2  UNL     1       2.479  33.358   7.976  1.00  0.00    -0.045 N 
ATOM     17  H23 UNL     1       1.774  33.960   8.402  1.00  0.00     0.278 HD
ATOM     18  H22 UNL     1       3.319  33.613   8.495  1.00  0.00     0.278 HD
ATOM     19  H21 UNL     1       2.606  33.662   7.010  1.00  0.00     0.278 HD
ENDBRANCH  15  16
BRANCH  15  20
HETATM   20  O1  UNL     1       1.167  31.713   7.285  1.00  0.00    -0.364 OA
ATOM     21  H1  UNL     1       0.704  30.928   7.554  1.00  0.00     0.212 HD
ENDBRANCH  15  20
BRANCH  15  22
HETATM   22  C7  UNL     1       3.326  31.176   7.822  1.00  0.00     0.098 C 
BRANCH  22  23
HETATM   23  C8  UNL     1       2.946  30.058   6.906  1.00  0.00     0.241 C 
BRANCH  23  24
HETATM   24  N3  UNL     1       4.001  29.878   5.924  1.00  0.00    -0.078 N 
HETATM   25  C9  UNL     1       3.391  29.303   4.740  1.00  0.00     0.271 C 
HETATM   26  C10 UNL     1       4.954  28.935   6.496  1.00  0.00     0.271 C 
HETATM   27  C11 UNL     1       4.665  31.117   5.589  1.00  0.00     0.271 C 
ENDBRANCH  23  24
ENDBRANCH  22  23
ENDBRANCH  15  22
ENDBRANCH   1  15
TORSDOF 12
ENDMDL
MODEL 2
REMARK VINA RESULT: -4.381302672      1.342      1.849
REMARK  12 active torsions:
REMARK  status: ('A' for Active; 'I' for Inactive)
REMARK    1  A    between atoms: C2_2  and  C3_3 
REMARK    2  A    between atoms: C3_3  and  C4_4 
REMARK    3  A    between atoms: C4_4  and  N1_5 
REMARK    4  A    between atoms: N1_5  and  C5_6 
REMARK    5  A    between atoms: C5_6  and  C6_7 
REMARK    6  A    between atoms: C6_7  and  N2_8 
REMARK    7  A    between atoms: C6_7  and  O1_12 
REMARK    8  A    between atoms: C6_7  and  C7_14 
REMARK    9  A    between atoms: C7_14  and  C8_15 
REMARK   10  A    between atoms: C8_15  and  N3_16 
REMARK   11  A    between atoms: C16_24  and  C17_25 
REMARK   12  A    between atoms: C17_25  and  O2_26 
ROOT
HETATM    1  C5  UNL     1       2.294  32.080   9.708  1.00  0.00     0.306 C 
ENDROOT
BRANCH   1   2
HETATM    2  N1  UNL     1       1.974  33.029  10.682  1.00  0.00    -0.056 N 
HETATM    3  C12 UNL     1       2.795  32.685  11.872  1.00  0.00     0.242 C 
HETATM    4  C13 UNL     1       1.942  32.685  13.072  1.00  0.00     0.010 C 
HETATM    5  C14 UNL     1       1.864  31.308  13.746  1.00  0.00     0.011 C 
HETATM    6  C15 UNL     1       0.583  33.067  12.640  1.00  0.00     0.041 C 
HETATM    7  C16 UNL     1       0.617  33.062  11.133  1.00  0.00     0.214 C 
BRANCH   2   8
HETATM    8  C4  UNL     1       2.352  34.399  10.396  1.00  0.00     0.238 C 
BRANCH   8   9
HETATM    9  C3  UNL     1       1.226  35.384  10.322  1.00  0.00     0.028 C 
BRANCH   9  10
HETATM   10  C2  UNL     1       1.784  36.687  10.931  1.00  0.00    -0.003 C 
HETATM   11  C1  UNL     1       1.816  36.515  12.421  1.00  0.00     0.005 C 
ENDBRANCH   9  10
ENDBRANCH   8   9
ENDBRANCH   2   8
BRANCH   7  12
HETATM   12  C17 UNL     1      -0.256  31.893  10.723  1.00  0.00     0.197 C 
BRANCH  12  13
HETATM   13  O2  UNL     1      -1.055  32.426   9.670  1.00  0.00    -0.399 OA
ATOM     14  H2  UNL     1      -1.485  31.660   9.308  1.00  0.00     0.209 HD
ENDBRANCH  12  13
ENDBRANCH   7  12
ENDBRANCH   1   2
BRANCH   1  15
HETATM   15  C6  UNL     1       2.441  32.197   8.286  1.00  0.00     0.248 C 
BRANCH  15  16
HETATM   16  N2  UNL     1       2.649  33.467   7.649  1.00  0.00    -0.045 N 
ATOM     17  H23 UNL     1       3.603  33.766   7.853  1.00  0.00     0.278 HD
ATOM     18  H22 UNL     1       2.686  33.309   6.643  1.00  0.00     0.278 HD
ATOM     19  H21 UNL     1       2.031  34.261   7.818  1.00  0.00     0.278 HD
ENDBRANCH  15  16
BRANCH  15  20
HETATM   20  O1  UNL     1       1.177  31.814   7.693  1.00  0.00    -0.364 OA
ATOM     21  H1  UNL     1       1.344  31.619   6.777  1.00  0.00     0.212 HD
ENDBRANCH  15  20
BRANCH  15  22
HETATM   22  C7  UNL     1       3.391  31.242   7.602  1.00  0.00     0.098 C 
BRANCH  22  23
HETATM   23  C8  UNL     1       2.711  30.173   6.810  1.00  0.00     0.241 C 
BRANCH  23  24
HETATM   24  N3  UNL     1       3.674  29.584   5.896  1.00  0.00    -0.078 N 
HETATM   25  C9  UNL     1       4.468  30.669   5.352  1.00  0.00     0.271 C 
HETATM   26  C10 UNL     1       2.910  28.948   4.830  1.00  0.00     0.271 C 
HETATM   27  C11 UNL     1       4.532  28.615   6.541  1.00  0.00     0.271 C 
ENDBRANCH  23  24
ENDBRANCH  22  23
ENDBRANCH  15  22
ENDBRANCH   1  15
TORSDOF 12
ENDMDL
MODEL 3
REMARK VINA RESULT: -4.378940875      0.951      1.325
REMARK  12 active torsions:
REMARK  status: ('A' for Active; 'I' for Inactive)
REMARK    1  A    between atoms: C2_2  and  C3_3 
REMARK    2  A    between atoms: C3_3  and  C4_4 
REMARK    3  A    between atoms: C4_4  and  N1_5 
REMARK    4  A    between atoms: N1_5  and  C5_6 
REMARK    5  A    between atoms: C5_6  and  C6_7 
REMARK    6  A    between atoms: C6_7  and  N2_8 
REMARK    7  A    between atoms: C6_7  and  O1_12 
REMARK    8  A    between atoms: C6_7  and  C7_14 
REMARK    9  A    between atoms: C7_14  and  C8_15 
REMARK   10  A    between atoms: C8_15  and  N3_16 
REMARK   11  A    between atoms: C16_24  and  C17_25 
REMARK   12  A    between atoms: C17_25  and  O2_26 
ROOT
HETATM    1  C5  UNL     1       1.696  31.754   9.467  1.00  0.00     0.306 C 
ENDROOT
BRANCH   1   2
HETATM    2  N1  UNL     1       1.916  32.445  10.660  1.00  0.00    -0.056 N 
HETATM    3  C12 UNL     1       1.947  31.414  11.729  1.00  0.00     0.242 C 
HETATM    4  C13 UNL     1       1.090  31.841  12.847  1.00  0.00     0.010 C 
HETATM    5  C14 UNL     1      -0.088  30.887  13.093  1.00  0.00     0.011 C 
HETATM    6  C15 UNL     1       0.545  33.168  12.496  1.00  0.00     0.041 C 
HETATM    7  C16 UNL     1       0.921  33.394  11.053  1.00  0.00     0.214 C 
BRANCH   2   8
HETATM    8  C4  UNL     1       3.200  33.107  10.794  1.00  0.00     0.238 C 
BRANCH   8   9
HETATM    9  C3  UNL     1       4.355  32.222  11.148  1.00  0.00     0.028 C 
BRANCH   9  10
HETATM   10  C2  UNL     1       5.509  32.670  10.229  1.00  0.00    -0.003 C 
HETATM   11  C1  UNL     1       5.257  34.100   9.848  1.00  0.00     0.005 C 
ENDBRANCH   9  10
ENDBRANCH   8   9
ENDBRANCH   2   8
BRANCH   7  12
HETATM   12  C17 UNL     1      -0.390  33.346  10.293  1.00  0.00     0.197 C 
BRANCH  12  13
HETATM   13  O2  UNL     1      -0.780  34.715  10.214  1.00  0.00    -0.399 OA
ATOM     14  H2  UNL     1      -1.436  34.720   9.526  1.00  0.00     0.209 HD
ENDBRANCH  12  13
ENDBRANCH   7  12
ENDBRANCH   1   2
BRANCH   1  15
HETATM   15  C6  UNL     1       2.169  31.995   8.133  1.00  0.00     0.248 C 
BRANCH  15  16
HETATM   16  N2  UNL     1       2.499  33.315   7.675  1.00  0.00    -0.045 N 
ATOM     17  H23 UNL     1       2.486  33.304   6.655  1.00  0.00     0.278 HD
ATOM     18  H22 UNL     1       1.713  33.927   7.892  1.00  0.00     0.278 HD
ATOM     19  H21 UNL     1       3.353  33.788   7.970  1.00  0.00     0.278 HD
ENDBRANCH  15  16
BRANCH  15  20
HETATM   20  O1  UNL     1       1.085  31.670   7.230  1.00  0.00    -0.364 OA
ATOM     21  H1  UNL     1       1.209  30.769   6.954  1.00  0.00     0.212 HD
ENDBRANCH  15  20
BRANCH  15  22
HETATM   22  C7  UNL     1       3.268  31.100   7.611  1.00  0.00     0.098 C 
BRANCH  22  23
HETATM   23  C8  UNL     1       2.774  29.925   6.829  1.00  0.00     0.241 C 
BRANCH  23  24
HETATM   24  N3  UNL     1       3.756  29.594   5.812  1.00  0.00    -0.078 N 
HETATM   25  C9  UNL     1       3.034  29.037   4.684  1.00  0.00     0.271 C 
HETATM   26  C10 UNL     1       4.634  28.581   6.385  1.00  0.00     0.271 C 
HETATM   27  C11 UNL     1       4.528  30.741   5.390  1.00  0.00     0.271 C 
ENDBRANCH  23  24
ENDBRANCH  22  23
ENDBRANCH  15  22
ENDBRANCH   1  15
TORSDOF 12
ENDMDL
MODEL 4
REMARK VINA RESULT: -4.328922977      3.859      5.384
REMARK  12 active torsions:
REMARK  status: ('A' for Active; 'I' for Inactive)
REMARK    1  A    between atoms: C2_2  and  C3_3 
REMARK    2  A    between atoms: C3_3  and  C4_4 
REMARK    3  A    between atoms: C4_4  and  N1_5 
REMARK    4  A    between atoms: N1_5  and  C5_6 
REMARK    5  A    between atoms: C5_6  and  C6_7 
REMARK    6  A    between atoms: C6_7  and  N2_8 
REMARK    7  A    between atoms: C6_7  and  O1_12 
REMARK    8  A    between atoms: C6_7  and  C7_14 
REMARK    9  A    between atoms: C7_14  and  C8_15 
REMARK   10  A    between atoms: C8_15  and  N3_16 
REMARK   11  A    between atoms: C16_24  and  C17_25 
REMARK   12  A    between atoms: C17_25  and  O2_26 
ROOT
HETATM    1  C5  UNL     1       2.306  34.471  10.749  1.00  0.00     0.306 C 
ENDROOT
BRANCH   1   2
HETATM    2  N1  UNL     1       1.597  34.215  11.925  1.00  0.00    -0.056 N 
HETATM    3  C12 UNL     1       2.446  33.289  12.719  1.00  0.00     0.242 C 
HETATM    4  C13 UNL     1       1.625  32.169  13.206  1.00  0.00     0.010 C 
HETATM    5  C14 UNL     1       2.085  30.810  12.656  1.00  0.00     0.011 C 
HETATM    6  C15 UNL     1       0.243  32.409  12.747  1.00  0.00     0.041 C 
HETATM    7  C16 UNL     1       0.328  33.571  11.790  1.00  0.00     0.214 C 
BRANCH   2   8
HETATM    8  C4  UNL     1       1.402  35.342  12.817  1.00  0.00     0.238 C 
BRANCH   8   9
HETATM    9  C3  UNL     1       2.600  35.755  13.616  1.00  0.00     0.028 C 
BRANCH   9  10
HETATM   10  C2  UNL     1       2.452  37.277  13.814  1.00  0.00    -0.003 C 
HETATM   11  C1  UNL     1       2.368  37.537  15.290  1.00  0.00     0.005 C 
ENDBRANCH   9  10
ENDBRANCH   8   9
ENDBRANCH   2   8
BRANCH   7  12
HETATM   12  C17 UNL     1       0.014  32.984  10.428  1.00  0.00     0.197 C 
BRANCH  12  13
HETATM   13  O2  UNL     1      -0.931  33.898   9.879  1.00  0.00    -0.399 OA
ATOM     14  H2  UNL     1      -0.514  34.744   9.992  1.00  0.00     0.209 HD
ENDBRANCH  12  13
ENDBRANCH   7  12
ENDBRANCH   1   2
BRANCH   1  15
HETATM   15  C6  UNL     1       2.260  35.580   9.840  1.00  0.00     0.248 C 
BRANCH  15  16
HETATM   16  N2  UNL     1       1.029  36.245   9.519  1.00  0.00    -0.045 N 
ATOM     17  H23 UNL     1       1.023  37.142  10.004  1.00  0.00     0.278 HD
ATOM     18  H22 UNL     1       1.075  36.532   8.541  1.00  0.00     0.278 HD
ATOM     19  H21 UNL     1       0.123  35.802   9.672  1.00  0.00     0.278 HD
ENDBRANCH  15  16
BRANCH  15  20
HETATM   20  O1  UNL     1       2.632  35.077   8.533  1.00  0.00    -0.364 OA
ATOM     21  H1  UNL     1       3.479  35.453   8.318  1.00  0.00     0.212 HD
ENDBRANCH  15  20
BRANCH  15  22
HETATM   22  C7  UNL     1       3.276  36.682  10.033  1.00  0.00     0.098 C 
BRANCH  22  23
HETATM   23  C8  UNL     1       2.680  38.050  10.115  1.00  0.00     0.241 C 
BRANCH  23  24
HETATM   24  N3  UNL     1       3.338  38.906   9.145  1.00  0.00    -0.078 N 
HETATM   25  C9  UNL     1       4.651  38.341   8.894  1.00  0.00     0.271 C 
HETATM   26  C10 UNL     1       3.475  40.219   9.764  1.00  0.00     0.271 C 
HETATM   27  C11 UNL     1       2.599  39.014   7.907  1.00  0.00     0.271 C 
ENDBRANCH  23  24
ENDBRANCH  22  23
ENDBRANCH  15  22
ENDBRANCH   1  15
TORSDOF 12
ENDMDL
MODEL 5
REMARK VINA RESULT: -4.326331984      2.587      5.513
REMARK  12 active torsions:
REMARK  status: ('A' for Active; 'I' for Inactive)
REMARK    1  A    between atoms: C2_2  and  C3_3 
REMARK    2  A    between atoms: C3_3  and  C4_4 
REMARK    3  A    between atoms: C4_4  and  N1_5 
REMARK    4  A    between atoms: N1_5  and  C5_6 
REMARK    5  A    between atoms: C5_6  and  C6_7 
REMARK    6  A    between atoms: C6_7  and  N2_8 
REMARK    7  A    between atoms: C6_7  and  O1_12 
REMARK    8  A    between atoms: C6_7  and  C7_14 
REMARK    9  A    between atoms: C7_14  and  C8_15 
REMARK   10  A    between atoms: C8_15  and  N3_16 
REMARK   11  A    between atoms: C16_24  and  C17_25 
REMARK   12  A    between atoms: C17_25  and  O2_26 
ROOT
HETATM    1  C5  UNL     1       0.044  32.744  10.270  1.00  0.00     0.306 C 
ENDROOT
BRANCH   1   2
HETATM    2  N1  UNL     1       0.682  31.578  10.698  1.00  0.00    -0.056 N 
HETATM    3  C12 UNL     1       1.480  31.964  11.891  1.00  0.00     0.242 C 
HETATM    4  C13 UNL     1       2.844  31.428  11.763  1.00  0.00     0.010 C 
HETATM    5  C14 UNL     1       3.914  32.529  11.707  1.00  0.00     0.011 C 
HETATM    6  C15 UNL     1       2.896  30.669  10.498  1.00  0.00     0.041 C 
HETATM    7  C16 UNL     1       1.601  30.970   9.787  1.00  0.00     0.214 C 
BRANCH   2   8
HETATM    8  C4  UNL     1      -0.176  30.520  11.194  1.00  0.00     0.238 C 
BRANCH   8   9
HETATM    9  C3  UNL     1      -0.631  30.662  12.614  1.00  0.00     0.028 C 
BRANCH   9  10
HETATM   10  C2  UNL     1      -0.597  29.236  13.199  1.00  0.00    -0.003 C 
HETATM   11  C1  UNL     1       0.650  29.114  14.025  1.00  0.00     0.005 C 
ENDBRANCH   9  10
ENDBRANCH   8   9
ENDBRANCH   2   8
BRANCH   7  12
HETATM   12  C17 UNL     1       1.998  31.798   8.580  1.00  0.00     0.197 C 
BRANCH  12  13
HETATM   13  O2  UNL     1       1.204  31.257   7.528  1.00  0.00    -0.399 OA
ATOM     14  H2  UNL     1       0.999  32.015   6.992  1.00  0.00     0.209 HD
ENDBRANCH  12  13
ENDBRANCH   7  12
ENDBRANCH   1   2
BRANCH   1  15
HETATM   15  C6  UNL     1      -0.266  33.962  10.962  1.00  0.00     0.248 C 
BRANCH  15  16
HETATM   16  N2  UNL     1      -1.154  33.985  12.090  1.00  0.00    -0.045 N 
ATOM     17  H23 UNL     1      -2.106  33.865  11.741  1.00  0.00     0.278 HD
ATOM     18  H22 UNL     1      -1.011  33.125  12.618  1.00  0.00     0.278 HD
ATOM     19  H21 UNL     1      -1.161  34.761  12.752  1.00  0.00     0.278 HD
ENDBRANCH  15  16
BRANCH  15  20
HETATM   20  O1  UNL     1      -0.995  34.806  10.039  1.00  0.00    -0.364 OA
ATOM     21  H1  UNL     1      -0.358  35.198   9.453  1.00  0.00     0.212 HD
ENDBRANCH  15  20
BRANCH  15  22
HETATM   22  C7  UNL     1       0.887  34.863  11.338  1.00  0.00     0.098 C 
BRANCH  22  23
HETATM   23  C8  UNL     1       1.771  35.229  10.191  1.00  0.00     0.241 C 
BRANCH  23  24
HETATM   24  N3  UNL     1       2.400  36.507  10.473  1.00  0.00    -0.078 N 
HETATM   25  C9  UNL     1       2.348  37.290   9.253  1.00  0.00     0.271 C 
HETATM   26  C10 UNL     1       3.788  36.228  10.823  1.00  0.00     0.271 C 
HETATM   27  C11 UNL     1       1.750  37.221  11.550  1.00  0.00     0.271 C 
ENDBRANCH  23  24
ENDBRANCH  22  23
ENDBRANCH  15  22
ENDBRANCH   1  15
TORSDOF 12
ENDMDL
