MODEL 1
REMARK VINA RESULT: -5.795609548      0.000      0.000
REMARK  4 active torsions:
REMARK  status: ('A' for Active; 'I' for Inactive)
REMARK    1  A    between atoms: C2_2  and  C4_8 
REMARK    2  A    between atoms: N1_3  and  N2_5 
REMARK    3  A    between atoms: N2_5  and  C3_6 
REMARK    4  A    between atoms: C7_11  and  C8_12 
ROOT
HETATM    1  C4  UNL     1      19.720  -5.057  15.047  1.00  0.00    -0.012 A 
HETATM    2  C5  UNL     1      19.852  -4.887  16.394  1.00  0.00     0.014 A 
HETATM    3  C6  UNL     1      19.121  -3.896  17.032  1.00  0.00     0.016 A 
HETATM    4  C7  UNL     1      18.251  -3.047  16.394  1.00  0.00     0.004 A 
HETATM    5  C9  UNL     1      18.135  -3.242  15.012  1.00  0.00     0.016 A 
HETATM    6  C10 UNL     1      18.854  -4.221  14.365  1.00  0.00     0.014 A 
ENDROOT
BRANCH   1   7
HETATM    7  C2  UNL     1      20.470  -6.112  14.355  1.00  0.00     0.045 C 
HETATM    8  C1  UNL     1      20.632  -7.438  14.966  1.00  0.00     0.071 C 
HETATM    9  N1  UNL     1      20.967  -5.860  13.196  1.00  0.00    -0.237 N 
ATOM     10  H1  UNL     1      20.780  -4.903  12.898  1.00  0.00     0.201 HD
BRANCH   9  11
HETATM   11  N2  UNL     1      21.635  -6.509  12.329  1.00  0.00    -0.297 NA
BRANCH  11  12
HETATM   12  C3  UNL     1      22.362  -7.217  11.383  1.00  0.00     0.466 C 
HETATM   13  O1  UNL     1      22.042  -7.620  10.244  1.00  0.00    -0.266 OA
ENDBRANCH  11  12
ENDBRANCH   9  11
ENDBRANCH   1   7
BRANCH   4  14
HETATM   14  C8  UNL     1      17.474  -2.005  17.043  1.00  0.00     0.120 C 
HETATM   15  N3  UNL     1      18.002  -0.908  17.389  1.00  0.00    -0.387 N 
ATOM     16  H32 UNL     1      18.993  -0.763  17.194  1.00  0.00     0.157 HD
ATOM     17  H31 UNL     1      17.456  -0.176  17.844  1.00  0.00     0.157 HD
HETATM   18  N4  UNL     1      16.108  -2.204  17.311  1.00  0.00    -0.082 NA
ENDBRANCH   4  14
TORSDOF 4
ENDMDL
MODEL 2
REMARK VINA RESULT: -5.776687183      0.067      1.214
REMARK  4 active torsions:
REMARK  status: ('A' for Active; 'I' for Inactive)
REMARK    1  A    between atoms: C2_2  and  C4_8 
REMARK    2  A    between atoms: N1_3  and  N2_5 
REMARK    3  A    between atoms: N2_5  and  C3_6 
REMARK    4  A    between atoms: C7_11  and  C8_12 
ROOT
HETATM    1  C4  UNL     1      19.683  -5.027  15.026  1.00  0.00    -0.012 A 
HETATM    2  C5  UNL     1      18.799  -4.257  14.329  1.00  0.00     0.014 A 
HETATM    3  C6  UNL     1      18.083  -3.271  14.991  1.00  0.00     0.016 A 
HETATM    4  C7  UNL     1      18.196  -3.003  16.332  1.00  0.00     0.004 A 
HETATM    5  C9  UNL     1      19.109  -3.809  17.025  1.00  0.00     0.016 A 
HETATM    6  C10 UNL     1      19.827  -4.791  16.381  1.00  0.00     0.014 A 
ENDROOT
BRANCH   1   7
HETATM    7  C2  UNL     1      20.465  -6.064  14.342  1.00  0.00     0.045 C 
HETATM    8  C1  UNL     1      20.681  -7.374  14.970  1.00  0.00     0.071 C 
HETATM    9  N1  UNL     1      20.941  -5.812  13.174  1.00  0.00    -0.237 N 
ATOM     10  H1  UNL     1      20.716  -4.866  12.864  1.00  0.00     0.201 HD
BRANCH   9  11
HETATM   11  N2  UNL     1      21.624  -6.448  12.310  1.00  0.00    -0.297 NA
BRANCH  11  12
HETATM   12  C3  UNL     1      22.369  -7.143  11.368  1.00  0.00     0.466 C 
HETATM   13  O1  UNL     1      22.037  -7.629  10.266  1.00  0.00    -0.266 OA
ENDBRANCH  11  12
ENDBRANCH   9  11
ENDBRANCH   1   7
BRANCH   4  14
HETATM   14  C8  UNL     1      17.459  -1.973  17.044  1.00  0.00     0.120 C 
HETATM   15  N3  UNL     1      18.012  -0.889  17.392  1.00  0.00    -0.387 N 
ATOM     16  H32 UNL     1      18.994  -0.747  17.155  1.00  0.00     0.157 HD
ATOM     17  H31 UNL     1      17.494  -0.166  17.892  1.00  0.00     0.157 HD
HETATM   18  N4  UNL     1      16.106  -2.169  17.371  1.00  0.00    -0.082 NA
ENDBRANCH   4  14
TORSDOF 4
ENDMDL
MODEL 3
REMARK VINA RESULT: -5.651869573      4.052      7.322
REMARK  4 active torsions:
REMARK  status: ('A' for Active; 'I' for Inactive)
REMARK    1  A    between atoms: C2_2  and  C4_8 
REMARK    2  A    between atoms: N1_3  and  N2_5 
REMARK    3  A    between atoms: N2_5  and  C3_6 
REMARK    4  A    between atoms: C7_11  and  C8_12 
ROOT
HETATM    1  C4  UNL     1      20.423  -3.353  12.169  1.00  0.00    -0.012 A 
HETATM    2  C5  UNL     1      20.844  -2.552  11.150  1.00  0.00     0.014 A 
HETATM    3  C6  UNL     1      21.911  -2.954  10.361  1.00  0.00     0.016 A 
HETATM    4  C7  UNL     1      22.599  -4.130  10.533  1.00  0.00     0.004 A 
HETATM    5  C9  UNL     1      22.148  -4.934  11.588  1.00  0.00     0.016 A 
HETATM    6  C10 UNL     1      21.089  -4.547  12.379  1.00  0.00     0.014 A 
ENDROOT
BRANCH   1   7
HETATM    7  C2  UNL     1      19.283  -2.956  13.004  1.00  0.00     0.045 C 
HETATM    8  C1  UNL     1      18.042  -2.465  12.391  1.00  0.00     0.071 C 
HETATM    9  N1  UNL     1      19.384  -3.062  14.282  1.00  0.00    -0.237 N 
ATOM     10  H1  UNL     1      20.298  -3.413  14.567  1.00  0.00     0.201 HD
BRANCH   9  11
HETATM   11  N2  UNL     1      18.626  -2.839  15.279  1.00  0.00    -0.297 NA
BRANCH  11  12
HETATM   12  C3  UNL     1      17.799  -2.595  16.366  1.00  0.00     0.466 C 
HETATM   13  O1  UNL     1      16.605  -2.228  16.415  1.00  0.00    -0.266 OA
ENDBRANCH  11  12
ENDBRANCH   9  11
ENDBRANCH   1   7
BRANCH   4  14
HETATM   14  C8  UNL     1      23.717  -4.571   9.718  1.00  0.00     0.120 C 
HETATM   15  N3  UNL     1      24.410  -3.748   9.050  1.00  0.00    -0.387 N 
ATOM     16  H32 UNL     1      24.171  -2.758   9.102  1.00  0.00     0.157 HD
ATOM     17  H31 UNL     1      25.195  -4.058   8.477  1.00  0.00     0.157 HD
HETATM   18  N4  UNL     1      24.045  -5.936   9.646  1.00  0.00    -0.082 NA
ENDBRANCH   4  14
TORSDOF 4
ENDMDL
MODEL 4
REMARK VINA RESULT: -5.610643759      4.063      7.212
REMARK  4 active torsions:
REMARK  status: ('A' for Active; 'I' for Inactive)
REMARK    1  A    between atoms: C2_2  and  C4_8 
REMARK    2  A    between atoms: N1_3  and  N2_5 
REMARK    3  A    between atoms: N2_5  and  C3_6 
REMARK    4  A    between atoms: C7_11  and  C8_12 
ROOT
HETATM    1  C4  UNL     1      20.302  -3.316  12.245  1.00  0.00    -0.012 A 
HETATM    2  C5  UNL     1      20.941  -4.499  12.467  1.00  0.00     0.014 A 
HETATM    3  C6  UNL     1      22.022  -4.852  11.672  1.00  0.00     0.016 A 
HETATM    4  C7  UNL     1      22.510  -4.080  10.646  1.00  0.00     0.004 A 
HETATM    5  C9  UNL     1      21.835  -2.871  10.439  1.00  0.00     0.016 A 
HETATM    6  C10 UNL     1      20.762  -2.508  11.221  1.00  0.00     0.014 A 
ENDROOT
BRANCH   1   7
HETATM    7  C2  UNL     1      19.169  -2.914  13.088  1.00  0.00     0.045 C 
HETATM    8  C1  UNL     1      17.886  -2.532  12.483  1.00  0.00     0.071 C 
HETATM    9  N1  UNL     1      19.314  -2.921  14.365  1.00  0.00    -0.237 N 
ATOM     10  H1  UNL     1      20.254  -3.204  14.644  1.00  0.00     0.201 HD
BRANCH   9  11
HETATM   11  N2  UNL     1      18.576  -2.662  15.368  1.00  0.00    -0.297 NA
BRANCH  11  12
HETATM   12  C3  UNL     1      17.771  -2.379  16.463  1.00  0.00     0.466 C 
HETATM   13  O1  UNL     1      16.529  -2.278  16.555  1.00  0.00    -0.266 OA
ENDBRANCH  11  12
ENDBRANCH   9  11
ENDBRANCH   1   7
BRANCH   4  14
HETATM   14  C8  UNL     1      23.641  -4.429   9.804  1.00  0.00     0.120 C 
HETATM   15  N3  UNL     1      24.290  -3.543   9.175  1.00  0.00    -0.387 N 
ATOM     16  H32 UNL     1      24.007  -2.568   9.277  1.00  0.00     0.157 HD
ATOM     17  H31 UNL     1      25.085  -3.788   8.583  1.00  0.00     0.157 HD
HETATM   18  N4  UNL     1      24.031  -5.771   9.663  1.00  0.00    -0.082 NA
ENDBRANCH   4  14
TORSDOF 4
ENDMDL
MODEL 5
REMARK VINA RESULT: -5.574015746      4.183      6.656
REMARK  4 active torsions:
REMARK  status: ('A' for Active; 'I' for Inactive)
REMARK    1  A    between atoms: C2_2  and  C4_8 
REMARK    2  A    between atoms: N1_3  and  N2_5 
REMARK    3  A    between atoms: N2_5  and  C3_6 
REMARK    4  A    between atoms: C7_11  and  C8_12 
ROOT
HETATM    1  C4  UNL     1      18.142  -3.469  14.214  1.00  0.00    -0.012 A 
HETATM    2  C5  UNL     1      19.411  -3.956  14.103  1.00  0.00     0.014 A 
HETATM    3  C6  UNL     1      20.168  -3.641  12.984  1.00  0.00     0.016 A 
HETATM    4  C7  UNL     1      19.725  -2.856  11.948  1.00  0.00     0.004 A 
HETATM    5  C9  UNL     1      18.419  -2.370  12.086  1.00  0.00     0.016 A 
HETATM    6  C10 UNL     1      17.656  -2.674  13.191  1.00  0.00     0.014 A 
ENDROOT
BRANCH   1   7
HETATM    7  C2  UNL     1      17.331  -3.774  15.398  1.00  0.00     0.045 C 
HETATM    8  C1  UNL     1      17.207  -5.155  15.885  1.00  0.00     0.071 C 
HETATM    9  N1  UNL     1      16.745  -2.808  16.014  1.00  0.00    -0.237 N 
ATOM     10  H1  UNL     1      16.916  -1.908  15.566  1.00  0.00     0.201 HD
BRANCH   9  11
HETATM   11  N2  UNL     1      16.006  -2.698  17.043  1.00  0.00    -0.297 NA
BRANCH  11  12
HETATM   12  C3  UNL     1      15.199  -2.577  18.165  1.00  0.00     0.466 C 
HETATM   13  O1  UNL     1      14.032  -2.973  18.375  1.00  0.00    -0.266 OA
ENDBRANCH  11  12
ENDBRANCH   9  11
ENDBRANCH   1   7
BRANCH   4  14
HETATM   14  C8  UNL     1      20.502  -2.512  10.770  1.00  0.00     0.120 C 
HETATM   15  N3  UNL     1      19.960  -2.418   9.629  1.00  0.00    -0.387 N 
ATOM     16  H32 UNL     1      18.956  -2.581   9.553  1.00  0.00     0.157 HD
ATOM     17  H31 UNL     1      20.506  -2.175   8.801  1.00  0.00     0.157 HD
HETATM   18  N4  UNL     1      21.885  -2.286  10.874  1.00  0.00    -0.082 NA
ENDBRANCH   4  14
TORSDOF 4
ENDMDL
