MODEL 1
REMARK VINA RESULT: -7.384472325      0.000      0.000
REMARK  6 active torsions:
REMARK  status: ('A' for Active; 'I' for Inactive)
REMARK    1  A    between atoms: C2_2  and  N1_3 
REMARK    2  A    between atoms: C2_2  and  C3_7 
REMARK       I    between atoms: C3_7  and  N2_9 
REMARK    3  A    between atoms: N2_9  and  C4_11 
REMARK    4  A    between atoms: C4_11  and  N3_12 
REMARK    5  A    between atoms: C4_11  and  C5_16 
REMARK    6  A    between atoms: C5_16  and  C6_20 
ROOT
HETATM    1  C4  UNL     1      20.971  -3.269  10.947  1.00  0.00     0.335 C 
ENDROOT
BRANCH   1   2
HETATM    2  N2  UNL     1      20.410  -3.222  12.278  1.00  0.00    -0.327 N 
HETATM    3  C3  UNL     1      19.058  -2.909  12.565  1.00  0.00     0.249 C 
HETATM    4  O1  UNL     1      18.309  -2.657  11.585  1.00  0.00    -0.271 OA
ATOM      5  H2  UNL     1      21.028  -3.428  13.063  1.00  0.00     0.165 HD
BRANCH   3   6
HETATM    6  C2  UNL     1      18.482  -2.858  13.905  1.00  0.00     0.270 C 
HETATM    7  C1  UNL     1      18.770  -4.146  14.691  1.00  0.00     0.050 C 
BRANCH   6   8
HETATM    8  N1  UNL     1      19.110  -1.784  14.644  1.00  0.00    -0.067 N 
ATOM      9  H13 UNL     1      19.125  -1.940  15.652  1.00  0.00     0.275 HD
ATOM     10  H12 UNL     1      20.120  -1.736  14.509  1.00  0.00     0.275 HD
ATOM     11  H11 UNL     1      18.625  -0.929  14.373  1.00  0.00     0.275 HD
ENDBRANCH   6   8
ENDBRANCH   3   6
ENDBRANCH   1   2
BRANCH   1  12
HETATM   12  N3  UNL     1      20.954  -1.965  10.313  1.00  0.00    -0.053 N 
ATOM     13  H33 UNL     1      20.033  -1.748   9.933  1.00  0.00     0.277 HD
ATOM     14  H32 UNL     1      21.022  -1.215  11.002  1.00  0.00     0.277 HD
ATOM     15  H31 UNL     1      21.680  -1.884   9.602  1.00  0.00     0.277 HD
ENDBRANCH   1  12
BRANCH   1  16
HETATM   16  C5  UNL     1      22.386  -3.719  10.986  1.00  0.00     0.063 C 
HETATM   17  N4  UNL     1      23.278  -2.813  10.990  1.00  0.00    -0.399 N 
ATOM     18  H42 UNL     1      23.017  -1.826  10.980  1.00  0.00     0.156 HD
ATOM     19  H41 UNL     1      24.249  -3.121  11.017  1.00  0.00     0.156 HD
BRANCH  16  20
HETATM   20  C6  UNL     1      22.758  -5.127  10.999  1.00  0.00    -0.010 A 
HETATM   21  C7  UNL     1      23.594  -5.664  10.016  1.00  0.00     0.013 A 
HETATM   22  C8  UNL     1      23.955  -6.975  10.026  1.00  0.00     0.001 A 
HETATM   23  C9  UNL     1      23.509  -7.828  11.007  1.00  0.00     0.000 A 
HETATM   24  C10 UNL     1      22.691  -7.312  11.972  1.00  0.00     0.001 A 
HETATM   25  C11 UNL     1      22.305  -5.974  11.988  1.00  0.00     0.013 A 
ENDBRANCH  16  20
ENDBRANCH   1  16
TORSDOF 6
ENDMDL
MODEL 2
REMARK VINA RESULT: -7.332611936      0.766      1.437
REMARK  6 active torsions:
REMARK  status: ('A' for Active; 'I' for Inactive)
REMARK    1  A    between atoms: C2_2  and  N1_3 
REMARK    2  A    between atoms: C2_2  and  C3_7 
REMARK       I    between atoms: C3_7  and  N2_9 
REMARK    3  A    between atoms: N2_9  and  C4_11 
REMARK    4  A    between atoms: C4_11  and  N3_12 
REMARK    5  A    between atoms: C4_11  and  C5_16 
REMARK    6  A    between atoms: C5_16  and  C6_20 
ROOT
HETATM    1  C4  UNL     1      21.241  -3.167  10.745  1.00  0.00     0.335 C 
ENDROOT
BRANCH   1   2
HETATM    2  N2  UNL     1      20.793  -3.119  12.118  1.00  0.00    -0.327 N 
HETATM    3  C3  UNL     1      19.466  -2.828  12.517  1.00  0.00     0.249 C 
HETATM    4  O1  UNL     1      18.631  -2.598  11.603  1.00  0.00    -0.271 OA
ATOM      5  H2  UNL     1      21.480  -3.308  12.849  1.00  0.00     0.165 HD
BRANCH   3   6
HETATM    6  C2  UNL     1      19.004  -2.778  13.901  1.00  0.00     0.270 C 
HETATM    7  C1  UNL     1      17.471  -2.755  13.983  1.00  0.00     0.050 C 
BRANCH   6   8
HETATM    8  N1  UNL     1      19.429  -3.984  14.580  1.00  0.00    -0.067 N 
ATOM      9  H13 UNL     1      18.918  -4.163  15.444  1.00  0.00     0.275 HD
ATOM     10  H12 UNL     1      19.157  -4.838  14.094  1.00  0.00     0.275 HD
ATOM     11  H11 UNL     1      20.436  -3.897  14.713  1.00  0.00     0.275 HD
ENDBRANCH   6   8
ENDBRANCH   3   6
ENDBRANCH   1   2
BRANCH   1  12
HETATM   12  N3  UNL     1      21.288  -1.844  10.152  1.00  0.00    -0.053 N 
ATOM     13  H33 UNL     1      20.366  -1.406  10.145  1.00  0.00     0.277 HD
ATOM     14  H32 UNL     1      21.774  -1.182  10.757  1.00  0.00     0.277 HD
ATOM     15  H31 UNL     1      21.697  -1.866   9.218  1.00  0.00     0.277 HD
ENDBRANCH   1  12
BRANCH   1  16
HETATM   16  C5  UNL     1      22.609  -3.736  10.654  1.00  0.00     0.063 C 
HETATM   17  N4  UNL     1      23.554  -2.925  10.399  1.00  0.00    -0.399 N 
ATOM     18  H42 UNL     1      23.366  -1.929  10.279  1.00  0.00     0.156 HD
ATOM     19  H41 UNL     1      24.494  -3.315  10.337  1.00  0.00     0.156 HD
BRANCH  16  20
HETATM   20  C6  UNL     1      22.877  -5.157  10.824  1.00  0.00    -0.010 A 
HETATM   21  C7  UNL     1      22.325  -5.876  11.888  1.00  0.00     0.013 A 
HETATM   22  C8  UNL     1      22.563  -7.205  12.050  1.00  0.00     0.001 A 
HETATM   23  C9  UNL     1      23.358  -7.898  11.168  1.00  0.00     0.000 A 
HETATM   24  C10 UNL     1      23.901  -7.204  10.125  1.00  0.00     0.001 A 
HETATM   25  C11 UNL     1      23.676  -5.843   9.933  1.00  0.00     0.013 A 
ENDBRANCH  16  20
ENDBRANCH   1  16
TORSDOF 6
ENDMDL
MODEL 3
REMARK VINA RESULT: -7.000830578      1.073      1.794
REMARK  6 active torsions:
REMARK  status: ('A' for Active; 'I' for Inactive)
REMARK    1  A    between atoms: C2_2  and  N1_3 
REMARK    2  A    between atoms: C2_2  and  C3_7 
REMARK       I    between atoms: C3_7  and  N2_9 
REMARK    3  A    between atoms: N2_9  and  C4_11 
REMARK    4  A    between atoms: C4_11  and  N3_12 
REMARK    5  A    between atoms: C4_11  and  C5_16 
REMARK    6  A    between atoms: C5_16  and  C6_20 
ROOT
HETATM    1  C4  UNL     1      22.099  -2.997  10.685  1.00  0.00     0.335 C 
ENDROOT
BRANCH   1   2
HETATM    2  N2  UNL     1      21.197  -3.039  11.813  1.00  0.00    -0.327 N 
HETATM    3  C3  UNL     1      19.795  -2.853  11.723  1.00  0.00     0.249 C 
HETATM    4  O1  UNL     1      19.319  -2.639  10.577  1.00  0.00    -0.271 OA
ATOM      5  H2  UNL     1      21.596  -3.213  12.735  1.00  0.00     0.165 HD
BRANCH   3   6
HETATM    6  C2  UNL     1      18.876  -2.893  12.856  1.00  0.00     0.270 C 
HETATM    7  C1  UNL     1      19.317  -3.928  13.902  1.00  0.00     0.050 C 
BRANCH   6   8
HETATM    8  N1  UNL     1      18.898  -1.608  13.522  1.00  0.00    -0.067 N 
ATOM      9  H13 UNL     1      17.989  -1.148  13.545  1.00  0.00     0.275 HD
ATOM     10  H12 UNL     1      19.030  -1.678  14.531  1.00  0.00     0.275 HD
ATOM     11  H11 UNL     1      19.620  -1.058  13.056  1.00  0.00     0.275 HD
ENDBRANCH   6   8
ENDBRANCH   3   6
ENDBRANCH   1   2
BRANCH   1  12
HETATM   12  N3  UNL     1      23.468  -2.764  11.103  1.00  0.00    -0.053 N 
ATOM     13  H33 UNL     1      23.744  -3.405  11.847  1.00  0.00     0.277 HD
ATOM     14  H32 UNL     1      24.132  -3.056  10.386  1.00  0.00     0.277 HD
ATOM     15  H31 UNL     1      23.617  -1.792  11.375  1.00  0.00     0.277 HD
ENDBRANCH   1  12
BRANCH   1  16
HETATM   16  C5  UNL     1      22.081  -4.285   9.946  1.00  0.00     0.063 C 
HETATM   17  N4  UNL     1      21.536  -4.282   8.797  1.00  0.00    -0.399 N 
ATOM     18  H42 UNL     1      21.145  -3.422   8.409  1.00  0.00     0.156 HD
ATOM     19  H41 UNL     1      21.523  -5.166   8.289  1.00  0.00     0.156 HD
BRANCH  16  20
HETATM   20  C6  UNL     1      22.638  -5.511  10.499  1.00  0.00    -0.010 A 
HETATM   21  C7  UNL     1      22.098  -6.098  11.647  1.00  0.00     0.013 A 
HETATM   22  C8  UNL     1      22.605  -7.249  12.165  1.00  0.00     0.001 A 
HETATM   23  C9  UNL     1      23.674  -7.882  11.578  1.00  0.00     0.000 A 
HETATM   24  C10 UNL     1      24.209  -7.316  10.456  1.00  0.00     0.001 A 
HETATM   25  C11 UNL     1      23.711  -6.139   9.902  1.00  0.00     0.013 A 
ENDBRANCH  16  20
ENDBRANCH   1  16
TORSDOF 6
ENDMDL
MODEL 4
REMARK VINA RESULT: -6.972933771      1.076      1.367
REMARK  6 active torsions:
REMARK  status: ('A' for Active; 'I' for Inactive)
REMARK    1  A    between atoms: C2_2  and  N1_3 
REMARK    2  A    between atoms: C2_2  and  C3_7 
REMARK       I    between atoms: C3_7  and  N2_9 
REMARK    3  A    between atoms: N2_9  and  C4_11 
REMARK    4  A    between atoms: C4_11  and  N3_12 
REMARK    5  A    between atoms: C4_11  and  C5_16 
REMARK    6  A    between atoms: C5_16  and  C6_20 
ROOT
HETATM    1  C4  UNL     1      22.097  -3.005  10.681  1.00  0.00     0.335 C 
ENDROOT
BRANCH   1   2
HETATM    2  N2  UNL     1      21.194  -3.042  11.810  1.00  0.00    -0.327 N 
HETATM    3  C3  UNL     1      19.794  -2.851  11.719  1.00  0.00     0.249 C 
HETATM    4  O1  UNL     1      19.318  -2.635  10.573  1.00  0.00    -0.271 OA
ATOM      5  H2  UNL     1      21.593  -3.218  12.732  1.00  0.00     0.165 HD
BRANCH   3   6
HETATM    6  C2  UNL     1      18.874  -2.886  12.853  1.00  0.00     0.270 C 
HETATM    7  C1  UNL     1      19.310  -3.922  13.899  1.00  0.00     0.050 C 
BRANCH   6   8
HETATM    8  N1  UNL     1      18.902  -1.601  13.517  1.00  0.00    -0.067 N 
ATOM      9  H13 UNL     1      18.354  -1.578  14.378  1.00  0.00     0.275 HD
ATOM     10  H12 UNL     1      19.805  -1.383  13.938  1.00  0.00     0.275 HD
ATOM     11  H11 UNL     1      18.600  -0.915  12.826  1.00  0.00     0.275 HD
ENDBRANCH   6   8
ENDBRANCH   3   6
ENDBRANCH   1   2
BRANCH   1  12
HETATM   12  N3  UNL     1      23.466  -2.776  11.100  1.00  0.00    -0.053 N 
ATOM     13  H33 UNL     1      23.509  -2.162  11.914  1.00  0.00     0.277 HD
ATOM     14  H32 UNL     1      23.875  -3.615  11.513  1.00  0.00     0.277 HD
ATOM     15  H31 UNL     1      24.038  -2.421  10.334  1.00  0.00     0.277 HD
ENDBRANCH   1  12
BRANCH   1  16
HETATM   16  C5  UNL     1      22.074  -4.293   9.944  1.00  0.00     0.063 C 
HETATM   17  N4  UNL     1      21.538  -4.287   8.791  1.00  0.00    -0.399 N 
ATOM     18  H42 UNL     1      21.159  -3.424   8.399  1.00  0.00     0.156 HD
ATOM     19  H41 UNL     1      21.523  -5.171   8.284  1.00  0.00     0.156 HD
BRANCH  16  20
HETATM   20  C6  UNL     1      22.616  -5.524  10.503  1.00  0.00    -0.010 A 
HETATM   21  C7  UNL     1      23.704  -6.171   9.912  1.00  0.00     0.013 A 
HETATM   22  C8  UNL     1      24.222  -7.315  10.433  1.00  0.00     0.001 A 
HETATM   23  C9  UNL     1      23.693  -7.883  11.568  1.00  0.00     0.000 A 
HETATM   24  C10 UNL     1      22.629  -7.257  12.153  1.00  0.00     0.001 A 
HETATM   25  C11 UNL     1      22.077  -6.084  11.643  1.00  0.00     0.013 A 
ENDBRANCH  16  20
ENDBRANCH   1  16
TORSDOF 6
ENDMDL
MODEL 5
REMARK VINA RESULT: -6.612863156      1.059      1.105
REMARK  6 active torsions:
REMARK  status: ('A' for Active; 'I' for Inactive)
REMARK    1  A    between atoms: C2_2  and  N1_3 
REMARK    2  A    between atoms: C2_2  and  C3_7 
REMARK       I    between atoms: C3_7  and  N2_9 
REMARK    3  A    between atoms: N2_9  and  C4_11 
REMARK    4  A    between atoms: C4_11  and  N3_12 
REMARK    5  A    between atoms: C4_11  and  C5_16 
REMARK    6  A    between atoms: C5_16  and  C6_20 
ROOT
HETATM    1  C4  UNL     1      20.669  -3.208  11.002  1.00  0.00     0.335 C 
ENDROOT
BRANCH   1   2
HETATM    2  N2  UNL     1      20.121  -2.591  12.189  1.00  0.00    -0.327 N 
HETATM    3  C3  UNL     1      19.571  -3.307  13.281  1.00  0.00     0.249 C 
HETATM    4  O1  UNL     1      19.567  -4.563  13.197  1.00  0.00    -0.271 OA
ATOM      5  H2  UNL     1      20.130  -1.572  12.244  1.00  0.00     0.165 HD
BRANCH   3   6
HETATM    6  C2  UNL     1      19.014  -2.693  14.483  1.00  0.00     0.270 C 
HETATM    7  C1  UNL     1      17.479  -2.706  14.462  1.00  0.00     0.050 C 
BRANCH   6   8
HETATM    8  N1  UNL     1      19.411  -3.477  15.634  1.00  0.00    -0.067 N 
ATOM      9  H13 UNL     1      19.003  -3.147  16.508  1.00  0.00     0.275 HD
ATOM     10  H12 UNL     1      19.001  -4.410  15.649  1.00  0.00     0.275 HD
ATOM     11  H11 UNL     1      20.431  -3.482  15.638  1.00  0.00     0.275 HD
ENDBRANCH   6   8
ENDBRANCH   3   6
ENDBRANCH   1   2
BRANCH   1  12
HETATM   12  N3  UNL     1      20.576  -2.330   9.852  1.00  0.00    -0.053 N 
ATOM     13  H33 UNL     1      20.170  -1.428  10.104  1.00  0.00     0.277 HD
ATOM     14  H32 UNL     1      21.497  -2.011   9.551  1.00  0.00     0.277 HD
ATOM     15  H31 UNL     1      20.064  -2.768   9.086  1.00  0.00     0.277 HD
ENDBRANCH   1  12
BRANCH   1  16
HETATM   16  C5  UNL     1      22.106  -3.531  11.191  1.00  0.00     0.063 C 
HETATM   17  N4  UNL     1      22.886  -2.559  11.445  1.00  0.00    -0.399 N 
ATOM     18  H42 UNL     1      22.523  -1.609  11.526  1.00  0.00     0.156 HD
ATOM     19  H41 UNL     1      23.873  -2.781  11.574  1.00  0.00     0.156 HD
BRANCH  16  20
HETATM   20  C6  UNL     1      22.624  -4.887  11.075  1.00  0.00    -0.010 A 
HETATM   21  C7  UNL     1      23.487  -5.246  10.036  1.00  0.00     0.013 A 
HETATM   22  C8  UNL     1      23.983  -6.508   9.926  1.00  0.00     0.001 A 
HETATM   23  C9  UNL     1      23.653  -7.484  10.835  1.00  0.00     0.000 A 
HETATM   24  C10 UNL     1      22.810  -7.142  11.854  1.00  0.00     0.001 A 
HETATM   25  C11 UNL     1      22.286  -5.859  11.993  1.00  0.00     0.013 A 
ENDBRANCH  16  20
ENDBRANCH   1  16
TORSDOF 6
ENDMDL
