MODEL 1
REMARK VINA RESULT: -7.509760803      0.000      0.000
REMARK  5 active torsions:
REMARK  status: ('A' for Active; 'I' for Inactive)
REMARK    1  A    between atoms: C2_2  and  C3_3 
REMARK    2  A    between atoms: C3_3  and  N1_4 
REMARK       I    between atoms: N1_4  and  C4_6 
REMARK       I    between atoms: C4_6  and  N2_8 
REMARK    3  A    between atoms: N2_8  and  C5_10 
REMARK    4  A    between atoms: C5_10  and  N3_11 
REMARK    5  A    between atoms: N3_11  and  C6_13 
ROOT
HETATM    1  C5  UNL     1      22.602  -3.520   9.868  1.00  0.00     0.249 C 
ENDROOT
BRANCH   1   2
HETATM    2  N2  UNL     1      21.713  -2.587  10.519  1.00  0.00    -0.327 N 
HETATM    3  C4  UNL     1      20.975  -3.063  11.654  1.00  0.00     0.317 C 
HETATM    4  N1  UNL     1      20.102  -2.162  12.300  1.00  0.00    -0.340 N 
HETATM    5  O1  UNL     1      21.103  -4.248  12.062  1.00  0.00    -0.247 OA
ATOM      6  H1  UNL     1      20.008  -1.205  11.960  1.00  0.00     0.164 HD
ATOM      7  H2  UNL     1      21.614  -1.628  10.186  1.00  0.00     0.165 HD
BRANCH   4   8
HETATM    8  C3  UNL     1      19.348  -2.603  13.443  1.00  0.00     0.150 C 
BRANCH   8   9
HETATM    9  C2  UNL     1      17.913  -2.809  13.128  1.00  0.00    -0.018 C 
HETATM   10  C1  UNL     1      17.395  -2.241  12.064  1.00  0.00     0.008 C 
ENDBRANCH   8   9
ENDBRANCH   4   8
ENDBRANCH   1   2
BRANCH   1  11
HETATM   11  N3  UNL     1      23.850  -3.544  10.551  1.00  0.00    -0.360 N 
ATOM     12  H3  UNL     1      24.269  -2.659  10.838  1.00  0.00     0.162 HD
BRANCH  11  13
HETATM   13  C6  UNL     1      24.540  -4.760  10.851  1.00  0.00     0.105 A 
HETATM   14  C7  UNL     1      23.927  -5.976  10.668  1.00  0.00     0.103 A 
HETATM   15  C8  UNL     1      24.557  -7.185  10.946  1.00  0.00     0.176 A 
HETATM   16  O2  UNL     1      23.978  -8.295  10.772  1.00  0.00    -0.288 OA
HETATM   17  C9  UNL     1      25.860  -7.097  11.426  1.00  0.00     0.072 A 
HETATM   18  C10 UNL     1      26.458  -5.864  11.604  1.00  0.00     0.093 A 
HETATM   19  N4  UNL     1      25.787  -4.733  11.313  1.00  0.00    -0.352 N 
ATOM     20  H4  UNL     1      26.247  -3.833  11.450  1.00  0.00     0.166 HD
ENDBRANCH  11  13
ENDBRANCH   1  11
TORSDOF 5
ENDMDL
MODEL 2
REMARK VINA RESULT: -7.443364221      1.226      1.572
REMARK  5 active torsions:
REMARK  status: ('A' for Active; 'I' for Inactive)
REMARK    1  A    between atoms: C2_2  and  C3_3 
REMARK    2  A    between atoms: C3_3  and  N1_4 
REMARK       I    between atoms: N1_4  and  C4_6 
REMARK       I    between atoms: C4_6  and  N2_8 
REMARK    3  A    between atoms: N2_8  and  C5_10 
REMARK    4  A    between atoms: C5_10  and  N3_11 
REMARK    5  A    between atoms: N3_11  and  C6_13 
ROOT
HETATM    1  C5  UNL     1      22.723  -2.860  10.198  1.00  0.00     0.249 C 
ENDROOT
BRANCH   1   2
HETATM    2  N2  UNL     1      21.812  -2.098  11.019  1.00  0.00    -0.327 N 
HETATM    3  C4  UNL     1      20.957  -2.831  11.909  1.00  0.00     0.317 C 
HETATM    4  N1  UNL     1      20.061  -2.099  12.717  1.00  0.00    -0.340 N 
HETATM    5  O1  UNL     1      21.007  -4.089  11.970  1.00  0.00    -0.247 OA
ATOM      6  H1  UNL     1      20.031  -1.082  12.659  1.00  0.00     0.164 HD
ATOM      7  H2  UNL     1      21.776  -1.080  10.967  1.00  0.00     0.165 HD
BRANCH   4   8
HETATM    8  C3  UNL     1      19.191  -2.800  13.623  1.00  0.00     0.150 C 
BRANCH   8   9
HETATM    9  C2  UNL     1      17.803  -2.899  13.112  1.00  0.00    -0.018 C 
HETATM   10  C1  UNL     1      17.424  -2.139  12.111  1.00  0.00     0.008 C 
ENDBRANCH   8   9
ENDBRANCH   4   8
ENDBRANCH   1   2
BRANCH   1  11
HETATM   11  N3  UNL     1      23.819  -3.304  10.992  1.00  0.00    -0.360 N 
ATOM     12  H3  UNL     1      24.335  -2.619  11.543  1.00  0.00     0.162 HD
BRANCH  11  13
HETATM   13  C6  UNL     1      24.223  -4.675  11.046  1.00  0.00     0.105 A 
HETATM   14  C7  UNL     1      25.418  -5.030  11.622  1.00  0.00     0.103 A 
HETATM   15  C8  UNL     1      25.854  -6.350  11.698  1.00  0.00     0.176 A 
HETATM   16  O2  UNL     1      26.957  -6.659  12.232  1.00  0.00    -0.288 OA
HETATM   17  C9  UNL     1      25.003  -7.305  11.151  1.00  0.00     0.072 A 
HETATM   18  C10 UNL     1      23.805  -6.926  10.575  1.00  0.00     0.093 A 
HETATM   19  N4  UNL     1      23.447  -5.628  10.538  1.00  0.00    -0.352 N 
ATOM     20  H4  UNL     1      22.558  -5.370  10.109  1.00  0.00     0.166 HD
ENDBRANCH  11  13
ENDBRANCH   1  11
TORSDOF 5
ENDMDL
MODEL 3
REMARK VINA RESULT: -7.216074641      1.407      1.767
REMARK  5 active torsions:
REMARK  status: ('A' for Active; 'I' for Inactive)
REMARK    1  A    between atoms: C2_2  and  C3_3 
REMARK    2  A    between atoms: C3_3  and  N1_4 
REMARK       I    between atoms: N1_4  and  C4_6 
REMARK       I    between atoms: C4_6  and  N2_8 
REMARK    3  A    between atoms: N2_8  and  C5_10 
REMARK    4  A    between atoms: C5_10  and  N3_11 
REMARK    5  A    between atoms: N3_11  and  C6_13 
ROOT
HETATM    1  C5  UNL     1      21.859  -2.957  10.598  1.00  0.00     0.249 C 
ENDROOT
BRANCH   1   2
HETATM    2  N2  UNL     1      21.042  -2.176  11.497  1.00  0.00    -0.327 N 
HETATM    3  C4  UNL     1      20.318  -2.886  12.513  1.00  0.00     0.317 C 
HETATM    4  N1  UNL     1      19.516  -2.136  13.399  1.00  0.00    -0.340 N 
HETATM    5  O1  UNL     1      20.398  -4.140  12.612  1.00  0.00    -0.247 OA
ATOM      6  H1  UNL     1      19.460  -1.122  13.308  1.00  0.00     0.164 HD
ATOM      7  H2  UNL     1      20.982  -1.162  11.413  1.00  0.00     0.165 HD
BRANCH   4   8
HETATM    8  C3  UNL     1      18.778  -2.813  14.431  1.00  0.00     0.150 C 
BRANCH   8   9
HETATM    9  C2  UNL     1      19.259  -2.468  15.791  1.00  0.00    -0.018 C 
HETATM   10  C1  UNL     1      19.150  -3.347  16.759  1.00  0.00     0.008 C 
ENDBRANCH   8   9
ENDBRANCH   4   8
ENDBRANCH   1   2
BRANCH   1  11
HETATM   11  N3  UNL     1      23.165  -3.099  11.145  1.00  0.00    -0.360 N 
ATOM     12  H3  UNL     1      23.625  -2.278  11.539  1.00  0.00     0.162 HD
BRANCH  11  13
HETATM   13  C6  UNL     1      23.859  -4.350  11.164  1.00  0.00     0.105 A 
HETATM   14  C7  UNL     1      23.166  -5.534  11.237  1.00  0.00     0.103 A 
HETATM   15  C8  UNL     1      23.797  -6.775  11.258  1.00  0.00     0.176 A 
HETATM   16  O2  UNL     1      23.143  -7.855  11.326  1.00  0.00    -0.288 OA
HETATM   17  C9  UNL     1      25.187  -6.753  11.200  1.00  0.00     0.072 A 
HETATM   18  C10 UNL     1      25.865  -5.550  11.127  1.00  0.00     0.093 A 
HETATM   19  N4  UNL     1      25.187  -4.386  11.110  1.00  0.00    -0.352 N 
ATOM     20  H4  UNL     1      25.707  -3.510  11.055  1.00  0.00     0.166 HD
ENDBRANCH  11  13
ENDBRANCH   1  11
TORSDOF 5
ENDMDL
MODEL 4
REMARK VINA RESULT: -7.207884744      1.755      2.349
REMARK  5 active torsions:
REMARK  status: ('A' for Active; 'I' for Inactive)
REMARK    1  A    between atoms: C2_2  and  C3_3 
REMARK    2  A    between atoms: C3_3  and  N1_4 
REMARK       I    between atoms: N1_4  and  C4_6 
REMARK       I    between atoms: C4_6  and  N2_8 
REMARK    3  A    between atoms: N2_8  and  C5_10 
REMARK    4  A    between atoms: C5_10  and  N3_11 
REMARK    5  A    between atoms: N3_11  and  C6_13 
ROOT
HETATM    1  C5  UNL     1      21.808  -2.834  10.552  1.00  0.00     0.249 C 
ENDROOT
BRANCH   1   2
HETATM    2  N2  UNL     1      20.993  -2.113  11.501  1.00  0.00    -0.327 N 
HETATM    3  C4  UNL     1      20.324  -2.881  12.513  1.00  0.00     0.317 C 
HETATM    4  N1  UNL     1      19.524  -2.190  13.447  1.00  0.00    -0.340 N 
HETATM    5  O1  UNL     1      20.449  -4.134  12.566  1.00  0.00    -0.247 OA
ATOM      6  H1  UNL     1      19.431  -1.175  13.392  1.00  0.00     0.164 HD
ATOM      7  H2  UNL     1      20.896  -1.099  11.454  1.00  0.00     0.165 HD
BRANCH   4   8
HETATM    8  C3  UNL     1      18.841  -2.926  14.476  1.00  0.00     0.150 C 
BRANCH   8   9
HETATM    9  C2  UNL     1      19.220  -2.479  15.839  1.00  0.00    -0.018 C 
HETATM   10  C1  UNL     1      19.176  -3.331  16.836  1.00  0.00     0.008 C 
ENDBRANCH   8   9
ENDBRANCH   4   8
ENDBRANCH   1   2
BRANCH   1  11
HETATM   11  N3  UNL     1      23.079  -3.109  11.130  1.00  0.00    -0.360 N 
ATOM     12  H3  UNL     1      23.596  -2.345  11.565  1.00  0.00     0.162 HD
BRANCH  11  13
HETATM   13  C6  UNL     1      23.660  -4.416  11.125  1.00  0.00     0.105 A 
HETATM   14  C7  UNL     1      25.008  -4.584  11.322  1.00  0.00     0.103 A 
HETATM   15  C8  UNL     1      25.618  -5.835  11.326  1.00  0.00     0.176 A 
HETATM   16  O2  UNL     1      26.861  -5.972  11.509  1.00  0.00    -0.288 OA
HETATM   17  C9  UNL     1      24.777  -6.924  11.116  1.00  0.00     0.072 A 
HETATM   18  C10 UNL     1      23.422  -6.733  10.919  1.00  0.00     0.093 A 
HETATM   19  N4  UNL     1      22.901  -5.491  10.929  1.00  0.00    -0.352 N 
ATOM     20  H4  UNL     1      21.898  -5.372  10.783  1.00  0.00     0.166 HD
ENDBRANCH  11  13
ENDBRANCH   1  11
TORSDOF 5
ENDMDL
MODEL 5
REMARK VINA RESULT: -7.075753530      1.676      6.540
REMARK  5 active torsions:
REMARK  status: ('A' for Active; 'I' for Inactive)
REMARK    1  A    between atoms: C2_2  and  C3_3 
REMARK    2  A    between atoms: C3_3  and  N1_4 
REMARK       I    between atoms: N1_4  and  C4_6 
REMARK       I    between atoms: C4_6  and  N2_8 
REMARK    3  A    between atoms: N2_8  and  C5_10 
REMARK    4  A    between atoms: C5_10  and  N3_11 
REMARK    5  A    between atoms: N3_11  and  C6_13 
ROOT
HETATM    1  C5  UNL     1      22.471  -2.948  10.590  1.00  0.00     0.249 C 
ENDROOT
BRANCH   1   2
HETATM    2  N2  UNL     1      23.012  -4.113   9.931  1.00  0.00    -0.327 N 
HETATM    3  C4  UNL     1      23.596  -5.128  10.762  1.00  0.00     0.317 C 
HETATM    4  N1  UNL     1      24.129  -6.272  10.132  1.00  0.00    -0.340 N 
HETATM    5  O1  UNL     1      23.629  -5.001  12.015  1.00  0.00    -0.247 OA
ATOM      6  H1  UNL     1      24.096  -6.362   9.116  1.00  0.00     0.164 HD
ATOM      7  H2  UNL     1      22.982  -4.211   8.916  1.00  0.00     0.165 HD
BRANCH   4   8
HETATM    8  C3  UNL     1      24.720  -7.311  10.933  1.00  0.00     0.150 C 
BRANCH   8   9
HETATM    9  C2  UNL     1      24.199  -8.656  10.588  1.00  0.00    -0.018 C 
HETATM   10  C1  UNL     1      23.050  -8.766   9.963  1.00  0.00     0.008 C 
ENDBRANCH   8   9
ENDBRANCH   4   8
ENDBRANCH   1   2
BRANCH   1  11
HETATM   11  N3  UNL     1      21.121  -2.755  10.182  1.00  0.00    -0.360 N 
ATOM     12  H3  UNL     1      20.920  -2.640   9.188  1.00  0.00     0.162 HD
BRANCH  11  13
HETATM   13  C6  UNL     1      20.035  -2.718  11.111  1.00  0.00     0.105 A 
HETATM   14  C7  UNL     1      20.271  -2.716  12.464  1.00  0.00     0.103 A 
HETATM   15  C8  UNL     1      19.247  -2.681  13.406  1.00  0.00     0.176 A 
HETATM   16  O2  UNL     1      19.482  -2.680  14.648  1.00  0.00    -0.288 OA
HETATM   17  C9  UNL     1      17.952  -2.647  12.898  1.00  0.00     0.072 A 
HETATM   18  C10 UNL     1      17.736  -2.650  11.532  1.00  0.00     0.093 A 
HETATM   19  N4  UNL     1      18.777  -2.685  10.679  1.00  0.00    -0.352 N 
ATOM     20  H4  UNL     1      18.596  -2.685   9.675  1.00  0.00     0.166 HD
ENDBRANCH  11  13
ENDBRANCH   1  11
TORSDOF 5
ENDMDL
