MODEL 1
REMARK VINA RESULT: -7.086389438      0.000      0.000
REMARK  4 active torsions:
REMARK  status: ('A' for Active; 'I' for Inactive)
REMARK    1  A    between atoms: N1_1  and  C1_5 
REMARK    2  A    between atoms: C1_5  and  C2_6 
REMARK    3  A    between atoms: C6_10  and  C7_11 
REMARK       I    between atoms: C7_11  and  N2_13 
REMARK       I    between atoms: N2_13  and  C8_15 
REMARK       I    between atoms: C8_15  and  N3_17 
REMARK    4  A    between atoms: N3_17  and  N4_19 
ROOT
HETATM    1  C7  UNL     1      22.541  -5.406  11.392  1.00  0.00     0.230 C 
HETATM    2  O1  UNL     1      21.800  -5.848  12.300  1.00  0.00    -0.273 OA
HETATM    3  N2  UNL     1      22.541  -4.046  11.018  1.00  0.00    -0.278 N 
ATOM      4  H2  UNL     1      23.179  -3.786  10.267  1.00  0.00     0.173 HD
HETATM    5  C8  UNL     1      21.773  -3.017  11.554  1.00  0.00     0.341 C 
HETATM    6  O2  UNL     1      21.949  -1.843  11.045  1.00  0.00    -0.245 OA
HETATM    7  N3  UNL     1      20.824  -3.084  12.584  1.00  0.00    -0.258 N 
ATOM      8  H3  UNL     1      20.641  -3.985  13.025  1.00  0.00     0.191 HD
ENDROOT
BRANCH   1   9
HETATM    9  C6  UNL     1      23.425  -6.394  10.723  1.00  0.00     0.084 C 
HETATM   10  C2  UNL     1      24.750  -6.540  11.386  1.00  0.00     0.024 C 
HETATM   11  C3  UNL     1      25.131  -8.008  11.296  1.00  0.00     0.007 C 
HETATM   12  C4  UNL     1      24.050  -8.629  10.419  1.00  0.00     0.001 C 
HETATM   13  C5  UNL     1      22.836  -7.800  10.860  1.00  0.00     0.014 C 
BRANCH  10  14
HETATM   14  C1  UNL     1      25.838  -5.737  10.701  1.00  0.00     0.235 C 
BRANCH  14  15
HETATM   15  N1  UNL     1      25.326  -5.040   9.541  1.00  0.00    -0.079 N 
ATOM     16  H13 UNL     1      25.168  -5.677   8.761  1.00  0.00     0.274 HD
ATOM     17  H12 UNL     1      24.366  -4.727   9.686  1.00  0.00     0.274 HD
ATOM     18  H11 UNL     1      25.935  -4.266   9.275  1.00  0.00     0.274 HD
ENDBRANCH  14  15
ENDBRANCH  10  14
ENDBRANCH   1   9
BRANCH   7  19
HETATM   19  N4  UNL     1      20.120  -1.965  13.027  1.00  0.00    -0.341 N 
ATOM     20  H42 UNL     1      20.105  -1.144  12.423  1.00  0.00     0.177 HD
ATOM     21  H41 UNL     1      19.630  -1.946  13.921  1.00  0.00     0.177 HD
ENDBRANCH   7  19
TORSDOF 4
ENDMDL
MODEL 2
REMARK VINA RESULT: -6.376330706      2.466      3.142
REMARK  4 active torsions:
REMARK  status: ('A' for Active; 'I' for Inactive)
REMARK    1  A    between atoms: N1_1  and  C1_5 
REMARK    2  A    between atoms: C1_5  and  C2_6 
REMARK    3  A    between atoms: C6_10  and  C7_11 
REMARK       I    between atoms: C7_11  and  N2_13 
REMARK       I    between atoms: N2_13  and  C8_15 
REMARK       I    between atoms: C8_15  and  N3_17 
REMARK    4  A    between atoms: N3_17  and  N4_19 
ROOT
HETATM    1  C7  UNL     1      22.137  -6.275  12.431  1.00  0.00     0.230 C 
HETATM    2  O1  UNL     1      21.835  -5.062  12.354  1.00  0.00    -0.273 OA
HETATM    3  N2  UNL     1      21.595  -7.122  13.419  1.00  0.00    -0.278 N 
ATOM      4  H2  UNL     1      21.906  -8.093  13.399  1.00  0.00     0.173 HD
HETATM    5  C8  UNL     1      20.686  -6.790  14.419  1.00  0.00     0.341 C 
HETATM    6  O2  UNL     1      20.332  -7.744  15.214  1.00  0.00    -0.245 OA
HETATM    7  N3  UNL     1      20.097  -5.546  14.681  1.00  0.00    -0.258 N 
ATOM      8  H3  UNL     1      20.338  -4.753  14.087  1.00  0.00     0.191 HD
ENDROOT
BRANCH   1   9
HETATM    9  C6  UNL     1      23.103  -6.779  11.422  1.00  0.00     0.084 C 
HETATM   10  C2  UNL     1      24.453  -6.162  11.541  1.00  0.00     0.024 C 
HETATM   11  C3  UNL     1      25.467  -7.248  11.224  1.00  0.00     0.007 C 
HETATM   12  C4  UNL     1      24.624  -8.433  10.766  1.00  0.00     0.001 C 
HETATM   13  C5  UNL     1      23.399  -8.259  11.674  1.00  0.00     0.014 C 
BRANCH  10  14
HETATM   14  C1  UNL     1      24.666  -5.028  10.558  1.00  0.00     0.235 C 
BRANCH  14  15
HETATM   15  N1  UNL     1      24.437  -3.742  11.181  1.00  0.00    -0.079 N 
ATOM     16  H13 UNL     1      24.347  -3.828  12.193  1.00  0.00     0.274 HD
ATOM     17  H12 UNL     1      25.271  -3.156  11.147  1.00  0.00     0.274 HD
ATOM     18  H11 UNL     1      23.631  -3.270  10.772  1.00  0.00     0.274 HD
ENDBRANCH  14  15
ENDBRANCH  10  14
ENDBRANCH   1   9
BRANCH   7  19
HETATM   19  N4  UNL     1      19.193  -5.351  15.725  1.00  0.00    -0.341 N 
ATOM     20  H42 UNL     1      18.599  -4.523  15.690  1.00  0.00     0.177 HD
ATOM     21  H41 UNL     1      19.111  -6.000  16.506  1.00  0.00     0.177 HD
ENDBRANCH   7  19
TORSDOF 4
ENDMDL
MODEL 3
REMARK VINA RESULT: -6.073671267      5.572      7.323
REMARK  4 active torsions:
REMARK  status: ('A' for Active; 'I' for Inactive)
REMARK    1  A    between atoms: N1_1  and  C1_5 
REMARK    2  A    between atoms: C1_5  and  C2_6 
REMARK    3  A    between atoms: C6_10  and  C7_11 
REMARK       I    between atoms: C7_11  and  N2_13 
REMARK       I    between atoms: N2_13  and  C8_15 
REMARK       I    between atoms: C8_15  and  N3_17 
REMARK    4  A    between atoms: N3_17  and  N4_19 
ROOT
HETATM    1  C7  UNL     1      19.021  -3.120  15.279  1.00  0.00     0.230 C 
HETATM    2  O1  UNL     1      17.815  -2.794  15.367  1.00  0.00    -0.273 OA
HETATM    3  N2  UNL     1      19.713  -3.113  14.050  1.00  0.00    -0.278 N 
ATOM      4  H2  UNL     1      20.692  -3.397  14.084  1.00  0.00     0.173 HD
HETATM    5  C8  UNL     1      19.219  -2.764  12.798  1.00  0.00     0.341 C 
HETATM    6  O2  UNL     1      20.049  -2.835  11.812  1.00  0.00    -0.245 OA
HETATM    7  N3  UNL     1      17.926  -2.340  12.459  1.00  0.00    -0.258 N 
ATOM      8  H3  UNL     1      17.225  -2.264  13.196  1.00  0.00     0.191 HD
ENDROOT
BRANCH   1   9
HETATM    9  C6  UNL     1      19.689  -3.519  16.544  1.00  0.00     0.084 C 
HETATM   10  C2  UNL     1      18.867  -3.247  17.755  1.00  0.00     0.024 C 
HETATM   11  C3  UNL     1      19.113  -4.391  18.724  1.00  0.00     0.007 C 
HETATM   12  C4  UNL     1      20.222  -5.209  18.073  1.00  0.00     0.001 C 
HETATM   13  C5  UNL     1      19.848  -5.041  16.594  1.00  0.00     0.014 C 
BRANCH  10  14
HETATM   14  C1  UNL     1      19.258  -1.958  18.450  1.00  0.00     0.235 C 
BRANCH  14  15
HETATM   15  N1  UNL     1      18.514  -0.833  17.928  1.00  0.00    -0.079 N 
ATOM     16  H13 UNL     1      18.795  -0.609  16.973  1.00  0.00     0.274 HD
ATOM     17  H12 UNL     1      17.540  -1.077  17.751  1.00  0.00     0.274 HD
ATOM     18  H11 UNL     1      18.591  -0.021  18.541  1.00  0.00     0.274 HD
ENDBRANCH  14  15
ENDBRANCH  10  14
ENDBRANCH   1   9
BRANCH   7  19
HETATM   19  N4  UNL     1      17.562  -2.018  11.153  1.00  0.00    -0.341 N 
ATOM     20  H42 UNL     1      18.047  -2.496  10.394  1.00  0.00     0.177 HD
ATOM     21  H41 UNL     1      16.838  -1.333  10.939  1.00  0.00     0.177 HD
ENDBRANCH   7  19
TORSDOF 4
ENDMDL
MODEL 4
REMARK VINA RESULT: -6.044071154      2.203      3.020
REMARK  4 active torsions:
REMARK  status: ('A' for Active; 'I' for Inactive)
REMARK    1  A    between atoms: N1_1  and  C1_5 
REMARK    2  A    between atoms: C1_5  and  C2_6 
REMARK    3  A    between atoms: C6_10  and  C7_11 
REMARK       I    between atoms: C7_11  and  N2_13 
REMARK       I    between atoms: N2_13  and  C8_15 
REMARK       I    between atoms: C8_15  and  N3_17 
REMARK    4  A    between atoms: N3_17  and  N4_19 
ROOT
HETATM    1  C7  UNL     1      21.863  -3.667  11.381  1.00  0.00     0.230 C 
HETATM    2  O1  UNL     1      21.286  -3.331  10.321  1.00  0.00    -0.273 OA
HETATM    3  N2  UNL     1      21.317  -3.393  12.652  1.00  0.00    -0.278 N 
ATOM      4  H2  UNL     1      21.865  -3.706  13.453  1.00  0.00     0.173 HD
HETATM    5  C8  UNL     1      20.120  -2.747  12.942  1.00  0.00     0.341 C 
HETATM    6  O2  UNL     1      19.828  -2.612  14.193  1.00  0.00    -0.245 OA
HETATM    7  N3  UNL     1      19.177  -2.218  12.049  1.00  0.00    -0.258 N 
ATOM      8  H3  UNL     1      19.352  -2.295  11.048  1.00  0.00     0.191 HD
ENDROOT
BRANCH   1   9
HETATM    9  C6  UNL     1      23.161  -4.372  11.229  1.00  0.00     0.084 C 
HETATM   10  C2  UNL     1      23.017  -5.848  11.097  1.00  0.00     0.024 C 
HETATM   11  C3  UNL     1      24.073  -6.311  10.108  1.00  0.00     0.007 C 
HETATM   12  C4  UNL     1      24.905  -5.065   9.830  1.00  0.00     0.001 C 
HETATM   13  C5  UNL     1      23.812  -3.989   9.898  1.00  0.00     0.014 C 
BRANCH  10  14
HETATM   14  C1  UNL     1      23.255  -6.578  12.404  1.00  0.00     0.235 C 
BRANCH  14  15
HETATM   15  N1  UNL     1      22.011  -7.026  12.991  1.00  0.00    -0.079 N 
ATOM     16  H13 UNL     1      22.122  -7.924  13.461  1.00  0.00     0.274 HD
ATOM     17  H12 UNL     1      21.751  -6.458  13.797  1.00  0.00     0.274 HD
ATOM     18  H11 UNL     1      21.264  -7.057  12.298  1.00  0.00     0.274 HD
ENDBRANCH  14  15
ENDBRANCH  10  14
ENDBRANCH   1   9
BRANCH   7  19
HETATM   19  N4  UNL     1      18.009  -1.591  12.479  1.00  0.00    -0.341 N 
ATOM     20  H42 UNL     1      17.790  -0.676  12.088  1.00  0.00     0.177 HD
ATOM     21  H41 UNL     1      17.379  -2.015  13.160  1.00  0.00     0.177 HD
ENDBRANCH   7  19
TORSDOF 4
ENDMDL
MODEL 5
REMARK VINA RESULT: -5.971965218      1.001      1.001
REMARK  4 active torsions:
REMARK  status: ('A' for Active; 'I' for Inactive)
REMARK    1  A    between atoms: N1_1  and  C1_5 
REMARK    2  A    between atoms: C1_5  and  C2_6 
REMARK    3  A    between atoms: C6_10  and  C7_11 
REMARK       I    between atoms: C7_11  and  N2_13 
REMARK       I    between atoms: N2_13  and  C8_15 
REMARK       I    between atoms: C8_15  and  N3_17 
REMARK    4  A    between atoms: N3_17  and  N4_19 
ROOT
HETATM    1  C7  UNL     1      22.224  -5.793  11.977  1.00  0.00     0.230 C 
HETATM    2  O1  UNL     1      21.487  -6.410  12.781  1.00  0.00    -0.273 OA
HETATM    3  N2  UNL     1      22.149  -4.394  11.812  1.00  0.00    -0.278 N 
ATOM      4  H2  UNL     1      22.790  -3.987  11.131  1.00  0.00     0.173 HD
HETATM    5  C8  UNL     1      21.304  -3.505  12.467  1.00  0.00     0.341 C 
HETATM    6  O2  UNL     1      21.421  -2.259  12.146  1.00  0.00    -0.245 OA
HETATM    7  N3  UNL     1      20.333  -3.781  13.440  1.00  0.00    -0.258 N 
ATOM      8  H3  UNL     1      20.195  -4.748  13.734  1.00  0.00     0.191 HD
ENDROOT
BRANCH   1   9
HETATM    9  C6  UNL     1      23.186  -6.616  11.201  1.00  0.00     0.084 C 
HETATM   10  C2  UNL     1      24.607  -6.244  11.442  1.00  0.00     0.024 C 
HETATM   11  C3  UNL     1      25.412  -7.533  11.426  1.00  0.00     0.007 C 
HETATM   12  C4  UNL     1      24.410  -8.601  11.003  1.00  0.00     0.001 C 
HETATM   13  C5  UNL     1      23.143  -8.067  11.685  1.00  0.00     0.014 C 
BRANCH  10  14
HETATM   14  C1  UNL     1      25.165  -5.335  10.365  1.00  0.00     0.235 C 
BRANCH  14  15
HETATM   15  N1  UNL     1      24.986  -3.941  10.708  1.00  0.00    -0.079 N 
ATOM     16  H13 UNL     1      25.078  -3.340   9.889  1.00  0.00     0.274 HD
ATOM     17  H12 UNL     1      24.016  -3.736  10.945  1.00  0.00     0.274 HD
ATOM     18  H11 UNL     1      25.622  -3.658  11.453  1.00  0.00     0.274 HD
ENDBRANCH  14  15
ENDBRANCH  10  14
ENDBRANCH   1   9
BRANCH   7  19
HETATM   19  N4  UNL     1      19.550  -2.785  14.020  1.00  0.00    -0.341 N 
ATOM     20  H42 UNL     1      19.502  -2.751  15.037  1.00  0.00     0.177 HD
ATOM     21  H41 UNL     1      19.034  -2.102  13.465  1.00  0.00     0.177 HD
ENDBRANCH   7  19
TORSDOF 4
ENDMDL
