MODEL 1
REMARK VINA RESULT: -5.818825900      0.000      0.000
REMARK  5 active torsions:
REMARK  status: ('A' for Active; 'I' for Inactive)
REMARK       I    between atoms: N2_7  and  C4_9 
REMARK       I    between atoms: C4_9  and  N4_13 
REMARK    1  A    between atoms: N4_13  and  C5_15 
REMARK    2  A    between atoms: C8_18  and  C9_19 
REMARK    3  A    between atoms: C9_19  and  O3_21 
REMARK    4  A    between atoms: O3_21  and  C10_22 
REMARK    5  A    between atoms: C10_22  and  C11_23 
ROOT
HETATM    1  C1  UNL     1     -23.926  15.983 -21.930  1.00  0.00     0.071 C 
HETATM    2  C2  UNL     1     -23.225  14.675 -21.996  1.00  0.00     0.049 A 
HETATM    3  N1  UNL     1     -23.224  13.773 -23.003  1.00  0.00    -0.263 N 
ATOM      4  H1  UNL     1     -23.725  13.873 -23.886  1.00  0.00     0.194 HD
HETATM    5  O1  UNL     1     -22.486  12.759 -22.668  1.00  0.00    -0.218 OA
HETATM    6  C3  UNL     1     -21.964  12.886 -21.492  1.00  0.00     0.203 A 
HETATM    7  N2  UNL     1     -21.188  12.146 -20.780  1.00  0.00    -0.165 N 
ATOM      8  H2  UNL     1     -20.892  12.452 -19.852  1.00  0.00     0.186 HD
HETATM    9  C4  UNL     1     -20.749  10.901 -21.298  1.00  0.00     0.704 C 
HETATM   10  N3  UNL     1     -20.059  10.854 -22.419  1.00  0.00    -0.054 N 
ATOM     11  H3  UNL     1     -19.755   9.947 -22.774  1.00  0.00     0.218 HD
HETATM   12  F1  UNL     1     -19.746  11.962 -23.108  1.00  0.00    -0.086 F 
HETATM   13  N4  UNL     1     -20.972   9.637 -20.706  1.00  0.00    -0.220 N 
ATOM     14  H4  UNL     1     -20.249   8.918 -20.740  1.00  0.00     0.178 HD
HETATM   15  C8  UNL     1     -22.423  14.119 -21.025  1.00  0.00     0.117 A 
ENDROOT
BRANCH  15  16
HETATM   16  C9  UNL     1     -22.111  14.736 -19.716  1.00  0.00     0.299 C 
HETATM   17  O2  UNL     1     -22.982  14.767 -18.814  1.00  0.00    -0.259 OA
BRANCH  16  18
HETATM   18  O3  UNL     1     -20.906  15.277 -19.444  1.00  0.00    -0.317 OA
BRANCH  18  19
HETATM   19  C10 UNL     1     -20.086  16.219 -19.953  1.00  0.00     0.183 C 
BRANCH  19  20
HETATM   20  C11 UNL     1     -18.650  15.877 -20.047  1.00  0.00     0.002 C 
HETATM   21  C12 UNL     1     -18.482  14.543 -20.842  1.00  0.00     0.011 C 
HETATM   22  C13 UNL     1     -17.718  16.821 -20.720  1.00  0.00     0.011 C 
ENDBRANCH  19  20
ENDBRANCH  18  19
ENDBRANCH  16  18
ENDBRANCH  15  16
BRANCH  13  23
HETATM   23  C5  UNL     1     -22.227   9.372 -20.056  1.00  0.00     0.091 C 
HETATM   24  C6  UNL     1     -21.964   8.411 -18.898  1.00  0.00     0.032 C 
HETATM   25  C7  UNL     1     -23.174   8.760 -21.045  1.00  0.00     0.032 C 
ENDBRANCH  13  23
TORSDOF 5
ENDMDL
MODEL 2
REMARK VINA RESULT: -5.521684741      1.243      1.508
REMARK  5 active torsions:
REMARK  status: ('A' for Active; 'I' for Inactive)
REMARK       I    between atoms: N2_7  and  C4_9 
REMARK       I    between atoms: C4_9  and  N4_13 
REMARK    1  A    between atoms: N4_13  and  C5_15 
REMARK    2  A    between atoms: C8_18  and  C9_19 
REMARK    3  A    between atoms: C9_19  and  O3_21 
REMARK    4  A    between atoms: O3_21  and  C10_22 
REMARK    5  A    between atoms: C10_22  and  C11_23 
ROOT
HETATM    1  C1  UNL     1     -23.700  14.860 -23.120  1.00  0.00     0.071 C 
HETATM    2  C2  UNL     1     -23.172  13.517 -22.768  1.00  0.00     0.049 A 
HETATM    3  N1  UNL     1     -23.365  12.343 -23.411  1.00  0.00    -0.263 N 
ATOM      4  H1  UNL     1     -23.921  12.219 -24.256  1.00  0.00     0.194 HD
HETATM    5  O1  UNL     1     -22.730  11.402 -22.782  1.00  0.00    -0.218 OA
HETATM    6  C3  UNL     1     -22.101  11.833 -21.738  1.00  0.00     0.203 A 
HETATM    7  N2  UNL     1     -21.365  11.265 -20.847  1.00  0.00    -0.165 N 
ATOM      8  H2  UNL     1     -20.958  11.813 -20.088  1.00  0.00     0.186 HD
HETATM    9  C4  UNL     1     -21.125   9.870 -20.932  1.00  0.00     0.704 C 
HETATM   10  N3  UNL     1     -20.542   9.359 -21.996  1.00  0.00    -0.054 N 
ATOM     11  H3  UNL     1     -20.381   8.352 -22.036  1.00  0.00     0.218 HD
HETATM   12  F1  UNL     1     -20.154  10.122 -23.029  1.00  0.00    -0.086 F 
HETATM   13  N4  UNL     1     -21.452   8.916 -19.941  1.00  0.00    -0.220 N 
ATOM     14  H4  UNL     1     -20.827   8.131 -19.757  1.00  0.00     0.178 HD
HETATM   15  C8  UNL     1     -22.366  13.202 -21.697  1.00  0.00     0.117 A 
ENDROOT
BRANCH  15  16
HETATM   16  C9  UNL     1     -21.874  14.164 -20.684  1.00  0.00     0.299 C 
HETATM   17  O2  UNL     1     -22.543  14.378 -19.644  1.00  0.00    -0.259 OA
BRANCH  16  18
HETATM   18  O3  UNL     1     -20.714  14.835 -20.833  1.00  0.00    -0.317 OA
BRANCH  18  19
HETATM   19  C10 UNL     1     -19.551  14.996 -20.170  1.00  0.00     0.183 C 
BRANCH  19  20
HETATM   20  C11 UNL     1     -19.164  16.382 -19.826  1.00  0.00     0.002 C 
HETATM   21  C12 UNL     1     -17.829  16.748 -20.551  1.00  0.00     0.011 C 
HETATM   22  C13 UNL     1     -20.081  17.502 -20.170  1.00  0.00     0.011 C 
ENDBRANCH  19  20
ENDBRANCH  18  19
ENDBRANCH  16  18
ENDBRANCH  15  16
BRANCH  13  23
HETATM   23  C5  UNL     1     -22.672   9.061 -19.193  1.00  0.00     0.091 C 
HETATM   24  C6  UNL     1     -22.306   9.491 -17.774  1.00  0.00     0.032 C 
HETATM   25  C7  UNL     1     -23.397   7.749 -19.177  1.00  0.00     0.032 C 
ENDBRANCH  13  23
TORSDOF 5
ENDMDL
MODEL 3
REMARK VINA RESULT: -5.308619769      8.771     10.829
REMARK  5 active torsions:
REMARK  status: ('A' for Active; 'I' for Inactive)
REMARK       I    between atoms: N2_7  and  C4_9 
REMARK       I    between atoms: C4_9  and  N4_13 
REMARK    1  A    between atoms: N4_13  and  C5_15 
REMARK    2  A    between atoms: C8_18  and  C9_19 
REMARK    3  A    between atoms: C9_19  and  O3_21 
REMARK    4  A    between atoms: O3_21  and  C10_22 
REMARK    5  A    between atoms: C10_22  and  C11_23 
ROOT
HETATM    1  C1  UNL     1     -20.320  13.793  -9.745  1.00  0.00     0.071 C 
HETATM    2  C2  UNL     1     -19.674  14.892 -10.508  1.00  0.00     0.049 A 
HETATM    3  N1  UNL     1     -19.363  16.137 -10.086  1.00  0.00    -0.263 N 
ATOM      4  H1  UNL     1     -19.536  16.504  -9.151  1.00  0.00     0.194 HD
HETATM    5  O1  UNL     1     -18.808  16.792 -11.060  1.00  0.00    -0.218 OA
HETATM    6  C3  UNL     1     -18.707  16.091 -12.141  1.00  0.00     0.203 A 
HETATM    7  N2  UNL     1     -18.235  16.331 -13.315  1.00  0.00    -0.165 N 
ATOM      8  H2  UNL     1     -18.258  15.611 -14.038  1.00  0.00     0.186 HD
HETATM    9  C4  UNL     1     -17.683  17.608 -13.593  1.00  0.00     0.704 C 
HETATM   10  N3  UNL     1     -16.660  18.056 -12.895  1.00  0.00    -0.054 N 
ATOM     11  H3  UNL     1     -16.280  18.978 -13.111  1.00  0.00     0.218 HD
HETATM   12  F1  UNL     1     -16.103  17.337 -11.910  1.00  0.00    -0.086 F 
HETATM   13  N4  UNL     1     -18.128  18.497 -14.598  1.00  0.00    -0.220 N 
ATOM     14  H4  UNL     1     -17.456  19.056 -15.125  1.00  0.00     0.178 HD
HETATM   15  C8  UNL     1     -19.260  14.851 -11.821  1.00  0.00     0.117 A 
ENDROOT
BRANCH  15  16
HETATM   16  C9  UNL     1     -19.387  13.684 -12.722  1.00  0.00     0.299 C 
HETATM   17  O2  UNL     1     -20.429  13.528 -13.404  1.00  0.00    -0.259 OA
BRANCH  16  18
HETATM   18  O3  UNL     1     -18.412  12.761 -12.847  1.00  0.00    -0.317 OA
BRANCH  18  19
HETATM   19  C10 UNL     1     -18.248  11.435 -12.659  1.00  0.00     0.183 C 
BRANCH  19  20
HETATM   20  C11 UNL     1     -17.249  11.022 -11.650  1.00  0.00     0.002 C 
HETATM   21  C12 UNL     1     -15.834  11.530 -12.076  1.00  0.00     0.011 C 
HETATM   22  C13 UNL     1     -17.394  11.490 -10.245  1.00  0.00     0.011 C 
ENDBRANCH  19  20
ENDBRANCH  18  19
ENDBRANCH  16  18
ENDBRANCH  15  16
BRANCH  13  23
HETATM   23  C5  UNL     1     -19.535  18.609 -14.872  1.00  0.00     0.091 C 
HETATM   24  C6  UNL     1     -19.809  17.930 -16.213  1.00  0.00     0.032 C 
HETATM   25  C7  UNL     1     -19.912  20.059 -14.928  1.00  0.00     0.032 C 
ENDBRANCH  13  23
TORSDOF 5
ENDMDL
MODEL 4
REMARK VINA RESULT: -5.190713704      2.953      4.464
REMARK  5 active torsions:
REMARK  status: ('A' for Active; 'I' for Inactive)
REMARK       I    between atoms: N2_7  and  C4_9 
REMARK       I    between atoms: C4_9  and  N4_13 
REMARK    1  A    between atoms: N4_13  and  C5_15 
REMARK    2  A    between atoms: C8_18  and  C9_19 
REMARK    3  A    between atoms: C9_19  and  O3_21 
REMARK    4  A    between atoms: O3_21  and  C10_22 
REMARK    5  A    between atoms: C10_22  and  C11_23 
ROOT
HETATM    1  C1  UNL     1     -19.234   9.434 -23.812  1.00  0.00     0.071 C 
HETATM    2  C2  UNL     1     -20.154   9.187 -22.671  1.00  0.00     0.049 A 
HETATM    3  N1  UNL     1     -20.596   8.004 -22.189  1.00  0.00    -0.263 N 
ATOM      4  H1  UNL     1     -20.349   7.087 -22.559  1.00  0.00     0.194 HD
HETATM    5  O1  UNL     1     -21.385   8.221 -21.182  1.00  0.00    -0.218 OA
HETATM    6  C3  UNL     1     -21.529   9.479 -20.919  1.00  0.00     0.203 A 
HETATM    7  N2  UNL     1     -22.198  10.132 -20.034  1.00  0.00    -0.165 N 
ATOM      8  H2  UNL     1     -22.164  11.151 -20.010  1.00  0.00     0.186 HD
HETATM    9  C4  UNL     1     -22.981   9.418 -19.092  1.00  0.00     0.704 C 
HETATM   10  N3  UNL     1     -22.417   8.546 -18.282  1.00  0.00    -0.054 N 
ATOM     11  H3  UNL     1     -23.000   8.043 -17.613  1.00  0.00     0.218 HD
HETATM   12  F1  UNL     1     -21.098   8.300 -18.310  1.00  0.00    -0.086 F 
HETATM   13  N4  UNL     1     -24.377   9.553 -18.909  1.00  0.00    -0.220 N 
ATOM     14  H4  UNL     1     -24.780   9.508 -17.973  1.00  0.00     0.178 HD
HETATM   15  C8  UNL     1     -20.743  10.137 -21.868  1.00  0.00     0.117 A 
ENDROOT
BRANCH  15  16
HETATM   16  C9  UNL     1     -20.565  11.600 -22.000  1.00  0.00     0.299 C 
HETATM   17  O2  UNL     1     -21.438  12.290 -22.579  1.00  0.00    -0.259 OA
BRANCH  16  18
HETATM   18  O3  UNL     1     -19.482  12.240 -21.514  1.00  0.00    -0.317 OA
BRANCH  18  19
HETATM   19  C10 UNL     1     -19.179  13.092 -20.513  1.00  0.00     0.183 C 
BRANCH  19  20
HETATM   20  C11 UNL     1     -19.158  14.534 -20.846  1.00  0.00     0.002 C 
HETATM   21  C12 UNL     1     -20.021  15.323 -19.810  1.00  0.00     0.011 C 
HETATM   22  C13 UNL     1     -17.859  15.259 -20.863  1.00  0.00     0.011 C 
ENDBRANCH  19  20
ENDBRANCH  18  19
ENDBRANCH  16  18
ENDBRANCH  15  16
BRANCH  13  23
HETATM   23  C5  UNL     1     -25.224   9.755 -20.053  1.00  0.00     0.091 C 
HETATM   24  C6  UNL     1     -26.590  10.220 -19.551  1.00  0.00     0.032 C 
HETATM   25  C7  UNL     1     -25.350   8.465 -20.807  1.00  0.00     0.032 C 
ENDBRANCH  13  23
TORSDOF 5
ENDMDL
MODEL 5
REMARK VINA RESULT: -5.185645690      2.373      3.606
REMARK  5 active torsions:
REMARK  status: ('A' for Active; 'I' for Inactive)
REMARK       I    between atoms: N2_7  and  C4_9 
REMARK       I    between atoms: C4_9  and  N4_13 
REMARK    1  A    between atoms: N4_13  and  C5_15 
REMARK    2  A    between atoms: C8_18  and  C9_19 
REMARK    3  A    between atoms: C9_19  and  O3_21 
REMARK    4  A    between atoms: O3_21  and  C10_22 
REMARK    5  A    between atoms: C10_22  and  C11_23 
ROOT
HETATM    1  C1  UNL     1     -18.827  13.919 -21.036  1.00  0.00     0.071 C 
HETATM    2  C2  UNL     1     -19.715  12.733 -21.151  1.00  0.00     0.049 A 
HETATM    3  N1  UNL     1     -19.368  11.438 -21.325  1.00  0.00    -0.263 N 
ATOM      4  H1  UNL     1     -18.413  11.088 -21.405  1.00  0.00     0.194 HD
HETATM    5  O1  UNL     1     -20.442  10.711 -21.376  1.00  0.00    -0.218 OA
HETATM    6  C3  UNL     1     -21.524  11.407 -21.248  1.00  0.00     0.203 A 
HETATM    7  N2  UNL     1     -22.777  11.108 -21.237  1.00  0.00    -0.165 N 
ATOM      8  H2  UNL     1     -23.480  11.838 -21.120  1.00  0.00     0.186 HD
HETATM    9  C4  UNL     1     -23.168   9.754 -21.391  1.00  0.00     0.704 C 
HETATM   10  N3  UNL     1     -22.760   8.842 -20.532  1.00  0.00    -0.054 N 
ATOM     11  H3  UNL     1     -23.052   7.874 -20.663  1.00  0.00     0.218 HD
HETATM   12  F1  UNL     1     -21.973   9.150 -19.490  1.00  0.00    -0.086 F 
HETATM   13  N4  UNL     1     -24.001   9.247 -22.415  1.00  0.00    -0.220 N 
ATOM     14  H4  UNL     1     -24.677   8.511 -22.211  1.00  0.00     0.178 HD
HETATM   15  C8  UNL     1     -21.090  12.725 -21.101  1.00  0.00     0.117 A 
ENDROOT
BRANCH  15  16
HETATM   16  C9  UNL     1     -21.947  13.919 -20.921  1.00  0.00     0.299 C 
HETATM   17  O2  UNL     1     -22.678  14.315 -21.861  1.00  0.00    -0.259 OA
BRANCH  16  18
HETATM   18  O3  UNL     1     -21.979  14.614 -19.766  1.00  0.00    -0.317 OA
BRANCH  18  19
HETATM   19  C10 UNL     1     -21.926  15.900 -19.362  1.00  0.00     0.183 C 
BRANCH  19  20
HETATM   20  C11 UNL     1     -20.704  16.659 -19.705  1.00  0.00     0.002 C 
HETATM   21  C12 UNL     1     -21.095  17.963 -20.470  1.00  0.00     0.011 C 
HETATM   22  C13 UNL     1     -19.809  17.132 -18.614  1.00  0.00     0.011 C 
ENDBRANCH  19  20
ENDBRANCH  18  19
ENDBRANCH  16  18
ENDBRANCH  15  16
BRANCH  13  23
HETATM   23  C5  UNL     1     -23.887   9.777 -23.747  1.00  0.00     0.091 C 
HETATM   24  C6  UNL     1     -25.297  10.066 -24.260  1.00  0.00     0.032 C 
HETATM   25  C7  UNL     1     -23.202   8.770 -24.621  1.00  0.00     0.032 C 
ENDBRANCH  13  23
TORSDOF 5
ENDMDL
