MODEL 1
REMARK VINA RESULT: -6.303244433      0.000      0.000
REMARK  1 active torsions:
REMARK  status: ('A' for Active; 'I' for Inactive)
REMARK       I    between atoms: C1_4  and  N3_6 
REMARK    1  A    between atoms: N3_6  and  N4_8 
ROOT
HETATM    1  N4  UNL     1      76.239  88.085  18.692  1.00  0.00    -0.289 N 
ATOM      2  H4  UNL     1      75.549  88.814  18.510  1.00  0.00     0.187 HD
HETATM    3  C2  UNL     1      77.059  88.230  19.664  1.00  0.00     0.185 A 
HETATM    4  C3  UNL     1      78.082  87.493  20.194  1.00  0.00     0.282 A 
HETATM    5  O1  UNL     1      78.667  86.384  19.983  1.00  0.00    -0.265 OA
HETATM    6  N5  UNL     1      78.262  88.448  21.093  1.00  0.00    -0.286 N 
ATOM      7  H5  UNL     1      78.915  88.565  21.868  1.00  0.00     0.172 HD
HETATM    8  C4  UNL     1      77.249  89.220  20.601  1.00  0.00     0.282 A 
HETATM    9  O2  UNL     1      76.721  90.330  20.871  1.00  0.00    -0.265 OA
ENDROOT
BRANCH   1  10
HETATM   10  N3  UNL     1      76.266  86.959  17.881  1.00  0.00    -0.273 N 
HETATM   11  C1  UNL     1      76.924  86.892  16.636  1.00  0.00     0.200 C 
HETATM   12  N1  UNL     1      76.294  86.762  15.504  1.00  0.00    -0.372 N 
HETATM   13  N2  UNL     1      78.340  86.969  16.586  1.00  0.00    -0.062 NA
ATOM     14  H12 UNL     1      76.769  86.714  14.604  1.00  0.00     0.158 HD
ATOM     15  H11 UNL     1      75.275  86.707  15.540  1.00  0.00     0.158 HD
ATOM     16  H3  UNL     1      75.779  86.124  18.207  1.00  0.00     0.189 HD
ENDBRANCH   1  10
TORSDOF 1
ENDMDL
MODEL 2
REMARK VINA RESULT: -6.228978029      1.346      1.718
REMARK  1 active torsions:
REMARK  status: ('A' for Active; 'I' for Inactive)
REMARK       I    between atoms: C1_4  and  N3_6 
REMARK    1  A    between atoms: N3_6  and  N4_8 
ROOT
HETATM    1  N4  UNL     1      76.698  87.953  17.742  1.00  0.00    -0.289 N 
ATOM      2  H4  UNL     1      75.961  88.444  17.236  1.00  0.00     0.187 HD
HETATM    3  C2  UNL     1      76.803  88.116  19.007  1.00  0.00     0.185 A 
HETATM    4  C3  UNL     1      77.633  87.641  19.985  1.00  0.00     0.282 A 
HETATM    5  O1  UNL     1      78.631  86.861  20.092  1.00  0.00    -0.265 OA
HETATM    6  N5  UNL     1      76.953  88.360  20.865  1.00  0.00    -0.286 N 
ATOM      7  H5  UNL     1      77.037  88.490  21.873  1.00  0.00     0.172 HD
HETATM    8  C4  UNL     1      76.099  88.861  19.926  1.00  0.00     0.282 A 
HETATM    9  O2  UNL     1      75.117  89.645  19.899  1.00  0.00    -0.265 OA
ENDROOT
BRANCH   1  10
HETATM   10  N3  UNL     1      77.562  87.122  17.042  1.00  0.00    -0.273 N 
HETATM   11  C1  UNL     1      77.404  85.725  16.928  1.00  0.00     0.200 C 
HETATM   12  N1  UNL     1      78.226  84.870  17.464  1.00  0.00    -0.372 N 
HETATM   13  N2  UNL     1      76.304  85.202  16.201  1.00  0.00    -0.062 NA
ATOM     14  H12 UNL     1      78.111  83.860  17.382  1.00  0.00     0.158 HD
ATOM     15  H11 UNL     1      79.017  85.246  17.987  1.00  0.00     0.158 HD
ATOM     16  H3  UNL     1      78.365  87.549  16.580  1.00  0.00     0.189 HD
ENDBRANCH   1  10
TORSDOF 1
ENDMDL
MODEL 3
REMARK VINA RESULT: -5.933275261      1.885      2.357
REMARK  1 active torsions:
REMARK  status: ('A' for Active; 'I' for Inactive)
REMARK       I    between atoms: C1_4  and  N3_6 
REMARK    1  A    between atoms: N3_6  and  N4_8 
ROOT
HETATM    1  N4  UNL     1      78.847  88.293  19.779  1.00  0.00    -0.289 N 
ATOM      2  H4  UNL     1      79.412  88.971  20.290  1.00  0.00     0.187 HD
HETATM    3  C2  UNL     1      77.575  88.436  19.747  1.00  0.00     0.185 A 
HETATM    4  C3  UNL     1      76.532  87.754  19.184  1.00  0.00     0.282 A 
HETATM    5  O1  UNL     1      76.344  86.718  18.470  1.00  0.00    -0.265 OA
HETATM    6  N5  UNL     1      75.708  88.651  19.703  1.00  0.00    -0.286 N 
ATOM      7  H5  UNL     1      74.694  88.765  19.679  1.00  0.00     0.172 HD
HETATM    8  C4  UNL     1      76.715  89.366  20.284  1.00  0.00     0.282 A 
HETATM    9  O2  UNL     1      76.821  90.401  20.991  1.00  0.00    -0.265 OA
ENDROOT
BRANCH   1  10
HETATM   10  N3  UNL     1      79.475  87.236  19.133  1.00  0.00    -0.273 N 
HETATM   11  C1  UNL     1      79.367  86.972  17.753  1.00  0.00     0.200 C 
HETATM   12  N1  UNL     1      78.771  85.919  17.274  1.00  0.00    -0.372 N 
HETATM   13  N2  UNL     1      79.927  87.883  16.819  1.00  0.00    -0.062 NA
ATOM     14  H12 UNL     1      78.693  85.728  16.276  1.00  0.00     0.158 HD
ATOM     15  H11 UNL     1      78.368  85.264  17.945  1.00  0.00     0.158 HD
ATOM     16  H3  UNL     1      80.053  86.610  19.695  1.00  0.00     0.189 HD
ENDBRANCH   1  10
TORSDOF 1
ENDMDL
MODEL 4
REMARK VINA RESULT: -5.910939283      2.269      4.204
REMARK  1 active torsions:
REMARK  status: ('A' for Active; 'I' for Inactive)
REMARK       I    between atoms: C1_4  and  N3_6 
REMARK    1  A    between atoms: N3_6  and  N4_8 
ROOT
HETATM    1  N4  UNL     1      77.432  86.801  19.685  1.00  0.00    -0.289 N 
ATOM      2  H4  UNL     1      76.937  85.919  19.816  1.00  0.00     0.187 HD
HETATM    3  C2  UNL     1      78.223  86.933  18.688  1.00  0.00     0.185 A 
HETATM    4  C3  UNL     1      79.026  87.930  18.206  1.00  0.00     0.282 A 
HETATM    5  O1  UNL     1      79.347  89.123  18.504  1.00  0.00    -0.265 OA
HETATM    6  N5  UNL     1      79.383  87.121  17.220  1.00  0.00    -0.286 N 
ATOM      7  H5  UNL     1      80.013  87.225  16.424  1.00  0.00     0.172 HD
HETATM    8  C4  UNL     1      78.596  86.096  17.661  1.00  0.00     0.282 A 
HETATM    9  O2  UNL     1      78.328  84.920  17.303  1.00  0.00    -0.265 OA
ENDROOT
BRANCH   1  10
HETATM   10  N3  UNL     1      77.232  87.831  20.594  1.00  0.00    -0.273 N 
HETATM   11  C1  UNL     1      76.548  89.029  20.301  1.00  0.00     0.200 C 
HETATM   12  N1  UNL     1      77.131  90.191  20.263  1.00  0.00    -0.372 N 
HETATM   13  N2  UNL     1      75.155  88.990  20.029  1.00  0.00    -0.062 NA
ATOM     14  H12 UNL     1      76.636  91.057  20.050  1.00  0.00     0.158 HD
ATOM     15  H11 UNL     1      78.132  90.219  20.458  1.00  0.00     0.158 HD
ATOM     16  H3  UNL     1      77.605  87.715  21.537  1.00  0.00     0.189 HD
ENDBRANCH   1  10
TORSDOF 1
ENDMDL
MODEL 5
REMARK VINA RESULT: -5.908997622      2.281      4.175
REMARK  1 active torsions:
REMARK  status: ('A' for Active; 'I' for Inactive)
REMARK       I    between atoms: C1_4  and  N3_6 
REMARK    1  A    between atoms: N3_6  and  N4_8 
ROOT
HETATM    1  N4  UNL     1      77.692  88.315  18.192  1.00  0.00    -0.289 N 
ATOM      2  H4  UNL     1      77.329  88.841  17.397  1.00  0.00     0.187 HD
HETATM    3  C2  UNL     1      77.847  87.049  18.086  1.00  0.00     0.185 A 
HETATM    4  C3  UNL     1      78.293  86.050  18.907  1.00  0.00     0.282 A 
HETATM    5  O1  UNL     1      78.735  85.915  20.091  1.00  0.00    -0.265 OA
HETATM    6  N5  UNL     1      78.074  85.190  17.924  1.00  0.00    -0.286 N 
ATOM      7  H5  UNL     1      78.197  84.181  17.839  1.00  0.00     0.172 HD
HETATM    8  C4  UNL     1      77.622  86.151  17.068  1.00  0.00     0.282 A 
HETATM    9  O2  UNL     1      77.192  86.205  15.887  1.00  0.00    -0.265 OA
ENDROOT
BRANCH   1  10
HETATM   10  N3  UNL     1      78.006  88.989  19.365  1.00  0.00    -0.273 N 
HETATM   11  C1  UNL     1      77.069  89.329  20.362  1.00  0.00     0.200 C 
HETATM   12  N1  UNL     1      76.737  90.557  20.637  1.00  0.00    -0.372 N 
HETATM   13  N2  UNL     1      76.442  88.301  21.114  1.00  0.00    -0.062 NA
ATOM     14  H12 UNL     1      76.059  90.803  21.358  1.00  0.00     0.158 HD
ATOM     15  H11 UNL     1      77.187  91.296  20.096  1.00  0.00     0.158 HD
ATOM     16  H3  UNL     1      78.979  89.257  19.515  1.00  0.00     0.189 HD
ENDBRANCH   1  10
TORSDOF 1
ENDMDL
