MODEL 1
REMARK VINA RESULT: -6.001527516      0.000      0.000
REMARK  1 active torsions:
REMARK  status: ('A' for Active; 'I' for Inactive)
REMARK       I    between atoms: C1_2  and  N2_4 
REMARK       I    between atoms: C2_6  and  N4_8 
REMARK    1  A    between atoms: N4_8  and  N5_10 
REMARK       I    between atoms: N5_10  and  C3_12 
ROOT
HETATM    1  N1  UNL     1      76.074  84.091  15.454  1.00  0.00    -0.040 NA
HETATM    2  C1  UNL     1      76.972  84.862  16.285  1.00  0.00     0.335 C 
HETATM    3  O1  UNL     1      78.043  84.393  16.691  1.00  0.00    -0.251 OA
HETATM    4  N2  UNL     1      76.574  86.162  16.606  1.00  0.00    -0.284 N 
ATOM      5  H2  UNL     1      75.826  86.600  16.067  1.00  0.00     0.172 HD
HETATM    6  C2  UNL     1      77.125  86.821  17.564  1.00  0.00     0.210 C 
HETATM    7  N3  UNL     1      78.161  86.208  18.313  1.00  0.00    -0.062 NA
HETATM    8  N4  UNL     1      76.688  88.146  17.839  1.00  0.00    -0.268 N 
ATOM      9  H4  UNL     1      76.032  88.608  17.209  1.00  0.00     0.190 HD
ENDROOT
BRANCH   8  10
HETATM   10  N5  UNL     1      77.154  88.808  18.961  1.00  0.00    -0.241 N 
HETATM   11  C3  UNL     1      76.348  89.337  19.995  1.00  0.00     0.303 C 
HETATM   12  O2  UNL     1      75.094  89.278  20.040  1.00  0.00    -0.628 OA
HETATM   13  O3  UNL     1      76.946  89.989  21.084  1.00  0.00    -0.628 OA
ATOM     14  H5  UNL     1      78.164  88.923  19.050  1.00  0.00     0.193 HD
ENDBRANCH   8  10
TORSDOF 1
ENDMDL
MODEL 2
REMARK VINA RESULT: -5.989188395      1.132      1.132
REMARK  1 active torsions:
REMARK  status: ('A' for Active; 'I' for Inactive)
REMARK       I    between atoms: C1_2  and  N2_4 
REMARK       I    between atoms: C2_6  and  N4_8 
REMARK    1  A    between atoms: N4_8  and  N5_10 
REMARK       I    between atoms: N5_10  and  C3_12 
ROOT
HETATM    1  N1  UNL     1      75.768  85.796  14.012  1.00  0.00    -0.040 NA
HETATM    2  C1  UNL     1      76.477  85.804  15.273  1.00  0.00     0.335 C 
HETATM    3  O1  UNL     1      76.966  84.771  15.749  1.00  0.00    -0.251 OA
HETATM    4  N2  UNL     1      76.586  87.033  15.927  1.00  0.00    -0.284 N 
ATOM      5  H2  UNL     1      76.398  87.891  15.407  1.00  0.00     0.172 HD
HETATM    6  C2  UNL     1      76.916  87.112  17.169  1.00  0.00     0.210 C 
HETATM    7  N3  UNL     1      77.173  85.918  17.889  1.00  0.00    -0.062 NA
HETATM    8  N4  UNL     1      77.023  88.391  17.780  1.00  0.00    -0.268 N 
ATOM      9  H4  UNL     1      76.957  89.236  17.212  1.00  0.00     0.190 HD
ENDROOT
BRANCH   8  10
HETATM   10  N5  UNL     1      77.218  88.489  19.146  1.00  0.00    -0.241 N 
HETATM   11  C3  UNL     1      76.244  88.897  20.087  1.00  0.00     0.303 C 
HETATM   12  O2  UNL     1      75.064  89.227  19.812  1.00  0.00    -0.628 OA
HETATM   13  O3  UNL     1      76.570  88.955  21.450  1.00  0.00    -0.628 OA
ATOM     14  H5  UNL     1      78.142  88.246  19.505  1.00  0.00     0.193 HD
ENDBRANCH   8  10
TORSDOF 1
ENDMDL
MODEL 3
REMARK VINA RESULT: -5.688303861      1.364      1.616
REMARK  1 active torsions:
REMARK  status: ('A' for Active; 'I' for Inactive)
REMARK       I    between atoms: C1_2  and  N2_4 
REMARK       I    between atoms: C2_6  and  N4_8 
REMARK    1  A    between atoms: N4_8  and  N5_10 
REMARK       I    between atoms: N5_10  and  C3_12 
ROOT
HETATM    1  N1  UNL     1      78.032  83.706  16.603  1.00  0.00    -0.040 NA
HETATM    2  C1  UNL     1      77.618  85.055  16.920  1.00  0.00     0.335 C 
HETATM    3  O1  UNL     1      77.279  85.854  16.038  1.00  0.00    -0.251 OA
HETATM    4  N2  UNL     1      77.616  85.412  18.271  1.00  0.00    -0.284 N 
ATOM      5  H2  UNL     1      77.657  84.678  18.979  1.00  0.00     0.172 HD
HETATM    6  C2  UNL     1      77.565  86.643  18.645  1.00  0.00     0.210 C 
HETATM    7  N3  UNL     1      77.512  87.659  17.659  1.00  0.00    -0.062 NA
HETATM    8  N4  UNL     1      77.554  86.947  20.033  1.00  0.00    -0.268 N 
ATOM      9  H4  UNL     1      77.466  86.198  20.720  1.00  0.00     0.190 HD
ENDROOT
BRANCH   8  10
HETATM   10  N5  UNL     1      77.662  88.262  20.453  1.00  0.00    -0.241 N 
HETATM   11  C3  UNL     1      76.599  89.192  20.517  1.00  0.00     0.303 C 
HETATM   12  O2  UNL     1      75.406  88.954  20.204  1.00  0.00    -0.628 OA
HETATM   13  O3  UNL     1      76.841  90.500  20.961  1.00  0.00    -0.628 OA
ATOM     14  H5  UNL     1      78.586  88.587  20.739  1.00  0.00     0.193 HD
ENDBRANCH   8  10
TORSDOF 1
ENDMDL
MODEL 4
REMARK VINA RESULT: -5.582684996      1.520      1.634
REMARK  1 active torsions:
REMARK  status: ('A' for Active; 'I' for Inactive)
REMARK       I    between atoms: C1_2  and  N2_4 
REMARK       I    between atoms: C2_6  and  N4_8 
REMARK    1  A    between atoms: N4_8  and  N5_10 
REMARK       I    between atoms: N5_10  and  C3_12 
ROOT
HETATM    1  N1  UNL     1      75.926  84.352  14.460  1.00  0.00    -0.040 NA
HETATM    2  C1  UNL     1      76.178  85.642  15.062  1.00  0.00     0.335 C 
HETATM    3  O1  UNL     1      76.441  86.638  14.375  1.00  0.00    -0.251 OA
HETATM    4  N2  UNL     1      76.110  85.712  16.455  1.00  0.00    -0.284 N 
ATOM      5  H2  UNL     1      75.657  84.955  16.969  1.00  0.00     0.172 HD
HETATM    6  C2  UNL     1      76.603  86.705  17.108  1.00  0.00     0.210 C 
HETATM    7  N3  UNL     1      77.234  87.753  16.392  1.00  0.00    -0.062 NA
HETATM    8  N4  UNL     1      76.493  86.730  18.525  1.00  0.00    -0.268 N 
ATOM      9  H4  UNL     1      75.927  86.031  19.006  1.00  0.00     0.190 HD
ENDROOT
BRANCH   8  10
HETATM   10  N5  UNL     1      77.155  87.704  19.252  1.00  0.00    -0.241 N 
HETATM   11  C3  UNL     1      76.544  88.802  19.900  1.00  0.00     0.303 C 
HETATM   12  O2  UNL     1      75.312  89.046  19.906  1.00  0.00    -0.628 OA
HETATM   13  O3  UNL     1      77.330  89.723  20.607  1.00  0.00    -0.628 OA
ATOM     14  H5  UNL     1      78.170  87.622  19.327  1.00  0.00     0.193 HD
ENDBRANCH   8  10
TORSDOF 1
ENDMDL
MODEL 5
REMARK VINA RESULT: -5.572960874      1.898      5.304
REMARK  1 active torsions:
REMARK  status: ('A' for Active; 'I' for Inactive)
REMARK       I    between atoms: C1_2  and  N2_4 
REMARK       I    between atoms: C2_6  and  N4_8 
REMARK    1  A    between atoms: N4_8  and  N5_10 
REMARK       I    between atoms: N5_10  and  C3_12 
ROOT
HETATM    1  N1  UNL     1      76.852  90.358  20.911  1.00  0.00    -0.040 NA
HETATM    2  C1  UNL     1      76.694  89.009  20.413  1.00  0.00     0.335 C 
HETATM    3  O1  UNL     1      76.639  88.037  21.178  1.00  0.00    -0.251 OA
HETATM    4  N2  UNL     1      76.607  88.855  19.028  1.00  0.00    -0.284 N 
ATOM      5  H2  UNL     1      76.408  89.671  18.449  1.00  0.00     0.172 HD
HETATM    6  C2  UNL     1      76.770  87.710  18.463  1.00  0.00     0.210 C 
HETATM    7  N3  UNL     1      77.049  86.578  19.270  1.00  0.00    -0.062 NA
HETATM    8  N4  UNL     1      76.657  87.609  17.049  1.00  0.00    -0.268 N 
ATOM      9  H4  UNL     1      76.333  88.409  16.505  1.00  0.00     0.190 HD
ENDROOT
BRANCH   8  10
HETATM   10  N5  UNL     1      76.987  86.426  16.413  1.00  0.00    -0.241 N 
HETATM   11  C3  UNL     1      76.347  85.906  15.264  1.00  0.00     0.303 C 
HETATM   12  O2  UNL     1      75.389  86.448  14.660  1.00  0.00    -0.628 OA
HETATM   13  O3  UNL     1      76.778  84.690  14.713  1.00  0.00    -0.628 OA
ATOM     14  H5  UNL     1      77.757  85.882  16.805  1.00  0.00     0.193 HD
ENDBRANCH   8  10
TORSDOF 1
ENDMDL
