MODEL 1
REMARK VINA RESULT: -6.732281313      0.000      0.000
REMARK  0 active torsions:
REMARK  status: ('A' for Active; 'I' for Inactive)
REMARK       I    between atoms: C1_4  and  N3_6 
ROOT
HETATM    1  N1  UNL     1      77.489  89.097  16.930  1.00  0.00    -0.373 N 
ATOM      2  H11 UNL     1      76.891  89.844  17.283  1.00  0.00     0.158 HD
ATOM      3  H12 UNL     1      77.531  88.914  15.927  1.00  0.00     0.158 HD
HETATM    4  C1  UNL     1      78.178  88.397  17.746  1.00  0.00     0.200 C 
HETATM    5  N2  UNL     1      79.004  87.364  17.258  1.00  0.00    -0.063 NA
HETATM    6  N3  UNL     1      78.120  88.651  19.130  1.00  0.00    -0.185 N 
HETATM    7  C2  UNL     1      77.069  89.100  19.861  1.00  0.00     0.351 A 
HETATM    8  O1  UNL     1      75.921  89.384  19.432  1.00  0.00    -0.244 OA
HETATM    9  N4  UNL     1      77.488  89.187  21.140  1.00  0.00    -0.247 N 
ATOM     10  H4  UNL     1      76.912  89.498  21.923  1.00  0.00     0.192 HD
HETATM   11  N5  UNL     1      78.749  88.812  21.232  1.00  0.00    -0.247 N 
ATOM     12  H5  UNL     1      79.311  88.782  22.083  1.00  0.00     0.192 HD
HETATM   13  C3  UNL     1      79.156  88.476  19.996  1.00  0.00     0.351 A 
HETATM   14  O2  UNL     1      80.322  88.073  19.749  1.00  0.00    -0.244 OA
ENDROOT
TORSDOF 0
ENDMDL
MODEL 2
REMARK VINA RESULT: -6.201555572      1.913      2.305
REMARK  0 active torsions:
REMARK  status: ('A' for Active; 'I' for Inactive)
REMARK       I    between atoms: C1_4  and  N3_6 
ROOT
HETATM    1  N1  UNL     1      76.647  86.445  17.947  1.00  0.00    -0.373 N 
ATOM      2  H11 UNL     1      76.053  87.223  18.234  1.00  0.00     0.158 HD
ATOM      3  H12 UNL     1      76.225  85.549  17.706  1.00  0.00     0.158 HD
HETATM    4  C1  UNL     1      77.913  86.602  17.892  1.00  0.00     0.200 C 
HETATM    5  N2  UNL     1      78.734  85.527  17.494  1.00  0.00    -0.063 NA
HETATM    6  N3  UNL     1      78.495  87.840  18.225  1.00  0.00    -0.185 N 
HETATM    7  C2  UNL     1      78.073  88.752  19.136  1.00  0.00     0.351 A 
HETATM    8  O1  UNL     1      77.058  88.664  19.873  1.00  0.00    -0.244 OA
HETATM    9  N4  UNL     1      78.950  89.777  19.103  1.00  0.00    -0.247 N 
ATOM     10  H4  UNL     1      78.891  90.614  19.683  1.00  0.00     0.192 HD
HETATM   11  N5  UNL     1      79.894  89.539  18.213  1.00  0.00    -0.247 N 
ATOM     12  H5  UNL     1      80.680  90.149  17.986  1.00  0.00     0.192 HD
HETATM   13  C3  UNL     1      79.628  88.344  17.659  1.00  0.00     0.351 A 
HETATM   14  O2  UNL     1      80.351  87.830  16.766  1.00  0.00    -0.244 OA
ENDROOT
TORSDOF 0
ENDMDL
MODEL 3
REMARK VINA RESULT: -5.929302951      2.243      3.063
REMARK  0 active torsions:
REMARK  status: ('A' for Active; 'I' for Inactive)
REMARK       I    between atoms: C1_4  and  N3_6 
ROOT
HETATM    1  N1  UNL     1      78.434  84.993  18.123  1.00  0.00    -0.373 N 
ATOM      2  H11 UNL     1      78.542  85.170  17.124  1.00  0.00     0.158 HD
ATOM      3  H12 UNL     1      78.279  84.042  18.455  1.00  0.00     0.158 HD
HETATM    4  C1  UNL     1      78.494  85.966  18.948  1.00  0.00     0.200 C 
HETATM    5  N2  UNL     1      78.345  85.723  20.328  1.00  0.00    -0.063 NA
HETATM    6  N3  UNL     1      78.708  87.280  18.489  1.00  0.00    -0.185 N 
HETATM    7  C2  UNL     1      78.306  87.841  17.321  1.00  0.00     0.351 A 
HETATM    8  O1  UNL     1      77.652  87.282  16.405  1.00  0.00    -0.244 OA
HETATM    9  N4  UNL     1      78.743  89.118  17.326  1.00  0.00    -0.247 N 
ATOM     10  H4  UNL     1      78.589  89.790  16.575  1.00  0.00     0.192 HD
HETATM   11  N5  UNL     1      79.396  89.370  18.444  1.00  0.00    -0.247 N 
ATOM     12  H5  UNL     1      79.829  90.256  18.705  1.00  0.00     0.192 HD
HETATM   13  C3  UNL     1      79.385  88.242  19.176  1.00  0.00     0.351 A 
HETATM   14  O2  UNL     1      79.930  88.159  20.307  1.00  0.00    -0.244 OA
ENDROOT
TORSDOF 0
ENDMDL
MODEL 4
REMARK VINA RESULT: -5.914428594      2.240      3.402
REMARK  0 active torsions:
REMARK  status: ('A' for Active; 'I' for Inactive)
REMARK       I    between atoms: C1_4  and  N3_6 
ROOT
HETATM    1  N1  UNL     1      78.259  85.797  20.317  1.00  0.00    -0.373 N 
ATOM      2  H11 UNL     1      78.280  86.568  20.984  1.00  0.00     0.158 HD
ATOM      3  H12 UNL     1      78.071  84.849  20.644  1.00  0.00     0.158 HD
HETATM    4  C1  UNL     1      78.470  86.024  19.078  1.00  0.00     0.200 C 
HETATM    5  N2  UNL     1      78.440  84.958  18.156  1.00  0.00    -0.063 NA
HETATM    6  N3  UNL     1      78.730  87.333  18.626  1.00  0.00    -0.185 N 
HETATM    7  C2  UNL     1      79.368  88.337  19.276  1.00  0.00     0.351 A 
HETATM    8  O1  UNL     1      79.861  88.291  20.432  1.00  0.00    -0.244 OA
HETATM    9  N4  UNL     1      79.377  89.401  18.446  1.00  0.00    -0.247 N 
ATOM     10  H4  UNL     1      79.791  90.307  18.663  1.00  0.00     0.192 HD
HETATM   11  N5  UNL     1      78.772  89.098  17.313  1.00  0.00    -0.247 N 
ATOM     12  H5  UNL     1      78.638  89.718  16.514  1.00  0.00     0.192 HD
HETATM   13  C3  UNL     1      78.365  87.821  17.408  1.00  0.00     0.351 A 
HETATM   14  O2  UNL     1      77.750  87.231  16.482  1.00  0.00    -0.244 OA
ENDROOT
TORSDOF 0
ENDMDL
MODEL 5
REMARK VINA RESULT: -5.818829193      2.245      2.886
REMARK  0 active torsions:
REMARK  status: ('A' for Active; 'I' for Inactive)
REMARK       I    between atoms: C1_4  and  N3_6 
ROOT
HETATM    1  N1  UNL     1      79.793  89.444  17.999  1.00  0.00    -0.373 N 
ATOM      2  H11 UNL     1      80.326  89.416  18.868  1.00  0.00     0.158 HD
ATOM      3  H12 UNL     1      79.915  90.225  17.355  1.00  0.00     0.158 HD
HETATM    4  C1  UNL     1      78.977  88.500  17.725  1.00  0.00     0.200 C 
HETATM    5  N2  UNL     1      78.241  88.538  16.524  1.00  0.00    -0.063 NA
HETATM    6  N3  UNL     1      78.809  87.421  18.614  1.00  0.00    -0.185 N 
HETATM    7  C2  UNL     1      78.894  87.423  19.968  1.00  0.00     0.351 A 
HETATM    8  O1  UNL     1      79.146  88.411  20.704  1.00  0.00    -0.244 OA
HETATM    9  N4  UNL     1      78.657  86.160  20.380  1.00  0.00    -0.247 N 
ATOM     10  H4  UNL     1      78.654  85.855  21.353  1.00  0.00     0.192 HD
HETATM   11  N5  UNL     1      78.430  85.379  19.342  1.00  0.00    -0.247 N 
ATOM     12  H5  UNL     1      78.224  84.380  19.369  1.00  0.00     0.192 HD
HETATM   13  C3  UNL     1      78.521  86.143  18.240  1.00  0.00     0.351 A 
HETATM   14  O2  UNL     1      78.353  85.688  17.079  1.00  0.00    -0.244 OA
ENDROOT
TORSDOF 0
ENDMDL
