MODEL 1
REMARK VINA RESULT: -5.354094296      0.000      0.000
REMARK  2 active torsions:
REMARK  status: ('A' for Active; 'I' for Inactive)
REMARK    1  A    between atoms: C2_5  and  N3_6 
REMARK    2  A    between atoms: N3_6  and  N4_8 
ROOT
HETATM    1  C1  UNL     1      77.553  87.629  16.620  1.00  0.00     0.183 C 
HETATM    2  N1  UNL     1      78.346  87.977  17.769  1.00  0.00    -0.232 N 
HETATM    3  N2  UNL     1      77.874  88.271  18.947  1.00  0.00    -0.125 N 
ATOM      4  H2  UNL     1      76.880  88.286  19.177  1.00  0.00     0.206 HD
HETATM    5  C2  UNL     1      78.856  88.556  19.827  1.00  0.00     0.715 A 
HETATM    6  N5  UNL     1      79.997  88.422  19.130  1.00  0.00    -0.137 N 
ATOM      7  H5  UNL     1      80.938  88.566  19.495  1.00  0.00     0.189 HD
HETATM    8  C3  UNL     1      79.688  88.067  17.871  1.00  0.00     0.355 A 
HETATM    9  O1  UNL     1      80.481  87.843  16.900  1.00  0.00    -0.244 OA
ENDROOT
BRANCH   5  10
HETATM   10  N3  UNL     1      78.715  88.890  21.086  1.00  0.00    -0.137 N 
ATOM     11  H3  UNL     1      79.520  88.919  21.713  1.00  0.00     0.205 HD
BRANCH  10  12
HETATM   12  N4  UNL     1      77.447  89.200  21.545  1.00  0.00    -0.331 N 
ATOM     13  H42 UNL     1      76.665  89.240  20.891  1.00  0.00     0.177 HD
ATOM     14  H41 UNL     1      77.324  89.384  22.541  1.00  0.00     0.177 HD
ENDBRANCH  10  12
ENDBRANCH   5  10
TORSDOF 2
ENDMDL
MODEL 2
REMARK VINA RESULT: -5.309770589      1.187      1.187
REMARK  2 active torsions:
REMARK  status: ('A' for Active; 'I' for Inactive)
REMARK    1  A    between atoms: C2_5  and  N3_6 
REMARK    2  A    between atoms: N3_6  and  N4_8 
ROOT
HETATM    1  C1  UNL     1      78.391  86.207  17.626  1.00  0.00     0.183 C 
HETATM    2  N1  UNL     1      78.627  87.491  18.230  1.00  0.00    -0.232 N 
HETATM    3  N2  UNL     1      78.111  87.900  19.354  1.00  0.00    -0.125 N 
ATOM      4  H2  UNL     1      77.478  87.343  19.928  1.00  0.00     0.206 HD
HETATM    5  C2  UNL     1      78.513  89.150  19.668  1.00  0.00     0.715 A 
HETATM    6  N5  UNL     1      79.328  89.515  18.664  1.00  0.00    -0.137 N 
ATOM      7  H5  UNL     1      79.810  90.410  18.585  1.00  0.00     0.189 HD
HETATM    8  C3  UNL     1      79.400  88.502  17.783  1.00  0.00     0.355 A 
HETATM    9  O1  UNL     1      80.063  88.450  16.698  1.00  0.00    -0.244 OA
ENDROOT
BRANCH   5  10
HETATM   10  N3  UNL     1      78.176  89.844  20.726  1.00  0.00    -0.137 N 
ATOM     11  H3  UNL     1      78.637  89.688  21.623  1.00  0.00     0.205 HD
BRANCH  10  12
HETATM   12  N4  UNL     1      77.178  90.795  20.597  1.00  0.00    -0.331 N 
ATOM     13  H42 UNL     1      76.564  90.779  19.784  1.00  0.00     0.177 HD
ATOM     14  H41 UNL     1      77.082  91.498  21.330  1.00  0.00     0.177 HD
ENDBRANCH  10  12
ENDBRANCH   5  10
TORSDOF 2
ENDMDL
MODEL 3
REMARK VINA RESULT: -5.279469679      1.596      1.673
REMARK  2 active torsions:
REMARK  status: ('A' for Active; 'I' for Inactive)
REMARK    1  A    between atoms: C2_5  and  N3_6 
REMARK    2  A    between atoms: N3_6  and  N4_8 
ROOT
HETATM    1  C1  UNL     1      77.409  86.087  16.895  1.00  0.00     0.183 C 
HETATM    2  N1  UNL     1      77.594  87.315  17.622  1.00  0.00    -0.232 N 
HETATM    3  N2  UNL     1      76.702  87.879  18.385  1.00  0.00    -0.125 N 
ATOM      4  H2  UNL     1      75.769  87.501  18.548  1.00  0.00     0.206 HD
HETATM    5  C2  UNL     1      77.161  89.023  18.936  1.00  0.00     0.715 A 
HETATM    6  N5  UNL     1      78.414  89.154  18.472  1.00  0.00    -0.137 N 
ATOM      7  H5  UNL     1      79.054  89.917  18.692  1.00  0.00     0.189 HD
HETATM    8  C3  UNL     1      78.683  88.110  17.668  1.00  0.00     0.355 A 
HETATM    9  O1  UNL     1      79.758  87.864  17.032  1.00  0.00    -0.244 OA
ENDROOT
BRANCH   5  10
HETATM   10  N3  UNL     1      76.513  89.822  19.747  1.00  0.00    -0.137 N 
ATOM     11  H3  UNL     1      75.495  89.793  19.808  1.00  0.00     0.205 HD
BRANCH  10  12
HETATM   12  N4  UNL     1      77.244  90.709  20.518  1.00  0.00    -0.331 N 
ATOM     13  H42 UNL     1      77.385  91.666  20.196  1.00  0.00     0.177 HD
ATOM     14  H41 UNL     1      77.630  90.377  21.402  1.00  0.00     0.177 HD
ENDBRANCH  10  12
ENDBRANCH   5  10
TORSDOF 2
ENDMDL
MODEL 4
REMARK VINA RESULT: -5.105884746      1.997      2.398
REMARK  2 active torsions:
REMARK  status: ('A' for Active; 'I' for Inactive)
REMARK    1  A    between atoms: C2_5  and  N3_6 
REMARK    2  A    between atoms: N3_6  and  N4_8 
ROOT
HETATM    1  C1  UNL     1      78.335  85.652  19.063  1.00  0.00     0.183 C 
HETATM    2  N1  UNL     1      77.797  86.962  18.809  1.00  0.00    -0.232 N 
HETATM    3  N2  UNL     1      77.376  87.791  19.720  1.00  0.00    -0.125 N 
ATOM      4  H2  UNL     1      77.385  87.594  20.721  1.00  0.00     0.206 HD
HETATM    5  C2  UNL     1      76.925  88.945  19.183  1.00  0.00     0.715 A 
HETATM    6  N5  UNL     1      77.087  88.797  17.857  1.00  0.00    -0.137 N 
ATOM      7  H5  UNL     1      76.847  89.488  17.147  1.00  0.00     0.189 HD
HETATM    8  C3  UNL     1      77.621  87.585  17.625  1.00  0.00     0.355 A 
HETATM    9  O1  UNL     1      77.927  87.062  16.505  1.00  0.00    -0.244 OA
ENDROOT
BRANCH   5  10
HETATM   10  N3  UNL     1      76.438  89.977  19.825  1.00  0.00    -0.137 N 
ATOM     11  H3  UNL     1      75.442  90.194  19.787  1.00  0.00     0.205 HD
BRANCH  10  12
HETATM   12  N4  UNL     1      77.309  90.765  20.558  1.00  0.00    -0.331 N 
ATOM     13  H42 UNL     1      77.061  91.052  21.504  1.00  0.00     0.177 HD
ATOM     14  H41 UNL     1      78.189  91.045  20.125  1.00  0.00     0.177 HD
ENDBRANCH  10  12
ENDBRANCH   5  10
TORSDOF 2
ENDMDL
MODEL 5
REMARK VINA RESULT: -5.099059344      2.302      2.468
REMARK  2 active torsions:
REMARK  status: ('A' for Active; 'I' for Inactive)
REMARK    1  A    between atoms: C2_5  and  N3_6 
REMARK    2  A    between atoms: N3_6  and  N4_8 
ROOT
HETATM    1  C1  UNL     1      77.519  85.902  17.518  1.00  0.00     0.183 C 
HETATM    2  N1  UNL     1      77.478  86.922  18.531  1.00  0.00    -0.232 N 
HETATM    3  N2  UNL     1      76.861  88.064  18.424  1.00  0.00    -0.125 N 
ATOM      4  H2  UNL     1      76.338  88.355  17.598  1.00  0.00     0.206 HD
HETATM    5  C2  UNL     1      76.998  88.818  19.536  1.00  0.00     0.715 A 
HETATM    6  N5  UNL     1      77.748  88.076  20.368  1.00  0.00    -0.137 N 
ATOM      7  H5  UNL     1      78.044  88.348  21.305  1.00  0.00     0.189 HD
HETATM    8  C3  UNL     1      78.043  86.915  19.756  1.00  0.00     0.355 A 
HETATM    9  O1  UNL     1      78.732  85.943  20.205  1.00  0.00    -0.244 OA
ENDROOT
BRANCH   5  10
HETATM   10  N3  UNL     1      76.502  90.012  19.745  1.00  0.00    -0.137 N 
ATOM     11  H3  UNL     1      75.631  90.302  19.300  1.00  0.00     0.205 HD
BRANCH  10  12
HETATM   12  N4  UNL     1      77.189  90.870  20.586  1.00  0.00    -0.331 N 
ATOM     13  H42 UNL     1      78.170  91.083  20.404  1.00  0.00     0.177 HD
ATOM     14  H41 UNL     1      76.689  91.275  21.377  1.00  0.00     0.177 HD
ENDBRANCH  10  12
ENDBRANCH   5  10
TORSDOF 2
ENDMDL
