MODEL 1
REMARK VINA RESULT: -6.149043280      0.000      0.000
REMARK  1 active torsions:
REMARK  status: ('A' for Active; 'I' for Inactive)
REMARK    1  A    between atoms: C5_11  and  C6_12 
ROOT
HETATM    1  C1  UNL     1      76.554  86.271  18.275  1.00  0.00     0.069 C 
HETATM    2  C2  UNL     1      77.689  87.204  18.474  1.00  0.00     0.030 A 
HETATM    3  N1  UNL     1      78.808  87.043  17.716  1.00  0.00    -0.312 N 
ATOM      4  H1  UNL     1      78.847  86.290  17.028  1.00  0.00     0.170 HD
HETATM    5  C3  UNL     1      79.860  87.860  17.859  1.00  0.00     0.327 A 
HETATM    6  O1  UNL     1      80.881  87.687  17.144  1.00  0.00    -0.247 OA
HETATM    7  N2  UNL     1      79.781  88.847  18.774  1.00  0.00    -0.275 N 
ATOM      8  H2  UNL     1      80.577  89.475  18.890  1.00  0.00     0.173 HD
HETATM    9  C4  UNL     1      78.694  89.033  19.538  1.00  0.00     0.266 A 
HETATM   10  O2  UNL     1      78.653  89.948  20.369  1.00  0.00    -0.267 OA
HETATM   11  C5  UNL     1      77.577  88.197  19.413  1.00  0.00     0.119 A 
ENDROOT
BRANCH  11  12
HETATM   12  C6  UNL     1      76.416  88.428  20.257  1.00  0.00     0.272 C 
HETATM   13  N3  UNL     1      75.362  89.229  19.724  1.00  0.00    -0.057 NA
HETATM   14  O3  UNL     1      76.311  87.958  21.411  1.00  0.00    -0.271 OA
ENDBRANCH  11  12
TORSDOF 1
ENDMDL
MODEL 2
REMARK VINA RESULT: -5.922980031      2.029      4.236
REMARK  1 active torsions:
REMARK  status: ('A' for Active; 'I' for Inactive)
REMARK    1  A    between atoms: C5_11  and  C6_12 
ROOT
HETATM    1  C1  UNL     1      79.609  87.819  20.434  1.00  0.00     0.069 C 
HETATM    2  C2  UNL     1      78.450  88.310  19.651  1.00  0.00     0.030 A 
HETATM    3  N1  UNL     1      77.503  89.056  20.284  1.00  0.00    -0.312 N 
ATOM      4  H1  UNL     1      77.606  89.263  21.277  1.00  0.00     0.170 HD
HETATM    5  C3  UNL     1      76.437  89.522  19.620  1.00  0.00     0.327 A 
HETATM    6  O1  UNL     1      75.578  90.209  20.232  1.00  0.00    -0.247 OA
HETATM    7  N2  UNL     1      76.326  89.234  18.308  1.00  0.00    -0.275 N 
ATOM      8  H2  UNL     1      75.518  89.585  17.793  1.00  0.00     0.173 HD
HETATM    9  C4  UNL     1      77.240  88.502  17.654  1.00  0.00     0.266 A 
HETATM   10  O2  UNL     1      77.110  88.254  16.449  1.00  0.00    -0.267 OA
HETATM   11  C5  UNL     1      78.367  87.999  18.318  1.00  0.00     0.119 A 
ENDROOT
BRANCH  11  12
HETATM   12  C6  UNL     1      79.338  87.209  17.578  1.00  0.00     0.272 C 
HETATM   13  N3  UNL     1      80.507  87.876  17.104  1.00  0.00    -0.057 NA
HETATM   14  O3  UNL     1      79.185  85.990  17.347  1.00  0.00    -0.271 OA
ENDBRANCH  11  12
TORSDOF 1
ENDMDL
MODEL 3
REMARK VINA RESULT: -5.411638459      1.853      3.857
REMARK  1 active torsions:
REMARK  status: ('A' for Active; 'I' for Inactive)
REMARK    1  A    between atoms: C5_11  and  C6_12 
ROOT
HETATM    1  C1  UNL     1      77.067  88.215  16.316  1.00  0.00     0.069 C 
HETATM    2  C2  UNL     1      77.260  88.488  17.760  1.00  0.00     0.030 A 
HETATM    3  N1  UNL     1      76.328  89.235  18.415  1.00  0.00    -0.312 N 
ATOM      4  H1  UNL     1      75.519  89.590  17.905  1.00  0.00     0.170 HD
HETATM    5  C3  UNL     1      76.458  89.508  19.720  1.00  0.00     0.327 A 
HETATM    6  O1  UNL     1      75.580  90.201  20.298  1.00  0.00    -0.247 OA
HETATM    7  N2  UNL     1      77.536  89.025  20.369  1.00  0.00    -0.275 N 
ATOM      8  H2  UNL     1      77.644  89.228  21.363  1.00  0.00     0.173 HD
HETATM    9  C4  UNL     1      78.473  88.287  19.755  1.00  0.00     0.266 A 
HETATM   10  O2  UNL     1      79.451  87.858  20.378  1.00  0.00    -0.267 OA
HETATM   11  C5  UNL     1      78.368  87.982  18.392  1.00  0.00     0.119 A 
ENDROOT
BRANCH  11  12
HETATM   12  C6  UNL     1      79.401  87.180  17.758  1.00  0.00     0.272 C 
HETATM   13  N3  UNL     1      80.641  87.819  17.457  1.00  0.00    -0.057 NA
HETATM   14  O3  UNL     1      79.243  85.973  17.473  1.00  0.00    -0.271 OA
ENDBRANCH  11  12
TORSDOF 1
ENDMDL
MODEL 4
REMARK VINA RESULT: -5.214277267      1.937      2.704
REMARK  1 active torsions:
REMARK  status: ('A' for Active; 'I' for Inactive)
REMARK    1  A    between atoms: C5_11  and  C6_12 
ROOT
HETATM    1  C1  UNL     1      79.841  88.089  20.123  1.00  0.00     0.069 C 
HETATM    2  C2  UNL     1      78.621  87.791  19.334  1.00  0.00     0.030 A 
HETATM    3  N1  UNL     1      78.717  86.935  18.280  1.00  0.00    -0.312 N 
ATOM      4  H1  UNL     1      79.619  86.516  18.052  1.00  0.00     0.170 HD
HETATM    5  C3  UNL     1      77.644  86.635  17.537  1.00  0.00     0.327 A 
HETATM    6  O1  UNL     1      77.764  85.841  16.568  1.00  0.00    -0.247 OA
HETATM    7  N2  UNL     1      76.465  87.203  17.860  1.00  0.00    -0.275 N 
ATOM      8  H2  UNL     1      75.641  86.980  17.301  1.00  0.00     0.173 HD
HETATM    9  C4  UNL     1      76.335  88.050  18.892  1.00  0.00     0.266 A 
HETATM   10  O2  UNL     1      75.239  88.556  19.163  1.00  0.00    -0.267 OA
HETATM   11  C5  UNL     1      77.437  88.385  19.689  1.00  0.00     0.119 A 
ENDROOT
BRANCH  11  12
HETATM   12  C6  UNL     1      77.260  89.307  20.800  1.00  0.00     0.272 C 
HETATM   13  N3  UNL     1      77.644  90.666  20.597  1.00  0.00    -0.057 NA
HETATM   14  O3  UNL     1      76.793  88.956  21.905  1.00  0.00    -0.271 OA
ENDBRANCH  11  12
TORSDOF 1
ENDMDL
MODEL 5
REMARK VINA RESULT: -5.182013899      1.745      3.941
REMARK  1 active torsions:
REMARK  status: ('A' for Active; 'I' for Inactive)
REMARK    1  A    between atoms: C5_11  and  C6_12 
ROOT
HETATM    1  C1  UNL     1      80.194  88.603  18.084  1.00  0.00     0.069 C 
HETATM    2  C2  UNL     1      78.872  88.650  18.754  1.00  0.00     0.030 A 
HETATM    3  N1  UNL     1      78.665  89.578  19.729  1.00  0.00    -0.312 N 
ATOM      4  H1  UNL     1      79.417  90.221  19.979  1.00  0.00     0.170 HD
HETATM    5  C3  UNL     1      77.489  89.660  20.363  1.00  0.00     0.327 A 
HETATM    6  O1  UNL     1      77.328  90.528  21.260  1.00  0.00    -0.247 OA
HETATM    7  N2  UNL     1      76.513  88.798  20.012  1.00  0.00    -0.275 N 
ATOM      8  H2  UNL     1      75.613  88.853  20.489  1.00  0.00     0.173 HD
HETATM    9  C4  UNL     1      76.683  87.872  19.057  1.00  0.00     0.266 A 
HETATM   10  O2  UNL     1      75.768  87.095  18.757  1.00  0.00    -0.267 OA
HETATM   11  C5  UNL     1      77.900  87.760  18.374  1.00  0.00     0.119 A 
ENDROOT
BRANCH  11  12
HETATM   12  C6  UNL     1      78.050  86.744  17.344  1.00  0.00     0.272 C 
HETATM   13  N3  UNL     1      77.492  87.019  16.059  1.00  0.00    -0.057 NA
HETATM   14  O3  UNL     1      78.638  85.659  17.542  1.00  0.00    -0.271 OA
ENDBRANCH  11  12
TORSDOF 1
ENDMDL
