MODEL 1
REMARK VINA RESULT: -6.085078222      0.000      0.000
REMARK  1 active torsions:
REMARK  status: ('A' for Active; 'I' for Inactive)
REMARK       I    between atoms: C1_2  and  N2_4 
REMARK       I    between atoms: N2_4  and  C2_6 
REMARK       I    between atoms: C2_6  and  N3_8 
REMARK    1  A    between atoms: N3_8  and  C3_10 
ROOT
HETATM    1  N1  UNL     1      75.527  87.177  14.052  1.00  0.00    -0.040 NA
HETATM    2  C1  UNL     1      76.482  86.850  15.039  1.00  0.00     0.336 C 
HETATM    3  O1  UNL     1      76.938  85.688  15.083  1.00  0.00    -0.251 OA
HETATM    4  N2  UNL     1      76.885  87.888  15.954  1.00  0.00    -0.263 N 
ATOM      5  H2  UNL     1      76.476  88.819  15.867  1.00  0.00     0.174 HD
HETATM    6  C2  UNL     1      77.840  87.639  16.973  1.00  0.00     0.342 C 
HETATM    7  O2  UNL     1      78.326  86.478  17.054  1.00  0.00    -0.246 OA
HETATM    8  N3  UNL     1      78.206  88.674  17.845  1.00  0.00    -0.140 N 
ATOM      9  H3  UNL     1      78.876  89.359  17.496  1.00  0.00     0.189 HD
ENDROOT
BRANCH   8  10
HETATM   10  C3  UNL     1      77.779  88.834  19.032  1.00  0.00     0.701 A 
HETATM   11  N4  UNL     1      76.744  88.129  19.549  1.00  0.00    -0.185 N 
HETATM   12  C4  UNL     1      76.531  88.521  20.813  1.00  0.00     0.215 A 
ATOM     13  H4  UNL     1      76.212  87.412  19.054  1.00  0.00     0.185 HD
HETATM   14  N5  UNL     1      77.428  89.472  21.100  1.00  0.00    -0.281 N 
HETATM   15  N6  UNL     1      78.175  89.654  20.022  1.00  0.00    -0.131 N 
ATOM     16  H5  UNL     1      77.519  89.967  21.987  1.00  0.00     0.188 HD
ATOM     17  H6  UNL     1      78.943  90.322  19.952  1.00  0.00     0.205 HD
ENDBRANCH   8  10
TORSDOF 1
ENDMDL
MODEL 2
REMARK VINA RESULT: -5.971798346      2.248      2.441
REMARK  1 active torsions:
REMARK  status: ('A' for Active; 'I' for Inactive)
REMARK       I    between atoms: C1_2  and  N2_4 
REMARK       I    between atoms: N2_4  and  C2_6 
REMARK       I    between atoms: C2_6  and  N3_8 
REMARK    1  A    between atoms: N3_8  and  C3_10 
ROOT
HETATM    1  N1  UNL     1      77.088  83.167  17.514  1.00  0.00    -0.040 NA
HETATM    2  C1  UNL     1      77.471  84.490  17.206  1.00  0.00     0.336 C 
HETATM    3  O1  UNL     1      78.364  84.682  16.354  1.00  0.00    -0.251 OA
HETATM    4  N2  UNL     1      76.802  85.561  17.900  1.00  0.00    -0.263 N 
ATOM      5  H2  UNL     1      76.080  85.340  18.586  1.00  0.00     0.174 HD
HETATM    6  C2  UNL     1      77.130  86.918  17.647  1.00  0.00     0.342 C 
HETATM    7  O2  UNL     1      78.027  87.158  16.793  1.00  0.00    -0.246 OA
HETATM    8  N3  UNL     1      76.458  87.933  18.342  1.00  0.00    -0.140 N 
ATOM      9  H3  UNL     1      75.525  88.180  18.015  1.00  0.00     0.189 HD
ENDROOT
BRANCH   8  10
HETATM   10  C3  UNL     1      76.908  88.574  19.345  1.00  0.00     0.701 A 
HETATM   11  N4  UNL     1      76.538  89.843  19.641  1.00  0.00    -0.185 N 
HETATM   12  C4  UNL     1      77.179  90.242  20.749  1.00  0.00     0.215 A 
ATOM     13  H4  UNL     1      75.875  90.405  19.106  1.00  0.00     0.185 HD
HETATM   14  N5  UNL     1      77.954  89.230  21.156  1.00  0.00    -0.281 N 
HETATM   15  N6  UNL     1      77.784  88.230  20.306  1.00  0.00    -0.131 N 
ATOM     16  H5  UNL     1      78.564  89.229  21.973  1.00  0.00     0.188 HD
ATOM     17  H6  UNL     1      78.252  87.326  20.369  1.00  0.00     0.205 HD
ENDBRANCH   8  10
TORSDOF 1
ENDMDL
MODEL 3
REMARK VINA RESULT: -5.826881169      2.539      2.769
REMARK  1 active torsions:
REMARK  status: ('A' for Active; 'I' for Inactive)
REMARK       I    between atoms: C1_2  and  N2_4 
REMARK       I    between atoms: N2_4  and  C2_6 
REMARK       I    between atoms: C2_6  and  N3_8 
REMARK    1  A    between atoms: N3_8  and  C3_10 
ROOT
HETATM    1  N1  UNL     1      76.265  82.902  18.088  1.00  0.00    -0.040 NA
HETATM    2  C1  UNL     1      77.148  83.976  17.846  1.00  0.00     0.336 C 
HETATM    3  O1  UNL     1      78.355  83.734  17.625  1.00  0.00    -0.251 OA
HETATM    4  N2  UNL     1      76.605  85.310  17.866  1.00  0.00    -0.263 N 
ATOM      5  H2  UNL     1      75.611  85.444  18.053  1.00  0.00     0.174 HD
HETATM    6  C2  UNL     1      77.428  86.443  17.632  1.00  0.00     0.342 C 
HETATM    7  O2  UNL     1      78.653  86.243  17.406  1.00  0.00    -0.246 OA
HETATM    8  N3  UNL     1      76.864  87.725  17.661  1.00  0.00    -0.140 N 
ATOM      9  H3  UNL     1      76.352  88.025  16.832  1.00  0.00     0.189 HD
ENDROOT
BRANCH   8  10
HETATM   10  C3  UNL     1      76.933  88.548  18.629  1.00  0.00     0.701 A 
HETATM   11  N4  UNL     1      77.947  88.551  19.528  1.00  0.00    -0.185 N 
HETATM   12  C4  UNL     1      77.740  89.528  20.422  1.00  0.00     0.215 A 
ATOM     13  H4  UNL     1      78.741  87.911  19.525  1.00  0.00     0.185 HD
HETATM   14  N5  UNL     1      76.600  90.146  20.092  1.00  0.00    -0.281 N 
HETATM   15  N6  UNL     1      76.121  89.550  19.011  1.00  0.00    -0.131 N 
ATOM     16  H5  UNL     1      76.176  90.933  20.583  1.00  0.00     0.188 HD
ATOM     17  H6  UNL     1      75.258  89.812  18.535  1.00  0.00     0.205 HD
ENDBRANCH   8  10
TORSDOF 1
ENDMDL
MODEL 4
REMARK VINA RESULT: -5.790648849      1.083      1.296
REMARK  1 active torsions:
REMARK  status: ('A' for Active; 'I' for Inactive)
REMARK       I    between atoms: C1_2  and  N2_4 
REMARK       I    between atoms: N2_4  and  C2_6 
REMARK       I    between atoms: C2_6  and  N3_8 
REMARK    1  A    between atoms: N3_8  and  C3_10 
ROOT
HETATM    1  N1  UNL     1      75.154  87.140  13.331  1.00  0.00    -0.040 NA
HETATM    2  C1  UNL     1      75.920  86.711  14.437  1.00  0.00     0.336 C 
HETATM    3  O1  UNL     1      76.017  85.487  14.671  1.00  0.00    -0.251 OA
HETATM    4  N2  UNL     1      76.556  87.720  15.245  1.00  0.00    -0.263 N 
ATOM      5  H2  UNL     1      76.439  88.704  15.002  1.00  0.00     0.174 HD
HETATM    6  C2  UNL     1      77.342  87.370  16.373  1.00  0.00     0.342 C 
HETATM    7  O2  UNL     1      77.467  86.144  16.647  1.00  0.00    -0.246 OA
HETATM    8  N3  UNL     1      77.945  88.379  17.136  1.00  0.00    -0.140 N 
ATOM      9  H3  UNL     1      78.802  88.790  16.766  1.00  0.00     0.189 HD
ENDROOT
BRANCH   8  10
HETATM   10  C3  UNL     1      77.520  88.828  18.248  1.00  0.00     0.701 A 
HETATM   11  N4  UNL     1      78.326  89.055  19.313  1.00  0.00    -0.185 N 
HETATM   12  C4  UNL     1      77.590  89.523  20.331  1.00  0.00     0.215 A 
ATOM     13  H4  UNL     1      79.334  88.895  19.336  1.00  0.00     0.185 HD
HETATM   14  N5  UNL     1      76.320  89.595  19.914  1.00  0.00    -0.281 N 
HETATM   15  N6  UNL     1      76.287  89.174  18.660  1.00  0.00    -0.131 N 
ATOM     16  H5  UNL     1      75.523  89.914  20.464  1.00  0.00     0.188 HD
ATOM     17  H6  UNL     1      75.446  89.120  18.086  1.00  0.00     0.205 HD
ENDBRANCH   8  10
TORSDOF 1
ENDMDL
MODEL 5
REMARK VINA RESULT: -5.670866628      1.787      5.146
REMARK  1 active torsions:
REMARK  status: ('A' for Active; 'I' for Inactive)
REMARK       I    between atoms: C1_2  and  N2_4 
REMARK       I    between atoms: N2_4  and  C2_6 
REMARK       I    between atoms: C2_6  and  N3_8 
REMARK    1  A    between atoms: N3_8  and  C3_10 
ROOT
HETATM    1  N1  UNL     1      76.692  88.829  21.383  1.00  0.00    -0.040 NA
HETATM    2  C1  UNL     1      77.485  88.698  20.223  1.00  0.00     0.336 C 
HETATM    3  O1  UNL     1      78.486  89.433  20.084  1.00  0.00    -0.251 OA
HETATM    4  N2  UNL     1      77.093  87.711  19.249  1.00  0.00    -0.263 N 
ATOM      5  H2  UNL     1      76.265  87.141  19.420  1.00  0.00     0.174 HD
HETATM    6  C2  UNL     1      77.838  87.519  18.057  1.00  0.00     0.342 C 
HETATM    7  O2  UNL     1      78.856  88.241  17.876  1.00  0.00    -0.246 OA
HETATM    8  N3  UNL     1      77.425  86.550  17.132  1.00  0.00    -0.140 N 
ATOM      9  H3  UNL     1      77.660  85.580  17.341  1.00  0.00     0.189 HD
ENDROOT
BRANCH   8  10
HETATM   10  C3  UNL     1      76.784  86.772  16.056  1.00  0.00     0.701 A 
HETATM   11  N4  UNL     1      76.125  85.805  15.373  1.00  0.00    -0.185 N 
HETATM   12  C4  UNL     1      75.551  86.345  14.289  1.00  0.00     0.215 A 
ATOM     13  H4  UNL     1      76.074  84.822  15.642  1.00  0.00     0.185 HD
HETATM   14  N5  UNL     1      75.842  87.651  14.282  1.00  0.00    -0.281 N 
HETATM   15  N6  UNL     1      76.584  87.899  15.350  1.00  0.00    -0.131 N 
ATOM     16  H5  UNL     1      75.547  88.331  13.583  1.00  0.00     0.188 HD
ATOM     17  H6  UNL     1      76.954  88.816  15.602  1.00  0.00     0.205 HD
ENDBRANCH   8  10
TORSDOF 1
ENDMDL
