MODEL 1
REMARK VINA RESULT: -6.844373830      0.000      0.000
REMARK  4 active torsions:
REMARK  status: ('A' for Active; 'I' for Inactive)
REMARK    1  A    between atoms: C1_2  and  C2_4 
REMARK    2  A    between atoms: C2_4  and  O2_5 
REMARK       I    between atoms: N2_12  and  C8_13 
REMARK    3  A    between atoms: C8_13  and  C9_15 
REMARK    4  A    between atoms: C9_15  and  C10_16 
ROOT
HETATM    1  C2  UNL     1       6.611  -7.736 -54.231  1.00  0.00     0.136 C 
HETATM    2  C3  UNL     1       7.150  -8.943 -53.490  1.00  0.00     0.048 C 
HETATM    3  C4  UNL     1       7.093 -10.023 -54.551  1.00  0.00     0.013 C 
HETATM    4  C5  UNL     1       7.563  -9.301 -55.820  1.00  0.00    -0.034 C 
HETATM    5  C6  UNL     1       9.050  -9.149 -55.697  1.00  0.00     0.029 C 
HETATM    6  C7  UNL     1       9.677  -8.627 -56.975  1.00  0.00     0.126 C 
HETATM    7  N2  UNL     1       9.326  -9.597 -58.014  1.00  0.00    -0.352 N 
HETATM    8  C8  UNL     1      10.359 -10.266 -58.741  1.00  0.00     0.220 C 
HETATM    9  O3  UNL     1      11.551 -10.019 -58.485  1.00  0.00    -0.273 OA
HETATM   10  C16 UNL     1       7.934  -9.827 -58.250  1.00  0.00     0.126 C 
HETATM   11  C17 UNL     1       7.111 -10.024 -57.035  1.00  0.00     0.029 C 
HETATM   12  C18 UNL     1       6.834  -7.990 -55.699  1.00  0.00     0.057 C 
ENDROOT
BRANCH   1  13
HETATM   13  C1  UNL     1       5.169  -7.533 -53.923  1.00  0.00     0.265 C 
HETATM   14  N1  UNL     1       4.322  -6.820 -54.814  1.00  0.00    -0.059 NA
HETATM   15  O1  UNL     1       4.650  -7.981 -52.868  1.00  0.00    -0.273 OA
ENDBRANCH   1  13
BRANCH   1  16
HETATM   16  O2  UNL     1       7.320  -6.581 -53.901  1.00  0.00    -0.381 OA
ATOM     17  H2  UNL     1       6.781  -5.820 -54.077  1.00  0.00     0.211 HD
ENDBRANCH   1  16
BRANCH   8  18
HETATM   18  C9  UNL     1       9.952 -11.228 -59.771  1.00  0.00     0.107 C 
BRANCH  18  19
HETATM   19  C10 UNL     1      10.868 -12.410 -59.761  1.00  0.00    -0.006 C 
HETATM   20  C11 UNL     1      11.582 -12.584 -61.082  1.00  0.00     0.005 C 
HETATM   21  C12 UNL     1      12.597 -13.693 -60.979  1.00  0.00     0.000 C 
HETATM   22  C13 UNL     1      11.974 -14.877 -60.284  1.00  0.00     0.000 C 
HETATM   23  C14 UNL     1      10.471 -14.748 -60.348  1.00  0.00     0.000 C 
HETATM   24  C15 UNL     1      10.091 -13.629 -59.381  1.00  0.00     0.005 C 
ENDBRANCH  18  19
ENDBRANCH   8  18
TORSDOF 4
ENDMDL
MODEL 2
REMARK VINA RESULT: -6.782456138      1.039      1.158
REMARK  4 active torsions:
REMARK  status: ('A' for Active; 'I' for Inactive)
REMARK    1  A    between atoms: C1_2  and  C2_4 
REMARK    2  A    between atoms: C2_4  and  O2_5 
REMARK       I    between atoms: N2_12  and  C8_13 
REMARK    3  A    between atoms: C8_13  and  C9_15 
REMARK    4  A    between atoms: C9_15  and  C10_16 
ROOT
HETATM    1  C2  UNL     1       6.740  -7.766 -53.891  1.00  0.00     0.136 C 
HETATM    2  C3  UNL     1       7.182  -9.075 -53.269  1.00  0.00     0.048 C 
HETATM    3  C4  UNL     1       7.354  -9.966 -54.482  1.00  0.00     0.013 C 
HETATM    4  C5  UNL     1       8.016  -9.042 -55.512  1.00  0.00    -0.034 C 
HETATM    5  C6  UNL     1       9.450  -8.903 -55.099  1.00  0.00     0.029 C 
HETATM    6  C7  UNL     1      10.276  -8.175 -56.141  1.00  0.00     0.126 C 
HETATM    7  N2  UNL     1      10.150  -8.962 -57.369  1.00  0.00    -0.352 N 
HETATM    8  C8  UNL     1      11.319  -9.496 -57.994  1.00  0.00     0.220 C 
HETATM    9  O3  UNL     1      12.437  -9.287 -57.490  1.00  0.00    -0.273 OA
HETATM   10  C16 UNL     1       8.831  -9.158 -57.887  1.00  0.00     0.126 C 
HETATM   11  C17 UNL     1       7.813  -9.558 -56.889  1.00  0.00     0.029 C 
HETATM   12  C18 UNL     1       7.230  -7.773 -55.316  1.00  0.00     0.057 C 
ENDROOT
BRANCH   1  13
HETATM   13  C1  UNL     1       5.261  -7.625 -53.821  1.00  0.00     0.265 C 
HETATM   14  N1  UNL     1       4.534  -6.992 -54.865  1.00  0.00    -0.059 NA
HETATM   15  O1  UNL     1       4.602  -8.058 -52.840  1.00  0.00    -0.273 OA
ENDBRANCH   1  13
BRANCH   1  16
HETATM   16  O2  UNL     1       7.338  -6.676 -53.256  1.00  0.00    -0.381 OA
ATOM     17  H2  UNL     1       8.197  -6.527 -53.632  1.00  0.00     0.211 HD
ENDBRANCH   1  16
BRANCH   8  18
HETATM   18  C9  UNL     1      11.136 -10.277 -59.222  1.00  0.00     0.107 C 
BRANCH  18  19
HETATM   19  C10 UNL     1      11.158 -11.739 -58.908  1.00  0.00    -0.006 C 
HETATM   20  C11 UNL     1      12.545 -12.326 -59.040  1.00  0.00     0.005 C 
HETATM   21  C12 UNL     1      12.546 -13.760 -58.576  1.00  0.00     0.000 C 
HETATM   22  C13 UNL     1      11.355 -14.474 -59.161  1.00  0.00     0.000 C 
HETATM   23  C14 UNL     1      10.845 -13.690 -60.346  1.00  0.00     0.000 C 
HETATM   24  C15 UNL     1      10.169 -12.443 -59.781  1.00  0.00     0.005 C 
ENDBRANCH  18  19
ENDBRANCH   8  18
TORSDOF 4
ENDMDL
MODEL 3
REMARK VINA RESULT: -6.374557060      4.163      9.169
REMARK  4 active torsions:
REMARK  status: ('A' for Active; 'I' for Inactive)
REMARK    1  A    between atoms: C1_2  and  C2_4 
REMARK    2  A    between atoms: C2_4  and  O2_5 
REMARK       I    between atoms: N2_12  and  C8_13 
REMARK    3  A    between atoms: C8_13  and  C9_15 
REMARK    4  A    between atoms: C9_15  and  C10_16 
ROOT
HETATM    1  C2  UNL     1      11.138  -8.074 -55.141  1.00  0.00     0.136 C 
HETATM    2  C3  UNL     1      11.117  -6.647 -54.632  1.00  0.00     0.048 C 
HETATM    3  C4  UNL     1       9.734  -6.181 -55.034  1.00  0.00     0.013 C 
HETATM    4  C5  UNL     1       8.846  -7.395 -54.729  1.00  0.00    -0.034 C 
HETATM    5  C6  UNL     1       8.674  -7.432 -53.240  1.00  0.00     0.029 C 
HETATM    6  C7  UNL     1       7.654  -8.467 -52.810  1.00  0.00     0.126 C 
HETATM    7  N2  UNL     1       6.406  -8.097 -53.481  1.00  0.00    -0.352 N 
HETATM    8  C8  UNL     1       5.239  -7.811 -52.706  1.00  0.00     0.220 C 
HETATM    9  O3  UNL     1       5.293  -7.879 -51.465  1.00  0.00    -0.273 OA
HETATM   10  C16 UNL     1       6.424  -8.041 -54.910  1.00  0.00     0.126 C 
HETATM   11  C17 UNL     1       7.580  -7.327 -55.500  1.00  0.00     0.029 C 
HETATM   12  C18 UNL     1       9.702  -8.521 -55.243  1.00  0.00     0.057 C 
ENDROOT
BRANCH   1  13
HETATM   13  C1  UNL     1      11.830  -8.152 -56.456  1.00  0.00     0.265 C 
HETATM   14  N1  UNL     1      11.585  -9.228 -57.352  1.00  0.00    -0.059 NA
HETATM   15  O1  UNL     1      12.653  -7.273 -56.821  1.00  0.00    -0.273 OA
ENDBRANCH   1  13
BRANCH   1  16
HETATM   16  O2  UNL     1      11.771  -8.926 -54.236  1.00  0.00    -0.381 OA
ATOM     17  H2  UNL     1      11.724  -8.551 -53.365  1.00  0.00     0.211 HD
ENDBRANCH   1  16
BRANCH   8  18
HETATM   18  C9  UNL     1       4.016  -7.445 -53.428  1.00  0.00     0.107 C 
BRANCH  18  19
HETATM   19  C10 UNL     1       2.976  -6.966 -52.465  1.00  0.00    -0.006 C 
HETATM   20  C11 UNL     1       1.791  -7.902 -52.400  1.00  0.00     0.005 C 
HETATM   21  C12 UNL     1       0.841  -7.459 -51.317  1.00  0.00     0.000 C 
HETATM   22  C13 UNL     1       0.634  -5.968 -51.416  1.00  0.00     0.000 C 
HETATM   23  C14 UNL     1       1.045  -5.506 -52.793  1.00  0.00     0.000 C 
HETATM   24  C15 UNL     1       2.569  -5.576 -52.836  1.00  0.00     0.005 C 
ENDBRANCH  18  19
ENDBRANCH   8  18
TORSDOF 4
ENDMDL
MODEL 4
REMARK VINA RESULT: -6.295880307      4.589      9.086
REMARK  4 active torsions:
REMARK  status: ('A' for Active; 'I' for Inactive)
REMARK    1  A    between atoms: C1_2  and  C2_4 
REMARK    2  A    between atoms: C2_4  and  O2_5 
REMARK       I    between atoms: N2_12  and  C8_13 
REMARK    3  A    between atoms: C8_13  and  C9_15 
REMARK    4  A    between atoms: C9_15  and  C10_16 
ROOT
HETATM    1  C2  UNL     1      11.178  -6.891 -55.068  1.00  0.00     0.136 C 
HETATM    2  C3  UNL     1      10.946  -8.317 -55.526  1.00  0.00     0.048 C 
HETATM    3  C4  UNL     1       9.965  -8.832 -54.493  1.00  0.00     0.013 C 
HETATM    4  C5  UNL     1       9.010  -7.649 -54.288  1.00  0.00    -0.034 C 
HETATM    5  C6  UNL     1       8.112  -7.614 -55.488  1.00  0.00     0.029 C 
HETATM    6  C7  UNL     1       6.985  -6.614 -55.328  1.00  0.00     0.126 C 
HETATM    7  N2  UNL     1       6.254  -7.029 -54.129  1.00  0.00    -0.352 N 
HETATM    8  C8  UNL     1       4.864  -7.354 -54.220  1.00  0.00     0.220 C 
HETATM    9  O3  UNL     1       4.286  -7.281 -55.319  1.00  0.00    -0.273 OA
HETATM   10  C16 UNL     1       6.988  -7.088 -52.903  1.00  0.00     0.126 C 
HETATM   11  C17 UNL     1       8.304  -7.762 -52.987  1.00  0.00     0.029 C 
HETATM   12  C18 UNL     1       9.975  -6.495 -54.251  1.00  0.00     0.057 C 
ENDROOT
BRANCH   1  13
HETATM   13  C1  UNL     1      12.434  -6.793 -54.277  1.00  0.00     0.265 C 
HETATM   14  N1  UNL     1      12.721  -5.640 -53.496  1.00  0.00    -0.059 NA
HETATM   15  O1  UNL     1      13.284  -7.720 -54.271  1.00  0.00    -0.273 OA
ENDBRANCH   1  13
BRANCH   1  16
HETATM   16  O2  UNL     1      11.246  -6.015 -56.152  1.00  0.00    -0.381 OA
ATOM     17  H2  UNL     1      12.000  -5.448 -56.051  1.00  0.00     0.211 HD
ENDBRANCH   1  16
BRANCH   8  18
HETATM   18  C9  UNL     1       4.180  -7.763 -52.988  1.00  0.00     0.107 C 
BRANCH  18  19
HETATM   19  C10 UNL     1       2.866  -7.059 -52.874  1.00  0.00    -0.006 C 
HETATM   20  C11 UNL     1       2.974  -5.787 -52.065  1.00  0.00     0.005 C 
HETATM   21  C12 UNL     1       1.665  -5.040 -52.099  1.00  0.00     0.000 C 
HETATM   22  C13 UNL     1       0.534  -6.007 -51.856  1.00  0.00     0.000 C 
HETATM   23  C14 UNL     1       1.085  -7.256 -51.212  1.00  0.00     0.000 C 
HETATM   24  C15 UNL     1       1.855  -8.000 -52.301  1.00  0.00     0.005 C 
ENDBRANCH  18  19
ENDBRANCH   8  18
TORSDOF 4
ENDMDL
MODEL 5
REMARK VINA RESULT: -6.258182865      3.376      9.144
REMARK  4 active torsions:
REMARK  status: ('A' for Active; 'I' for Inactive)
REMARK    1  A    between atoms: C1_2  and  C2_4 
REMARK    2  A    between atoms: C2_4  and  O2_5 
REMARK       I    between atoms: N2_12  and  C8_13 
REMARK    3  A    between atoms: C8_13  and  C9_15 
REMARK    4  A    between atoms: C9_15  and  C10_16 
ROOT
HETATM    1  C2  UNL     1      10.142  -8.227 -57.072  1.00  0.00     0.136 C 
HETATM    2  C3  UNL     1       9.215  -9.097 -57.896  1.00  0.00     0.048 C 
HETATM    3  C4  UNL     1       8.266  -9.641 -56.848  1.00  0.00     0.013 C 
HETATM    4  C5  UNL     1       8.006  -8.430 -55.942  1.00  0.00    -0.034 C 
HETATM    5  C6  UNL     1       7.065  -7.534 -56.690  1.00  0.00     0.029 C 
HETATM    6  C7  UNL     1       6.562  -6.391 -55.831  1.00  0.00     0.126 C 
HETATM    7  N2  UNL     1       5.902  -7.016 -54.684  1.00  0.00    -0.352 N 
HETATM    8  C8  UNL     1       4.523  -6.745 -54.422  1.00  0.00     0.220 C 
HETATM    9  O3  UNL     1       3.894  -5.978 -55.172  1.00  0.00    -0.273 OA
HETATM   10  C16 UNL     1       6.692  -7.887 -53.869  1.00  0.00     0.126 C 
HETATM   11  C17 UNL     1       7.521  -8.866 -54.609  1.00  0.00     0.029 C 
HETATM   12  C18 UNL     1       9.389  -7.850 -55.823  1.00  0.00     0.057 C 
ENDROOT
BRANCH   1  13
HETATM   13  C1  UNL     1      11.400  -8.956 -56.754  1.00  0.00     0.265 C 
HETATM   14  N1  UNL     1      11.975  -8.894 -55.456  1.00  0.00    -0.059 NA
HETATM   15  O1  UNL     1      11.998  -9.648 -57.618  1.00  0.00    -0.273 OA
ENDBRANCH   1  13
BRANCH   1  16
HETATM   16  O2  UNL     1      10.452  -7.042 -57.740  1.00  0.00    -0.381 OA
ATOM     17  H2  UNL     1       9.937  -6.332 -57.375  1.00  0.00     0.211 HD
ENDBRANCH   1  16
BRANCH   8  18
HETATM   18  C9  UNL     1       3.910  -7.398 -53.260  1.00  0.00     0.107 C 
BRANCH  18  19
HETATM   19  C10 UNL     1       2.591  -6.764 -52.952  1.00  0.00    -0.006 C 
HETATM   20  C11 UNL     1       2.739  -5.560 -52.050  1.00  0.00     0.005 C 
HETATM   21  C12 UNL     1       1.409  -4.871 -51.885  1.00  0.00     0.000 C 
HETATM   22  C13 UNL     1       0.343  -5.903 -51.615  1.00  0.00     0.000 C 
HETATM   23  C14 UNL     1       1.002  -7.177 -51.142  1.00  0.00     0.000 C 
HETATM   24  C15 UNL     1       1.679  -7.793 -52.364  1.00  0.00     0.005 C 
ENDBRANCH  18  19
ENDBRANCH   8  18
TORSDOF 4
ENDMDL
