MODEL 1
REMARK VINA RESULT: -9.912351889      0.000      0.000
REMARK  4 active torsions:
REMARK  status: ('A' for Active; 'I' for Inactive)
REMARK    1  A    between atoms: C2_2  and  O1_3 
REMARK       I    between atoms: N2_11  and  C7_12 
REMARK    2  A    between atoms: C7_12  and  C8_14 
REMARK    3  A    between atoms: C8_14  and  N3_15 
REMARK       I    between atoms: N3_15  and  C9_17 
REMARK    4  A    between atoms: C9_17  and  C10_19 
ROOT
HETATM    1  C1  UNL     1     -19.870   7.197   1.831  1.00  0.00     0.074 C 
HETATM    2  C2  UNL     1     -20.482   7.201   0.483  1.00  0.00     0.164 C 
HETATM    3  C3  UNL     1     -19.463   7.599  -0.597  1.00  0.00     0.228 C 
HETATM    4  F1  UNL     1     -18.432   8.339  -0.057  1.00  0.00    -0.244 F 
HETATM    5  C4  UNL     1     -20.245   8.406  -1.623  1.00  0.00     0.082 C 
HETATM    6  C5  UNL     1     -21.673   8.157  -1.157  1.00  0.00     0.200 C 
HETATM    7  C6  UNL     1     -22.611   9.030  -1.762  1.00  0.00     0.085 C 
HETATM    8  N1  UNL     1     -23.359   9.717  -2.275  1.00  0.00    -0.195 NA
HETATM    9  N2  UNL     1     -21.492   8.253   0.272  1.00  0.00    -0.299 N 
HETATM   10  C7  UNL     1     -22.059   9.056   1.268  1.00  0.00     0.241 C 
HETATM   11  O2  UNL     1     -21.684   8.855   2.478  1.00  0.00    -0.271 OA
ENDROOT
BRANCH   2  12
HETATM   12  O1  UNL     1     -21.089   5.978   0.156  1.00  0.00    -0.368 OA
ATOM     13  H1  UNL     1     -21.277   5.896  -0.772  1.00  0.00     0.212 HD
ENDBRANCH   2  12
BRANCH  10  14
HETATM   14  C8  UNL     1     -23.053  10.123   1.093  1.00  0.00     0.225 C 
BRANCH  14  15
HETATM   15  N3  UNL     1     -24.335   9.796   1.659  1.00  0.00    -0.352 N 
HETATM   16  C9  UNL     1     -24.930  10.440   2.760  1.00  0.00     0.226 C 
HETATM   17  O3  UNL     1     -24.306  11.382   3.321  1.00  0.00    -0.273 OA
ATOM     18  H3  UNL     1     -24.856   9.033   1.226  1.00  0.00     0.162 HD
BRANCH  16  19
HETATM   19  C10 UNL     1     -26.262  10.067   3.298  1.00  0.00     0.042 C 
HETATM   20  C11 UNL     1     -26.660  10.906   4.477  1.00  0.00     0.024 C 
HETATM   21  C12 UNL     1     -27.982  10.424   4.998  1.00  0.00    -0.013 C 
HETATM   22  C13 UNL     1     -29.080  10.551   3.959  1.00  0.00     0.009 C 
HETATM   23  C17 UNL     1     -27.940   8.969   5.417  1.00  0.00     0.009 C 
HETATM   24  C14 UNL     1     -28.646   9.749   2.752  1.00  0.00    -0.013 C 
HETATM   25  C15 UNL     1     -28.554   8.269   3.085  1.00  0.00     0.009 C 
HETATM   26  C19 UNL     1     -27.337  10.259   2.232  1.00  0.00     0.024 C 
HETATM   27  C16 UNL     1     -27.555   8.130   4.213  1.00  0.00    -0.013 C 
HETATM   28  C18 UNL     1     -26.233   8.624   3.719  1.00  0.00     0.024 C 
ENDBRANCH  16  19
ENDBRANCH  14  15
ENDBRANCH  10  14
TORSDOF 4
ENDMDL
MODEL 2
REMARK VINA RESULT: -9.910778748      0.143      1.446
REMARK  4 active torsions:
REMARK  status: ('A' for Active; 'I' for Inactive)
REMARK    1  A    between atoms: C2_2  and  O1_3 
REMARK       I    between atoms: N2_11  and  C7_12 
REMARK    2  A    between atoms: C7_12  and  C8_14 
REMARK    3  A    between atoms: C8_14  and  N3_15 
REMARK       I    between atoms: N3_15  and  C9_17 
REMARK    4  A    between atoms: C9_17  and  C10_19 
ROOT
HETATM    1  C1  UNL     1     -19.785   7.196   1.728  1.00  0.00     0.074 C 
HETATM    2  C2  UNL     1     -20.442   7.181   0.401  1.00  0.00     0.164 C 
HETATM    3  C3  UNL     1     -19.452   7.540  -0.721  1.00  0.00     0.228 C 
HETATM    4  F1  UNL     1     -18.393   8.276  -0.231  1.00  0.00    -0.244 F 
HETATM    5  C4  UNL     1     -20.256   8.337  -1.738  1.00  0.00     0.082 C 
HETATM    6  C5  UNL     1     -21.672   8.120  -1.221  1.00  0.00     0.200 C 
HETATM    7  C6  UNL     1     -22.616   8.995  -1.813  1.00  0.00     0.085 C 
HETATM    8  N1  UNL     1     -23.370   9.683  -2.316  1.00  0.00    -0.195 NA
HETATM    9  N2  UNL     1     -21.442   8.244   0.200  1.00  0.00    -0.299 N 
HETATM   10  C7  UNL     1     -21.964   9.077   1.196  1.00  0.00     0.241 C 
HETATM   11  O2  UNL     1     -21.552   8.896   2.398  1.00  0.00    -0.271 OA
ENDROOT
BRANCH   2  12
HETATM   12  O1  UNL     1     -21.077   5.961   0.120  1.00  0.00    -0.368 OA
ATOM     13  H1  UNL     1     -22.024   6.021   0.156  1.00  0.00     0.212 HD
ENDBRANCH   2  12
BRANCH  10  14
HETATM   14  C8  UNL     1     -22.947  10.155   1.031  1.00  0.00     0.225 C 
BRANCH  14  15
HETATM   15  N3  UNL     1     -24.249   9.813   1.540  1.00  0.00    -0.352 N 
HETATM   16  C9  UNL     1     -24.832  10.337   2.709  1.00  0.00     0.226 C 
HETATM   17  O3  UNL     1     -24.178  11.174   3.390  1.00  0.00    -0.273 OA
ATOM     18  H3  UNL     1     -24.794   9.133   1.010  1.00  0.00     0.162 HD
BRANCH  16  19
HETATM   19  C10 UNL     1     -26.185   9.955   3.185  1.00  0.00     0.042 C 
HETATM   20  C11 UNL     1     -27.237  10.142   2.131  1.00  0.00     0.024 C 
HETATM   21  C12 UNL     1     -28.578   9.797   2.710  1.00  0.00    -0.013 C 
HETATM   22  C13 UNL     1     -28.642   8.351   3.163  1.00  0.00     0.009 C 
HETATM   23  C17 UNL     1     -28.923  10.651   3.913  1.00  0.00     0.009 C 
HETATM   24  C14 UNL     1     -27.542   8.155   4.184  1.00  0.00    -0.013 C 
HETATM   25  C15 UNL     1     -27.794   8.994   5.425  1.00  0.00     0.009 C 
HETATM   26  C19 UNL     1     -26.210   8.481   3.582  1.00  0.00     0.024 C 
HETATM   27  C16 UNL     1     -27.862  10.438   4.977  1.00  0.00    -0.013 C 
HETATM   28  C18 UNL     1     -26.540  10.797   4.379  1.00  0.00     0.024 C 
ENDBRANCH  16  19
ENDBRANCH  14  15
ENDBRANCH  10  14
TORSDOF 4
ENDMDL
MODEL 3
REMARK VINA RESULT: -9.833416686      2.340      3.740
REMARK  4 active torsions:
REMARK  status: ('A' for Active; 'I' for Inactive)
REMARK    1  A    between atoms: C2_2  and  O1_3 
REMARK       I    between atoms: N2_11  and  C7_12 
REMARK    2  A    between atoms: C7_12  and  C8_14 
REMARK    3  A    between atoms: C8_14  and  N3_15 
REMARK       I    between atoms: N3_15  and  C9_17 
REMARK    4  A    between atoms: C9_17  and  C10_19 
ROOT
HETATM    1  C1  UNL     1     -20.041   7.714   1.289  1.00  0.00     0.074 C 
HETATM    2  C2  UNL     1     -19.873   7.965   2.739  1.00  0.00     0.164 C 
HETATM    3  C3  UNL     1     -20.385   6.782   3.578  1.00  0.00     0.228 C 
HETATM    4  F1  UNL     1     -21.317   6.045   2.878  1.00  0.00    -0.244 F 
HETATM    5  C4  UNL     1     -20.994   7.399   4.829  1.00  0.00     0.082 C 
HETATM    6  C5  UNL     1     -20.528   8.843   4.694  1.00  0.00     0.200 C 
HETATM    7  C6  UNL     1     -21.196   9.723   5.581  1.00  0.00     0.085 C 
HETATM    8  N1  UNL     1     -21.718  10.417   6.316  1.00  0.00    -0.195 NA
HETATM    9  N2  UNL     1     -20.725   9.040   3.277  1.00  0.00    -0.299 N 
HETATM   10  C7  UNL     1     -21.468   9.954   2.521  1.00  0.00     0.241 C 
HETATM   11  O2  UNL     1     -21.395   9.865   1.243  1.00  0.00    -0.271 OA
ENDROOT
BRANCH   2  12
HETATM   12  O1  UNL     1     -18.550   8.275   3.089  1.00  0.00    -0.368 OA
ATOM     13  H1  UNL     1     -18.063   7.520   3.398  1.00  0.00     0.212 HD
ENDBRANCH   2  12
BRANCH  10  14
HETATM   14  C8  UNL     1     -22.338  11.024   3.022  1.00  0.00     0.225 C 
BRANCH  14  15
HETATM   15  N3  UNL     1     -23.615  10.543   3.479  1.00  0.00    -0.352 N 
HETATM   16  C9  UNL     1     -24.790  10.485   2.706  1.00  0.00     0.226 C 
HETATM   17  O3  UNL     1     -24.751  10.888   1.512  1.00  0.00    -0.273 OA
ATOM     18  H3  UNL     1     -23.674  10.216   4.444  1.00  0.00     0.162 HD
BRANCH  16  19
HETATM   19  C10 UNL     1     -26.081   9.969   3.227  1.00  0.00     0.042 C 
HETATM   20  C11 UNL     1     -25.992   8.536   3.663  1.00  0.00     0.024 C 
HETATM   21  C12 UNL     1     -27.348   8.075   4.113  1.00  0.00    -0.013 C 
HETATM   22  C13 UNL     1     -27.854   8.879   5.296  1.00  0.00     0.009 C 
HETATM   23  C17 UNL     1     -28.390   8.198   3.020  1.00  0.00     0.009 C 
HETATM   24  C14 UNL     1     -27.888  10.330   4.867  1.00  0.00    -0.013 C 
HETATM   25  C15 UNL     1     -28.897  10.546   3.751  1.00  0.00     0.009 C 
HETATM   26  C19 UNL     1     -26.522  10.778   4.445  1.00  0.00     0.024 C 
HETATM   27  C16 UNL     1     -28.483   9.654   2.602  1.00  0.00    -0.013 C 
HETATM   28  C18 UNL     1     -27.124  10.085   2.150  1.00  0.00     0.024 C 
ENDBRANCH  16  19
ENDBRANCH  14  15
ENDBRANCH  10  14
TORSDOF 4
ENDMDL
MODEL 4
REMARK VINA RESULT: -9.810837264      0.192      1.478
REMARK  4 active torsions:
REMARK  status: ('A' for Active; 'I' for Inactive)
REMARK    1  A    between atoms: C2_2  and  O1_3 
REMARK       I    between atoms: N2_11  and  C7_12 
REMARK    2  A    between atoms: C7_12  and  C8_14 
REMARK    3  A    between atoms: C8_14  and  N3_15 
REMARK       I    between atoms: N3_15  and  C9_17 
REMARK    4  A    between atoms: C9_17  and  C10_19 
ROOT
HETATM    1  C1  UNL     1     -19.750   7.096   1.753  1.00  0.00     0.074 C 
HETATM    2  C2  UNL     1     -20.394   7.211   0.425  1.00  0.00     0.164 C 
HETATM    3  C3  UNL     1     -19.403   7.710  -0.640  1.00  0.00     0.228 C 
HETATM    4  F1  UNL     1     -18.365   8.409  -0.062  1.00  0.00    -0.244 F 
HETATM    5  C4  UNL     1     -20.214   8.595  -1.574  1.00  0.00     0.082 C 
HETATM    6  C5  UNL     1     -21.630   8.295  -1.099  1.00  0.00     0.200 C 
HETATM    7  C6  UNL     1     -22.587   9.209  -1.605  1.00  0.00     0.085 C 
HETATM    8  N1  UNL     1     -23.351   9.932  -2.039  1.00  0.00    -0.195 NA
HETATM    9  N2  UNL     1     -21.416   8.269   0.329  1.00  0.00    -0.299 N 
HETATM   10  C7  UNL     1     -21.964   8.978   1.403  1.00  0.00     0.241 C 
HETATM   11  O2  UNL     1     -21.559   8.677   2.583  1.00  0.00    -0.271 OA
ENDROOT
BRANCH   2  12
HETATM   12  O1  UNL     1     -21.000   6.016   0.007  1.00  0.00    -0.368 OA
ATOM     13  H1  UNL     1     -21.680   5.720   0.600  1.00  0.00     0.212 HD
ENDBRANCH   2  12
BRANCH  10  14
HETATM   14  C8  UNL     1     -22.968  10.047   1.344  1.00  0.00     0.225 C 
BRANCH  14  15
HETATM   15  N3  UNL     1     -24.237   9.659   1.903  1.00  0.00    -0.352 N 
HETATM   16  C9  UNL     1     -25.008  10.432   2.792  1.00  0.00     0.226 C 
HETATM   17  O3  UNL     1     -24.571  11.559   3.151  1.00  0.00    -0.273 OA
ATOM     18  H3  UNL     1     -24.608   8.749   1.632  1.00  0.00     0.162 HD
BRANCH  16  19
HETATM   19  C10 UNL     1     -26.317   9.986   3.332  1.00  0.00     0.042 C 
HETATM   20  C11 UNL     1     -26.317   8.532   3.704  1.00  0.00     0.024 C 
HETATM   21  C12 UNL     1     -27.689   8.148   4.177  1.00  0.00    -0.013 C 
HETATM   22  C13 UNL     1     -28.103   8.933   5.408  1.00  0.00     0.009 C 
HETATM   23  C17 UNL     1     -28.750   8.391   3.124  1.00  0.00     0.009 C 
HETATM   24  C14 UNL     1     -28.045  10.399   5.041  1.00  0.00    -0.013 C 
HETATM   25  C15 UNL     1     -29.068  10.734   3.968  1.00  0.00     0.009 C 
HETATM   26  C19 UNL     1     -26.664  10.769   4.595  1.00  0.00     0.024 C 
HETATM   27  C16 UNL     1     -28.752   9.866   2.769  1.00  0.00    -0.013 C 
HETATM   28  C18 UNL     1     -27.379  10.220   2.294  1.00  0.00     0.024 C 
ENDBRANCH  16  19
ENDBRANCH  14  15
ENDBRANCH  10  14
TORSDOF 4
ENDMDL
MODEL 5
REMARK VINA RESULT: -9.773963331      2.348      3.762
REMARK  4 active torsions:
REMARK  status: ('A' for Active; 'I' for Inactive)
REMARK    1  A    between atoms: C2_2  and  O1_3 
REMARK       I    between atoms: N2_11  and  C7_12 
REMARK    2  A    between atoms: C7_12  and  C8_14 
REMARK    3  A    between atoms: C8_14  and  N3_15 
REMARK       I    between atoms: N3_15  and  C9_17 
REMARK    4  A    between atoms: C9_17  and  C10_19 
ROOT
HETATM    1  C1  UNL     1     -20.169   7.705   1.309  1.00  0.00     0.074 C 
HETATM    2  C2  UNL     1     -19.966   7.943   2.756  1.00  0.00     0.164 C 
HETATM    3  C3  UNL     1     -20.473   6.759   3.597  1.00  0.00     0.228 C 
HETATM    4  F1  UNL     1     -21.428   6.038   2.912  1.00  0.00    -0.244 F 
HETATM    5  C4  UNL     1     -21.047   7.373   4.866  1.00  0.00     0.082 C 
HETATM    6  C5  UNL     1     -20.568   8.812   4.732  1.00  0.00     0.200 C 
HETATM    7  C6  UNL     1     -21.207   9.693   5.639  1.00  0.00     0.085 C 
HETATM    8  N1  UNL     1     -21.706  10.386   6.392  1.00  0.00    -0.195 NA
HETATM    9  N2  UNL     1     -20.794   9.023   3.321  1.00  0.00    -0.299 N 
HETATM   10  C7  UNL     1     -21.543   9.950   2.588  1.00  0.00     0.241 C 
HETATM   11  O2  UNL     1     -21.499   9.871   1.309  1.00  0.00    -0.271 OA
ENDROOT
BRANCH   2  12
HETATM   12  O1  UNL     1     -18.632   8.236   3.079  1.00  0.00    -0.368 OA
ATOM     13  H1  UNL     1     -18.514   8.454   3.996  1.00  0.00     0.212 HD
ENDBRANCH   2  12
BRANCH  10  14
HETATM   14  C8  UNL     1     -22.391  11.026   3.117  1.00  0.00     0.225 C 
BRANCH  14  15
HETATM   15  N3  UNL     1     -23.694  10.568   3.522  1.00  0.00    -0.352 N 
HETATM   16  C9  UNL     1     -24.839  10.535   2.704  1.00  0.00     0.226 C 
HETATM   17  O3  UNL     1     -24.745  10.941   1.514  1.00  0.00    -0.273 OA
ATOM     18  H3  UNL     1     -23.795  10.240   4.483  1.00  0.00     0.162 HD
BRANCH  16  19
HETATM   19  C10 UNL     1     -26.158  10.042   3.173  1.00  0.00     0.042 C 
HETATM   20  C11 UNL     1     -27.222  10.167   2.122  1.00  0.00     0.024 C 
HETATM   21  C12 UNL     1     -28.533   9.711   2.695  1.00  0.00    -0.013 C 
HETATM   22  C13 UNL     1     -28.486   8.256   3.125  1.00  0.00     0.009 C 
HETATM   23  C17 UNL     1     -28.940  10.516   3.912  1.00  0.00     0.009 C 
HETATM   24  C14 UNL     1     -27.373   8.128   4.142  1.00  0.00    -0.013 C 
HETATM   25  C15 UNL     1     -27.687   8.925   5.397  1.00  0.00     0.009 C 
HETATM   26  C19 UNL     1     -26.071   8.564   3.545  1.00  0.00     0.024 C 
HETATM   27  C16 UNL     1     -27.865  10.367   4.973  1.00  0.00    -0.013 C 
HETATM   28  C18 UNL     1     -26.575  10.835   4.381  1.00  0.00     0.024 C 
ENDBRANCH  16  19
ENDBRANCH  14  15
ENDBRANCH  10  14
TORSDOF 4
ENDMDL
