MODEL 1
REMARK VINA RESULT: -9.601106689      0.000      0.000
REMARK  5 active torsions:
REMARK  status: ('A' for Active; 'I' for Inactive)
REMARK    1  A    between atoms: O1_2  and  C2_3 
REMARK    2  A    between atoms: C2_3  and  N5_30 
REMARK       I    between atoms: N1_4  and  C3_6 
REMARK       I    between atoms: N3_8  and  C4_10 
REMARK    3  A    between atoms: C4_10  and  C5_12 
REMARK    4  A    between atoms: C14_21  and  N4_22 
REMARK       I    between atoms: N4_22  and  C15_24 
REMARK    5  A    between atoms: C15_24  and  C16_26 
ROOT
HETATM    1  C5  UNL     1      21.772   9.213  -1.191  1.00  0.00     0.079 C 
HETATM    2  C6  UNL     1      21.482   7.975  -0.416  1.00  0.00     0.018 C 
HETATM    3  C7  UNL     1      21.512   8.120   1.063  1.00  0.00    -0.011 C 
HETATM    4  C8  UNL     1      22.551   9.171   1.368  1.00  0.00     0.010 C 
HETATM    5  C9  UNL     1      21.891  10.520   0.988  1.00  0.00    -0.007 C 
HETATM    6  C10 UNL     1      21.712  10.513  -0.471  1.00  0.00     0.019 C 
HETATM    7  C11 UNL     1      20.720  10.532   1.854  1.00  0.00     0.018 C 
HETATM    8  C12 UNL     1      19.818  11.544   2.276  1.00  0.00     0.010 C 
HETATM    9  C13 UNL     1      18.916  10.380   2.592  1.00  0.00     0.032 C 
HETATM   10  C14 UNL     1      19.599   9.673   1.450  1.00  0.00     0.037 C 
HETATM   11  C19 UNL     1      20.208   8.285   1.768  1.00  0.00     0.036 C 
ENDROOT
BRANCH   1  12
HETATM   12  C4  UNL     1      23.006   9.100  -2.050  1.00  0.00     0.228 C 
HETATM   13  N3  UNL     1      24.304   9.301  -1.550  1.00  0.00    -0.301 N 
HETATM   14  C3  UNL     1      25.101  10.206  -1.987  1.00  0.00     0.198 C 
ATOM     15  H3  UNL     1      24.631   8.694  -0.798  1.00  0.00     0.171 HD
HETATM   16  N1  UNL     1      26.389  10.314  -1.405  1.00  0.00    -0.296 N 
HETATM   17  N2  UNL     1      24.760  11.114  -3.034  1.00  0.00    -0.063 NA
HETATM   18  C2  UNL     1      27.488  10.195  -2.058  1.00  0.00     0.223 C 
ATOM     19  H1  UNL     1      26.446  10.499  -0.403  1.00  0.00     0.172 HD
HETATM   20  O2  UNL     1      22.846   8.813  -3.264  1.00  0.00    -0.273 OA
BRANCH  18  21
HETATM   21  O1  UNL     1      28.689  10.328  -1.349  1.00  0.00    -0.327 OA
HETATM   22  C1  UNL     1      29.873  10.599  -2.089  1.00  0.00     0.213 C 
ENDBRANCH  18  21
BRANCH  18  23
HETATM   23  N5  UNL     1      27.495   9.937  -3.458  1.00  0.00    -0.344 N 
HETATM   24  C20 UNL     1      27.430  10.934  -4.492  1.00  0.00     0.129 C 
HETATM   25  C21 UNL     1      27.925  10.255  -5.760  1.00  0.00     0.058 C 
HETATM   26  C22 UNL     1      28.473   8.949  -5.284  1.00  0.00     0.189 C 
HETATM   27  F1  UNL     1      29.764   9.096  -4.859  1.00  0.00    -0.248 F 
HETATM   28  C23 UNL     1      27.567   8.633  -4.088  1.00  0.00     0.163 C 
ENDBRANCH  18  23
ENDBRANCH   1  12
BRANCH  10  29
HETATM   29  N4  UNL     1      18.771   9.653   0.349  1.00  0.00    -0.351 N 
HETATM   30  C15 UNL     1      18.042   8.667  -0.294  1.00  0.00     0.222 C 
HETATM   31  O3  UNL     1      18.002   7.464   0.036  1.00  0.00    -0.273 OA
ATOM     32  H4  UNL     1      18.674  10.568  -0.090  1.00  0.00     0.163 HD
BRANCH  30  33
HETATM   33  C16 UNL     1      17.184   9.001  -1.523  1.00  0.00     0.078 A 
HETATM   34  C17 UNL     1      16.484  10.310  -1.394  1.00  0.00     0.015 A 
HETATM   35  C18 UNL     1      17.580  10.073  -2.430  1.00  0.00     0.015 A 
ENDBRANCH  30  33
ENDBRANCH  10  29
TORSDOF 5
ENDMDL
MODEL 2
REMARK VINA RESULT: -9.398912748      1.573      2.632
REMARK  5 active torsions:
REMARK  status: ('A' for Active; 'I' for Inactive)
REMARK    1  A    between atoms: O1_2  and  C2_3 
REMARK    2  A    between atoms: C2_3  and  N5_30 
REMARK       I    between atoms: N1_4  and  C3_6 
REMARK       I    between atoms: N3_8  and  C4_10 
REMARK    3  A    between atoms: C4_10  and  C5_12 
REMARK    4  A    between atoms: C14_21  and  N4_22 
REMARK       I    between atoms: N4_22  and  C15_24 
REMARK    5  A    between atoms: C15_24  and  C16_26 
ROOT
HETATM    1  C5  UNL     1      22.147   9.277  -0.300  1.00  0.00     0.079 C 
HETATM    2  C6  UNL     1      20.766   9.176  -0.847  1.00  0.00     0.018 C 
HETATM    3  C7  UNL     1      19.950   8.047  -0.329  1.00  0.00    -0.011 C 
HETATM    4  C8  UNL     1      20.912   6.918  -0.052  1.00  0.00     0.010 C 
HETATM    5  C9  UNL     1      21.651   7.321   1.248  1.00  0.00    -0.007 C 
HETATM    6  C10 UNL     1      22.466   8.501   0.928  1.00  0.00     0.019 C 
HETATM    7  C11 UNL     1      20.547   7.446   2.191  1.00  0.00     0.018 C 
HETATM    8  C12 UNL     1      20.464   7.497   3.607  1.00  0.00     0.010 C 
HETATM    9  C13 UNL     1      19.114   8.111   3.342  1.00  0.00     0.032 C 
HETATM   10  C14 UNL     1      19.726   8.658   2.078  1.00  0.00     0.037 C 
HETATM   11  C19 UNL     1      18.976   8.341   0.760  1.00  0.00     0.036 C 
ENDROOT
BRANCH   1  12
HETATM   12  C4  UNL     1      23.216   9.129  -1.354  1.00  0.00     0.228 C 
HETATM   13  N3  UNL     1      24.572   9.406  -1.109  1.00  0.00    -0.301 N 
HETATM   14  C3  UNL     1      25.241  10.294  -1.748  1.00  0.00     0.198 C 
ATOM     15  H3  UNL     1      25.050   8.871  -0.384  1.00  0.00     0.171 HD
HETATM   16  N1  UNL     1      26.606  10.486  -1.414  1.00  0.00    -0.296 N 
HETATM   17  N2  UNL     1      24.685  11.103  -2.783  1.00  0.00    -0.063 NA
HETATM   18  C2  UNL     1      27.578  10.345  -2.241  1.00  0.00     0.223 C 
ATOM     19  H1  UNL     1      26.830  10.753  -0.455  1.00  0.00     0.172 HD
HETATM   20  O2  UNL     1      22.858   8.739  -2.495  1.00  0.00    -0.273 OA
BRANCH  18  21
HETATM   21  O1  UNL     1      28.878  10.569  -1.769  1.00  0.00    -0.327 OA
HETATM   22  C1  UNL     1      29.913   9.715  -2.240  1.00  0.00     0.213 C 
ENDBRANCH  18  21
BRANCH  18  23
HETATM   23  N5  UNL     1      27.350   9.974  -3.596  1.00  0.00    -0.344 N 
HETATM   24  C20 UNL     1      27.296  10.878  -4.713  1.00  0.00     0.129 C 
HETATM   25  C21 UNL     1      27.500  10.023  -5.954  1.00  0.00     0.058 C 
HETATM   26  C22 UNL     1      27.902   8.689  -5.417  1.00  0.00     0.189 C 
HETATM   27  F1  UNL     1      29.246   8.654  -5.173  1.00  0.00    -0.248 F 
HETATM   28  C23 UNL     1      27.133   8.628  -4.092  1.00  0.00     0.163 C 
ENDBRANCH  18  23
ENDBRANCH   1  12
BRANCH  10  29
HETATM   29  N4  UNL     1      19.993  10.001   2.230  1.00  0.00    -0.351 N 
HETATM   30  C15 UNL     1      19.346  11.165   1.850  1.00  0.00     0.222 C 
HETATM   31  O3  UNL     1      18.275  11.222   1.212  1.00  0.00    -0.273 OA
ATOM     32  H4  UNL     1      20.861  10.177   2.734  1.00  0.00     0.163 HD
BRANCH  30  33
HETATM   33  C16 UNL     1      19.929  12.539   2.207  1.00  0.00     0.078 A 
HETATM   34  C17 UNL     1      21.394  12.488   2.475  1.00  0.00     0.015 A 
HETATM   35  C18 UNL     1      20.813  13.231   1.274  1.00  0.00     0.015 A 
ENDBRANCH  30  33
ENDBRANCH  10  29
TORSDOF 5
ENDMDL
MODEL 3
REMARK VINA RESULT: -8.775551777      2.009      2.731
REMARK  5 active torsions:
REMARK  status: ('A' for Active; 'I' for Inactive)
REMARK    1  A    between atoms: O1_2  and  C2_3 
REMARK    2  A    between atoms: C2_3  and  N5_30 
REMARK       I    between atoms: N1_4  and  C3_6 
REMARK       I    between atoms: N3_8  and  C4_10 
REMARK    3  A    between atoms: C4_10  and  C5_12 
REMARK    4  A    between atoms: C14_21  and  N4_22 
REMARK       I    between atoms: N4_22  and  C15_24 
REMARK    5  A    between atoms: C15_24  and  C16_26 
ROOT
HETATM    1  C5  UNL     1      22.139   8.619  -2.975  1.00  0.00     0.079 C 
HETATM    2  C6  UNL     1      21.466   7.293  -3.054  1.00  0.00     0.018 C 
HETATM    3  C7  UNL     1      20.841   6.813  -1.793  1.00  0.00    -0.011 C 
HETATM    4  C8  UNL     1      21.693   7.344  -0.666  1.00  0.00     0.010 C 
HETATM    5  C9  UNL     1      21.348   8.851  -0.570  1.00  0.00    -0.007 C 
HETATM    6  C10 UNL     1      21.838   9.482  -1.803  1.00  0.00     0.019 C 
HETATM    7  C11 UNL     1      19.916   8.812  -0.303  1.00  0.00     0.018 C 
HETATM    8  C12 UNL     1      18.979   9.760   0.184  1.00  0.00     0.010 C 
HETATM    9  C13 UNL     1      17.967   8.843  -0.452  1.00  0.00     0.032 C 
HETATM   10  C14 UNL     1      19.047   8.510  -1.448  1.00  0.00     0.037 C 
HETATM   11  C19 UNL     1      19.372   7.007  -1.632  1.00  0.00     0.036 C 
ENDROOT
BRANCH   1  12
HETATM   12  C4  UNL     1      23.619   8.551  -3.261  1.00  0.00     0.228 C 
HETATM   13  N3  UNL     1      24.595   8.917  -2.317  1.00  0.00    -0.301 N 
HETATM   14  C3  UNL     1      25.450   9.853  -2.509  1.00  0.00     0.198 C 
ATOM     15  H3  UNL     1      24.624   8.412  -1.432  1.00  0.00     0.171 HD
HETATM   16  N1  UNL     1      26.388  10.135  -1.485  1.00  0.00    -0.296 N 
HETATM   17  N2  UNL     1      25.509  10.630  -3.705  1.00  0.00    -0.063 NA
HETATM   18  C2  UNL     1      27.662  10.066  -1.634  1.00  0.00     0.223 C 
ATOM     19  H1  UNL     1      26.029  10.411  -0.571  1.00  0.00     0.172 HD
HETATM   20  O2  UNL     1      23.974   8.145  -4.396  1.00  0.00    -0.273 OA
BRANCH  18  21
HETATM   21  O1  UNL     1      28.469  10.375  -0.531  1.00  0.00    -0.327 OA
HETATM   22  C1  UNL     1      27.827  10.658   0.705  1.00  0.00     0.213 C 
ENDBRANCH  18  21
BRANCH  18  23
HETATM   23  N5  UNL     1      28.244   9.690  -2.878  1.00  0.00    -0.344 N 
HETATM   24  C20 UNL     1      27.869   8.545  -3.663  1.00  0.00     0.129 C 
HETATM   25  C21 UNL     1      28.402   8.806  -5.064  1.00  0.00     0.058 C 
HETATM   26  C22 UNL     1      28.849  10.231  -5.025  1.00  0.00     0.189 C 
HETATM   27  F1  UNL     1      27.798  11.071  -5.269  1.00  0.00    -0.248 F 
HETATM   28  C23 UNL     1      29.310  10.386  -3.571  1.00  0.00     0.163 C 
ENDBRANCH  18  23
ENDBRANCH   1  12
BRANCH  10  29
HETATM   29  N4  UNL     1      18.797   9.151  -2.642  1.00  0.00    -0.351 N 
HETATM   30  C15 UNL     1      18.387   8.733  -3.897  1.00  0.00     0.222 C 
HETATM   31  O3  UNL     1      18.151   7.553  -4.225  1.00  0.00    -0.273 OA
ATOM     32  H4  UNL     1      18.946  10.159  -2.589  1.00  0.00     0.163 HD
BRANCH  30  33
HETATM   33  C16 UNL     1      18.184   9.745  -5.033  1.00  0.00     0.078 A 
HETATM   34  C17 UNL     1      19.261   9.678  -6.061  1.00  0.00     0.015 A 
HETATM   35  C18 UNL     1      17.817   9.291  -6.370  1.00  0.00     0.015 A 
ENDBRANCH  30  33
ENDBRANCH  10  29
TORSDOF 5
ENDMDL
MODEL 4
REMARK VINA RESULT: -8.361945735      1.765      2.991
REMARK  5 active torsions:
REMARK  status: ('A' for Active; 'I' for Inactive)
REMARK    1  A    between atoms: O1_2  and  C2_3 
REMARK    2  A    between atoms: C2_3  and  N5_30 
REMARK       I    between atoms: N1_4  and  C3_6 
REMARK       I    between atoms: N3_8  and  C4_10 
REMARK    3  A    between atoms: C4_10  and  C5_12 
REMARK    4  A    between atoms: C14_21  and  N4_22 
REMARK       I    between atoms: N4_22  and  C15_24 
REMARK    5  A    between atoms: C15_24  and  C16_26 
ROOT
HETATM    1  C5  UNL     1      22.762   9.581  -1.007  1.00  0.00     0.079 C 
HETATM    2  C6  UNL     1      21.460   9.783  -1.701  1.00  0.00     0.018 C 
HETATM    3  C7  UNL     1      20.404   8.785  -1.389  1.00  0.00    -0.011 C 
HETATM    4  C8  UNL     1      21.113   7.478  -1.133  1.00  0.00     0.010 C 
HETATM    5  C9  UNL     1      21.750   7.629   0.271  1.00  0.00    -0.007 C 
HETATM    6  C10 UNL     1      22.791   8.660   0.160  1.00  0.00     0.019 C 
HETATM    7  C11 UNL     1      20.581   7.876   1.103  1.00  0.00     0.018 C 
HETATM    8  C12 UNL     1      20.338   7.823   2.501  1.00  0.00     0.010 C 
HETATM    9  C13 UNL     1      19.158   8.697   2.163  1.00  0.00     0.032 C 
HETATM   10  C14 UNL     1      20.002   9.224   1.032  1.00  0.00     0.037 C 
HETATM   11  C19 UNL     1      19.372   9.162  -0.381  1.00  0.00     0.036 C 
ENDROOT
BRANCH   1  12
HETATM   12  C4  UNL     1      23.907   9.326  -1.956  1.00  0.00     0.228 C 
HETATM   13  N3  UNL     1      25.246   9.261  -1.534  1.00  0.00    -0.301 N 
HETATM   14  C3  UNL     1      26.164  10.048  -1.963  1.00  0.00     0.198 C 
ATOM     15  H3  UNL     1      25.503   8.550  -0.850  1.00  0.00     0.171 HD
HETATM   16  N1  UNL     1      27.481   9.889  -1.466  1.00  0.00    -0.296 N 
HETATM   17  N2  UNL     1      25.929  11.081  -2.920  1.00  0.00    -0.063 NA
HETATM   18  C2  UNL     1      28.504   9.635  -2.199  1.00  0.00     0.223 C 
ATOM     19  H1  UNL     1      27.627   9.982  -0.460  1.00  0.00     0.172 HD
HETATM   20  O2  UNL     1      23.630   9.167  -3.172  1.00  0.00    -0.273 OA
BRANCH  18  21
HETATM   21  O1  UNL     1      29.748   9.505  -1.568  1.00  0.00    -0.327 OA
HETATM   22  C1  UNL     1      30.630  10.620  -1.597  1.00  0.00     0.213 C 
ENDBRANCH  18  21
BRANCH  18  23
HETATM   23  N5  UNL     1      28.386   9.491  -3.611  1.00  0.00    -0.344 N 
HETATM   24  C20 UNL     1      27.494   8.589  -4.287  1.00  0.00     0.129 C 
HETATM   25  C21 UNL     1      27.383   9.102  -5.715  1.00  0.00     0.058 C 
HETATM   26  C22 UNL     1      28.057  10.435  -5.677  1.00  0.00     0.189 C 
HETATM   27  F1  UNL     1      27.186  11.403  -5.261  1.00  0.00    -0.248 F 
HETATM   28  C23 UNL     1      29.140  10.220  -4.613  1.00  0.00     0.163 C 
ENDBRANCH  18  23
ENDBRANCH   1  12
BRANCH  10  29
HETATM   29  N4  UNL     1      20.479  10.477   1.349  1.00  0.00    -0.351 N 
HETATM   30  C15 UNL     1      19.885  11.679   1.694  1.00  0.00     0.222 C 
HETATM   31  O3  UNL     1      18.657  11.881   1.782  1.00  0.00    -0.273 OA
ATOM     32  H4  UNL     1      21.497  10.531   1.324  1.00  0.00     0.163 HD
BRANCH  30  33
HETATM   33  C16 UNL     1      20.740  12.914   2.010  1.00  0.00     0.078 A 
HETATM   34  C17 UNL     1      22.117  12.560   2.458  1.00  0.00     0.015 A 
HETATM   35  C18 UNL     1      21.852  13.286   1.141  1.00  0.00     0.015 A 
ENDBRANCH  30  33
ENDBRANCH  10  29
TORSDOF 5
ENDMDL
MODEL 5
REMARK VINA RESULT: -8.324247612      2.359      3.546
REMARK  5 active torsions:
REMARK  status: ('A' for Active; 'I' for Inactive)
REMARK    1  A    between atoms: O1_2  and  C2_3 
REMARK    2  A    between atoms: C2_3  and  N5_30 
REMARK       I    between atoms: N1_4  and  C3_6 
REMARK       I    between atoms: N3_8  and  C4_10 
REMARK    3  A    between atoms: C4_10  and  C5_12 
REMARK    4  A    between atoms: C14_21  and  N4_22 
REMARK       I    between atoms: N4_22  and  C15_24 
REMARK    5  A    between atoms: C15_24  and  C16_26 
ROOT
HETATM    1  C5  UNL     1      21.664   9.295   0.821  1.00  0.00     0.079 C 
HETATM    2  C6  UNL     1      21.831   7.877   1.241  1.00  0.00     0.018 C 
HETATM    3  C7  UNL     1      22.186   7.666   2.668  1.00  0.00    -0.011 C 
HETATM    4  C8  UNL     1      23.029   8.850   3.077  1.00  0.00     0.010 C 
HETATM    5  C9  UNL     1      22.034  10.027   3.228  1.00  0.00    -0.007 C 
HETATM    6  C10 UNL     1      21.514  10.322   1.886  1.00  0.00     0.019 C 
HETATM    7  C11 UNL     1      21.130   9.522   4.253  1.00  0.00     0.018 C 
HETATM    8  C12 UNL     1      20.169  10.129   5.103  1.00  0.00     0.010 C 
HETATM    9  C13 UNL     1      19.629   8.727   5.221  1.00  0.00     0.032 C 
HETATM   10  C14 UNL     1      20.146   8.521   3.821  1.00  0.00     0.037 C 
HETATM   11  C19 UNL     1      21.087   7.308   3.609  1.00  0.00     0.036 C 
ENDROOT
BRANCH   1  12
HETATM   12  C4  UNL     1      22.650   9.721  -0.238  1.00  0.00     0.228 C 
HETATM   13  N3  UNL     1      22.313   9.815  -1.600  1.00  0.00    -0.301 N 
HETATM   14  C3  UNL     1      22.890   9.135  -2.522  1.00  0.00     0.198 C 
ATOM     15  H3  UNL     1      21.569  10.458  -1.870  1.00  0.00     0.171 HD
HETATM   16  N1  UNL     1      22.466   9.313  -3.863  1.00  0.00    -0.296 N 
HETATM   17  N2  UNL     1      23.943   8.206  -2.270  1.00  0.00    -0.063 NA
HETATM   18  C2  UNL     1      23.231   9.706  -4.816  1.00  0.00     0.223 C 
ATOM     19  H1  UNL     1      21.490   9.116  -4.085  1.00  0.00     0.172 HD
HETATM   20  O2  UNL     1      23.818  10.000   0.133  1.00  0.00    -0.273 OA
BRANCH  18  21
HETATM   21  O1  UNL     1      22.673   9.837  -6.094  1.00  0.00    -0.327 OA
HETATM   22  C1  UNL     1      21.256   9.813  -6.207  1.00  0.00     0.213 C 
ENDBRANCH  18  21
BRANCH  18  23
HETATM   23  N5  UNL     1      24.606  10.002  -4.589  1.00  0.00    -0.344 N 
HETATM   24  C20 UNL     1      25.119  10.832  -3.533  1.00  0.00     0.129 C 
HETATM   25  C21 UNL     1      26.595  10.485  -3.409  1.00  0.00     0.058 C 
HETATM   26  C22 UNL     1      26.760   9.277  -4.273  1.00  0.00     0.189 C 
HETATM   27  F1  UNL     1      26.437   8.144  -3.582  1.00  0.00    -0.248 F 
HETATM   28  C23 UNL     1      25.726   9.525  -5.377  1.00  0.00     0.163 C 
ENDBRANCH  18  23
ENDBRANCH   1  12
BRANCH  10  29
HETATM   29  N4  UNL     1      19.100   8.546   2.926  1.00  0.00    -0.351 N 
HETATM   30  C15 UNL     1      18.304   9.549   2.396  1.00  0.00     0.222 C 
HETATM   31  O3  UNL     1      18.389  10.762   2.674  1.00  0.00    -0.273 OA
ATOM     32  H4  UNL     1      18.857   7.620   2.574  1.00  0.00     0.163 HD
BRANCH  30  33
HETATM   33  C16 UNL     1      17.204   9.221   1.377  1.00  0.00     0.078 A 
HETATM   34  C17 UNL     1      17.296  10.058   0.147  1.00  0.00     0.015 A 
HETATM   35  C18 UNL     1      17.534   8.550   0.124  1.00  0.00     0.015 A 
ENDBRANCH  30  33
ENDBRANCH  10  29
TORSDOF 5
ENDMDL
