MODEL 1
REMARK VINA RESULT: -10.466414953      0.000      0.000
REMARK  3 active torsions:
REMARK  status: ('A' for Active; 'I' for Inactive)
REMARK    1  A    between atoms: C4_7  and  C5_8 
REMARK    2  A    between atoms: C5_8  and  N2_9 
REMARK       I    between atoms: N2_9  and  C6_11 
REMARK    3  A    between atoms: C6_11  and  C7_13 
REMARK       I    between atoms: N3_15  and  C9_16 
REMARK       I    between atoms: C9_16  and  N4_18 
ROOT
HETATM    1  C7  UNL     1     -23.776   9.506   3.087  1.00  0.00     0.114 C 
HETATM    2  C8  UNL     1     -23.388  10.056   1.724  1.00  0.00     0.143 C 
HETATM    3  N3  UNL     1     -22.168   9.306   1.700  1.00  0.00    -0.332 N 
HETATM    4  C9  UNL     1     -21.008   9.207   0.930  1.00  0.00     0.321 C 
HETATM    5  O3  UNL     1     -20.104   8.347   1.285  1.00  0.00    -0.247 OA
HETATM    6  N4  UNL     1     -20.689   9.958  -0.231  1.00  0.00    -0.322 N 
HETATM    7  C10 UNL     1     -21.630  10.922  -0.707  1.00  0.00     0.171 C 
HETATM    8  C11 UNL     1     -21.344  11.559  -2.020  1.00  0.00     0.116 C 
HETATM    9  C12 UNL     1     -20.771  12.953  -1.746  1.00  0.00     0.053 C 
HETATM   10  F1  UNL     1     -22.497  11.753  -2.792  1.00  0.00    -0.242 F 
HETATM   11  C13 UNL     1     -20.372  10.765  -2.863  1.00  0.00     0.047 C 
HETATM   12  C14 UNL     1     -19.116  10.648  -2.016  1.00  0.00     0.033 C 
HETATM   13  C15 UNL     1     -19.428   9.721  -0.879  1.00  0.00     0.030 C 
HETATM   14  C16 UNL     1     -18.330   9.890   0.165  1.00  0.00     0.038 C 
HETATM   15  C17 UNL     1     -19.398   8.291  -1.428  1.00  0.00     0.038 C 
HETATM   16  C18 UNL     1     -22.611   8.592   2.905  1.00  0.00     0.143 C 
ENDROOT
BRANCH   1  17
HETATM   17  C6  UNL     1     -25.050   8.769   3.111  1.00  0.00     0.225 C 
HETATM   18  N2  UNL     1     -26.214   9.347   2.554  1.00  0.00    -0.358 N 
ATOM     19  H2  UNL     1     -26.162  10.276   2.138  1.00  0.00     0.162 HD
HETATM   20  O2  UNL     1     -25.130   7.628   3.618  1.00  0.00    -0.273 OA
BRANCH  18  21
HETATM   21  C5  UNL     1     -27.499   8.630   2.566  1.00  0.00     0.164 C 
BRANCH  21  22
HETATM   22  C4  UNL     1     -28.518   9.569   3.168  1.00  0.00     0.231 C 
HETATM   23  C3  UNL     1     -28.601   9.426   4.644  1.00  0.00     0.248 C 
HETATM   24  N1  UNL     1     -29.855   9.764   5.232  1.00  0.00    -0.352 N 
HETATM   25  O1  UNL     1     -27.662   9.040   5.376  1.00  0.00    -0.271 OA
HETATM   26  C2  UNL     1     -30.782  10.504   4.395  1.00  0.00     0.109 C 
ATOM     27  H1  UNL     1     -30.089   9.499   6.189  1.00  0.00     0.163 HD
HETATM   28  C1  UNL     1     -32.202  10.398   4.911  1.00  0.00     0.035 C 
HETATM   29  C19 UNL     1     -30.667  10.168   2.944  1.00  0.00     0.141 C 
HETATM   30  O4  UNL     1     -29.772   9.140   2.674  1.00  0.00    -0.368 OA
HETATM   31  C20 UNL     1     -32.013   9.716   2.364  1.00  0.00     0.041 C 
ENDBRANCH  21  22
ENDBRANCH  18  21
ENDBRANCH   1  17
TORSDOF 3
ENDMDL
MODEL 2
REMARK VINA RESULT: -9.955383171      2.022      3.009
REMARK  3 active torsions:
REMARK  status: ('A' for Active; 'I' for Inactive)
REMARK    1  A    between atoms: C4_7  and  C5_8 
REMARK    2  A    between atoms: C5_8  and  N2_9 
REMARK       I    between atoms: N2_9  and  C6_11 
REMARK    3  A    between atoms: C6_11  and  C7_13 
REMARK       I    between atoms: N3_15  and  C9_16 
REMARK       I    between atoms: C9_16  and  N4_18 
ROOT
HETATM    1  C7  UNL     1     -21.370   7.977   2.919  1.00  0.00     0.114 C 
HETATM    2  C8  UNL     1     -21.259   8.971   1.774  1.00  0.00     0.143 C 
HETATM    3  N3  UNL     1     -21.452   7.950   0.787  1.00  0.00    -0.332 N 
HETATM    4  C9  UNL     1     -21.387   7.799  -0.600  1.00  0.00     0.321 C 
HETATM    5  O3  UNL     1     -21.651   6.635  -1.106  1.00  0.00    -0.247 OA
HETATM    6  N4  UNL     1     -21.056   8.800  -1.550  1.00  0.00    -0.322 N 
HETATM    7  C10 UNL     1     -20.761  10.119  -1.087  1.00  0.00     0.171 C 
HETATM    8  C11 UNL     1     -20.596  11.178  -2.117  1.00  0.00     0.116 C 
HETATM    9  C12 UNL     1     -19.094  11.419  -2.301  1.00  0.00     0.053 C 
HETATM   10  F1  UNL     1     -21.145  12.406  -1.727  1.00  0.00    -0.242 F 
HETATM   11  C13 UNL     1     -21.220  10.814  -3.446  1.00  0.00     0.047 C 
HETATM   12  C14 UNL     1     -20.539   9.521  -3.863  1.00  0.00     0.033 C 
HETATM   13  C15 UNL     1     -21.026   8.442  -2.942  1.00  0.00     0.030 C 
HETATM   14  C16 UNL     1     -20.087   7.250  -3.096  1.00  0.00     0.038 C 
HETATM   15  C17 UNL     1     -22.435   8.048  -3.398  1.00  0.00     0.038 C 
HETATM   16  C18 UNL     1     -21.780   7.005   1.863  1.00  0.00     0.143 C 
ENDROOT
BRANCH   1  17
HETATM   17  C6  UNL     1     -22.464   8.251   3.864  1.00  0.00     0.225 C 
HETATM   18  N2  UNL     1     -23.322   9.355   3.654  1.00  0.00    -0.358 N 
ATOM     19  H2  UNL     1     -23.176   9.956   2.845  1.00  0.00     0.162 HD
HETATM   20  O2  UNL     1     -22.656   7.522   4.863  1.00  0.00    -0.273 OA
BRANCH  18  21
HETATM   21  C5  UNL     1     -24.423   9.649   4.586  1.00  0.00     0.164 C 
BRANCH  21  22
HETATM   22  C4  UNL     1     -25.690   9.140   3.941  1.00  0.00     0.231 C 
HETATM   23  C3  UNL     1     -25.948   9.794   2.632  1.00  0.00     0.248 C 
HETATM   24  N1  UNL     1     -27.316   9.872   2.236  1.00  0.00    -0.352 N 
HETATM   25  O1  UNL     1     -25.062  10.263   1.885  1.00  0.00    -0.271 OA
HETATM   26  C2  UNL     1     -28.249   9.036   2.969  1.00  0.00     0.109 C 
ATOM     27  H1  UNL     1     -27.622  10.482   1.478  1.00  0.00     0.163 HD
HETATM   28  C1  UNL     1     -29.674   9.525   2.811  1.00  0.00     0.035 C 
HETATM   29  C19 UNL     1     -27.863   8.830   4.397  1.00  0.00     0.141 C 
HETATM   30  O4  UNL     1     -26.744   9.555   4.787  1.00  0.00    -0.368 OA
HETATM   31  C20 UNL     1     -28.990   9.249   5.349  1.00  0.00     0.041 C 
ENDBRANCH  21  22
ENDBRANCH  18  21
ENDBRANCH   1  17
TORSDOF 3
ENDMDL
MODEL 3
REMARK VINA RESULT: -9.633331332      1.219      1.351
REMARK  3 active torsions:
REMARK  status: ('A' for Active; 'I' for Inactive)
REMARK    1  A    between atoms: C4_7  and  C5_8 
REMARK    2  A    between atoms: C5_8  and  N2_9 
REMARK       I    between atoms: N2_9  and  C6_11 
REMARK    3  A    between atoms: C6_11  and  C7_13 
REMARK       I    between atoms: N3_15  and  C9_16 
REMARK       I    between atoms: C9_16  and  N4_18 
ROOT
HETATM    1  C7  UNL     1     -24.036  10.224   2.536  1.00  0.00     0.114 C 
HETATM    2  C8  UNL     1     -23.839   9.996   1.045  1.00  0.00     0.143 C 
HETATM    3  N3  UNL     1     -22.498   9.528   1.231  1.00  0.00    -0.332 N 
HETATM    4  C9  UNL     1     -21.384   9.189   0.460  1.00  0.00     0.321 C 
HETATM    5  O3  UNL     1     -20.310   8.793   1.069  1.00  0.00    -0.247 OA
HETATM    6  N4  UNL     1     -21.284   9.228  -0.954  1.00  0.00    -0.322 N 
HETATM    7  C10 UNL     1     -22.422   9.641  -1.714  1.00  0.00     0.171 C 
HETATM    8  C11 UNL     1     -22.340   9.499  -3.192  1.00  0.00     0.116 C 
HETATM    9  C12 UNL     1     -22.040  10.881  -3.777  1.00  0.00     0.053 C 
HETATM   10  F1  UNL     1     -23.548   9.082  -3.766  1.00  0.00    -0.242 F 
HETATM   11  C13 UNL     1     -21.277   8.517  -3.633  1.00  0.00     0.047 C 
HETATM   12  C14 UNL     1     -19.978   9.051  -3.052  1.00  0.00     0.033 C 
HETATM   13  C15 UNL     1     -20.038   8.855  -1.567  1.00  0.00     0.030 C 
HETATM   14  C16 UNL     1     -18.940   9.711  -0.946  1.00  0.00     0.038 C 
HETATM   15  C17 UNL     1     -19.756   7.375  -1.286  1.00  0.00     0.038 C 
HETATM   16  C18 UNL     1     -22.724   9.528   2.683  1.00  0.00     0.143 C 
ENDROOT
BRANCH   1  17
HETATM   17  C6  UNL     1     -25.135   9.450   3.134  1.00  0.00     0.225 C 
HETATM   18  N2  UNL     1     -26.303   9.182   2.385  1.00  0.00    -0.358 N 
ATOM     19  H2  UNL     1     -26.376   9.529   1.429  1.00  0.00     0.162 HD
HETATM   20  O2  UNL     1     -25.061   9.017   4.306  1.00  0.00    -0.273 OA
BRANCH  18  21
HETATM   21  C5  UNL     1     -27.417   8.410   2.962  1.00  0.00     0.164 C 
BRANCH  21  22
HETATM   22  C4  UNL     1     -28.470   9.409   3.379  1.00  0.00     0.231 C 
HETATM   23  C3  UNL     1     -28.751   9.343   4.836  1.00  0.00     0.248 C 
HETATM   24  N1  UNL     1     -30.059   9.748   5.236  1.00  0.00    -0.352 N 
HETATM   25  O1  UNL     1     -27.932   8.965   5.703  1.00  0.00    -0.271 OA
HETATM   26  C2  UNL     1     -30.839  10.474   4.250  1.00  0.00     0.109 C 
ATOM     27  H1  UNL     1     -30.426   9.539   6.164  1.00  0.00     0.163 HD
HETATM   28  C1  UNL     1     -32.318  10.437   4.577  1.00  0.00     0.035 C 
HETATM   29  C19 UNL     1     -30.547  10.062   2.844  1.00  0.00     0.141 C 
HETATM   30  O4  UNL     1     -29.663   8.995   2.743  1.00  0.00    -0.368 OA
HETATM   31  C20 UNL     1     -31.821   9.623   2.112  1.00  0.00     0.041 C 
ENDBRANCH  21  22
ENDBRANCH  18  21
ENDBRANCH   1  17
TORSDOF 3
ENDMDL
MODEL 4
REMARK VINA RESULT: -9.578450627      1.388      1.604
REMARK  3 active torsions:
REMARK  status: ('A' for Active; 'I' for Inactive)
REMARK    1  A    between atoms: C4_7  and  C5_8 
REMARK    2  A    between atoms: C5_8  and  N2_9 
REMARK       I    between atoms: N2_9  and  C6_11 
REMARK    3  A    between atoms: C6_11  and  C7_13 
REMARK       I    between atoms: N3_15  and  C9_16 
REMARK       I    between atoms: C9_16  and  N4_18 
ROOT
HETATM    1  C7  UNL     1     -22.096   8.454   3.062  1.00  0.00     0.114 C 
HETATM    2  C8  UNL     1     -22.142   9.265   1.777  1.00  0.00     0.143 C 
HETATM    3  N3  UNL     1     -21.200   8.403   1.127  1.00  0.00    -0.332 N 
HETATM    4  C9  UNL     1     -20.457   8.355  -0.055  1.00  0.00     0.321 C 
HETATM    5  O3  UNL     1     -19.682   7.335  -0.254  1.00  0.00    -0.247 OA
HETATM    6  N4  UNL     1     -20.450   9.320  -1.095  1.00  0.00    -0.322 N 
HETATM    7  C10 UNL     1     -21.283  10.474  -0.970  1.00  0.00     0.171 C 
HETATM    8  C11 UNL     1     -21.384  11.369  -2.153  1.00  0.00     0.116 C 
HETATM    9  C12 UNL     1     -20.480  12.579  -1.901  1.00  0.00     0.053 C 
HETATM   10  F1  UNL     1     -22.677  11.877  -2.341  1.00  0.00    -0.242 F 
HETATM   11  C13 UNL     1     -20.981  10.691  -3.444  1.00  0.00     0.047 C 
HETATM   12  C14 UNL     1     -19.552  10.227  -3.218  1.00  0.00     0.033 C 
HETATM   13  C15 UNL     1     -19.598   9.098  -2.232  1.00  0.00     0.030 C 
HETATM   14  C16 UNL     1     -18.180   8.881  -1.716  1.00  0.00     0.038 C 
HETATM   15  C17 UNL     1     -20.068   7.848  -2.984  1.00  0.00     0.038 C 
HETATM   16  C18 UNL     1     -21.296   7.479   2.265  1.00  0.00     0.143 C 
ENDROOT
BRANCH   1  17
HETATM   17  C6  UNL     1     -23.390   7.888   3.477  1.00  0.00     0.225 C 
HETATM   18  N2  UNL     1     -24.593   8.403   2.941  1.00  0.00    -0.358 N 
ATOM     19  H2  UNL     1     -24.555   9.167   2.267  1.00  0.00     0.162 HD
HETATM   20  O2  UNL     1     -23.454   6.950   4.302  1.00  0.00    -0.273 OA
BRANCH  18  21
HETATM   21  C5  UNL     1     -25.899   7.854   3.341  1.00  0.00     0.164 C 
BRANCH  21  22
HETATM   22  C4  UNL     1     -26.853   9.022   3.433  1.00  0.00     0.231 C 
HETATM   23  C3  UNL     1     -26.957   9.545   4.820  1.00  0.00     0.248 C 
HETATM   24  N1  UNL     1     -28.189  10.181   5.153  1.00  0.00    -0.352 N 
HETATM   25  O1  UNL     1     -26.054   9.461   5.681  1.00  0.00    -0.271 OA
HETATM   26  C2  UNL     1     -29.055  10.535   4.043  1.00  0.00     0.109 C 
ATOM     27  H1  UNL     1     -28.449  10.376   6.120  1.00  0.00     0.163 HD
HETATM   28  C1  UNL     1     -30.483  10.751   4.499  1.00  0.00     0.035 C 
HETATM   29  C19 UNL     1     -28.953   9.591   2.889  1.00  0.00     0.141 C 
HETATM   30  O4  UNL     1     -28.131   8.497   3.129  1.00  0.00    -0.368 OA
HETATM   31  C20 UNL     1     -30.323   9.014   2.514  1.00  0.00     0.041 C 
ENDBRANCH  21  22
ENDBRANCH  18  21
ENDBRANCH   1  17
TORSDOF 3
ENDMDL
MODEL 5
REMARK VINA RESULT: -9.455365424      3.148      4.585
REMARK  3 active torsions:
REMARK  status: ('A' for Active; 'I' for Inactive)
REMARK    1  A    between atoms: C4_7  and  C5_8 
REMARK    2  A    between atoms: C5_8  and  N2_9 
REMARK       I    between atoms: N2_9  and  C6_11 
REMARK    3  A    between atoms: C6_11  and  C7_13 
REMARK       I    between atoms: N3_15  and  C9_16 
REMARK       I    between atoms: C9_16  and  N4_18 
ROOT
HETATM    1  C7  UNL     1     -19.642   7.315   2.285  1.00  0.00     0.114 C 
HETATM    2  C8  UNL     1     -19.572   8.318   1.145  1.00  0.00     0.143 C 
HETATM    3  N3  UNL     1     -20.534   7.594   0.368  1.00  0.00    -0.332 N 
HETATM    4  C9  UNL     1     -21.072   7.607  -0.921  1.00  0.00     0.321 C 
HETATM    5  O3  UNL     1     -21.969   6.720  -1.223  1.00  0.00    -0.247 OA
HETATM    6  N4  UNL     1     -20.744   8.502  -1.971  1.00  0.00    -0.322 N 
HETATM    7  C10 UNL     1     -19.773   9.522  -1.729  1.00  0.00     0.171 C 
HETATM    8  C11 UNL     1     -19.587  10.548  -2.790  1.00  0.00     0.116 C 
HETATM    9  C12 UNL     1     -18.319  10.187  -3.568  1.00  0.00     0.053 C 
HETATM   10  F1  UNL     1     -19.379  11.833  -2.272  1.00  0.00    -0.242 F 
HETATM   11  C13 UNL     1     -20.761  10.636  -3.739  1.00  0.00     0.047 C 
HETATM   12  C14 UNL     1     -20.898   9.243  -4.330  1.00  0.00     0.033 C 
HETATM   13  C15 UNL     1     -21.399   8.342  -3.241  1.00  0.00     0.030 C 
HETATM   14  C16 UNL     1     -21.182   6.904  -3.699  1.00  0.00     0.038 C 
HETATM   15  C17 UNL     1     -22.899   8.607  -3.077  1.00  0.00     0.038 C 
HETATM   16  C18 UNL     1     -20.789   6.732   1.530  1.00  0.00     0.143 C 
ENDROOT
BRANCH   1  17
HETATM   17  C6  UNL     1     -20.069   7.883   3.575  1.00  0.00     0.225 C 
HETATM   18  N2  UNL     1     -21.230   8.686   3.645  1.00  0.00    -0.358 N 
ATOM     19  H2  UNL     1     -21.766   8.868   2.798  1.00  0.00     0.162 HD
HETATM   20  O2  UNL     1     -19.422   7.669   4.624  1.00  0.00    -0.273 OA
BRANCH  18  21
HETATM   21  C5  UNL     1     -21.677   9.266   4.923  1.00  0.00     0.164 C 
BRANCH  21  22
HETATM   22  C4  UNL     1     -23.183   9.157   4.948  1.00  0.00     0.231 C 
HETATM   23  C3  UNL     1     -23.647   7.790   4.595  1.00  0.00     0.248 C 
HETATM   24  N1  UNL     1     -24.944   7.706   4.009  1.00  0.00    -0.352 N 
HETATM   25  O1  UNL     1     -22.985   6.745   4.777  1.00  0.00    -0.271 OA
HETATM   26  C2  UNL     1     -25.782   8.886   4.122  1.00  0.00     0.109 C 
ATOM     27  H1  UNL     1     -25.267   6.862   3.535  1.00  0.00     0.163 HD
HETATM   28  C1  UNL     1     -26.898   8.876   3.099  1.00  0.00     0.035 C 
HETATM   29  C19 UNL     1     -25.007  10.164   4.120  1.00  0.00     0.141 C 
HETATM   30  O4  UNL     1     -23.645   9.995   3.907  1.00  0.00    -0.368 OA
HETATM   31  C20 UNL     1     -25.492  11.112   3.016  1.00  0.00     0.041 C 
ENDBRANCH  21  22
ENDBRANCH  18  21
ENDBRANCH   1  17
TORSDOF 3
ENDMDL
