MODEL 1
REMARK VINA RESULT: -9.351432208      0.000      0.000
REMARK  7 active torsions:
REMARK  status: ('A' for Active; 'I' for Inactive)
REMARK       I    between atoms: C2_2  and  N1_4 
REMARK    1  A    between atoms: N1_4  and  C3_6 
REMARK    2  A    between atoms: C3_6  and  O2_7 
REMARK    3  A    between atoms: C3_6  and  N2_9 
REMARK       I    between atoms: N2_9  and  C4_11 
REMARK    4  A    between atoms: C4_11  and  C5_13 
REMARK    5  A    between atoms: N3_18  and  C9_19 
REMARK    6  A    between atoms: C9_19  and  C10_21 
REMARK    7  A    between atoms: C10_21  and  C11_22 
ROOT
HETATM    1  C5  UNL     1     -23.328   9.729   2.168  1.00  0.00     0.180 C 
HETATM    2  C6  UNL     1     -22.626   8.724   3.055  1.00  0.00     0.073 C 
HETATM    3  C7  UNL     1     -21.835   7.832   2.094  1.00  0.00     0.190 C 
HETATM    4  F1  UNL     1     -20.636   8.421   1.762  1.00  0.00    -0.248 F 
HETATM    5  C8  UNL     1     -22.732   7.926   0.865  1.00  0.00     0.161 C 
HETATM    6  N3  UNL     1     -23.006   9.355   0.829  1.00  0.00    -0.359 N 
ENDROOT
BRANCH   6   7
HETATM    7  C9  UNL     1     -22.929  10.141  -0.358  1.00  0.00     0.077 C 
HETATM    8  S1  UNL     1     -22.747  11.743  -0.109  1.00  0.00    -0.066 SA
BRANCH   7   9
HETATM    9  C10 UNL     1     -23.026   9.462  -1.633  1.00  0.00     0.079 C 
BRANCH   9  10
HETATM   10  C11 UNL     1     -21.795   9.219  -2.413  1.00  0.00    -0.033 C 
HETATM   11  C12 UNL     1     -20.517   9.213  -1.661  1.00  0.00     0.014 C 
HETATM   12  C13 UNL     1     -19.364   8.862  -2.572  1.00  0.00    -0.013 C 
HETATM   13  C14 UNL     1     -19.488   7.459  -3.067  1.00  0.00     0.009 C 
HETATM   14  C18 UNL     1     -19.296   9.869  -3.685  1.00  0.00     0.009 C 
HETATM   15  C15 UNL     1     -20.809   7.391  -3.841  1.00  0.00    -0.013 C 
HETATM   16  C16 UNL     1     -20.661   8.313  -5.019  1.00  0.00     0.009 C 
HETATM   17  C20 UNL     1     -21.958   7.790  -2.978  1.00  0.00     0.014 C 
HETATM   18  C17 UNL     1     -20.558   9.713  -4.506  1.00  0.00    -0.013 C 
HETATM   19  C19 UNL     1     -21.737  10.092  -3.671  1.00  0.00     0.014 C 
ENDBRANCH   9  10
ENDBRANCH   7   9
ENDBRANCH   6   7
BRANCH   1  20
HETATM   20  C4  UNL     1     -24.827   9.668   2.441  1.00  0.00     0.247 C 
HETATM   21  N2  UNL     1     -25.421   8.569   3.056  1.00  0.00    -0.291 N 
ATOM     22  H2  UNL     1     -24.724   7.857   3.277  1.00  0.00     0.172 HD
HETATM   23  O3  UNL     1     -25.424  10.675   2.061  1.00  0.00    -0.271 OA
BRANCH  21  24
HETATM   24  C3  UNL     1     -26.671   8.169   3.450  1.00  0.00     0.226 C 
BRANCH  24  25
HETATM   25  N1  UNL     1     -27.876   8.646   3.897  1.00  0.00    -0.293 N 
HETATM   26  C2  UNL     1     -28.365   9.803   4.463  1.00  0.00     0.220 C 
HETATM   27  C1  UNL     1     -29.859   9.873   4.809  1.00  0.00     0.117 C 
HETATM   28  O1  UNL     1     -27.784  10.856   4.763  1.00  0.00    -0.274 OA
ATOM     29  H1  UNL     1     -28.615   7.953   3.777  1.00  0.00     0.172 HD
ENDBRANCH  24  25
BRANCH  24  30
HETATM   30  O2  UNL     1     -26.739   6.798   3.368  1.00  0.00    -0.332 OA
ATOM     31  H2  UNL     1     -25.864   6.441   3.468  1.00  0.00     0.221 HD
ENDBRANCH  24  30
ENDBRANCH  21  24
ENDBRANCH   1  20
TORSDOF 7
ENDMDL
MODEL 2
REMARK VINA RESULT: -9.337220988      1.190      1.356
REMARK  7 active torsions:
REMARK  status: ('A' for Active; 'I' for Inactive)
REMARK       I    between atoms: C2_2  and  N1_4 
REMARK    1  A    between atoms: N1_4  and  C3_6 
REMARK    2  A    between atoms: C3_6  and  O2_7 
REMARK    3  A    between atoms: C3_6  and  N2_9 
REMARK       I    between atoms: N2_9  and  C4_11 
REMARK    4  A    between atoms: C4_11  and  C5_13 
REMARK    5  A    between atoms: N3_18  and  C9_19 
REMARK    6  A    between atoms: C9_19  and  C10_21 
REMARK    7  A    between atoms: C10_21  and  C11_22 
ROOT
HETATM    1  C5  UNL     1     -23.220   9.340   2.414  1.00  0.00     0.180 C 
HETATM    2  C6  UNL     1     -22.345   8.406   3.222  1.00  0.00     0.073 C 
HETATM    3  C7  UNL     1     -21.482   7.679   2.188  1.00  0.00     0.190 C 
HETATM    4  F1  UNL     1     -20.392   8.446   1.842  1.00  0.00    -0.248 F 
HETATM    5  C8  UNL     1     -22.437   7.700   1.000  1.00  0.00     0.161 C 
HETATM    6  N3  UNL     1     -22.908   9.076   1.047  1.00  0.00    -0.359 N 
ENDROOT
BRANCH   6   7
HETATM    7  C9  UNL     1     -22.995   9.918  -0.100  1.00  0.00     0.077 C 
HETATM    8  S1  UNL     1     -23.012  11.517   0.221  1.00  0.00    -0.066 SA
BRANCH   7   9
HETATM    9  C10 UNL     1     -23.066   9.290  -1.403  1.00  0.00     0.079 C 
BRANCH   9  10
HETATM   10  C11 UNL     1     -21.837   9.181  -2.217  1.00  0.00    -0.033 C 
HETATM   11  C12 UNL     1     -20.547   9.221  -1.488  1.00  0.00     0.014 C 
HETATM   12  C13 UNL     1     -19.392   9.008  -2.437  1.00  0.00    -0.013 C 
HETATM   13  C14 UNL     1     -19.427   7.631  -3.013  1.00  0.00     0.009 C 
HETATM   14  C18 UNL     1     -19.417  10.081  -3.488  1.00  0.00     0.009 C 
HETATM   15  C15 UNL     1     -20.756   7.515  -3.768  1.00  0.00    -0.013 C 
HETATM   16  C16 UNL     1     -20.697   8.513  -4.891  1.00  0.00     0.009 C 
HETATM   17  C20 UNL     1     -21.911   7.780  -2.864  1.00  0.00     0.014 C 
HETATM   18  C17 UNL     1     -20.682   9.885  -4.296  1.00  0.00    -0.013 C 
HETATM   19  C19 UNL     1     -21.867  10.129  -3.420  1.00  0.00     0.014 C 
ENDBRANCH   9  10
ENDBRANCH   7   9
ENDBRANCH   6   7
BRANCH   1  20
HETATM   20  C4  UNL     1     -24.682   9.055   2.740  1.00  0.00     0.247 C 
HETATM   21  N2  UNL     1     -25.711   9.882   2.298  1.00  0.00    -0.291 N 
ATOM     22  H2  UNL     1     -25.341  10.662   1.754  1.00  0.00     0.172 HD
HETATM   23  O3  UNL     1     -24.832   8.040   3.420  1.00  0.00    -0.271 OA
BRANCH  21  24
HETATM   24  C3  UNL     1     -27.077   9.949   2.382  1.00  0.00     0.226 C 
BRANCH  24  25
HETATM   25  N1  UNL     1     -28.105  10.153   3.266  1.00  0.00    -0.293 N 
HETATM   26  C2  UNL     1     -29.448   9.855   3.350  1.00  0.00     0.220 C 
HETATM   27  C1  UNL     1     -30.221  10.315   4.595  1.00  0.00     0.117 C 
HETATM   28  O1  UNL     1     -30.186   9.251   2.559  1.00  0.00    -0.274 OA
ATOM     29  H1  UNL     1     -27.788  10.667   4.088  1.00  0.00     0.172 HD
ENDBRANCH  24  25
BRANCH  24  30
HETATM   30  O2  UNL     1     -27.605   9.732   1.130  1.00  0.00    -0.332 OA
ATOM     31  H2  UNL     1     -26.949   9.949   0.479  1.00  0.00     0.221 HD
ENDBRANCH  24  30
ENDBRANCH  21  24
ENDBRANCH   1  20
TORSDOF 7
ENDMDL
MODEL 3
REMARK VINA RESULT: -9.231496209      1.345      1.473
REMARK  7 active torsions:
REMARK  status: ('A' for Active; 'I' for Inactive)
REMARK       I    between atoms: C2_2  and  N1_4 
REMARK    1  A    between atoms: N1_4  and  C3_6 
REMARK    2  A    between atoms: C3_6  and  O2_7 
REMARK    3  A    between atoms: C3_6  and  N2_9 
REMARK       I    between atoms: N2_9  and  C4_11 
REMARK    4  A    between atoms: C4_11  and  C5_13 
REMARK    5  A    between atoms: N3_18  and  C9_19 
REMARK    6  A    between atoms: C9_19  and  C10_21 
REMARK    7  A    between atoms: C10_21  and  C11_22 
ROOT
HETATM    1  C5  UNL     1     -22.314   8.655   2.700  1.00  0.00     0.180 C 
HETATM    2  C6  UNL     1     -21.172   7.858   3.292  1.00  0.00     0.073 C 
HETATM    3  C7  UNL     1     -20.418   7.292   2.085  1.00  0.00     0.190 C 
HETATM    4  F1  UNL     1     -19.542   8.226   1.579  1.00  0.00    -0.248 F 
HETATM    5  C8  UNL     1     -21.571   7.182   1.094  1.00  0.00     0.161 C 
HETATM    6  N3  UNL     1     -22.229   8.465   1.289  1.00  0.00    -0.359 N 
ENDROOT
BRANCH   6   7
HETATM    7  C9  UNL     1     -22.656   9.301   0.216  1.00  0.00     0.077 C 
HETATM    8  S1  UNL     1     -22.994  10.840   0.636  1.00  0.00    -0.066 SA
BRANCH   7   9
HETATM    9  C10 UNL     1     -22.755   8.716  -1.106  1.00  0.00     0.079 C 
BRANCH   9  10
HETATM   10  C11 UNL     1     -21.648   8.916  -2.065  1.00  0.00    -0.033 C 
HETATM   11  C12 UNL     1     -20.351   9.365  -1.504  1.00  0.00     0.014 C 
HETATM   12  C13 UNL     1     -19.299   9.435  -2.586  1.00  0.00    -0.013 C 
HETATM   13  C14 UNL     1     -18.998   8.074  -3.120  1.00  0.00     0.009 C 
HETATM   14  C18 UNL     1     -19.754  10.392  -3.650  1.00  0.00     0.009 C 
HETATM   15  C15 UNL     1     -20.312   7.539  -3.700  1.00  0.00    -0.013 C 
HETATM   16  C16 UNL     1     -20.673   8.445  -4.844  1.00  0.00     0.009 C 
HETATM   17  C20 UNL     1     -21.385   7.516  -2.664  1.00  0.00     0.014 C 
HETATM   18  C17 UNL     1     -20.990   9.797  -4.288  1.00  0.00    -0.013 C 
HETATM   19  C19 UNL     1     -22.088   9.744  -3.276  1.00  0.00     0.014 C 
ENDBRANCH   9  10
ENDBRANCH   7   9
ENDBRANCH   6   7
BRANCH   1  20
HETATM   20  C4  UNL     1     -23.628   8.139   3.275  1.00  0.00     0.247 C 
HETATM   21  N2  UNL     1     -24.862   8.600   2.826  1.00  0.00    -0.291 N 
ATOM     22  H2  UNL     1     -24.743   9.300   2.093  1.00  0.00     0.172 HD
HETATM   23  O3  UNL     1     -23.466   7.294   4.156  1.00  0.00    -0.271 OA
BRANCH  21  24
HETATM   24  C3  UNL     1     -26.191   8.384   3.084  1.00  0.00     0.226 C 
BRANCH  24  25
HETATM   25  N1  UNL     1     -27.450   8.766   2.701  1.00  0.00    -0.293 N 
HETATM   26  C2  UNL     1     -28.679   8.959   3.294  1.00  0.00     0.220 C 
HETATM   27  C1  UNL     1     -29.853   9.411   2.414  1.00  0.00     0.117 C 
HETATM   28  O1  UNL     1     -29.028   8.826   4.476  1.00  0.00    -0.274 OA
ATOM     29  H1  UNL     1     -27.489   8.960   1.700  1.00  0.00     0.172 HD
ENDBRANCH  24  25
BRANCH  24  30
HETATM   30  O2  UNL     1     -26.296   7.451   4.089  1.00  0.00    -0.332 OA
ATOM     31  H2  UNL     1     -26.371   7.903   4.921  1.00  0.00     0.221 HD
ENDBRANCH  24  30
ENDBRANCH  21  24
ENDBRANCH   1  20
TORSDOF 7
ENDMDL
MODEL 4
REMARK VINA RESULT: -9.230346873      1.983      2.481
REMARK  7 active torsions:
REMARK  status: ('A' for Active; 'I' for Inactive)
REMARK       I    between atoms: C2_2  and  N1_4 
REMARK    1  A    between atoms: N1_4  and  C3_6 
REMARK    2  A    between atoms: C3_6  and  O2_7 
REMARK    3  A    between atoms: C3_6  and  N2_9 
REMARK       I    between atoms: N2_9  and  C4_11 
REMARK    4  A    between atoms: C4_11  and  C5_13 
REMARK    5  A    between atoms: N3_18  and  C9_19 
REMARK    6  A    between atoms: C9_19  and  C10_21 
REMARK    7  A    between atoms: C10_21  and  C11_22 
ROOT
HETATM    1  C5  UNL     1     -21.761   8.579   2.929  1.00  0.00     0.180 C 
HETATM    2  C6  UNL     1     -21.712   8.250   4.405  1.00  0.00     0.073 C 
HETATM    3  C7  UNL     1     -20.910   6.948   4.493  1.00  0.00     0.190 C 
HETATM    4  F1  UNL     1     -19.558   7.210   4.477  1.00  0.00    -0.248 F 
HETATM    5  C8  UNL     1     -21.262   6.341   3.140  1.00  0.00     0.161 C 
HETATM    6  N3  UNL     1     -21.107   7.497   2.268  1.00  0.00    -0.359 N 
ENDROOT
BRANCH   6   7
HETATM    7  C9  UNL     1     -20.413   7.457   1.024  1.00  0.00     0.077 C 
HETATM    8  S1  UNL     1     -18.863   7.962   1.087  1.00  0.00    -0.066 SA
BRANCH   7   9
HETATM    9  C10 UNL     1     -21.132   6.993  -0.144  1.00  0.00     0.079 C 
BRANCH   9  10
HETATM   10  C11 UNL     1     -20.982   7.726  -1.419  1.00  0.00    -0.033 C 
HETATM   11  C12 UNL     1     -19.784   7.409  -2.234  1.00  0.00     0.014 C 
HETATM   12  C13 UNL     1     -19.816   8.164  -3.542  1.00  0.00    -0.013 C 
HETATM   13  C14 UNL     1     -20.952   7.702  -4.393  1.00  0.00     0.009 C 
HETATM   14  C18 UNL     1     -19.863   9.638  -3.256  1.00  0.00     0.009 C 
HETATM   15  C15 UNL     1     -22.229   7.983  -3.594  1.00  0.00    -0.013 C 
HETATM   16  C16 UNL     1     -22.313   9.476  -3.435  1.00  0.00     0.009 C 
HETATM   17  C20 UNL     1     -22.196   7.295  -2.271  1.00  0.00     0.014 C 
HETATM   18  C17 UNL     1     -21.180   9.917  -2.565  1.00  0.00    -0.013 C 
HETATM   19  C19 UNL     1     -21.192   9.232  -1.237  1.00  0.00     0.014 C 
ENDBRANCH   9  10
ENDBRANCH   7   9
ENDBRANCH   6   7
BRANCH   1  20
HETATM   20  C4  UNL     1     -23.218   8.723   2.502  1.00  0.00     0.247 C 
HETATM   21  N2  UNL     1     -24.268   8.273   3.298  1.00  0.00    -0.291 N 
ATOM     22  H2  UNL     1     -23.916   7.855   4.160  1.00  0.00     0.172 HD
HETATM   23  O3  UNL     1     -23.343   9.266   1.404  1.00  0.00    -0.271 OA
BRANCH  21  24
HETATM   24  C3  UNL     1     -25.637   8.229   3.256  1.00  0.00     0.226 C 
BRANCH  24  25
HETATM   25  N1  UNL     1     -26.727   8.800   2.651  1.00  0.00    -0.293 N 
HETATM   26  C2  UNL     1     -28.056   9.014   2.944  1.00  0.00     0.220 C 
HETATM   27  C1  UNL     1     -28.927   9.732   1.903  1.00  0.00     0.117 C 
HETATM   28  O1  UNL     1     -28.713   8.715   3.952  1.00  0.00    -0.274 OA
ATOM     29  H1  UNL     1     -26.487   9.168   1.730  1.00  0.00     0.172 HD
ENDBRANCH  24  25
BRANCH  24  30
HETATM   30  O2  UNL     1     -26.072   7.268   4.139  1.00  0.00    -0.332 OA
ATOM     31  H2  UNL     1     -25.334   6.724   4.388  1.00  0.00     0.221 HD
ENDBRANCH  24  30
ENDBRANCH  21  24
ENDBRANCH   1  20
TORSDOF 7
ENDMDL
MODEL 5
REMARK VINA RESULT: -9.199298481      1.634      1.881
REMARK  7 active torsions:
REMARK  status: ('A' for Active; 'I' for Inactive)
REMARK       I    between atoms: C2_2  and  N1_4 
REMARK    1  A    between atoms: N1_4  and  C3_6 
REMARK    2  A    between atoms: C3_6  and  O2_7 
REMARK    3  A    between atoms: C3_6  and  N2_9 
REMARK       I    between atoms: N2_9  and  C4_11 
REMARK    4  A    between atoms: C4_11  and  C5_13 
REMARK    5  A    between atoms: N3_18  and  C9_19 
REMARK    6  A    between atoms: C9_19  and  C10_21 
REMARK    7  A    between atoms: C10_21  and  C11_22 
ROOT
HETATM    1  C5  UNL     1     -23.766   9.498   2.841  1.00  0.00     0.180 C 
HETATM    2  C6  UNL     1     -22.971   8.583   3.747  1.00  0.00     0.073 C 
HETATM    3  C7  UNL     1     -21.931   7.927   2.835  1.00  0.00     0.190 C 
HETATM    4  F1  UNL     1     -20.843   8.754   2.668  1.00  0.00    -0.248 F 
HETATM    5  C8  UNL     1     -22.704   7.938   1.521  1.00  0.00     0.161 C 
HETATM    6  N3  UNL     1     -23.246   9.288   1.528  1.00  0.00    -0.359 N 
ENDROOT
BRANCH   6   7
HETATM    7  C9  UNL     1     -23.209  10.157   0.399  1.00  0.00     0.077 C 
HETATM    8  S1  UNL     1     -23.530  11.722   0.726  1.00  0.00    -0.066 SA
BRANCH   7   9
HETATM    9  C10 UNL     1     -22.905   9.581  -0.895  1.00  0.00     0.079 C 
BRANCH   9  10
HETATM   10  C11 UNL     1     -21.530   9.689  -1.426  1.00  0.00    -0.033 C 
HETATM   11  C12 UNL     1     -20.486  10.162  -0.484  1.00  0.00     0.014 C 
HETATM   12  C13 UNL     1     -19.125  10.132  -1.140  1.00  0.00    -0.013 C 
HETATM   13  C14 UNL     1     -18.715   8.730  -1.446  1.00  0.00     0.009 C 
HETATM   14  C18 UNL     1     -19.150  11.011  -2.358  1.00  0.00     0.009 C 
HETATM   15  C15 UNL     1     -19.772   8.172  -2.404  1.00  0.00    -0.013 C 
HETATM   16  C16 UNL     1     -19.683   8.992  -3.662  1.00  0.00     0.009 C 
HETATM   17  C20 UNL     1     -21.134   8.244  -1.802  1.00  0.00     0.014 C 
HETATM   18  C17 UNL     1     -20.116  10.387  -3.341  1.00  0.00    -0.013 C 
HETATM   19  C19 UNL     1     -21.495  10.428  -2.767  1.00  0.00     0.014 C 
ENDBRANCH   9  10
ENDBRANCH   7   9
ENDBRANCH   6   7
BRANCH   1  20
HETATM   20  C4  UNL     1     -25.243   9.135   2.943  1.00  0.00     0.247 C 
HETATM   21  N2  UNL     1     -26.233   9.892   2.323  1.00  0.00    -0.291 N 
ATOM     22  H2  UNL     1     -25.826  10.682   1.822  1.00  0.00     0.172 HD
HETATM   23  O3  UNL     1     -25.443   8.126   3.620  1.00  0.00    -0.271 OA
BRANCH  21  24
HETATM   24  C3  UNL     1     -27.598   9.882   2.192  1.00  0.00     0.226 C 
BRANCH  24  25
HETATM   25  N1  UNL     1     -28.760  10.085   2.890  1.00  0.00    -0.293 N 
HETATM   26  C2  UNL     1     -30.101   9.810   2.734  1.00  0.00     0.220 C 
HETATM   27  C1  UNL     1     -31.072  10.256   3.836  1.00  0.00     0.117 C 
HETATM   28  O1  UNL     1     -30.699   9.235   1.813  1.00  0.00    -0.274 OA
ATOM     29  H1  UNL     1     -28.583  10.576   3.766  1.00  0.00     0.172 HD
ENDBRANCH  24  25
BRANCH  24  30
HETATM   30  O2  UNL     1     -27.911   9.545   0.896  1.00  0.00    -0.332 OA
ATOM     31  H2  UNL     1     -27.114   9.297   0.442  1.00  0.00     0.221 HD
ENDBRANCH  24  30
ENDBRANCH  21  24
ENDBRANCH   1  20
TORSDOF 7
ENDMDL
