MODEL 1
REMARK VINA RESULT: -5.478155977      0.000      0.000
REMARK  3 active torsions:
REMARK  status: ('A' for Active; 'I' for Inactive)
REMARK    1  A    between atoms: C2_7  and  C3_8 
REMARK    2  A    between atoms: C3_8  and  N3_9 
REMARK    3  A    between atoms: N3_9  and  C4_12 
ROOT
HETATM    1  N3  UNL     1      -7.828 -83.864   0.165  1.00  0.00    -0.042 N 
ATOM      2  H31 UNL     1      -7.944 -83.273  -0.657  1.00  0.00     0.279 HD
ATOM      3  H32 UNL     1      -8.624 -83.550   0.721  1.00  0.00     0.279 HD
ENDROOT
BRANCH   1   4
HETATM    4  C3  UNL     1      -6.608 -83.555   0.829  1.00  0.00     0.288 C 
BRANCH   4   5
HETATM    5  C2  UNL     1      -6.916 -82.941   2.176  1.00  0.00     0.259 A 
HETATM    6  N2  UNL     1      -5.853 -82.906   3.124  1.00  0.00    -0.328 N 
HETATM    7  C1  UNL     1      -6.706 -83.636   3.983  1.00  0.00     0.216 A 
ATOM      8  H2  UNL     1      -4.907 -82.526   3.164  1.00  0.00     0.165 HD
HETATM    9  N1  UNL     1      -6.603 -84.043   5.212  1.00  0.00    -0.365 N 
HETATM   10  O1  UNL     1      -7.711 -83.766   3.020  1.00  0.00    -0.295 OA
ATOM     11  H12 UNL     1      -5.870 -83.948   5.915  1.00  0.00     0.159 HD
ATOM     12  H11 UNL     1      -7.218 -84.569   5.831  1.00  0.00     0.159 HD
ENDBRANCH   4   5
ENDBRANCH   1   4
BRANCH   1  13
HETATM   13  C4  UNL     1      -7.980 -85.249  -0.188  1.00  0.00     0.382 C 
HETATM   14  C5  UNL     1      -9.384 -85.732  -0.208  1.00  0.00     0.064 C 
HETATM   15  C6  UNL     1      -9.431 -86.994   0.629  1.00  0.00     0.031 C 
HETATM   16  C7  UNL     1      -8.210 -86.822   1.502  1.00  0.00     0.235 C 
HETATM   17  N4  UNL     1      -7.235 -86.110   0.709  1.00  0.00    -0.046 N 
ATOM     18  H42 UNL     1      -6.579 -86.726   0.227  1.00  0.00     0.279 HD
ATOM     19  H41 UNL     1      -6.547 -85.607   1.271  1.00  0.00     0.279 HD
ENDBRANCH   1  13
TORSDOF 3
ENDMDL
MODEL 2
REMARK VINA RESULT: -5.408806483      2.288      5.551
REMARK  3 active torsions:
REMARK  status: ('A' for Active; 'I' for Inactive)
REMARK    1  A    between atoms: C2_7  and  C3_8 
REMARK    2  A    between atoms: C3_8  and  N3_9 
REMARK    3  A    between atoms: N3_9  and  C4_12 
ROOT
HETATM    1  N3  UNL     1      -5.643 -83.076   2.865  1.00  0.00    -0.042 N 
ATOM      2  H31 UNL     1      -5.076 -82.717   2.097  1.00  0.00     0.279 HD
ATOM      3  H32 UNL     1      -4.933 -83.598   3.379  1.00  0.00     0.279 HD
ENDROOT
BRANCH   1   4
HETATM    4  C3  UNL     1      -6.645 -83.958   2.371  1.00  0.00     0.288 C 
BRANCH   4   5
HETATM    5  C2  UNL     1      -6.310 -84.343   0.948  1.00  0.00     0.259 A 
HETATM    6  N2  UNL     1      -7.103 -83.755  -0.079  1.00  0.00    -0.328 N 
HETATM    7  C1  UNL     1      -7.416 -85.076  -0.478  1.00  0.00     0.216 A 
ATOM      8  H2  UNL     1      -7.338 -82.812  -0.388  1.00  0.00     0.165 HD
HETATM    9  N1  UNL     1      -8.093 -85.575  -1.467  1.00  0.00    -0.365 N 
HETATM   10  O1  UNL     1      -6.726 -85.656   0.591  1.00  0.00    -0.295 OA
ATOM     11  H12 UNL     1      -8.596 -85.152  -2.247  1.00  0.00     0.159 HD
ATOM     12  H11 UNL     1      -8.318 -86.527  -1.754  1.00  0.00     0.159 HD
ENDBRANCH   4   5
ENDBRANCH   1   4
BRANCH   1  13
HETATM   13  C4  UNL     1      -6.145 -81.992   3.666  1.00  0.00     0.382 C 
HETATM   14  C5  UNL     1      -6.142 -80.671   2.989  1.00  0.00     0.064 C 
HETATM   15  C6  UNL     1      -5.454 -79.695   3.922  1.00  0.00     0.031 C 
HETATM   16  C7  UNL     1      -4.636 -80.629   4.783  1.00  0.00     0.235 C 
HETATM   17  N4  UNL     1      -5.394 -81.853   4.898  1.00  0.00    -0.046 N 
ATOM     18  H42 UNL     1      -5.979 -81.889   5.734  1.00  0.00     0.279 HD
ATOM     19  H41 UNL     1      -4.817 -82.667   5.113  1.00  0.00     0.279 HD
ENDBRANCH   1  13
TORSDOF 3
ENDMDL
MODEL 3
REMARK VINA RESULT: -5.354455503      2.451      5.664
REMARK  3 active torsions:
REMARK  status: ('A' for Active; 'I' for Inactive)
REMARK    1  A    between atoms: C2_7  and  C3_8 
REMARK    2  A    between atoms: C3_8  and  N3_9 
REMARK    3  A    between atoms: N3_9  and  C4_12 
ROOT
HETATM    1  N3  UNL     1      -6.240 -83.158   4.046  1.00  0.00    -0.042 N 
ATOM      2  H31 UNL     1      -5.313 -83.582   4.069  1.00  0.00     0.279 HD
ATOM      3  H32 UNL     1      -6.563 -83.391   4.986  1.00  0.00     0.279 HD
ENDROOT
BRANCH   1   4
HETATM    4  C3  UNL     1      -7.053 -83.800   3.071  1.00  0.00     0.288 C 
BRANCH   4   5
HETATM    5  C2  UNL     1      -6.511 -83.497   1.693  1.00  0.00     0.259 A 
HETATM    6  N2  UNL     1      -7.235 -84.028   0.586  1.00  0.00    -0.328 N 
HETATM    7  C1  UNL     1      -6.031 -84.669   0.214  1.00  0.00     0.216 A 
ATOM      8  H2  UNL     1      -8.188 -83.971   0.226  1.00  0.00     0.165 HD
HETATM    9  N1  UNL     1      -5.681 -85.394  -0.805  1.00  0.00    -0.365 N 
HETATM   10  O1  UNL     1      -5.344 -84.237   1.353  1.00  0.00    -0.295 OA
ATOM     11  H12 UNL     1      -6.182 -85.709  -1.637  1.00  0.00     0.159 HD
ATOM     12  H11 UNL     1      -4.813 -85.856  -1.074  1.00  0.00     0.159 HD
ENDBRANCH   4   5
ENDBRANCH   1   4
BRANCH   1  13
HETATM   13  C4  UNL     1      -6.136 -81.733   3.891  1.00  0.00     0.382 C 
HETATM   14  C5  UNL     1      -4.758 -81.196   4.020  1.00  0.00     0.064 C 
HETATM   15  C6  UNL     1      -4.817 -80.059   5.021  1.00  0.00     0.031 C 
HETATM   16  C7  UNL     1      -6.073 -80.399   5.788  1.00  0.00     0.235 C 
HETATM   17  N4  UNL     1      -6.969 -81.034   4.850  1.00  0.00    -0.046 N 
ATOM     18  H42 UNL     1      -7.626 -80.385   4.417  1.00  0.00     0.279 HD
ATOM     19  H41 UNL     1      -7.661 -81.636   5.297  1.00  0.00     0.279 HD
ENDBRANCH   1  13
TORSDOF 3
ENDMDL
MODEL 4
REMARK VINA RESULT: -5.272492008      2.453      5.734
REMARK  3 active torsions:
REMARK  status: ('A' for Active; 'I' for Inactive)
REMARK    1  A    between atoms: C2_7  and  C3_8 
REMARK    2  A    between atoms: C3_8  and  N3_9 
REMARK    3  A    between atoms: N3_9  and  C4_12 
ROOT
HETATM    1  N3  UNL     1      -6.166 -82.889   4.700  1.00  0.00    -0.042 N 
ATOM      2  H31 UNL     1      -5.393 -83.108   4.072  1.00  0.00     0.279 HD
ATOM      3  H32 UNL     1      -5.829 -83.332   5.555  1.00  0.00     0.279 HD
ENDROOT
BRANCH   1   4
HETATM    4  C3  UNL     1      -7.361 -83.519   4.253  1.00  0.00     0.288 C 
BRANCH   4   5
HETATM    5  C2  UNL     1      -7.060 -84.338   3.019  1.00  0.00     0.259 A 
HETATM    6  N2  UNL     1      -5.999 -83.879   2.186  1.00  0.00    -0.328 N 
HETATM    7  C1  UNL     1      -6.950 -83.838   1.140  1.00  0.00     0.216 A 
ATOM      8  H2  UNL     1      -5.005 -83.673   2.295  1.00  0.00     0.165 HD
HETATM    9  N1  UNL     1      -6.873 -83.575  -0.129  1.00  0.00    -0.365 N 
HETATM   10  O1  UNL     1      -8.015 -84.187   1.976  1.00  0.00    -0.295 OA
ATOM     11  H12 UNL     1      -6.096 -83.320  -0.739  1.00  0.00     0.159 HD
ATOM     12  H11 UNL     1      -7.558 -83.545  -0.883  1.00  0.00     0.159 HD
ENDBRANCH   4   5
ENDBRANCH   1   4
BRANCH   1  13
HETATM   13  C4  UNL     1      -6.274 -81.467   4.883  1.00  0.00     0.382 C 
HETATM   14  C5  UNL     1      -5.856 -80.659   3.710  1.00  0.00     0.064 C 
HETATM   15  C6  UNL     1      -4.871 -79.623   4.213  1.00  0.00     0.031 C 
HETATM   16  C7  UNL     1      -4.384 -80.266   5.490  1.00  0.00     0.235 C 
HETATM   17  N4  UNL     1      -5.496 -81.019   6.021  1.00  0.00    -0.046 N 
ATOM     18  H42 UNL     1      -6.045 -80.499   6.707  1.00  0.00     0.279 HD
ATOM     19  H41 UNL     1      -5.210 -81.780   6.638  1.00  0.00     0.279 HD
ENDBRANCH   1  13
TORSDOF 3
ENDMDL
MODEL 5
REMARK VINA RESULT: -5.251196668      2.452      5.599
REMARK  3 active torsions:
REMARK  status: ('A' for Active; 'I' for Inactive)
REMARK    1  A    between atoms: C2_7  and  C3_8 
REMARK    2  A    between atoms: C3_8  and  N3_9 
REMARK    3  A    between atoms: N3_9  and  C4_12 
ROOT
HETATM    1  N3  UNL     1      -7.062 -82.019   3.201  1.00  0.00    -0.042 N 
ATOM      2  H31 UNL     1      -7.954 -81.588   3.443  1.00  0.00     0.279 HD
ATOM      3  H32 UNL     1      -6.700 -81.321   2.551  1.00  0.00     0.279 HD
ENDROOT
BRANCH   1   4
HETATM    4  C3  UNL     1      -7.275 -83.256   2.532  1.00  0.00     0.288 C 
BRANCH   4   5
HETATM    5  C2  UNL     1      -6.486 -83.266   1.242  1.00  0.00     0.259 A 
HETATM    6  N2  UNL     1      -7.141 -83.796   0.093  1.00  0.00    -0.328 N 
HETATM    7  C1  UNL     1      -6.065 -84.710   0.005  1.00  0.00     0.216 A 
ATOM      8  H2  UNL     1      -7.996 -83.604  -0.429  1.00  0.00     0.165 HD
HETATM    9  N1  UNL     1      -5.738 -85.628  -0.853  1.00  0.00    -0.365 N 
HETATM   10  O1  UNL     1      -5.473 -84.264   1.191  1.00  0.00    -0.295 OA
ATOM     11  H12 UNL     1      -6.170 -85.954  -1.718  1.00  0.00     0.159 HD
ATOM     12  H11 UNL     1      -4.963 -86.287  -0.916  1.00  0.00     0.159 HD
ENDBRANCH   4   5
ENDBRANCH   1   4
BRANCH   1  13
HETATM   13  C4  UNL     1      -6.217 -82.106   4.362  1.00  0.00     0.382 C 
HETATM   14  C5  UNL     1      -6.708 -81.351   5.542  1.00  0.00     0.064 C 
HETATM   15  C6  UNL     1      -5.559 -80.491   6.028  1.00  0.00     0.031 C 
HETATM   16  C7  UNL     1      -4.707 -80.396   4.783  1.00  0.00     0.235 C 
HETATM   17  N4  UNL     1      -4.874 -81.643   4.074  1.00  0.00    -0.046 N 
ATOM     18  H42 UNL     1      -4.154 -82.332   4.295  1.00  0.00     0.279 HD
ATOM     19  H41 UNL     1      -4.678 -81.569   3.076  1.00  0.00     0.279 HD
ENDBRANCH   1  13
TORSDOF 3
ENDMDL
