MODEL 1
REMARK VINA RESULT: -5.547724022      0.000      0.000
REMARK  5 active torsions:
REMARK  status: ('A' for Active; 'I' for Inactive)
REMARK    1  A    between atoms: C2_3  and  C3_4 
REMARK    2  A    between atoms: C3_4  and  N2_5 
REMARK    3  A    between atoms: N2_5  and  N3_6 
REMARK    4  A    between atoms: N2_5  and  C4_9 
REMARK    5  A    between atoms: C5_14  and  N6_15 
ROOT
HETATM    1  N1  UNL     1     -27.802 -16.049 -37.315  1.00  0.00    -0.197 NA
HETATM    2  C1  UNL     1     -26.655 -16.254 -37.237  1.00  0.00     0.060 C 
HETATM    3  C2  UNL     1     -25.189 -16.504 -37.163  1.00  0.00     0.146 C 
ENDROOT
BRANCH   3   4
HETATM    4  C3  UNL     1     -24.522 -15.450 -37.974  1.00  0.00     0.181 C 
BRANCH   4   5
HETATM    5  N2  UNL     1     -24.839 -15.521 -39.365  1.00  0.00    -0.128 N 
BRANCH   5   6
HETATM    6  N3  UNL     1     -24.505 -16.760 -39.992  1.00  0.00    -0.329 N 
ATOM      7  H32 UNL     1     -24.161 -17.504 -39.385  1.00  0.00     0.177 HD
ATOM      8  H31 UNL     1     -24.667 -16.787 -40.999  1.00  0.00     0.177 HD
ENDBRANCH   5   6
BRANCH   5   9
HETATM    9  C4  UNL     1     -25.402 -14.523 -40.190  1.00  0.00     0.728 A 
HETATM   10  N4  UNL     1     -24.658 -13.495 -40.737  1.00  0.00    -0.116 N 
HETATM   11  N5  UNL     1     -25.440 -12.718 -41.461  1.00  0.00    -0.117 N 
ATOM     12  H4  UNL     1     -23.656 -13.358 -40.601  1.00  0.00     0.206 HD
HETATM   13  C5  UNL     1     -26.694 -13.203 -41.409  1.00  0.00     0.705 A 
ATOM     14  H5  UNL     1     -25.144 -11.888 -41.975  1.00  0.00     0.206 HD
HETATM   15  N7  UNL     1     -26.640 -14.295 -40.635  1.00  0.00    -0.018 N 
ATOM     16  H7  UNL     1     -27.445 -14.881 -40.413  1.00  0.00     0.203 HD
BRANCH  13  17
HETATM   17  N6  UNL     1     -27.686 -12.655 -42.025  1.00  0.00    -0.233 N 
ATOM     18  H62 UNL     1     -27.736 -11.801 -42.580  1.00  0.00     0.174 HD
ATOM     19  H61 UNL     1     -28.627 -13.048 -42.023  1.00  0.00     0.174 HD
ENDBRANCH  13  17
ENDBRANCH   5   9
ENDBRANCH   4   5
ENDBRANCH   3   4
TORSDOF 5
ENDMDL
MODEL 2
REMARK VINA RESULT: -5.501506085      0.617      1.215
REMARK  5 active torsions:
REMARK  status: ('A' for Active; 'I' for Inactive)
REMARK    1  A    between atoms: C2_3  and  C3_4 
REMARK    2  A    between atoms: C3_4  and  N2_5 
REMARK    3  A    between atoms: N2_5  and  N3_6 
REMARK    4  A    between atoms: N2_5  and  C4_9 
REMARK    5  A    between atoms: C5_14  and  N6_15 
ROOT
HETATM    1  N1  UNL     1     -27.745 -15.953 -37.419  1.00  0.00    -0.197 NA
HETATM    2  C1  UNL     1     -26.616 -16.206 -37.266  1.00  0.00     0.060 C 
HETATM    3  C2  UNL     1     -25.170 -16.520 -37.096  1.00  0.00     0.146 C 
ENDROOT
BRANCH   3   4
HETATM    4  C3  UNL     1     -24.410 -15.557 -37.937  1.00  0.00     0.181 C 
BRANCH   4   5
HETATM    5  N2  UNL     1     -24.765 -15.610 -39.320  1.00  0.00    -0.128 N 
BRANCH   5   6
HETATM    6  N3  UNL     1     -24.446 -16.841 -39.972  1.00  0.00    -0.329 N 
ATOM      7  H32 UNL     1     -24.003 -17.561 -39.402  1.00  0.00     0.177 HD
ATOM      8  H31 UNL     1     -24.720 -16.888 -40.953  1.00  0.00     0.177 HD
ENDBRANCH   5   6
BRANCH   5   9
HETATM    9  C4  UNL     1     -25.351 -14.603 -40.117  1.00  0.00     0.728 A 
HETATM   10  N4  UNL     1     -26.708 -14.544 -40.372  1.00  0.00    -0.116 N 
HETATM   11  N5  UNL     1     -26.971 -13.503 -41.138  1.00  0.00    -0.117 N 
ATOM     12  H4  UNL     1     -27.402 -15.205 -40.021  1.00  0.00     0.206 HD
HETATM   13  C5  UNL     1     -25.817 -12.864 -41.405  1.00  0.00     0.705 A 
ATOM     14  H5  UNL     1     -27.895 -13.228 -41.473  1.00  0.00     0.206 HD
HETATM   15  N7  UNL     1     -24.855 -13.550 -40.772  1.00  0.00    -0.018 N 
ATOM     16  H7  UNL     1     -23.866 -13.300 -40.789  1.00  0.00     0.203 HD
BRANCH  13  17
HETATM   17  N6  UNL     1     -25.753 -11.800 -42.131  1.00  0.00    -0.233 N 
ATOM     18  H62 UNL     1     -26.088 -10.853 -41.956  1.00  0.00     0.174 HD
ATOM     19  H61 UNL     1     -25.326 -11.784 -43.057  1.00  0.00     0.174 HD
ENDBRANCH  13  17
ENDBRANCH   5   9
ENDBRANCH   4   5
ENDBRANCH   3   4
TORSDOF 5
ENDMDL
MODEL 3
REMARK VINA RESULT: -5.491673723      7.437      8.651
REMARK  5 active torsions:
REMARK  status: ('A' for Active; 'I' for Inactive)
REMARK    1  A    between atoms: C2_3  and  C3_4 
REMARK    2  A    between atoms: C3_4  and  N2_5 
REMARK    3  A    between atoms: N2_5  and  N3_6 
REMARK    4  A    between atoms: N2_5  and  C4_9 
REMARK    5  A    between atoms: C5_14  and  N6_15 
ROOT
HETATM    1  N1  UNL     1     -24.339 -18.762 -43.829  1.00  0.00    -0.197 NA
HETATM    2  C1  UNL     1     -25.252 -18.636 -44.546  1.00  0.00     0.060 C 
HETATM    3  C2  UNL     1     -26.431 -18.487 -45.442  1.00  0.00     0.146 C 
ENDROOT
BRANCH   3   4
HETATM    4  C3  UNL     1     -27.620 -18.282 -44.572  1.00  0.00     0.181 C 
BRANCH   4   5
HETATM    5  N2  UNL     1     -28.844 -18.178 -45.302  1.00  0.00    -0.128 N 
BRANCH   5   6
HETATM    6  N3  UNL     1     -28.891 -17.102 -46.240  1.00  0.00    -0.329 N 
ATOM      7  H32 UNL     1     -28.013 -16.618 -46.428  1.00  0.00     0.177 HD
ATOM      8  H31 UNL     1     -29.809 -16.935 -46.653  1.00  0.00     0.177 HD
ENDBRANCH   5   6
BRANCH   5   9
HETATM    9  C4  UNL     1     -30.005 -18.974 -45.189  1.00  0.00     0.728 A 
HETATM   10  N4  UNL     1     -31.193 -18.660 -45.822  1.00  0.00    -0.116 N 
HETATM   11  N5  UNL     1     -32.100 -19.576 -45.542  1.00  0.00    -0.117 N 
ATOM     12  H4  UNL     1     -31.345 -17.843 -46.415  1.00  0.00     0.206 HD
HETATM   13  C5  UNL     1     -31.545 -20.496 -44.733  1.00  0.00     0.705 A 
ATOM     14  H5  UNL     1     -33.062 -19.585 -45.883  1.00  0.00     0.206 HD
HETATM   15  N7  UNL     1     -30.278 -20.107 -44.538  1.00  0.00    -0.018 N 
ATOM     16  H7  UNL     1     -29.604 -20.614 -43.964  1.00  0.00     0.203 HD
BRANCH  13  17
HETATM   17  N6  UNL     1     -32.189 -21.523 -44.290  1.00  0.00    -0.233 N 
ATOM     18  H62 UNL     1     -33.168 -21.632 -44.027  1.00  0.00     0.174 HD
ATOM     19  H61 UNL     1     -31.748 -22.429 -44.131  1.00  0.00     0.174 HD
ENDBRANCH  13  17
ENDBRANCH   5   9
ENDBRANCH   4   5
ENDBRANCH   3   4
TORSDOF 5
ENDMDL
MODEL 4
REMARK VINA RESULT: -5.412188994      1.604      2.291
REMARK  5 active torsions:
REMARK  status: ('A' for Active; 'I' for Inactive)
REMARK    1  A    between atoms: C2_3  and  C3_4 
REMARK    2  A    between atoms: C3_4  and  N2_5 
REMARK    3  A    between atoms: N2_5  and  N3_6 
REMARK    4  A    between atoms: N2_5  and  C4_9 
REMARK    5  A    between atoms: C5_14  and  N6_15 
ROOT
HETATM    1  N1  UNL     1     -24.013 -19.302 -39.176  1.00  0.00    -0.197 NA
HETATM    2  C1  UNL     1     -24.123 -18.180 -38.871  1.00  0.00     0.060 C 
HETATM    3  C2  UNL     1     -24.259 -16.743 -38.508  1.00  0.00     0.146 C 
ENDROOT
BRANCH   3   4
HETATM    4  C3  UNL     1     -24.792 -16.037 -39.704  1.00  0.00     0.181 C 
BRANCH   4   5
HETATM    5  N2  UNL     1     -25.408 -14.785 -39.394  1.00  0.00    -0.128 N 
BRANCH   5   6
HETATM    6  N3  UNL     1     -25.529 -14.507 -37.998  1.00  0.00    -0.329 N 
ATOM      7  H32 UNL     1     -25.062 -15.151 -37.360  1.00  0.00     0.177 HD
ATOM      8  H31 UNL     1     -26.060 -13.666 -37.775  1.00  0.00     0.177 HD
ENDBRANCH   5   6
BRANCH   5   9
HETATM    9  C4  UNL     1     -25.933 -13.820 -40.281  1.00  0.00     0.728 A 
HETATM   10  N4  UNL     1     -25.285 -12.633 -40.565  1.00  0.00    -0.116 N 
HETATM   11  N5  UNL     1     -26.002 -11.931 -41.423  1.00  0.00    -0.117 N 
ATOM     12  H4  UNL     1     -24.390 -12.343 -40.172  1.00  0.00     0.206 HD
HETATM   13  C5  UNL     1     -27.118 -12.623 -41.717  1.00  0.00     0.705 A 
ATOM     14  H5  UNL     1     -25.751 -11.017 -41.799  1.00  0.00     0.206 HD
HETATM   15  N7  UNL     1     -27.047 -13.762 -41.014  1.00  0.00    -0.018 N 
ATOM     16  H7  UNL     1     -27.758 -14.494 -41.036  1.00  0.00     0.203 HD
BRANCH  13  17
HETATM   17  N6  UNL     1     -28.016 -12.192 -42.536  1.00  0.00    -0.233 N 
ATOM     18  H62 UNL     1     -28.231 -11.247 -42.853  1.00  0.00     0.174 HD
ATOM     19  H61 UNL     1     -28.685 -12.806 -43.000  1.00  0.00     0.174 HD
ENDBRANCH  13  17
ENDBRANCH   5   9
ENDBRANCH   4   5
ENDBRANCH   3   4
TORSDOF 5
ENDMDL
MODEL 5
REMARK VINA RESULT: -5.336247099      1.632      2.548
REMARK  5 active torsions:
REMARK  status: ('A' for Active; 'I' for Inactive)
REMARK    1  A    between atoms: C2_3  and  C3_4 
REMARK    2  A    between atoms: C3_4  and  N2_5 
REMARK    3  A    between atoms: N2_5  and  N3_6 
REMARK    4  A    between atoms: N2_5  and  C4_9 
REMARK    5  A    between atoms: C5_14  and  N6_15 
ROOT
HETATM    1  N1  UNL     1     -23.629 -18.701 -39.124  1.00  0.00    -0.197 NA
HETATM    2  C1  UNL     1     -23.592 -17.883 -38.292  1.00  0.00     0.060 C 
HETATM    3  C2  UNL     1     -23.531 -16.823 -37.249  1.00  0.00     0.146 C 
ENDROOT
BRANCH   3   4
HETATM    4  C3  UNL     1     -23.538 -15.512 -37.953  1.00  0.00     0.181 C 
BRANCH   4   5
HETATM    5  N2  UNL     1     -24.851 -15.058 -38.288  1.00  0.00    -0.128 N 
BRANCH   5   6
HETATM    6  N3  UNL     1     -25.831 -15.257 -37.268  1.00  0.00    -0.329 N 
ATOM      7  H32 UNL     1     -25.604 -14.906 -36.338  1.00  0.00     0.177 HD
ATOM      8  H31 UNL     1     -26.685 -15.718 -37.581  1.00  0.00     0.177 HD
ENDBRANCH   5   6
BRANCH   5   9
HETATM    9  C4  UNL     1     -25.298 -14.475 -39.493  1.00  0.00     0.728 A 
HETATM   10  N4  UNL     1     -26.575 -14.662 -39.987  1.00  0.00    -0.116 N 
HETATM   11  N5  UNL     1     -26.714 -14.002 -41.121  1.00  0.00    -0.117 N 
ATOM     12  H4  UNL     1     -27.301 -15.226 -39.543  1.00  0.00     0.206 HD
HETATM   13  C5  UNL     1     -25.555 -13.378 -41.398  1.00  0.00     0.705 A 
ATOM     14  H5  UNL     1     -27.559 -13.969 -41.691  1.00  0.00     0.206 HD
HETATM   15  N7  UNL     1     -24.718 -13.680 -40.396  1.00  0.00    -0.018 N 
ATOM     16  H7  UNL     1     -23.757 -13.345 -40.330  1.00  0.00     0.203 HD
BRANCH  13  17
HETATM   17  N6  UNL     1     -25.384 -12.645 -42.446  1.00  0.00    -0.233 N 
ATOM     18  H62 UNL     1     -25.388 -11.632 -42.559  1.00  0.00     0.174 HD
ATOM     19  H61 UNL     1     -25.215 -13.034 -43.374  1.00  0.00     0.174 HD
ENDBRANCH  13  17
ENDBRANCH   5   9
ENDBRANCH   4   5
ENDBRANCH   3   4
TORSDOF 5
ENDMDL
