MODEL 1
REMARK VINA RESULT: -4.658700918      0.000      0.000
REMARK  6 active torsions:
REMARK  status: ('A' for Active; 'I' for Inactive)
REMARK    1  A    between atoms: N1_1  and  C1_4 
REMARK    2  A    between atoms: N2_7  and  C4_8 
REMARK    3  A    between atoms: C4_8  and  C5_9 
REMARK    4  A    between atoms: C5_9  and  C6_10 
REMARK    5  A    between atoms: C6_10  and  N3_11 
REMARK    6  A    between atoms: C7_15  and  N4_16 
ROOT
HETATM    1  C1  UNL     1     -25.426 -17.034 -35.505  1.00  0.00     0.116 A 
HETATM    2  C2  UNL     1     -26.516 -16.783 -36.309  1.00  0.00     0.066 A 
HETATM    3  C3  UNL     1     -26.333 -16.161 -37.535  1.00  0.00     0.112 A 
HETATM    4  N2  UNL     1     -25.104 -15.797 -37.957  1.00  0.00    -0.194 N 
HETATM    5  C7  UNL     1     -24.079 -16.064 -37.138  1.00  0.00     0.679 A 
HETATM    6  N5  UNL     1     -24.228 -16.668 -35.936  1.00  0.00    -0.177 N 
ATOM      7  H5  UNL     1     -23.409 -16.844 -35.355  1.00  0.00     0.185 HD
ENDROOT
BRANCH   4   8
HETATM    8  C4  UNL     1     -24.902 -15.161 -39.208  1.00  0.00     0.148 C 
BRANCH   8   9
HETATM    9  C5  UNL     1     -26.157 -14.726 -39.915  1.00  0.00     0.048 C 
BRANCH   9  10
HETATM   10  C6  UNL     1     -25.908 -13.395 -40.598  1.00  0.00     0.231 C 
BRANCH  10  11
HETATM   11  N3  UNL     1     -26.978 -13.187 -41.580  1.00  0.00    -0.079 N 
ATOM     12  H33 UNL     1     -26.655 -12.708 -42.422  1.00  0.00     0.274 HD
ATOM     13  H32 UNL     1     -27.281 -14.053 -42.025  1.00  0.00     0.274 HD
ATOM     14  H31 UNL     1     -27.740 -12.694 -41.114  1.00  0.00     0.274 HD
ENDBRANCH  10  11
ENDBRANCH   9  10
ENDBRANCH   8   9
ENDBRANCH   4   8
BRANCH   5  15
HETATM   15  N4  UNL     1     -22.903 -15.722 -37.526  1.00  0.00    -0.234 N 
ATOM     16  H42 UNL     1     -22.741 -15.527 -38.514  1.00  0.00     0.174 HD
ATOM     17  H41 UNL     1     -22.171 -15.660 -36.818  1.00  0.00     0.174 HD
ENDBRANCH   5  15
BRANCH   1  18
HETATM   18  N1  UNL     1     -25.560 -17.618 -34.341  1.00  0.00    -0.385 N 
ATOM     19  H12 UNL     1     -26.428 -18.098 -34.103  1.00  0.00     0.157 HD
ATOM     20  H11 UNL     1     -24.807 -17.607 -33.654  1.00  0.00     0.157 HD
ENDBRANCH   1  18
TORSDOF 6
ENDMDL
MODEL 2
REMARK VINA RESULT: -4.515357950      1.894      5.831
REMARK  6 active torsions:
REMARK  status: ('A' for Active; 'I' for Inactive)
REMARK    1  A    between atoms: N1_1  and  C1_4 
REMARK    2  A    between atoms: N2_7  and  C4_8 
REMARK    3  A    between atoms: C4_8  and  C5_9 
REMARK    4  A    between atoms: C5_9  and  C6_10 
REMARK    5  A    between atoms: C6_10  and  N3_11 
REMARK    6  A    between atoms: C7_15  and  N4_16 
ROOT
HETATM    1  C1  UNL     1     -26.326 -13.370 -42.354  1.00  0.00     0.116 A 
HETATM    2  C2  UNL     1     -26.350 -13.077 -41.009  1.00  0.00     0.066 A 
HETATM    3  C3  UNL     1     -25.829 -13.988 -40.102  1.00  0.00     0.112 A 
HETATM    4  N2  UNL     1     -25.299 -15.159 -40.513  1.00  0.00    -0.194 N 
HETATM    5  C7  UNL     1     -25.302 -15.394 -41.832  1.00  0.00     0.679 A 
HETATM    6  N5  UNL     1     -25.803 -14.524 -42.740  1.00  0.00    -0.177 N 
ATOM      7  H5  UNL     1     -25.777 -14.760 -43.731  1.00  0.00     0.185 HD
ENDROOT
BRANCH   4   8
HETATM    8  C4  UNL     1     -24.764 -16.100 -39.597  1.00  0.00     0.148 C 
BRANCH   8   9
HETATM    9  C5  UNL     1     -24.373 -15.537 -38.258  1.00  0.00     0.048 C 
BRANCH   9  10
HETATM   10  C6  UNL     1     -23.642 -16.603 -37.464  1.00  0.00     0.231 C 
BRANCH  10  11
HETATM   11  N3  UNL     1     -24.246 -16.662 -36.128  1.00  0.00    -0.079 N 
ATOM     12  H33 UNL     1     -23.912 -17.452 -35.577  1.00  0.00     0.274 HD
ATOM     13  H32 UNL     1     -23.916 -15.918 -35.513  1.00  0.00     0.274 HD
ATOM     14  H31 UNL     1     -25.260 -16.660 -36.242  1.00  0.00     0.274 HD
ENDBRANCH  10  11
ENDBRANCH   9  10
ENDBRANCH   8   9
ENDBRANCH   4   8
BRANCH   5  15
HETATM   15  N4  UNL     1     -24.801 -16.506 -42.238  1.00  0.00    -0.234 N 
ATOM     16  H42 UNL     1     -23.916 -16.826 -41.846  1.00  0.00     0.174 HD
ATOM     17  H41 UNL     1     -25.319 -17.026 -42.947  1.00  0.00     0.174 HD
ENDBRANCH   5  15
BRANCH   1  18
HETATM   18  N1  UNL     1     -26.808 -12.535 -43.240  1.00  0.00    -0.385 N 
ATOM     19  H12 UNL     1     -27.816 -12.451 -43.373  1.00  0.00     0.157 HD
ATOM     20  H11 UNL     1     -26.193 -11.955 -43.811  1.00  0.00     0.157 HD
ENDBRANCH   1  18
TORSDOF 6
ENDMDL
MODEL 3
REMARK VINA RESULT: -4.448909742      1.192      2.002
REMARK  6 active torsions:
REMARK  status: ('A' for Active; 'I' for Inactive)
REMARK    1  A    between atoms: N1_1  and  C1_4 
REMARK    2  A    between atoms: N2_7  and  C4_8 
REMARK    3  A    between atoms: C4_8  and  C5_9 
REMARK    4  A    between atoms: C5_9  and  C6_10 
REMARK    5  A    between atoms: C6_10  and  N3_11 
REMARK    6  A    between atoms: C7_15  and  N4_16 
ROOT
HETATM    1  C1  UNL     1     -24.657 -16.729 -35.894  1.00  0.00     0.116 A 
HETATM    2  C2  UNL     1     -23.623 -16.742 -36.803  1.00  0.00     0.066 A 
HETATM    3  C3  UNL     1     -23.865 -16.376 -38.119  1.00  0.00     0.112 A 
HETATM    4  N2  UNL     1     -25.096 -16.005 -38.526  1.00  0.00    -0.194 N 
HETATM    5  C7  UNL     1     -26.066 -16.010 -37.602  1.00  0.00     0.679 A 
HETATM    6  N5  UNL     1     -25.859 -16.364 -36.312  1.00  0.00    -0.177 N 
ATOM      7  H5  UNL     1     -26.638 -16.349 -35.654  1.00  0.00     0.185 HD
ENDROOT
BRANCH   4   8
HETATM    8  C4  UNL     1     -25.358 -15.628 -39.868  1.00  0.00     0.148 C 
BRANCH   8   9
HETATM    9  C5  UNL     1     -24.702 -14.349 -40.312  1.00  0.00     0.048 C 
BRANCH   9  10
HETATM   10  C6  UNL     1     -25.741 -13.244 -40.351  1.00  0.00     0.231 C 
BRANCH  10  11
HETATM   11  N3  UNL     1     -26.943 -13.781 -40.999  1.00  0.00    -0.079 N 
ATOM     12  H33 UNL     1     -27.575 -13.051 -41.327  1.00  0.00     0.274 HD
ATOM     13  H32 UNL     1     -26.747 -14.208 -41.904  1.00  0.00     0.274 HD
ATOM     14  H31 UNL     1     -27.389 -14.425 -40.346  1.00  0.00     0.274 HD
ENDBRANCH  10  11
ENDBRANCH   9  10
ENDBRANCH   8   9
ENDBRANCH   4   8
BRANCH   5  15
HETATM   15  N4  UNL     1     -27.245 -15.661 -37.976  1.00  0.00    -0.234 N 
ATOM     16  H42 UNL     1     -27.515 -14.679 -37.916  1.00  0.00     0.174 HD
ATOM     17  H41 UNL     1     -27.868 -16.392 -38.319  1.00  0.00     0.174 HD
ENDBRANCH   5  15
BRANCH   1  18
HETATM   18  N1  UNL     1     -24.467 -17.069 -34.644  1.00  0.00    -0.385 N 
ATOM     19  H12 UNL     1     -24.626 -16.394 -33.897  1.00  0.00     0.157 HD
ATOM     20  H11 UNL     1     -24.160 -18.009 -34.392  1.00  0.00     0.157 HD
ENDBRANCH   1  18
TORSDOF 6
ENDMDL
MODEL 4
REMARK VINA RESULT: -4.430536146      1.706      5.281
REMARK  6 active torsions:
REMARK  status: ('A' for Active; 'I' for Inactive)
REMARK    1  A    between atoms: N1_1  and  C1_4 
REMARK    2  A    between atoms: N2_7  and  C4_8 
REMARK    3  A    between atoms: C4_8  and  C5_9 
REMARK    4  A    between atoms: C5_9  and  C6_10 
REMARK    5  A    between atoms: C6_10  and  N3_11 
REMARK    6  A    between atoms: C7_15  and  N4_16 
ROOT
HETATM    1  C1  UNL     1     -25.636 -14.626 -42.155  1.00  0.00     0.116 A 
HETATM    2  C2  UNL     1     -25.971 -13.641 -41.253  1.00  0.00     0.066 A 
HETATM    3  C3  UNL     1     -25.736 -13.843 -39.901  1.00  0.00     0.112 A 
HETATM    4  N2  UNL     1     -25.183 -14.989 -39.451  1.00  0.00    -0.194 N 
HETATM    5  C7  UNL     1     -24.877 -15.914 -40.370  1.00  0.00     0.679 A 
HETATM    6  N5  UNL     1     -25.096 -15.745 -41.695  1.00  0.00    -0.177 N 
ATOM      7  H5  UNL     1     -24.842 -16.486 -42.347  1.00  0.00     0.185 HD
ENDROOT
BRANCH   4   8
HETATM    8  C4  UNL     1     -24.937 -15.209 -38.073  1.00  0.00     0.148 C 
BRANCH   8   9
HETATM    9  C5  UNL     1     -26.140 -15.616 -37.265  1.00  0.00     0.048 C 
BRANCH   9  10
HETATM   10  C6  UNL     1     -25.744 -16.722 -36.305  1.00  0.00     0.231 C 
BRANCH  10  11
HETATM   11  N3  UNL     1     -24.284 -16.687 -36.157  1.00  0.00    -0.079 N 
ATOM     12  H33 UNL     1     -23.805 -17.305 -36.812  1.00  0.00     0.274 HD
ATOM     13  H32 UNL     1     -23.875 -15.809 -36.476  1.00  0.00     0.274 HD
ATOM     14  H31 UNL     1     -24.064 -16.896 -35.183  1.00  0.00     0.274 HD
ENDBRANCH  10  11
ENDBRANCH   9  10
ENDBRANCH   8   9
ENDBRANCH   4   8
BRANCH   5  15
HETATM   15  N4  UNL     1     -24.351 -17.011 -39.957  1.00  0.00    -0.234 N 
ATOM     16  H42 UNL     1     -24.491 -17.865 -40.496  1.00  0.00     0.174 HD
ATOM     17  H41 UNL     1     -23.808 -16.979 -39.093  1.00  0.00     0.174 HD
ENDBRANCH   5  15
BRANCH   1  18
HETATM   18  N1  UNL     1     -25.844 -14.472 -43.438  1.00  0.00    -0.385 N 
ATOM     19  H12 UNL     1     -26.312 -13.636 -43.787  1.00  0.00     0.157 HD
ATOM     20  H11 UNL     1     -25.544 -15.177 -44.112  1.00  0.00     0.157 HD
ENDBRANCH   1  18
TORSDOF 6
ENDMDL
MODEL 5
REMARK VINA RESULT: -4.423869931      2.053      6.368
REMARK  6 active torsions:
REMARK  status: ('A' for Active; 'I' for Inactive)
REMARK    1  A    between atoms: N1_1  and  C1_4 
REMARK    2  A    between atoms: N2_7  and  C4_8 
REMARK    3  A    between atoms: C4_8  and  C5_9 
REMARK    4  A    between atoms: C5_9  and  C6_10 
REMARK    5  A    between atoms: C6_10  and  N3_11 
REMARK    6  A    between atoms: C7_15  and  N4_16 
ROOT
HETATM    1  C1  UNL     1     -27.059 -12.098 -42.803  1.00  0.00     0.116 A 
HETATM    2  C2  UNL     1     -26.728 -11.530 -41.594  1.00  0.00     0.066 A 
HETATM    3  C3  UNL     1     -25.986 -12.259 -40.676  1.00  0.00     0.112 A 
HETATM    4  N2  UNL     1     -25.581 -13.517 -40.947  1.00  0.00    -0.194 N 
HETATM    5  C7  UNL     1     -25.930 -14.022 -42.138  1.00  0.00     0.679 A 
HETATM    6  N5  UNL     1     -26.654 -13.334 -43.052  1.00  0.00    -0.177 N 
ATOM      7  H5  UNL     1     -26.889 -13.772 -43.942  1.00  0.00     0.185 HD
ENDROOT
BRANCH   4   8
HETATM    8  C4  UNL     1     -24.822 -14.274 -40.020  1.00  0.00     0.148 C 
BRANCH   8   9
HETATM    9  C5  UNL     1     -25.540 -14.631 -38.746  1.00  0.00     0.048 C 
BRANCH   9  10
HETATM   10  C6  UNL     1     -24.946 -15.908 -38.182  1.00  0.00     0.231 C 
BRANCH  10  11
HETATM   11  N3  UNL     1     -23.689 -15.560 -37.509  1.00  0.00    -0.079 N 
ATOM     12  H33 UNL     1     -23.798 -15.446 -36.501  1.00  0.00     0.274 HD
ATOM     13  H32 UNL     1     -23.025 -16.334 -37.487  1.00  0.00     0.274 HD
ATOM     14  H31 UNL     1     -23.312 -14.728 -37.962  1.00  0.00     0.274 HD
ENDBRANCH  10  11
ENDBRANCH   9  10
ENDBRANCH   8   9
ENDBRANCH   4   8
BRANCH   5  15
HETATM   15  N4  UNL     1     -25.551 -15.220 -42.410  1.00  0.00    -0.234 N 
ATOM     16  H42 UNL     1     -25.889 -15.991 -41.834  1.00  0.00     0.174 HD
ATOM     17  H41 UNL     1     -24.921 -15.347 -43.202  1.00  0.00     0.174 HD
ENDBRANCH   5  15
BRANCH   1  18
HETATM   18  N1  UNL     1     -27.759 -11.441 -43.694  1.00  0.00    -0.385 N 
ATOM     19  H12 UNL     1     -28.161 -10.532 -43.464  1.00  0.00     0.157 HD
ATOM     20  H11 UNL     1     -27.915 -11.819 -44.628  1.00  0.00     0.157 HD
ENDBRANCH   1  18
TORSDOF 6
ENDMDL
