MODEL 1
REMARK VINA RESULT: -7.016225455      0.000      0.000
REMARK  2 active torsions:
REMARK  status: ('A' for Active; 'I' for Inactive)
REMARK    1  A    between atoms: C4_5  and  N2_6 
REMARK    2  A    between atoms: N2_6  and  C5_8 
ROOT
HETATM    1  N2  UNL     1      42.562  33.234  56.741  1.00  0.00    -0.413 N 
ATOM      2  H2  UNL     1      43.281  33.958  56.720  1.00  0.00     0.154 HD
ENDROOT
BRANCH   1   3
HETATM    3  C4  UNL     1      41.478  33.323  55.864  1.00  0.00     0.080 C 
HETATM    4  C3  UNL     1      41.703  33.280  54.397  1.00  0.00     0.055 C 
HETATM    5  C2  UNL     1      42.297  34.642  54.009  1.00  0.00     0.274 C 
HETATM    6  N1  UNL     1      41.226  35.575  54.034  1.00  0.00     0.084 N 
HETATM    7  C1  UNL     1      41.647  36.953  53.963  1.00  0.00     0.309 C 
HETATM    8  C12 UNL     1      40.225  35.314  55.001  1.00  0.00     0.274 C 
HETATM    9  C11 UNL     1      40.675  34.576  56.213  1.00  0.00     0.055 C 
ENDBRANCH   1   3
BRANCH   1  10
HETATM   10  C5  UNL     1      42.687  32.157  57.662  1.00  0.00     0.077 C 
HETATM   11  C6  UNL     1      42.055  30.881  57.298  1.00  0.00     0.024 C 
HETATM   12  C7  UNL     1      42.837  29.655  57.738  1.00  0.00     0.002 C 
HETATM   13  C8  UNL     1      43.214  29.938  59.190  1.00  0.00     0.000 C 
HETATM   14  C9  UNL     1      44.365  30.914  59.105  1.00  0.00     0.002 C 
HETATM   15  C10 UNL     1      44.112  32.022  58.172  1.00  0.00     0.024 C 
ENDBRANCH   1  10
TORSDOF 2
ENDMDL
MODEL 2
REMARK VINA RESULT: -6.852878724      0.453      1.369
REMARK  2 active torsions:
REMARK  status: ('A' for Active; 'I' for Inactive)
REMARK    1  A    between atoms: C4_5  and  N2_6 
REMARK    2  A    between atoms: N2_6  and  C5_8 
ROOT
HETATM    1  N2  UNL     1      42.401  33.483  56.877  1.00  0.00    -0.413 N 
ATOM      2  H2  UNL     1      42.704  34.362  57.298  1.00  0.00     0.154 HD
ENDROOT
BRANCH   1   3
HETATM    3  C4  UNL     1      41.417  33.504  55.886  1.00  0.00     0.080 C 
HETATM    4  C3  UNL     1      41.803  33.437  54.454  1.00  0.00     0.055 C 
HETATM    5  C2  UNL     1      42.381  34.814  54.095  1.00  0.00     0.274 C 
HETATM    6  N1  UNL     1      41.276  35.699  53.977  1.00  0.00     0.084 N 
HETATM    7  C1  UNL     1      41.645  37.093  53.913  1.00  0.00     0.309 C 
HETATM    8  C12 UNL     1      40.186  35.418  54.836  1.00  0.00     0.274 C 
HETATM    9  C11 UNL     1      40.530  34.728  56.110  1.00  0.00     0.055 C 
ENDBRANCH   1   3
BRANCH   1  10
HETATM   10  C5  UNL     1      42.991  32.265  57.313  1.00  0.00     0.077 C 
HETATM   11  C6  UNL     1      43.723  32.286  58.588  1.00  0.00     0.024 C 
HETATM   12  C7  UNL     1      43.580  31.013  59.406  1.00  0.00     0.002 C 
HETATM   13  C8  UNL     1      43.814  29.884  58.405  1.00  0.00     0.000 C 
HETATM   14  C9  UNL     1      42.523  29.789  57.624  1.00  0.00     0.002 C 
HETATM   15  C10 UNL     1      42.030  31.097  57.167  1.00  0.00     0.024 C 
ENDBRANCH   1  10
TORSDOF 2
ENDMDL
MODEL 3
REMARK VINA RESULT: -6.796981465      1.119      1.636
REMARK  2 active torsions:
REMARK  status: ('A' for Active; 'I' for Inactive)
REMARK    1  A    between atoms: C4_5  and  N2_6 
REMARK    2  A    between atoms: N2_6  and  C5_8 
ROOT
HETATM    1  N2  UNL     1      42.433  32.921  56.637  1.00  0.00    -0.413 N 
ATOM      2  H2  UNL     1      42.261  32.639  55.671  1.00  0.00     0.154 HD
ENDROOT
BRANCH   1   3
HETATM    3  C4  UNL     1      42.468  34.281  56.955  1.00  0.00     0.080 C 
HETATM    4  C3  UNL     1      41.205  35.056  57.049  1.00  0.00     0.055 C 
HETATM    5  C2  UNL     1      40.721  35.271  55.607  1.00  0.00     0.274 C 
HETATM    6  N1  UNL     1      41.549  36.280  55.047  1.00  0.00     0.084 N 
HETATM    7  C1  UNL     1      41.417  36.419  53.617  1.00  0.00     0.309 C 
HETATM    8  C12 UNL     1      42.883  36.292  55.519  1.00  0.00     0.274 C 
HETATM    9  C11 UNL     1      43.416  34.982  55.983  1.00  0.00     0.055 C 
ENDBRANCH   1   3
BRANCH   1  10
HETATM   10  C5  UNL     1      42.630  31.921  57.628  1.00  0.00     0.077 C 
HETATM   11  C6  UNL     1      42.099  30.579  57.349  1.00  0.00     0.024 C 
HETATM   12  C7  UNL     1      42.968  29.448  57.873  1.00  0.00     0.002 C 
HETATM   13  C8  UNL     1      43.309  29.855  59.305  1.00  0.00     0.000 C 
HETATM   14  C9  UNL     1      44.385  30.908  59.158  1.00  0.00     0.002 C 
HETATM   15  C10 UNL     1      44.056  31.929  58.152  1.00  0.00     0.024 C 
ENDBRANCH   1  10
TORSDOF 2
ENDMDL
MODEL 4
REMARK VINA RESULT: -6.600390274      1.525      5.864
REMARK  2 active torsions:
REMARK  status: ('A' for Active; 'I' for Inactive)
REMARK    1  A    between atoms: C4_5  and  N2_6 
REMARK    2  A    between atoms: N2_6  and  C5_8 
ROOT
HETATM    1  N2  UNL     1      43.201  33.360  56.725  1.00  0.00    -0.413 N 
ATOM      2  H2  UNL     1      44.177  33.280  56.436  1.00  0.00     0.154 HD
ENDROOT
BRANCH   1   3
HETATM    3  C4  UNL     1      42.725  32.544  57.755  1.00  0.00     0.080 C 
HETATM    4  C3  UNL     1      43.664  32.009  58.774  1.00  0.00     0.055 C 
HETATM    5  C2  UNL     1      44.464  30.895  58.083  1.00  0.00     0.274 C 
HETATM    6  N1  UNL     1      43.597  29.775  57.982  1.00  0.00     0.084 N 
HETATM    7  C1  UNL     1      44.089  28.729  57.118  1.00  0.00     0.309 C 
HETATM    8  C12 UNL     1      42.228  30.088  57.806  1.00  0.00     0.274 C 
HETATM    9  C11 UNL     1      41.945  31.386  57.134  1.00  0.00     0.055 C 
ENDBRANCH   1   3
BRANCH   1  10
HETATM   10  C5  UNL     1      42.358  34.299  56.071  1.00  0.00     0.077 C 
HETATM   11  C6  UNL     1      42.704  35.722  56.200  1.00  0.00     0.024 C 
HETATM   12  C7  UNL     1      42.425  36.543  54.951  1.00  0.00     0.002 C 
HETATM   13  C8  UNL     1      41.018  36.131  54.526  1.00  0.00     0.000 C 
HETATM   14  C9  UNL     1      41.195  34.782  53.866  1.00  0.00     0.002 C 
HETATM   15  C10 UNL     1      42.033  33.864  54.652  1.00  0.00     0.024 C 
ENDBRANCH   1  10
TORSDOF 2
ENDMDL
MODEL 5
REMARK VINA RESULT: -6.391082809      1.540      2.566
REMARK  2 active torsions:
REMARK  status: ('A' for Active; 'I' for Inactive)
REMARK    1  A    between atoms: C4_5  and  N2_6 
REMARK    2  A    between atoms: N2_6  and  C5_8 
ROOT
HETATM    1  N2  UNL     1      42.878  33.601  58.593  1.00  0.00    -0.413 N 
ATOM      2  H2  UNL     1      42.421  33.613  59.505  1.00  0.00     0.154 HD
ENDROOT
BRANCH   1   3
HETATM    3  C4  UNL     1      42.992  34.790  57.870  1.00  0.00     0.080 C 
HETATM    4  C3  UNL     1      41.773  35.548  57.489  1.00  0.00     0.055 C 
HETATM    5  C2  UNL     1      41.113  34.762  56.346  1.00  0.00     0.274 C 
HETATM    6  N1  UNL     1      41.890  35.008  55.183  1.00  0.00     0.084 N 
HETATM    7  C1  UNL     1      41.580  34.136  54.075  1.00  0.00     0.309 C 
HETATM    8  C12 UNL     1      43.274  35.196  55.413  1.00  0.00     0.274 C 
HETATM    9  C11 UNL     1      43.826  34.519  56.619  1.00  0.00     0.055 C 
ENDBRANCH   1   3
BRANCH   1  10
HETATM   10  C5  UNL     1      43.387  32.372  58.088  1.00  0.00     0.077 C 
HETATM   11  C6  UNL     1      44.446  31.710  58.863  1.00  0.00     0.024 C 
HETATM   12  C7  UNL     1      44.360  30.193  58.858  1.00  0.00     0.002 C 
HETATM   13  C8  UNL     1      44.136  29.824  57.393  1.00  0.00     0.000 C 
HETATM   14  C9  UNL     1      42.676  30.127  57.140  1.00  0.00     0.002 C 
HETATM   15  C10 UNL     1      42.266  31.445  57.646  1.00  0.00     0.024 C 
ENDBRANCH   1  10
TORSDOF 2
ENDMDL
