MODEL 1
REMARK VINA RESULT: -7.629139040      0.000      0.000
REMARK  2 active torsions:
REMARK  status: ('A' for Active; 'I' for Inactive)
REMARK       I    between atoms: C1_2  and  N1_3 
REMARK    1  A    between atoms: C1_2  and  C6_10 
REMARK    2  A    between atoms: N1_3  and  C2_5 
ROOT
HETATM    1  O1  UNL     1      43.088  32.783  57.555  1.00  0.00    -0.273 OA
HETATM    2  C1  UNL     1      42.442  31.828  57.006  1.00  0.00     0.223 C 
HETATM    3  N1  UNL     1      41.699  32.055  55.819  1.00  0.00    -0.334 N 
ATOM      4  H1  UNL     1      41.183  31.293  55.378  1.00  0.00     0.165 HD
ENDROOT
BRANCH   2   5
HETATM    5  C6  UNL     1      42.479  30.471  57.630  1.00  0.00     0.078 C 
HETATM    6  C7  UNL     1      43.114  30.536  58.954  1.00  0.00     0.014 C 
HETATM    7  C8  UNL     1      44.078  29.458  59.291  1.00  0.00     0.001 C 
HETATM    8  C9  UNL     1      43.510  28.156  58.714  1.00  0.00     0.000 C 
HETATM    9  C10 UNL     1      43.724  28.320  57.212  1.00  0.00     0.001 C 
HETATM   10  C11 UNL     1      43.028  29.497  56.651  1.00  0.00     0.014 C 
ENDBRANCH   2   5
BRANCH   3  11
HETATM   11  C2  UNL     1      41.685  33.371  55.246  1.00  0.00     0.223 C 
HETATM   12  C3  UNL     1      40.596  34.245  55.874  1.00  0.00     0.056 C 
HETATM   13  C4  UNL     1      40.531  35.375  54.860  1.00  0.00     0.031 C 
HETATM   14  C5  UNL     1      41.140  34.745  53.639  1.00  0.00     0.170 C 
HETATM   15  O2  UNL     1      41.305  33.386  53.916  1.00  0.00    -0.367 OA
ENDBRANCH   3  11
TORSDOF 2
ENDMDL
MODEL 2
REMARK VINA RESULT: -7.188469034      1.522      6.042
REMARK  2 active torsions:
REMARK  status: ('A' for Active; 'I' for Inactive)
REMARK       I    between atoms: C1_2  and  N1_3 
REMARK    1  A    between atoms: C1_2  and  C6_10 
REMARK    2  A    between atoms: N1_3  and  C2_5 
ROOT
HETATM    1  O1  UNL     1      43.840  33.382  57.767  1.00  0.00    -0.273 OA
HETATM    2  C1  UNL     1      42.797  33.052  57.107  1.00  0.00     0.223 C 
HETATM    3  N1  UNL     1      42.428  31.687  56.984  1.00  0.00    -0.334 N 
ATOM      4  H1  UNL     1      41.595  31.422  56.459  1.00  0.00     0.165 HD
ENDROOT
BRANCH   2   5
HETATM    5  C6  UNL     1      41.971  34.121  56.470  1.00  0.00     0.078 C 
HETATM    6  C7  UNL     1      41.310  33.604  55.264  1.00  0.00     0.014 C 
HETATM    7  C8  UNL     1      41.304  34.487  54.070  1.00  0.00     0.001 C 
HETATM    8  C9  UNL     1      41.090  35.918  54.576  1.00  0.00     0.000 C 
HETATM    9  C10 UNL     1      42.429  36.262  55.222  1.00  0.00     0.001 C 
HETATM   10  C11 UNL     1      42.787  35.355  56.333  1.00  0.00     0.014 C 
ENDBRANCH   2   5
BRANCH   3  11
HETATM   11  C2  UNL     1      43.245  30.686  57.610  1.00  0.00     0.223 C 
HETATM   12  C3  UNL     1      43.091  29.327  56.923  1.00  0.00     0.056 C 
HETATM   13  C4  UNL     1      43.701  28.416  57.976  1.00  0.00     0.031 C 
HETATM   14  C5  UNL     1      43.608  29.255  59.219  1.00  0.00     0.170 C 
HETATM   15  O2  UNL     1      42.845  30.380  58.899  1.00  0.00    -0.367 OA
ENDBRANCH   3  11
TORSDOF 2
ENDMDL
MODEL 3
REMARK VINA RESULT: -7.180900681      1.726      1.978
REMARK  2 active torsions:
REMARK  status: ('A' for Active; 'I' for Inactive)
REMARK       I    between atoms: C1_2  and  N1_3 
REMARK    1  A    between atoms: C1_2  and  C6_10 
REMARK    2  A    between atoms: N1_3  and  C2_5 
ROOT
HETATM    1  O1  UNL     1      42.827  34.473  58.310  1.00  0.00    -0.273 OA
HETATM    2  C1  UNL     1      42.553  33.487  57.544  1.00  0.00     0.223 C 
HETATM    3  N1  UNL     1      42.046  33.713  56.239  1.00  0.00    -0.334 N 
ATOM      4  H1  UNL     1      41.827  32.927  55.626  1.00  0.00     0.165 HD
ENDROOT
BRANCH   2   5
HETATM    5  C6  UNL     1      42.776  32.096  58.041  1.00  0.00     0.078 C 
HETATM    6  C7  UNL     1      44.189  31.903  58.398  1.00  0.00     0.014 C 
HETATM    7  C8  UNL     1      44.818  30.625  57.979  1.00  0.00     0.001 C 
HETATM    8  C9  UNL     1      43.765  29.527  58.166  1.00  0.00     0.000 C 
HETATM    9  C10 UNL     1      42.785  29.789  57.026  1.00  0.00     0.001 C 
HETATM   10  C11 UNL     1      42.169  31.132  57.088  1.00  0.00     0.014 C 
ENDBRANCH   2   5
BRANCH   3  11
HETATM   11  C2  UNL     1      41.844  35.063  55.794  1.00  0.00     0.223 C 
HETATM   12  C3  UNL     1      40.991  35.113  54.524  1.00  0.00     0.056 C 
HETATM   13  C4  UNL     1      41.267  36.535  54.063  1.00  0.00     0.031 C 
HETATM   14  C5  UNL     1      42.552  36.858  54.772  1.00  0.00     0.170 C 
HETATM   15  O2  UNL     1      43.006  35.675  55.359  1.00  0.00    -0.367 OA
ENDBRANCH   3  11
TORSDOF 2
ENDMDL
MODEL 4
REMARK VINA RESULT: -7.043668787      1.657      6.016
REMARK  2 active torsions:
REMARK  status: ('A' for Active; 'I' for Inactive)
REMARK       I    between atoms: C1_2  and  N1_3 
REMARK    1  A    between atoms: C1_2  and  C6_10 
REMARK    2  A    between atoms: N1_3  and  C2_5 
ROOT
HETATM    1  O1  UNL     1      40.417  32.407  55.814  1.00  0.00    -0.273 OA
HETATM    2  C1  UNL     1      41.395  33.081  56.284  1.00  0.00     0.223 C 
HETATM    3  N1  UNL     1      42.380  32.450  57.086  1.00  0.00    -0.334 N 
ATOM      4  H1  UNL     1      43.163  32.986  57.461  1.00  0.00     0.165 HD
ENDROOT
BRANCH   2   5
HETATM    5  C6  UNL     1      41.489  34.539  55.975  1.00  0.00     0.078 C 
HETATM    6  C7  UNL     1      40.698  34.858  54.778  1.00  0.00     0.014 C 
HETATM    7  C8  UNL     1      41.314  35.782  53.792  1.00  0.00     0.001 C 
HETATM    8  C9  UNL     1      42.063  36.854  54.593  1.00  0.00     0.000 C 
HETATM    9  C10 UNL     1      43.277  36.101  55.129  1.00  0.00     0.001 C 
HETATM   10  C11 UNL     1      42.916  34.953  55.987  1.00  0.00     0.014 C 
ENDBRANCH   2   5
BRANCH   3  11
HETATM   11  C2  UNL     1      42.260  31.046  57.363  1.00  0.00     0.223 C 
HETATM   12  C3  UNL     1      43.027  30.656  58.628  1.00  0.00     0.056 C 
HETATM   13  C4  UNL     1      43.076  29.145  58.466  1.00  0.00     0.031 C 
HETATM   14  C5  UNL     1      42.840  28.974  56.991  1.00  0.00     0.170 C 
HETATM   15  O2  UNL     1      42.879  30.247  56.418  1.00  0.00    -0.367 OA
ENDBRANCH   3  11
TORSDOF 2
ENDMDL
MODEL 5
REMARK VINA RESULT: -6.943393404      1.593      6.068
REMARK  2 active torsions:
REMARK  status: ('A' for Active; 'I' for Inactive)
REMARK       I    between atoms: C1_2  and  N1_3 
REMARK    1  A    between atoms: C1_2  and  C6_10 
REMARK    2  A    between atoms: N1_3  and  C2_5 
ROOT
HETATM    1  O1  UNL     1      40.461  32.438  55.746  1.00  0.00    -0.273 OA
HETATM    2  C1  UNL     1      41.583  33.048  55.791  1.00  0.00     0.223 C 
HETATM    3  N1  UNL     1      42.607  32.602  56.667  1.00  0.00    -0.334 N 
ATOM      4  H1  UNL     1      43.504  33.086  56.703  1.00  0.00     0.165 HD
ENDROOT
BRANCH   2   5
HETATM    5  C6  UNL     1      41.803  34.233  54.910  1.00  0.00     0.078 C 
HETATM    6  C7  UNL     1      42.959  35.010  55.379  1.00  0.00     0.014 C 
HETATM    7  C8  UNL     1      42.814  36.488  55.391  1.00  0.00     0.001 C 
HETATM    8  C9  UNL     1      42.022  36.869  54.134  1.00  0.00     0.000 C 
HETATM    9  C10 UNL     1      40.606  36.406  54.463  1.00  0.00     0.001 C 
HETATM   10  C11 UNL     1      40.517  34.954  54.727  1.00  0.00     0.014 C 
ENDBRANCH   2   5
BRANCH   3  11
HETATM   11  C2  UNL     1      42.362  31.458  57.500  1.00  0.00     0.223 C 
HETATM   12  C3  UNL     1      43.270  31.456  58.732  1.00  0.00     0.056 C 
HETATM   13  C4  UNL     1      43.106  30.017  59.192  1.00  0.00     0.031 C 
HETATM   14  C5  UNL     1      42.615  29.336  57.946  1.00  0.00     0.170 C 
HETATM   15  O2  UNL     1      42.717  30.261  56.905  1.00  0.00    -0.367 OA
ENDBRANCH   3  11
TORSDOF 2
ENDMDL
