MODEL 1
REMARK VINA RESULT: -7.919620599      0.000      0.000
REMARK  11 active torsions:
REMARK  status: ('A' for Active; 'I' for Inactive)
REMARK    1  A    between atoms: C3_3  and  N1_4 
REMARK    2  A    between atoms: C4_7  and  N2_8 
REMARK    3  A    between atoms: N2_8  and  N3_10 
REMARK    4  A    between atoms: N3_10  and  C5_12 
REMARK    5  A    between atoms: C5_12  and  N4_13 
REMARK    6  A    between atoms: C5_12  and  C8_25 
REMARK    7  A    between atoms: N4_13  and  N5_15 
REMARK    8  A    between atoms: C7_21  and  N8_22 
REMARK    9  A    between atoms: N9_27  and  N10_28 
REMARK   10  A    between atoms: C10_37  and  N14_38 
REMARK   11  A    between atoms: C11_41  and  N15_42 
ROOT
HETATM    1  C5  UNL     1      12.878 -54.285   5.587  1.00  0.00     0.166 C 
ENDROOT
BRANCH   1   2
HETATM    2  N3  UNL     1      11.512 -54.000   5.115  1.00  0.00    -0.281 N 
ATOM      3  H3  UNL     1      11.183 -53.057   4.908  1.00  0.00     0.188 HD
BRANCH   2   4
HETATM    4  N2  UNL     1      10.710 -55.126   4.976  1.00  0.00    -0.282 N 
ATOM      5  H2  UNL     1      11.138 -56.038   4.815  1.00  0.00     0.188 HD
BRANCH   4   6
HETATM    6  C4  UNL     1       9.289 -55.013   5.056  1.00  0.00     0.155 A 
HETATM    7  C3  UNL     1       8.686 -54.941   6.296  1.00  0.00     0.156 A 
HETATM    8  C2  UNL     1       7.309 -54.842   6.353  1.00  0.00     0.012 A 
HETATM    9  C1  UNL     1       6.641 -54.750   7.653  1.00  0.00     0.054 C 
HETATM   10  C11 UNL     1       6.568 -54.818   5.179  1.00  0.00     0.154 A 
HETATM   11  C10 UNL     1       7.196 -54.890   3.968  1.00  0.00     0.134 A 
HETATM   12  N13 UNL     1       8.539 -54.985   3.943  1.00  0.00    -0.324 N 
ATOM     13  H13 UNL     1       9.007 -55.038   3.039  1.00  0.00     0.169 HD
BRANCH   7  14
HETATM   14  N1  UNL     1       9.466 -54.964   7.475  1.00  0.00    -0.111 N 
HETATM   15  O1  UNL     1      10.034 -53.914   7.867  1.00  0.00    -0.532 OA
HETATM   16  O2  UNL     1       9.622 -56.131   8.229  1.00  0.00    -0.532 OA
ENDBRANCH   7  14
BRANCH  10  17
HETATM   17  N15 UNL     1       5.157 -54.720   5.180  1.00  0.00    -0.111 N 
HETATM   18  O3  UNL     1       4.666 -53.611   4.837  1.00  0.00    -0.532 OA
HETATM   19  O4  UNL     1       4.316 -55.750   5.534  1.00  0.00    -0.532 OA
ENDBRANCH  10  17
BRANCH  11  20
HETATM   20  N14 UNL     1       6.577 -54.863   2.852  1.00  0.00    -0.383 N 
ATOM     21 2H14 UNL     1       6.919 -55.324   2.008  1.00  0.00     0.157 HD
ATOM     22 1H14 UNL     1       5.690 -54.360   2.809  1.00  0.00     0.157 HD
ENDBRANCH  11  20
ENDBRANCH   4   6
ENDBRANCH   2   4
ENDBRANCH   1   2
BRANCH   1  23
HETATM   23  N4  UNL     1      12.997 -54.832   6.629  1.00  0.00    -0.260 N 
ATOM     24  H4  UNL     1      12.058 -55.168   6.847  1.00  0.00     0.190 HD
BRANCH  23  25
HETATM   25  N5  UNL     1      13.732 -55.228   7.654  1.00  0.00    -0.078 N 
HETATM   26  C6  UNL     1      14.933 -55.841   7.632  1.00  0.00     0.242 A 
HETATM   27  N6  UNL     1      15.285 -56.049   8.923  1.00  0.00    -0.279 N 
HETATM   28  N7  UNL     1      14.368 -55.596   9.721  1.00  0.00    -0.130 N 
ATOM     29  H6  UNL     1      16.149 -56.498   9.226  1.00  0.00     0.188 HD
HETATM   30  C7  UNL     1      13.390 -55.081   8.981  1.00  0.00     0.712 A 
ATOM     31  H7  UNL     1      14.393 -55.630  10.740  1.00  0.00     0.205 HD
BRANCH  30  32
HETATM   32  N8  UNL     1      12.303 -54.532   9.388  1.00  0.00    -0.232 N 
ATOM     33  H82 UNL     1      11.597 -54.929  10.007  1.00  0.00     0.174 HD
ATOM     34  H81 UNL     1      12.006 -53.591   9.129  1.00  0.00     0.174 HD
ENDBRANCH  30  32
ENDBRANCH  23  25
ENDBRANCH   1  23
BRANCH   1  35
HETATM   35  C8  UNL     1      13.887 -53.846   4.649  1.00  0.00     0.115 A 
HETATM   36  C9  UNL     1      13.613 -53.450   3.326  1.00  0.00     0.172 A 
HETATM   37  N9  UNL     1      14.756 -53.136   2.715  1.00  0.00    -0.198 N 
HETATM   38  N11 UNL     1      15.719 -53.318   3.594  1.00  0.00    -0.222 N 
HETATM   39  N12 UNL     1      15.220 -53.736   4.734  1.00  0.00    -0.280 N 
ATOM     40  H11 UNL     1      16.710 -53.158   3.415  1.00  0.00     0.210 HD
ATOM     41  H12 UNL     1      15.769 -53.947   5.566  1.00  0.00     0.189 HD
BRANCH  37  42
HETATM   42  N10 UNL     1      14.870 -52.698   1.386  1.00  0.00    -0.323 N 
ATOM     43 2H10 UNL     1      14.886 -51.739   1.039  1.00  0.00     0.179 HD
ATOM     44 1H10 UNL     1      14.954 -53.306   0.571  1.00  0.00     0.179 HD
ENDBRANCH  37  42
ENDBRANCH   1  35
TORSDOF 11
ENDMDL
MODEL 2
REMARK VINA RESULT: -7.773124366      0.443      1.043
REMARK  11 active torsions:
REMARK  status: ('A' for Active; 'I' for Inactive)
REMARK    1  A    between atoms: C3_3  and  N1_4 
REMARK    2  A    between atoms: C4_7  and  N2_8 
REMARK    3  A    between atoms: N2_8  and  N3_10 
REMARK    4  A    between atoms: N3_10  and  C5_12 
REMARK    5  A    between atoms: C5_12  and  N4_13 
REMARK    6  A    between atoms: C5_12  and  C8_25 
REMARK    7  A    between atoms: N4_13  and  N5_15 
REMARK    8  A    between atoms: C7_21  and  N8_22 
REMARK    9  A    between atoms: N9_27  and  N10_28 
REMARK   10  A    between atoms: C10_37  and  N14_38 
REMARK   11  A    between atoms: C11_41  and  N15_42 
ROOT
HETATM    1  C5  UNL     1      12.855 -54.436   5.704  1.00  0.00     0.166 C 
ENDROOT
BRANCH   1   2
HETATM    2  N3  UNL     1      11.517 -54.112   5.179  1.00  0.00    -0.281 N 
ATOM      3  H3  UNL     1      11.228 -53.161   4.949  1.00  0.00     0.188 HD
BRANCH   2   4
HETATM    4  N2  UNL     1      10.684 -55.212   5.022  1.00  0.00    -0.282 N 
ATOM      5  H2  UNL     1      11.086 -56.137   4.870  1.00  0.00     0.188 HD
BRANCH   4   6
HETATM    6  C4  UNL     1       9.266 -55.054   5.073  1.00  0.00     0.155 A 
HETATM    7  C3  UNL     1       8.639 -54.971   6.301  1.00  0.00     0.156 A 
HETATM    8  C2  UNL     1       7.264 -54.829   6.329  1.00  0.00     0.012 A 
HETATM    9  C1  UNL     1       6.573 -54.724   7.616  1.00  0.00     0.054 C 
HETATM   10  C11 UNL     1       6.550 -54.774   5.140  1.00  0.00     0.154 A 
HETATM   11  C10 UNL     1       7.201 -54.858   3.943  1.00  0.00     0.134 A 
HETATM   12  N13 UNL     1       8.541 -54.995   3.945  1.00  0.00    -0.324 N 
ATOM     13  H13 UNL     1       9.026 -55.057   3.050  1.00  0.00     0.169 HD
BRANCH   7  14
HETATM   14  N1  UNL     1       9.393 -55.027   7.495  1.00  0.00    -0.111 N 
HETATM   15  O1  UNL     1       9.979 -53.997   7.911  1.00  0.00    -0.532 OA
HETATM   16  O2  UNL     1       9.502 -56.206   8.240  1.00  0.00    -0.532 OA
ENDBRANCH   7  14
BRANCH  10  17
HETATM   17  N15 UNL     1       5.143 -54.631   5.113  1.00  0.00    -0.111 N 
HETATM   18  O3  UNL     1       4.696 -53.487   4.831  1.00  0.00    -0.532 OA
HETATM   19  O4  UNL     1       4.262 -55.654   5.378  1.00  0.00    -0.532 OA
ENDBRANCH  10  17
BRANCH  11  20
HETATM   20  N14 UNL     1       6.607 -54.804   2.814  1.00  0.00    -0.383 N 
ATOM     21 2H14 UNL     1       5.594 -54.729   2.715  1.00  0.00     0.157 HD
ATOM     22 1H14 UNL     1       7.180 -54.830   1.970  1.00  0.00     0.157 HD
ENDBRANCH  11  20
ENDBRANCH   4   6
ENDBRANCH   2   4
ENDBRANCH   1   2
BRANCH   1  23
HETATM   23  N4  UNL     1      12.914 -55.051   6.713  1.00  0.00    -0.260 N 
ATOM     24  H4  UNL     1      12.330 -55.870   6.545  1.00  0.00     0.190 HD
BRANCH  23  25
HETATM   25  N5  UNL     1      13.356 -55.212   7.949  1.00  0.00    -0.078 N 
HETATM   26  C6  UNL     1      12.709 -54.959   9.106  1.00  0.00     0.242 A 
HETATM   27  N6  UNL     1      13.567 -55.277  10.105  1.00  0.00    -0.279 N 
HETATM   28  N7  UNL     1      14.690 -55.706   9.619  1.00  0.00    -0.130 N 
ATOM     29  H6  UNL     1      13.359 -55.190  11.100  1.00  0.00     0.188 HD
HETATM   30  C7  UNL     1      14.605 -55.683   8.292  1.00  0.00     0.712 A 
ATOM     31  H7  UNL     1      15.498 -56.009  10.162  1.00  0.00     0.205 HD
BRANCH  30  32
HETATM   32  N8  UNL     1      15.501 -56.030   7.441  1.00  0.00    -0.232 N 
ATOM     33  H82 UNL     1      16.123 -55.423   6.907  1.00  0.00     0.174 HD
ATOM     34  H81 UNL     1      15.707 -56.996   7.189  1.00  0.00     0.174 HD
ENDBRANCH  30  32
ENDBRANCH  23  25
ENDBRANCH   1  23
BRANCH   1  35
HETATM   35  C8  UNL     1      13.915 -53.944   4.854  1.00  0.00     0.115 A 
HETATM   36  C9  UNL     1      13.722 -53.500   3.532  1.00  0.00     0.172 A 
HETATM   37  N9  UNL     1      14.897 -53.143   3.011  1.00  0.00    -0.198 N 
HETATM   38  N11 UNL     1      15.803 -53.344   3.945  1.00  0.00    -0.222 N 
HETATM   39  N12 UNL     1      15.237 -53.815   5.032  1.00  0.00    -0.280 N 
ATOM     40  H11 UNL     1      16.800 -53.161   3.839  1.00  0.00     0.210 HD
ATOM     41  H12 UNL     1      15.734 -54.050   5.891  1.00  0.00     0.189 HD
BRANCH  37  42
HETATM   42  N10 UNL     1      15.090 -52.651   1.711  1.00  0.00    -0.323 N 
ATOM     43 2H10 UNL     1      15.372 -53.169   0.879  1.00  0.00     0.179 HD
ATOM     44 1H10 UNL     1      14.969 -51.680   1.425  1.00  0.00     0.179 HD
ENDBRANCH  37  42
ENDBRANCH   1  35
TORSDOF 11
ENDMDL
MODEL 3
REMARK VINA RESULT: -7.736990845      1.486      4.192
REMARK  11 active torsions:
REMARK  status: ('A' for Active; 'I' for Inactive)
REMARK    1  A    between atoms: C3_3  and  N1_4 
REMARK    2  A    between atoms: C4_7  and  N2_8 
REMARK    3  A    between atoms: N2_8  and  N3_10 
REMARK    4  A    between atoms: N3_10  and  C5_12 
REMARK    5  A    between atoms: C5_12  and  N4_13 
REMARK    6  A    between atoms: C5_12  and  C8_25 
REMARK    7  A    between atoms: N4_13  and  N5_15 
REMARK    8  A    between atoms: C7_21  and  N8_22 
REMARK    9  A    between atoms: N9_27  and  N10_28 
REMARK   10  A    between atoms: C10_37  and  N14_38 
REMARK   11  A    between atoms: C11_41  and  N15_42 
ROOT
HETATM    1  C5  UNL     1      12.241 -54.748   6.998  1.00  0.00     0.166 C 
ENDROOT
BRANCH   1   2
HETATM    2  N3  UNL     1      10.875 -54.336   7.366  1.00  0.00    -0.281 N 
ATOM      3  H3  UNL     1      10.647 -53.394   7.683  1.00  0.00     0.188 HD
BRANCH   2   4
HETATM    4  N2  UNL     1       9.924 -55.342   7.245  1.00  0.00    -0.282 N 
ATOM      5  H2  UNL     1       9.949 -56.143   7.876  1.00  0.00     0.188 HD
BRANCH   4   6
HETATM    6  C4  UNL     1       8.913 -55.259   6.241  1.00  0.00     0.155 A 
HETATM    7  C3  UNL     1       7.599 -55.056   6.620  1.00  0.00     0.156 A 
HETATM    8  C2  UNL     1       6.634 -54.990   5.634  1.00  0.00     0.012 A 
HETATM    9  C1  UNL     1       5.235 -54.762   6.004  1.00  0.00     0.054 C 
HETATM   10  C11 UNL     1       6.996 -55.125   4.300  1.00  0.00     0.154 A 
HETATM   11  C10 UNL     1       8.303 -55.324   3.960  1.00  0.00     0.134 A 
HETATM   12  N13 UNL     1       9.223 -55.384   4.942  1.00  0.00    -0.324 N 
ATOM     13  H13 UNL     1      10.200 -55.531   4.686  1.00  0.00     0.169 HD
BRANCH   7  14
HETATM   14  N1  UNL     1       7.262 -54.918   7.986  1.00  0.00    -0.111 N 
HETATM   15  O1  UNL     1       7.386 -53.802   8.548  1.00  0.00    -0.532 OA
HETATM   16  O2  UNL     1       6.783 -55.996   8.736  1.00  0.00    -0.532 OA
ENDBRANCH   7  14
BRANCH  10  17
HETATM   17  N15 UNL     1       6.048 -55.067   3.253  1.00  0.00    -0.111 N 
HETATM   18  O3  UNL     1       5.506 -56.154   2.918  1.00  0.00    -0.532 OA
HETATM   19  O4  UNL     1       5.701 -53.909   2.595  1.00  0.00    -0.532 OA
ENDBRANCH  10  17
BRANCH  11  20
HETATM   20  N14 UNL     1       8.705 -55.447   2.755  1.00  0.00    -0.383 N 
ATOM     21 2H14 UNL     1       9.600 -55.087   2.421  1.00  0.00     0.157 HD
ATOM     22 1H14 UNL     1       8.100 -55.938   2.096  1.00  0.00     0.157 HD
ENDBRANCH  11  20
ENDBRANCH   4   6
ENDBRANCH   2   4
ENDBRANCH   1   2
BRANCH   1  23
HETATM   23  N4  UNL     1      12.514 -54.779   5.848  1.00  0.00    -0.260 N 
ATOM     24  H4  UNL     1      12.500 -55.771   5.611  1.00  0.00     0.190 HD
BRANCH  23  25
HETATM   25  N5  UNL     1      12.829 -54.175   4.714  1.00  0.00    -0.078 N 
HETATM   26  C6  UNL     1      12.021 -53.873   3.678  1.00  0.00     0.242 A 
HETATM   27  N6  UNL     1      12.796 -53.264   2.748  1.00  0.00    -0.279 N 
HETATM   28  N7  UNL     1      14.021 -53.180   3.164  1.00  0.00    -0.130 N 
ATOM     29  H6  UNL     1      12.462 -52.919   1.848  1.00  0.00     0.188 HD
HETATM   30  C7  UNL     1      14.089 -53.731   4.374  1.00  0.00     0.712 A 
ATOM     31  H7  UNL     1      14.799 -52.764   2.652  1.00  0.00     0.205 HD
BRANCH  30  32
HETATM   32  N8  UNL     1      15.121 -53.847   5.127  1.00  0.00    -0.232 N 
ATOM     33  H82 UNL     1      15.181 -54.303   6.038  1.00  0.00     0.174 HD
ATOM     34  H81 UNL     1      16.045 -53.484   4.892  1.00  0.00     0.174 HD
ENDBRANCH  30  32
ENDBRANCH  23  25
ENDBRANCH   1  23
BRANCH   1  35
HETATM   35  C8  UNL     1      13.058 -55.042   8.155  1.00  0.00     0.115 A 
HETATM   36  C9  UNL     1      14.376 -55.530   8.083  1.00  0.00     0.172 A 
HETATM   37  N9  UNL     1      14.840 -55.729   9.318  1.00  0.00    -0.198 N 
HETATM   38  N11 UNL     1      13.874 -55.387  10.145  1.00  0.00    -0.222 N 
HETATM   39  N12 UNL     1      12.823 -54.982   9.473  1.00  0.00    -0.280 N 
ATOM     40  H11 UNL     1      13.935 -55.430  11.162  1.00  0.00     0.210 HD
ATOM     41  H12 UNL     1      11.949 -54.667   9.894  1.00  0.00     0.189 HD
BRANCH  37  42
HETATM   42  N10 UNL     1      16.119 -56.212   9.635  1.00  0.00    -0.323 N 
ATOM     43 2H10 UNL     1      16.367 -56.947  10.297  1.00  0.00     0.179 HD
ATOM     44 1H10 UNL     1      16.993 -55.876   9.228  1.00  0.00     0.179 HD
ENDBRANCH  37  42
ENDBRANCH   1  35
TORSDOF 11
ENDMDL
MODEL 4
REMARK VINA RESULT: -7.675281902      1.656      4.339
REMARK  11 active torsions:
REMARK  status: ('A' for Active; 'I' for Inactive)
REMARK    1  A    between atoms: C3_3  and  N1_4 
REMARK    2  A    between atoms: C4_7  and  N2_8 
REMARK    3  A    between atoms: N2_8  and  N3_10 
REMARK    4  A    between atoms: N3_10  and  C5_12 
REMARK    5  A    between atoms: C5_12  and  N4_13 
REMARK    6  A    between atoms: C5_12  and  C8_25 
REMARK    7  A    between atoms: N4_13  and  N5_15 
REMARK    8  A    between atoms: C7_21  and  N8_22 
REMARK    9  A    between atoms: N9_27  and  N10_28 
REMARK   10  A    between atoms: C10_37  and  N14_38 
REMARK   11  A    between atoms: C11_41  and  N15_42 
ROOT
HETATM    1  C5  UNL     1      11.070 -55.033   5.696  1.00  0.00     0.166 C 
ENDROOT
BRANCH   1   2
HETATM    2  N3  UNL     1      10.430 -56.353   5.561  1.00  0.00    -0.281 N 
ATOM      3  H3  UNL     1      10.856 -57.125   5.048  1.00  0.00     0.188 HD
BRANCH   2   4
HETATM    4  N2  UNL     1       9.197 -56.456   6.193  1.00  0.00    -0.282 N 
ATOM      5  H2  UNL     1       9.129 -56.916   7.101  1.00  0.00     0.188 HD
BRANCH   4   6
HETATM    6  C4  UNL     1       8.026 -55.921   5.577  1.00  0.00     0.155 A 
HETATM    7  C3  UNL     1       7.129 -55.199   6.341  1.00  0.00     0.156 A 
HETATM    8  C2  UNL     1       5.996 -54.700   5.729  1.00  0.00     0.012 A 
HETATM    9  C1  UNL     1       5.035 -53.918   6.510  1.00  0.00     0.054 C 
HETATM   10  C11 UNL     1       5.782 -54.929   4.376  1.00  0.00     0.154 A 
HETATM   11  C10 UNL     1       6.688 -55.647   3.649  1.00  0.00     0.134 A 
HETATM   12  N13 UNL     1       7.784 -56.121   4.272  1.00  0.00    -0.324 N 
ATOM     13  H13 UNL     1       8.461 -56.656   3.728  1.00  0.00     0.169 HD
BRANCH   7  14
HETATM   14  N1  UNL     1       7.376 -54.978   7.716  1.00  0.00    -0.111 N 
HETATM   15  O1  UNL     1       8.041 -53.975   8.076  1.00  0.00    -0.532 OA
HETATM   16  O2  UNL     1       6.892 -55.849   8.697  1.00  0.00    -0.532 OA
ENDBRANCH   7  14
BRANCH  10  17
HETATM   17  N15 UNL     1       4.639 -54.442   3.701  1.00  0.00    -0.111 N 
HETATM   18  O3  UNL     1       3.565 -55.075   3.878  1.00  0.00    -0.532 OA
HETATM   19  O4  UNL     1       4.646 -53.340   2.876  1.00  0.00    -0.532 OA
ENDBRANCH  10  17
BRANCH  11  20
HETATM   20  N14 UNL     1       6.558 -55.886   2.402  1.00  0.00    -0.383 N 
ATOM     21 2H14 UNL     1       5.741 -56.347   2.000  1.00  0.00     0.157 HD
ATOM     22 1H14 UNL     1       7.310 -55.592   1.777  1.00  0.00     0.157 HD
ENDBRANCH  11  20
ENDBRANCH   4   6
ENDBRANCH   2   4
ENDBRANCH   1   2
BRANCH   1  23
HETATM   23  N4  UNL     1      11.074 -54.325   4.749  1.00  0.00    -0.260 N 
ATOM     24  H4  UNL     1      10.167 -53.858   4.778  1.00  0.00     0.190 HD
BRANCH  23  25
HETATM   25  N5  UNL     1      11.661 -53.833   3.671  1.00  0.00    -0.078 N 
HETATM   26  C6  UNL     1      11.088 -53.448   2.511  1.00  0.00     0.242 A 
HETATM   27  N6  UNL     1      12.092 -53.018   1.709  1.00  0.00    -0.279 N 
HETATM   28  N7  UNL     1      13.233 -53.119   2.317  1.00  0.00    -0.130 N 
ATOM     29  H6  UNL     1      11.968 -52.663   0.761  1.00  0.00     0.188 HD
HETATM   30  C7  UNL     1      13.015 -53.618   3.531  1.00  0.00     0.712 A 
ATOM     31  H7  UNL     1      14.140 -52.860   1.931  1.00  0.00     0.205 HD
BRANCH  30  32
HETATM   32  N8  UNL     1      13.881 -53.869   4.444  1.00  0.00    -0.232 N 
ATOM     33  H82 UNL     1      13.764 -54.454   5.272  1.00  0.00     0.174 HD
ATOM     34  H81 UNL     1      14.832 -53.499   4.448  1.00  0.00     0.174 HD
ENDBRANCH  30  32
ENDBRANCH  23  25
ENDBRANCH   1  23
BRANCH   1  35
HETATM   35  C8  UNL     1      11.593 -54.808   7.025  1.00  0.00     0.115 A 
HETATM   36  C9  UNL     1      12.777 -55.391   7.514  1.00  0.00     0.172 A 
HETATM   37  N9  UNL     1      12.965 -55.012   8.780  1.00  0.00    -0.198 N 
HETATM   38  N11 UNL     1      11.956 -54.226   9.094  1.00  0.00    -0.222 N 
HETATM   39  N12 UNL     1      11.144 -54.100   8.071  1.00  0.00    -0.280 N 
ATOM     40  H11 UNL     1      11.825 -53.780  10.001  1.00  0.00     0.210 HD
ATOM     41  H12 UNL     1      10.291 -53.541   8.071  1.00  0.00     0.189 HD
BRANCH  37  42
HETATM   42  N10 UNL     1      14.044 -55.399   9.589  1.00  0.00    -0.323 N 
ATOM     43 2H10 UNL     1      14.109 -56.211  10.203  1.00  0.00     0.179 HD
ATOM     44 1H10 UNL     1      14.929 -54.900   9.669  1.00  0.00     0.179 HD
ENDBRANCH  37  42
ENDBRANCH   1  35
TORSDOF 11
ENDMDL
MODEL 5
REMARK VINA RESULT: -7.581191374      1.422      2.084
REMARK  11 active torsions:
REMARK  status: ('A' for Active; 'I' for Inactive)
REMARK    1  A    between atoms: C3_3  and  N1_4 
REMARK    2  A    between atoms: C4_7  and  N2_8 
REMARK    3  A    between atoms: N2_8  and  N3_10 
REMARK    4  A    between atoms: N3_10  and  C5_12 
REMARK    5  A    between atoms: C5_12  and  N4_13 
REMARK    6  A    between atoms: C5_12  and  C8_25 
REMARK    7  A    between atoms: N4_13  and  N5_15 
REMARK    8  A    between atoms: C7_21  and  N8_22 
REMARK    9  A    between atoms: N9_27  and  N10_28 
REMARK   10  A    between atoms: C10_37  and  N14_38 
REMARK   11  A    between atoms: C11_41  and  N15_42 
ROOT
HETATM    1  C5  UNL     1      12.136 -54.701   6.343  1.00  0.00     0.166 C 
ENDROOT
BRANCH   1   2
HETATM    2  N3  UNL     1      10.992 -55.624   6.248  1.00  0.00    -0.281 N 
ATOM      3  H3  UNL     1      11.069 -56.563   5.859  1.00  0.00     0.188 HD
BRANCH   2   4
HETATM    4  N2  UNL     1       9.798 -55.104   6.735  1.00  0.00    -0.282 N 
ATOM      5  H2  UNL     1       9.745 -54.770   7.697  1.00  0.00     0.188 HD
BRANCH   4   6
HETATM    6  C4  UNL     1       8.647 -55.037   5.894  1.00  0.00     0.155 A 
HETATM    7  C3  UNL     1       7.395 -54.934   6.469  1.00  0.00     0.156 A 
HETATM    8  C2  UNL     1       6.292 -54.881   5.638  1.00  0.00     0.012 A 
HETATM    9  C1  UNL     1       4.953 -54.758   6.218  1.00  0.00     0.054 C 
HETATM   10  C11 UNL     1       6.460 -54.932   4.260  1.00  0.00     0.154 A 
HETATM   11  C10 UNL     1       7.712 -55.033   3.724  1.00  0.00     0.134 A 
HETATM   12  N13 UNL     1       8.769 -55.082   4.558  1.00  0.00    -0.324 N 
ATOM     13  H13 UNL     1       9.703 -55.156   4.156  1.00  0.00     0.169 HD
BRANCH   7  14
HETATM   14  N1  UNL     1       7.255 -54.881   7.874  1.00  0.00    -0.111 N 
HETATM   15  O1  UNL     1       7.454 -53.798   8.480  1.00  0.00    -0.532 OA
HETATM   16  O2  UNL     1       6.891 -56.007   8.619  1.00  0.00    -0.532 OA
ENDBRANCH   7  14
BRANCH  10  17
HETATM   17  N15 UNL     1       5.366 -54.883   3.366  1.00  0.00    -0.111 N 
HETATM   18  O3  UNL     1       5.022 -55.971   2.832  1.00  0.00    -0.532 OA
HETATM   19  O4  UNL     1       4.681 -53.731   3.054  1.00  0.00    -0.532 OA
ENDBRANCH  10  17
BRANCH  11  20
HETATM   20  N14 UNL     1       7.938 -55.074   2.469  1.00  0.00    -0.383 N 
ATOM     21 2H14 UNL     1       8.673 -55.644   2.048  1.00  0.00     0.157 HD
ATOM     22 1H14 UNL     1       7.345 -54.513   1.857  1.00  0.00     0.157 HD
ENDBRANCH  11  20
ENDBRANCH   4   6
ENDBRANCH   2   4
ENDBRANCH   1   2
BRANCH   1  23
HETATM   23  N4  UNL     1      12.566 -54.468   7.420  1.00  0.00    -0.260 N 
ATOM     24  H4  UNL     1      12.709 -53.458   7.423  1.00  0.00     0.190 HD
BRANCH  23  25
HETATM   25  N5  UNL     1      12.956 -54.858   8.622  1.00  0.00    -0.078 N 
HETATM   26  C6  UNL     1      12.262 -54.816   9.778  1.00  0.00     0.242 A 
HETATM   27  N6  UNL     1      13.077 -55.320  10.736  1.00  0.00    -0.279 N 
HETATM   28  N7  UNL     1      14.219 -55.662  10.225  1.00  0.00    -0.130 N 
ATOM     29  H6  UNL     1      12.828 -55.416  11.721  1.00  0.00     0.188 HD
HETATM   30  C7  UNL     1      14.190 -55.394   8.922  1.00  0.00     0.712 A 
ATOM     31  H7  UNL     1      15.004 -56.067  10.735  1.00  0.00     0.205 HD
BRANCH  30  32
HETATM   32  N8  UNL     1      15.120 -55.587   8.060  1.00  0.00    -0.232 N 
ATOM     33  H82 UNL     1      15.204 -55.176   7.130  1.00  0.00     0.174 HD
ATOM     34  H81 UNL     1      15.921 -56.200   8.210  1.00  0.00     0.174 HD
ENDBRANCH  30  32
ENDBRANCH  23  25
ENDBRANCH   1  23
BRANCH   1  35
HETATM   35  C8  UNL     1      12.571 -54.228   5.048  1.00  0.00     0.115 A 
HETATM   36  C9  UNL     1      13.894 -53.852   4.751  1.00  0.00     0.172 A 
HETATM   37  N9  UNL     1      13.960 -53.432   3.486  1.00  0.00    -0.198 N 
HETATM   38  N11 UNL     1      12.744 -53.530   2.991  1.00  0.00    -0.222 N 
HETATM   39  N12 UNL     1      11.920 -53.996   3.900  1.00  0.00    -0.280 N 
ATOM     40  H11 UNL     1      12.481 -53.280   2.038  1.00  0.00     0.210 HD
ATOM     41  H12 UNL     1      10.924 -54.158   3.752  1.00  0.00     0.189 HD
BRANCH  37  42
HETATM   42  N10 UNL     1      15.122 -52.979   2.843  1.00  0.00    -0.323 N 
ATOM     43 2H10 UNL     1      15.448 -53.203   1.903  1.00  0.00     0.179 HD
ATOM     44 1H10 UNL     1      15.811 -52.346   3.249  1.00  0.00     0.179 HD
ENDBRANCH  37  42
ENDBRANCH   1  35
TORSDOF 11
ENDMDL
