MODEL 1
REMARK VINA RESULT: -4.619344957      0.000      0.000
REMARK  1 active torsions:
REMARK  status: ('A' for Active; 'I' for Inactive)
REMARK    1  A    between atoms: N3_9  and  C5_10 
ROOT
HETATM    1  C1  UNL     1     -19.587  10.799  -4.465  1.00  0.00     0.091 C 
HETATM    2  C2  UNL     1     -20.390   9.630  -4.894  1.00  0.00     0.095 A 
HETATM    3  N1  UNL     1     -19.870   8.389  -4.996  1.00  0.00    -0.288 N 
ATOM      4  H1  UNL     1     -18.901   8.143  -4.793  1.00  0.00     0.188 HD
HETATM    5  N2  UNL     1     -20.798   7.536  -5.396  1.00  0.00    -0.288 N 
ATOM      6  H2  UNL     1     -20.684   6.535  -5.557  1.00  0.00     0.188 HD
HETATM    7  C3  UNL     1     -21.920   8.256  -5.548  1.00  0.00     0.095 A 
HETATM    8  C4  UNL     1     -23.233   7.745  -5.983  1.00  0.00     0.091 C 
HETATM    9  N3  UNL     1     -21.663   9.552  -5.235  1.00  0.00    -0.320 N 
ENDROOT
BRANCH   9  10
HETATM   10  C5  UNL     1     -22.589  10.655  -5.264  1.00  0.00     0.092 C 
HETATM   11  C6  UNL     1     -22.497  11.468  -6.555  1.00  0.00     0.026 C 
HETATM   12  C7  UNL     1     -23.791  12.277  -6.618  1.00  0.00     0.002 C 
HETATM   13  C8  UNL     1     -24.013  13.101  -5.395  1.00  0.00     0.000 C 
HETATM   14  C9  UNL     1     -22.858  12.968  -4.427  1.00  0.00     0.002 C 
HETATM   15  C10 UNL     1     -22.644  11.496  -4.039  1.00  0.00     0.026 C 
ENDBRANCH   9  10
TORSDOF 1
ENDMDL
MODEL 2
REMARK VINA RESULT: -4.565929130      0.164      2.201
REMARK  1 active torsions:
REMARK  status: ('A' for Active; 'I' for Inactive)
REMARK    1  A    between atoms: N3_9  and  C5_10 
ROOT
HETATM    1  C1  UNL     1     -23.172   7.608  -5.913  1.00  0.00     0.091 C 
HETATM    2  C2  UNL     1     -21.876   8.195  -5.500  1.00  0.00     0.095 A 
HETATM    3  N1  UNL     1     -20.753   7.457  -5.365  1.00  0.00    -0.288 N 
ATOM      4  H1  UNL     1     -20.692   6.452  -5.529  1.00  0.00     0.188 HD
HETATM    5  N2  UNL     1     -19.745   8.225  -4.989  1.00  0.00    -0.288 N 
ATOM      6  H2  UNL     1     -18.783   7.933  -4.813  1.00  0.00     0.188 HD
HETATM    7  C3  UNL     1     -20.244   9.466  -4.887  1.00  0.00     0.095 A 
HETATM    8  C4  UNL     1     -19.499  10.677  -4.494  1.00  0.00     0.091 C 
HETATM    9  N3  UNL     1     -21.563   9.444  -5.205  1.00  0.00    -0.320 N 
ENDROOT
BRANCH   9  10
HETATM   10  C5  UNL     1     -22.475  10.558  -5.223  1.00  0.00     0.092 C 
HETATM   11  C6  UNL     1     -22.420  11.344  -6.532  1.00  0.00     0.026 C 
HETATM   12  C7  UNL     1     -23.705  12.169  -6.565  1.00  0.00     0.002 C 
HETATM   13  C8  UNL     1     -23.872  13.019  -5.351  1.00  0.00     0.000 C 
HETATM   14  C9  UNL     1     -22.684  12.890  -4.423  1.00  0.00     0.002 C 
HETATM   15  C10 UNL     1     -22.475  11.424  -4.014  1.00  0.00     0.026 C 
ENDBRANCH   9  10
TORSDOF 1
ENDMDL
MODEL 3
REMARK VINA RESULT: -4.451273099      0.532      2.623
REMARK  1 active torsions:
REMARK  status: ('A' for Active; 'I' for Inactive)
REMARK    1  A    between atoms: N3_9  and  C5_10 
ROOT
HETATM    1  C1  UNL     1     -23.534   7.987  -5.993  1.00  0.00     0.091 C 
HETATM    2  C2  UNL     1     -22.181   8.318  -5.488  1.00  0.00     0.095 A 
HETATM    3  N1  UNL     1     -21.259   7.374  -5.203  1.00  0.00    -0.288 N 
ATOM      4  H1  UNL     1     -21.402   6.369  -5.305  1.00  0.00     0.188 HD
HETATM    5  N2  UNL     1     -20.144   7.939  -4.773  1.00  0.00    -0.288 N 
ATOM      6  H2  UNL     1     -19.286   7.466  -4.487  1.00  0.00     0.188 HD
HETATM    7  C3  UNL     1     -20.371   9.262  -4.787  1.00  0.00     0.095 A 
HETATM    8  C4  UNL     1     -19.418  10.316  -4.391  1.00  0.00     0.091 C 
HETATM    9  N3  UNL     1     -21.632   9.492  -5.231  1.00  0.00    -0.320 N 
ENDROOT
BRANCH   9  10
HETATM   10  C5  UNL     1     -22.278  10.769  -5.399  1.00  0.00     0.092 C 
HETATM   11  C6  UNL     1     -23.388  11.008  -4.376  1.00  0.00     0.026 C 
HETATM   12  C7  UNL     1     -23.646  12.513  -4.400  1.00  0.00     0.002 C 
HETATM   13  C8  UNL     1     -23.958  13.020  -5.767  1.00  0.00     0.000 C 
HETATM   14  C9  UNL     1     -24.001  11.892  -6.775  1.00  0.00     0.002 C 
HETATM   15  C10 UNL     1     -22.667  11.129  -6.788  1.00  0.00     0.026 C 
ENDBRANCH   9  10
TORSDOF 1
ENDMDL
MODEL 4
REMARK VINA RESULT: -4.447138203      0.563      1.405
REMARK  1 active torsions:
REMARK  status: ('A' for Active; 'I' for Inactive)
REMARK    1  A    between atoms: N3_9  and  C5_10 
ROOT
HETATM    1  C1  UNL     1     -19.262  10.447  -4.244  1.00  0.00     0.091 C 
HETATM    2  C2  UNL     1     -20.200   9.454  -4.817  1.00  0.00     0.095 A 
HETATM    3  N1  UNL     1     -19.873   8.154  -4.983  1.00  0.00    -0.288 N 
ATOM      4  H1  UNL     1     -18.972   7.743  -4.737  1.00  0.00     0.188 HD
HETATM    5  N2  UNL     1     -20.887   7.491  -5.511  1.00  0.00    -0.288 N 
ATOM      6  H2  UNL     1     -20.918   6.498  -5.743  1.00  0.00     0.188 HD
HETATM    7  C3  UNL     1     -21.869   8.391  -5.679  1.00  0.00     0.095 A 
HETATM    8  C4  UNL     1     -23.208   8.128  -6.239  1.00  0.00     0.091 C 
HETATM    9  N3  UNL     1     -21.440   9.604  -5.247  1.00  0.00    -0.320 N 
ENDROOT
BRANCH   9  10
HETATM   10  C5  UNL     1     -22.178  10.841  -5.249  1.00  0.00     0.092 C 
HETATM   11  C6  UNL     1     -23.479  10.753  -4.452  1.00  0.00     0.026 C 
HETATM   12  C7  UNL     1     -23.890  12.199  -4.184  1.00  0.00     0.002 C 
HETATM   13  C8  UNL     1     -23.994  13.007  -5.434  1.00  0.00     0.000 C 
HETATM   14  C9  UNL     1     -23.725  12.161  -6.659  1.00  0.00     0.002 C 
HETATM   15  C10 UNL     1     -22.337  11.507  -6.569  1.00  0.00     0.026 C 
ENDBRANCH   9  10
TORSDOF 1
ENDMDL
MODEL 5
REMARK VINA RESULT: -4.171458142      1.267      2.553
REMARK  1 active torsions:
REMARK  status: ('A' for Active; 'I' for Inactive)
REMARK    1  A    between atoms: N3_9  and  C5_10 
ROOT
HETATM    1  C1  UNL     1     -23.116   8.284  -5.797  1.00  0.00     0.091 C 
HETATM    2  C2  UNL     1     -22.083   9.289  -5.454  1.00  0.00     0.095 A 
HETATM    3  N1  UNL     1     -20.807   8.952  -5.170  1.00  0.00    -0.288 N 
ATOM      4  H1  UNL     1     -20.441   8.000  -5.164  1.00  0.00     0.188 HD
HETATM    5  N2  UNL     1     -20.098  10.035  -4.900  1.00  0.00    -0.288 N 
ATOM      6  H2  UNL     1     -19.109  10.077  -4.654  1.00  0.00     0.188 HD
HETATM    7  C3  UNL     1     -20.945  11.070  -5.017  1.00  0.00     0.095 A 
HETATM    8  C4  UNL     1     -20.619  12.493  -4.812  1.00  0.00     0.091 C 
HETATM    9  N3  UNL     1     -22.173  10.603  -5.361  1.00  0.00    -0.320 N 
ENDROOT
BRANCH   9  10
HETATM   10  C5  UNL     1     -23.367  11.376  -5.586  1.00  0.00     0.092 C 
HETATM   11  C6  UNL     1     -23.259  12.286  -6.810  1.00  0.00     0.026 C 
HETATM   12  C7  UNL     1     -24.696  12.671  -7.157  1.00  0.00     0.002 C 
HETATM   13  C8  UNL     1     -25.420  13.282  -6.006  1.00  0.00     0.000 C 
HETATM   14  C9  UNL     1     -24.517  13.421  -4.800  1.00  0.00     0.002 C 
HETATM   15  C10 UNL     1     -23.943  12.055  -4.395  1.00  0.00     0.026 C 
ENDBRANCH   9  10
TORSDOF 1
ENDMDL
