MODEL 1
REMARK VINA RESULT: -3.496762906      0.000      0.000
REMARK  1 active torsions:
REMARK  status: ('A' for Active; 'I' for Inactive)
REMARK    1  A    between atoms: N1_2  and  N2_4 
ROOT
HETATM    1  N2  UNL     1     -21.512   8.120  -5.587  1.00  0.00    -0.302 N 
ATOM      2  H2  UNL     1     -22.427   7.687  -5.711  1.00  0.00     0.187 HD
HETATM    3  C2  UNL     1     -21.486   9.328  -5.138  1.00  0.00     0.076 C 
HETATM    4  S1  UNL     1     -22.999  10.220  -4.745  1.00  0.00    -0.099 SA
HETATM    5  C3  UNL     1     -22.527  11.894  -5.331  1.00  0.00     0.111 C 
HETATM    6  C4  UNL     1     -23.288  12.960  -4.611  1.00  0.00     0.033 C 
HETATM    7  S2  UNL     1     -20.768  11.870  -4.886  1.00  0.00    -0.142 SA
HETATM    8  C5  UNL     1     -20.311  10.150  -4.879  1.00  0.00     0.102 C 
HETATM    9  C6  UNL     1     -19.615   9.704  -3.615  1.00  0.00     0.028 C 
ENDROOT
BRANCH   1  10
HETATM   10  N1  UNL     1     -20.412   7.368  -5.911  1.00  0.00    -0.340 N 
HETATM   11  C1  UNL     1     -20.542   6.147  -6.645  1.00  0.00     0.167 C 
ATOM     12  H1  UNL     1     -19.486   7.684  -5.625  1.00  0.00     0.179 HD
ENDBRANCH   1  10
TORSDOF 1
ENDMDL
MODEL 2
REMARK VINA RESULT: -3.350885390      1.936      2.787
REMARK  1 active torsions:
REMARK  status: ('A' for Active; 'I' for Inactive)
REMARK    1  A    between atoms: N1_2  and  N2_4 
ROOT
HETATM    1  N2  UNL     1     -20.166  10.513  -4.874  1.00  0.00    -0.302 N 
ATOM      2  H2  UNL     1     -19.513  11.295  -4.824  1.00  0.00     0.187 HD
HETATM    3  C2  UNL     1     -21.415  10.793  -5.023  1.00  0.00     0.076 C 
HETATM    4  S1  UNL     1     -21.991  12.495  -5.139  1.00  0.00    -0.099 SA
HETATM    5  C3  UNL     1     -23.555  12.353  -4.189  1.00  0.00     0.111 C 
HETATM    6  C4  UNL     1     -24.545  13.391  -4.608  1.00  0.00     0.033 C 
HETATM    7  S2  UNL     1     -24.045  10.678  -4.689  1.00  0.00    -0.142 SA
HETATM    8  C5  UNL     1     -22.526   9.856  -5.121  1.00  0.00     0.102 C 
HETATM    9  C6  UNL     1     -22.550   9.195  -6.479  1.00  0.00     0.028 C 
ENDROOT
BRANCH   1  10
HETATM   10  N1  UNL     1     -19.640   9.250  -4.776  1.00  0.00    -0.340 N 
HETATM   11  C1  UNL     1     -18.227   9.032  -4.819  1.00  0.00     0.167 C 
ATOM     12  H1  UNL     1     -20.267   8.452  -4.672  1.00  0.00     0.179 HD
ENDBRANCH   1  10
TORSDOF 1
ENDMDL
MODEL 3
REMARK VINA RESULT: -3.308496213      1.307      2.316
REMARK  1 active torsions:
REMARK  status: ('A' for Active; 'I' for Inactive)
REMARK    1  A    between atoms: N1_2  and  N2_4 
ROOT
HETATM    1  N2  UNL     1     -20.962   8.086  -4.982  1.00  0.00    -0.302 N 
ATOM      2  H2  UNL     1     -20.019   8.219  -4.619  1.00  0.00     0.187 HD
HETATM    3  C2  UNL     1     -21.673   9.143  -5.183  1.00  0.00     0.076 C 
HETATM    4  S1  UNL     1     -21.031  10.789  -4.838  1.00  0.00    -0.099 SA
HETATM    5  C3  UNL     1     -22.548  11.573  -4.167  1.00  0.00     0.111 C 
HETATM    6  C4  UNL     1     -22.528  13.055  -4.359  1.00  0.00     0.033 C 
HETATM    7  S2  UNL     1     -23.784  10.750  -5.210  1.00  0.00    -0.142 SA
HETATM    8  C5  UNL     1     -23.036   9.209  -5.692  1.00  0.00     0.102 C 
HETATM    9  C6  UNL     1     -23.063   8.952  -7.181  1.00  0.00     0.028 C 
ENDROOT
BRANCH   1  10
HETATM   10  N1  UNL     1     -21.370   6.797  -5.216  1.00  0.00    -0.340 N 
HETATM   11  C1  UNL     1     -20.925   6.080  -6.371  1.00  0.00     0.167 C 
ATOM     12  H1  UNL     1     -22.001   6.343  -4.556  1.00  0.00     0.179 HD
ENDBRANCH   1  10
TORSDOF 1
ENDMDL
MODEL 4
REMARK VINA RESULT: -3.237559796      2.251      3.311
REMARK  1 active torsions:
REMARK  status: ('A' for Active; 'I' for Inactive)
REMARK    1  A    between atoms: N1_2  and  N2_4 
ROOT
HETATM    1  N2  UNL     1     -20.677   8.809  -4.029  1.00  0.00    -0.302 N 
ATOM      2  H2  UNL     1     -20.732   7.889  -3.593  1.00  0.00     0.187 HD
HETATM    3  C2  UNL     1     -21.663   9.168  -4.779  1.00  0.00     0.076 C 
HETATM    4  S1  UNL     1     -23.082   8.093  -5.046  1.00  0.00    -0.099 SA
HETATM    5  C3  UNL     1     -23.404   8.449  -6.818  1.00  0.00     0.111 C 
HETATM    6  C4  UNL     1     -24.836   8.208  -7.171  1.00  0.00     0.033 C 
HETATM    7  S2  UNL     1     -22.966  10.211  -6.841  1.00  0.00    -0.142 SA
HETATM    8  C5  UNL     1     -21.813  10.423  -5.502  1.00  0.00     0.102 C 
HETATM    9  C6  UNL     1     -22.170  11.546  -4.556  1.00  0.00     0.028 C 
ENDROOT
BRANCH   1  10
HETATM   10  N1  UNL     1     -19.560   9.562  -3.771  1.00  0.00    -0.340 N 
HETATM   11  C1  UNL     1     -18.385   9.442  -4.578  1.00  0.00     0.167 C 
ATOM     12  H1  UNL     1     -19.566  10.218  -2.990  1.00  0.00     0.179 HD
ENDBRANCH   1  10
TORSDOF 1
ENDMDL
MODEL 5
REMARK VINA RESULT: -3.192151358      2.352      3.801
REMARK  1 active torsions:
REMARK  status: ('A' for Active; 'I' for Inactive)
REMARK    1  A    between atoms: N1_2  and  N2_4 
ROOT
HETATM    1  N2  UNL     1     -23.211   7.862  -4.561  1.00  0.00    -0.302 N 
ATOM      2  H2  UNL     1     -22.941   6.893  -4.394  1.00  0.00     0.187 HD
HETATM    3  C2  UNL     1     -22.268   8.702  -4.821  1.00  0.00     0.076 C 
HETATM    4  S1  UNL     1     -20.543   8.192  -4.886  1.00  0.00    -0.099 SA
HETATM    5  C3  UNL     1     -19.761   9.661  -4.114  1.00  0.00     0.111 C 
HETATM    6  C4  UNL     1     -18.346   9.827  -4.566  1.00  0.00     0.033 C 
HETATM    7  S2  UNL     1     -20.859  10.950  -4.770  1.00  0.00    -0.142 SA
HETATM    8  C5  UNL     1     -22.403  10.127  -5.093  1.00  0.00     0.102 C 
HETATM    9  C6  UNL     1     -22.941  10.356  -6.486  1.00  0.00     0.028 C 
ENDROOT
BRANCH   1  10
HETATM   10  N1  UNL     1     -24.548   8.163  -4.492  1.00  0.00    -0.340 N 
HETATM   11  C1  UNL     1     -25.354   7.698  -3.406  1.00  0.00     0.167 C 
ATOM     12  H1  UNL     1     -24.974   8.727  -5.227  1.00  0.00     0.179 HD
ENDBRANCH   1  10
TORSDOF 1
ENDMDL
