MODEL 1
REMARK VINA RESULT: -3.843618699      0.000      0.000
REMARK  2 active torsions:
REMARK  status: ('A' for Active; 'I' for Inactive)
REMARK    1  A    between atoms: C6_7  and  C7_8 
REMARK    2  A    between atoms: N1_11  and  O2_13 
ROOT
HETATM    1  C1  UNL     1     -19.928   9.345  -4.078  1.00  0.00     0.028 C 
HETATM    2  C2  UNL     1     -21.366   9.734  -4.177  1.00  0.00     0.091 C 
HETATM    3  S1  UNL     1     -22.185   8.562  -5.299  1.00  0.00    -0.158 SA
HETATM    4  C3  UNL     1     -23.803   9.318  -5.670  1.00  0.00     0.080 C 
HETATM    5  C4  UNL     1     -23.544  10.694  -6.199  1.00  0.00     0.007 C 
HETATM    6  C5  UNL     1     -22.849  10.592  -7.521  1.00  0.00     0.012 C 
HETATM    7  C6  UNL     1     -22.842  11.592  -5.217  1.00  0.00     0.100 C 
HETATM    8  C8  UNL     1     -21.548  11.089  -4.763  1.00  0.00     0.034 C 
HETATM    9  N1  UNL     1     -20.466  11.825  -4.854  1.00  0.00    -0.276 N 
ATOM     10  H1  UNL     1     -19.576  11.447  -4.530  1.00  0.00     0.193 HD
ENDROOT
BRANCH   7  11
HETATM   11  C7  UNL     1     -23.784  11.868  -4.089  1.00  0.00     0.242 C 
HETATM   12  O1  UNL     1     -24.814  12.499  -4.219  1.00  0.00    -0.306 OA
ENDBRANCH   7  11
BRANCH   9  13
HETATM   13  O2  UNL     1     -20.510  13.102  -5.382  1.00  0.00    -0.290 OA
ATOM     14  H2  UNL     1     -20.930  13.276  -6.216  1.00  0.00     0.244 HD
ENDBRANCH   9  13
TORSDOF 2
ENDMDL
MODEL 2
REMARK VINA RESULT: -3.588732720      2.786      3.508
REMARK  2 active torsions:
REMARK  status: ('A' for Active; 'I' for Inactive)
REMARK    1  A    between atoms: C6_7  and  C7_8 
REMARK    2  A    between atoms: N1_11  and  O2_13 
ROOT
HETATM    1  C1  UNL     1     -19.854   9.646  -3.868  1.00  0.00     0.028 C 
HETATM    2  C2  UNL     1     -20.714  10.059  -5.017  1.00  0.00     0.091 C 
HETATM    3  S1  UNL     1     -21.019  11.845  -4.871  1.00  0.00    -0.158 SA
HETATM    4  C3  UNL     1     -22.362  12.192  -6.054  1.00  0.00     0.080 C 
HETATM    5  C4  UNL     1     -23.502  11.281  -5.718  1.00  0.00     0.007 C 
HETATM    6  C5  UNL     1     -24.055  11.656  -4.379  1.00  0.00     0.012 C 
HETATM    7  C6  UNL     1     -23.159   9.821  -5.840  1.00  0.00     0.100 C 
HETATM    8  C8  UNL     1     -22.045   9.393  -4.999  1.00  0.00     0.034 C 
HETATM    9  N1  UNL     1     -22.169   8.384  -4.172  1.00  0.00    -0.276 N 
ATOM     10  H1  UNL     1     -21.374   8.107  -3.596  1.00  0.00     0.193 HD
ENDROOT
BRANCH   7  11
HETATM   11  C7  UNL     1     -22.941   9.519  -7.289  1.00  0.00     0.242 C 
HETATM   12  O1  UNL     1     -22.928   8.391  -7.740  1.00  0.00    -0.306 OA
ENDBRANCH   7  11
BRANCH   9  13
HETATM   13  O2  UNL     1     -23.358   7.686  -4.066  1.00  0.00    -0.290 OA
ATOM     14  H2  UNL     1     -23.482   7.021  -3.398  1.00  0.00     0.244 HD
ENDBRANCH   9  13
TORSDOF 2
ENDMDL
MODEL 3
REMARK VINA RESULT: -3.575972731      2.414      3.349
REMARK  2 active torsions:
REMARK  status: ('A' for Active; 'I' for Inactive)
REMARK    1  A    between atoms: C6_7  and  C7_8 
REMARK    2  A    between atoms: N1_11  and  O2_13 
ROOT
HETATM    1  C1  UNL     1     -24.170   8.401  -5.557  1.00  0.00     0.028 C 
HETATM    2  C2  UNL     1     -23.560   9.693  -5.124  1.00  0.00     0.091 C 
HETATM    3  S1  UNL     1     -24.885  10.733  -4.441  1.00  0.00    -0.158 SA
HETATM    4  C3  UNL     1     -24.152  12.397  -4.302  1.00  0.00     0.080 C 
HETATM    5  C4  UNL     1     -23.627  12.770  -5.654  1.00  0.00     0.007 C 
HETATM    6  C5  UNL     1     -24.774  12.927  -6.603  1.00  0.00     0.012 C 
HETATM    7  C6  UNL     1     -22.553  11.845  -6.156  1.00  0.00     0.100 C 
HETATM    8  C8  UNL     1     -22.963  10.448  -6.259  1.00  0.00     0.034 C 
HETATM    9  N1  UNL     1     -22.823   9.781  -7.380  1.00  0.00    -0.276 N 
ATOM     10  H1  UNL     1     -23.120   8.806  -7.423  1.00  0.00     0.193 HD
ENDROOT
BRANCH   7  11
HETATM   11  C7  UNL     1     -21.344  12.031  -5.295  1.00  0.00     0.242 C 
HETATM   12  O1  UNL     1     -20.594  12.982  -5.394  1.00  0.00    -0.306 OA
ENDBRANCH   7  11
BRANCH   9  13
HETATM   13  O2  UNL     1     -22.280  10.375  -8.504  1.00  0.00    -0.290 OA
ATOM     14  H2  UNL     1     -22.387   9.989  -9.366  1.00  0.00     0.244 HD
ENDBRANCH   9  13
TORSDOF 2
ENDMDL
MODEL 4
REMARK VINA RESULT: -3.559431991      1.705      3.398
REMARK  2 active torsions:
REMARK  status: ('A' for Active; 'I' for Inactive)
REMARK    1  A    between atoms: C6_7  and  C7_8 
REMARK    2  A    between atoms: N1_11  and  O2_13 
ROOT
HETATM    1  C1  UNL     1     -23.682  12.181  -7.618  1.00  0.00     0.028 C 
HETATM    2  C2  UNL     1     -22.738  11.209  -6.992  1.00  0.00     0.091 C 
HETATM    3  S1  UNL     1     -23.361   9.534  -7.324  1.00  0.00    -0.158 SA
HETATM    4  C3  UNL     1     -22.398   8.446  -6.222  1.00  0.00     0.080 C 
HETATM    5  C4  UNL     1     -22.559   8.965  -4.826  1.00  0.00     0.007 C 
HETATM    6  C5  UNL     1     -23.983   8.792  -4.398  1.00  0.00     0.012 C 
HETATM    7  C6  UNL     1     -22.041  10.364  -4.644  1.00  0.00     0.100 C 
HETATM    8  C8  UNL     1     -22.668  11.356  -5.513  1.00  0.00     0.034 C 
HETATM    9  N1  UNL     1     -23.211  12.443  -5.019  1.00  0.00    -0.276 N 
ATOM     10  H1  UNL     1     -23.644  13.118  -5.651  1.00  0.00     0.193 HD
ENDROOT
BRANCH   7  11
HETATM   11  C7  UNL     1     -20.553  10.328  -4.788  1.00  0.00     0.242 C 
HETATM   12  O1  UNL     1     -19.855  11.322  -4.760  1.00  0.00    -0.306 OA
ENDBRANCH   7  11
BRANCH   9  13
HETATM   13  O2  UNL     1     -23.209  12.691  -3.659  1.00  0.00    -0.290 OA
ATOM     14  H2  UNL     1     -22.623  12.226  -3.074  1.00  0.00     0.244 HD
ENDBRANCH   9  13
TORSDOF 2
ENDMDL
MODEL 5
REMARK VINA RESULT: -3.534407383      2.440      3.243
REMARK  2 active torsions:
REMARK  status: ('A' for Active; 'I' for Inactive)
REMARK    1  A    between atoms: C6_7  and  C7_8 
REMARK    2  A    between atoms: N1_11  and  O2_13 
ROOT
HETATM    1  C1  UNL     1     -24.905   9.282  -4.243  1.00  0.00     0.028 C 
HETATM    2  C2  UNL     1     -24.205  10.547  -4.616  1.00  0.00     0.091 C 
HETATM    3  S1  UNL     1     -25.191  11.371  -5.902  1.00  0.00    -0.158 SA
HETATM    4  C3  UNL     1     -24.102  12.671  -6.570  1.00  0.00     0.080 C 
HETATM    5  C4  UNL     1     -22.832  12.011  -7.009  1.00  0.00     0.007 C 
HETATM    6  C5  UNL     1     -23.121  11.110  -8.170  1.00  0.00     0.012 C 
HETATM    7  C6  UNL     1     -22.091  11.332  -5.891  1.00  0.00     0.100 C 
HETATM    8  C8  UNL     1     -22.859  10.300  -5.200  1.00  0.00     0.034 C 
HETATM    9  N1  UNL     1     -22.388   9.084  -5.061  1.00  0.00    -0.276 N 
ATOM     10  H1  UNL     1     -22.948   8.383  -4.574  1.00  0.00     0.193 HD
ENDROOT
BRANCH   7  11
HETATM   11  C7  UNL     1     -21.581  12.391  -4.966  1.00  0.00     0.242 C 
HETATM   12  O1  UNL     1     -20.583  13.047  -5.187  1.00  0.00    -0.306 OA
ENDBRANCH   7  11
BRANCH   9  13
HETATM   13  O2  UNL     1     -21.148   8.734  -5.561  1.00  0.00    -0.290 OA
ATOM     14  H2  UNL     1     -20.396   8.630  -4.988  1.00  0.00     0.244 HD
ENDBRANCH   9  13
TORSDOF 2
ENDMDL
