MODEL 1
REMARK VINA RESULT: -7.166227800      0.000      0.000
REMARK  2 active torsions:
REMARK  status: ('A' for Active; 'I' for Inactive)
REMARK    1  A    between atoms: C2_3  and  C3_5 
REMARK    2  A    between atoms: C3_5  and  C4_6 
ROOT
HETATM    1  C1  UNL     1      45.502  42.739  80.523  1.00  0.00     0.263 C 
HETATM    2  N1  UNL     1      45.997  41.683  79.791  1.00  0.00    -0.421 NA
HETATM    3  C2  UNL     1      46.487  40.641  79.068  1.00  0.00     0.286 C 
HETATM    4  O1  UNL     1      47.692  40.316  79.001  1.00  0.00    -0.258 OA
ENDROOT
BRANCH   3   5
HETATM    5  C3  UNL     1      45.444  39.865  78.309  1.00  0.00     0.128 C 
BRANCH   5   6
HETATM    6  C4  UNL     1      45.333  40.139  76.869  1.00  0.00    -0.029 C 
HETATM    7  C5  UNL     1      45.728  41.469  76.355  1.00  0.00     0.014 C 
HETATM    8  C6  UNL     1      45.796  41.455  74.832  1.00  0.00    -0.012 C 
HETATM    9  C7  UNL     1      44.373  41.260  74.330  1.00  0.00     0.009 C 
HETATM   10  C11 UNL     1      46.643  40.382  74.260  1.00  0.00     0.030 C 
HETATM   11  C8  UNL     1      43.863  39.957  74.877  1.00  0.00    -0.012 C 
HETATM   12  C9  UNL     1      44.691  38.853  74.244  1.00  0.00     0.030 C 
HETATM   13  C13 UNL     1      43.891  39.891  76.370  1.00  0.00     0.014 C 
HETATM   14  C10 UNL     1      46.120  39.046  74.731  1.00  0.00     0.038 C 
HETATM   15 CL1  UNL     1      47.168  37.720  74.146  1.00  0.00    -0.119 Cl
HETATM   16  C12 UNL     1      46.123  38.994  76.212  1.00  0.00     0.035 C 
ENDBRANCH   5   6
ENDBRANCH   3   5
TORSDOF 1
ENDMDL
MODEL 2
REMARK VINA RESULT: -6.814665856      1.067      1.479
REMARK  2 active torsions:
REMARK  status: ('A' for Active; 'I' for Inactive)
REMARK    1  A    between atoms: C2_3  and  C3_5 
REMARK    2  A    between atoms: C3_5  and  C4_6 
ROOT
HETATM    1  C1  UNL     1      48.823  39.242  79.481  1.00  0.00     0.263 C 
HETATM    2  N1  UNL     1      47.651  39.940  79.292  1.00  0.00    -0.421 NA
HETATM    3  C2  UNL     1      46.493  40.629  79.105  1.00  0.00     0.286 C 
HETATM    4  O1  UNL     1      46.275  41.790  79.514  1.00  0.00    -0.258 OA
ENDROOT
BRANCH   3   5
HETATM    5  C3  UNL     1      45.434  39.874  78.347  1.00  0.00     0.128 C 
BRANCH   5   6
HETATM    6  C4  UNL     1      45.331  40.148  76.906  1.00  0.00    -0.029 C 
HETATM    7  C5  UNL     1      45.647  41.503  76.404  1.00  0.00     0.014 C 
HETATM    8  C6  UNL     1      45.742  41.502  74.883  1.00  0.00    -0.012 C 
HETATM    9  C7  UNL     1      44.344  41.216  74.355  1.00  0.00     0.009 C 
HETATM   10  C11 UNL     1      46.668  40.489  74.322  1.00  0.00     0.030 C 
HETATM   11  C8  UNL     1      43.911  39.880  74.887  1.00  0.00    -0.012 C 
HETATM   12  C9  UNL     1      44.820  38.835  74.266  1.00  0.00     0.030 C 
HETATM   13  C13 UNL     1      43.917  39.809  76.381  1.00  0.00     0.014 C 
HETATM   14  C10 UNL     1      46.225  39.120  74.778  1.00  0.00     0.038 C 
HETATM   15 CL1  UNL     1      47.368  37.868  74.207  1.00  0.00    -0.119 Cl
HETATM   16  C12 UNL     1      46.205  39.061  76.259  1.00  0.00     0.035 C 
ENDBRANCH   5   6
ENDBRANCH   3   5
TORSDOF 1
ENDMDL
MODEL 3
REMARK VINA RESULT: -6.613316624      1.353      1.622
REMARK  2 active torsions:
REMARK  status: ('A' for Active; 'I' for Inactive)
REMARK    1  A    between atoms: C2_3  and  C3_5 
REMARK    2  A    between atoms: C3_5  and  C4_6 
ROOT
HETATM    1  C1  UNL     1      43.782  43.754  80.271  1.00  0.00     0.263 C 
HETATM    2  N1  UNL     1      44.730  42.849  79.849  1.00  0.00    -0.421 NA
HETATM    3  C2  UNL     1      45.666  41.954  79.431  1.00  0.00     0.286 C 
HETATM    4  O1  UNL     1      46.053  40.962  80.085  1.00  0.00    -0.258 OA
ENDROOT
BRANCH   3   5
HETATM    5  C3  UNL     1      46.244  42.246  78.072  1.00  0.00     0.128 C 
BRANCH   5   6
HETATM    6  C4  UNL     1      45.779  41.403  76.961  1.00  0.00    -0.029 C 
HETATM    7  C5  UNL     1      45.806  41.945  75.584  1.00  0.00     0.014 C 
HETATM    8  C6  UNL     1      45.547  40.838  74.568  1.00  0.00    -0.012 C 
HETATM    9  C7  UNL     1      44.110  40.384  74.771  1.00  0.00     0.009 C 
HETATM   10  C11 UNL     1      46.433  39.658  74.701  1.00  0.00     0.030 C 
HETATM   11  C8  UNL     1      43.974  39.888  76.181  1.00  0.00    -0.012 C 
HETATM   12  C9  UNL     1      44.834  38.642  76.302  1.00  0.00     0.030 C 
HETATM   13  C13 UNL     1      44.333  40.916  77.207  1.00  0.00     0.014 C 
HETATM   14  C10 UNL     1      46.274  39.084  76.089  1.00  0.00     0.038 C 
HETATM   15 CL1  UNL     1      47.395  37.712  76.333  1.00  0.00    -0.119 Cl
HETATM   16  C12 UNL     1      46.604  40.113  77.103  1.00  0.00     0.035 C 
ENDBRANCH   5   6
ENDBRANCH   3   5
TORSDOF 1
ENDMDL
MODEL 4
REMARK VINA RESULT: -6.557542367      3.244      4.866
REMARK  2 active torsions:
REMARK  status: ('A' for Active; 'I' for Inactive)
REMARK    1  A    between atoms: C2_3  and  C3_5 
REMARK    2  A    between atoms: C3_5  and  C4_6 
ROOT
HETATM    1  C1  UNL     1      46.970  35.771  72.624  1.00  0.00     0.263 C 
HETATM    2  N1  UNL     1      47.539  36.839  73.282  1.00  0.00    -0.421 NA
HETATM    3  C2  UNL     1      48.101  37.893  73.931  1.00  0.00     0.286 C 
HETATM    4  O1  UNL     1      49.066  38.565  73.508  1.00  0.00    -0.258 OA
ENDROOT
BRANCH   3   5
HETATM    5  C3  UNL     1      47.468  38.218  75.257  1.00  0.00     0.128 C 
BRANCH   5   6
HETATM    6  C4  UNL     1      46.326  39.144  75.236  1.00  0.00    -0.029 C 
HETATM    7  C5  UNL     1      45.008  38.655  74.774  1.00  0.00     0.014 C 
HETATM    8  C6  UNL     1      43.920  39.677  75.085  1.00  0.00    -0.012 C 
HETATM    9  C7  UNL     1      44.200  40.895  74.218  1.00  0.00     0.009 C 
HETATM   10  C11 UNL     1      43.867  40.114  76.499  1.00  0.00     0.030 C 
HETATM   11  C8  UNL     1      45.566  41.411  74.570  1.00  0.00    -0.012 C 
HETATM   12  C9  UNL     1      45.497  41.916  76.001  1.00  0.00     0.030 C 
HETATM   13  C13 UNL     1      46.647  40.395  74.387  1.00  0.00     0.014 C 
HETATM   14  C10 UNL     1      45.205  40.706  76.876  1.00  0.00     0.038 C 
HETATM   15 CL1  UNL     1      45.225  41.162  78.605  1.00  0.00    -0.119 Cl
HETATM   16  C12 UNL     1      46.278  39.706  76.667  1.00  0.00     0.035 C 
ENDBRANCH   5   6
ENDBRANCH   3   5
TORSDOF 1
ENDMDL
MODEL 5
REMARK VINA RESULT: -6.546214776      1.512      2.514
REMARK  2 active torsions:
REMARK  status: ('A' for Active; 'I' for Inactive)
REMARK    1  A    between atoms: C2_3  and  C3_5 
REMARK    2  A    between atoms: C3_5  and  C4_6 
ROOT
HETATM    1  C1  UNL     1      45.540  43.126  79.465  1.00  0.00     0.263 C 
HETATM    2  N1  UNL     1      46.032  41.881  79.141  1.00  0.00    -0.421 NA
HETATM    3  C2  UNL     1      46.518  40.652  78.821  1.00  0.00     0.286 C 
HETATM    4  O1  UNL     1      47.724  40.324  78.857  1.00  0.00    -0.258 OA
ENDROOT
BRANCH   3   5
HETATM    5  C3  UNL     1      45.470  39.659  78.394  1.00  0.00     0.128 C 
BRANCH   5   6
HETATM    6  C4  UNL     1      45.346  39.408  76.950  1.00  0.00    -0.029 C 
HETATM    7  C5  UNL     1      44.268  38.521  76.462  1.00  0.00     0.014 C 
HETATM    8  C6  UNL     1      44.147  38.611  74.945  1.00  0.00    -0.012 C 
HETATM    9  C7  UNL     1      45.422  38.015  74.367  1.00  0.00     0.009 C 
HETATM   10  C11 UNL     1      43.993  39.986  74.417  1.00  0.00     0.030 C 
HETATM   11  C8  UNL     1      46.583  38.817  74.881  1.00  0.00    -0.012 C 
HETATM   12  C9  UNL     1      46.460  40.210  74.291  1.00  0.00     0.030 C 
HETATM   13  C13 UNL     1      46.666  38.846  76.373  1.00  0.00     0.014 C 
HETATM   14  C10 UNL     1      45.181  40.811  74.855  1.00  0.00     0.038 C 
HETATM   15 CL1  UNL     1      44.996  42.508  74.324  1.00  0.00    -0.119 Cl
HETATM   16  C12 UNL     1      45.276  40.815  76.334  1.00  0.00     0.035 C 
ENDBRANCH   5   6
ENDBRANCH   3   5
TORSDOF 1
ENDMDL
