MODEL 1
REMARK VINA RESULT: -7.131941051      0.000      0.000
REMARK  5 active torsions:
REMARK  status: ('A' for Active; 'I' for Inactive)
REMARK    1  A    between atoms: O1_1  and  C1_3 
REMARK    2  A    between atoms: C1_3  and  C2_4 
REMARK    3  A    between atoms: N1_6  and  C4_7 
REMARK    4  A    between atoms: C4_7  and  C5_8 
REMARK    5  A    between atoms: C12_16  and  O3_17 
ROOT
HETATM    1  C2  UNL     1      51.344  41.027  65.684  1.00  0.00     0.056 C 
HETATM    2  C3  UNL     1      51.821  40.158  64.535  1.00  0.00     0.131 C 
HETATM    3  N1  UNL     1      52.606  40.891  63.607  1.00  0.00    -0.392 N 
HETATM    4  C10 UNL     1      51.907  41.806  62.850  1.00  0.00     0.124 C 
HETATM    5  C11 UNL     1      50.778  42.434  63.679  1.00  0.00     0.052 C 
HETATM    6  C12 UNL     1      51.082  42.406  65.146  1.00  0.00     0.127 C 
ENDROOT
BRANCH   3   7
HETATM    7  C4  UNL     1      53.792  40.281  63.264  1.00  0.00     0.063 C 
BRANCH   7   8
HETATM    8  C5  UNL     1      54.543  39.498  64.294  1.00  0.00     0.028 C 
HETATM    9  C6  UNL     1      55.557  40.256  65.080  1.00  0.00     0.036 C 
HETATM   10  C7  UNL     1      56.911  39.519  65.027  1.00  0.00     0.168 C 
HETATM   11  O2  UNL     1      57.308  39.608  63.683  1.00  0.00    -0.391 OA
HETATM   12  C8  UNL     1      56.515  38.803  62.909  1.00  0.00     0.168 C 
HETATM   13  C9  UNL     1      55.251  38.350  63.585  1.00  0.00     0.036 C 
ENDBRANCH   7   8
ENDBRANCH   3   7
BRANCH   1  14
HETATM   14  C1  UNL     1      52.396  41.035  66.782  1.00  0.00     0.172 C 
BRANCH  14  15
HETATM   15  O1  UNL     1      51.810  40.974  68.040  1.00  0.00    -0.400 OA
ATOM     16  H1  UNL     1      52.247  40.337  68.592  1.00  0.00     0.209 HD
ENDBRANCH  14  15
ENDBRANCH   1  14
BRANCH   6  17
HETATM   17  O3  UNL     1      49.966  42.898  65.818  1.00  0.00    -0.395 OA
ATOM     18  H3  UNL     1      49.897  43.821  65.602  1.00  0.00     0.210 HD
ENDBRANCH   6  17
TORSDOF 5
ENDMDL
MODEL 2
REMARK VINA RESULT: -6.815292986      1.791      5.764
REMARK  5 active torsions:
REMARK  status: ('A' for Active; 'I' for Inactive)
REMARK    1  A    between atoms: O1_1  and  C1_3 
REMARK    2  A    between atoms: C1_3  and  C2_4 
REMARK    3  A    between atoms: N1_6  and  C4_7 
REMARK    4  A    between atoms: C4_7  and  C5_8 
REMARK    5  A    between atoms: C12_16  and  O3_17 
ROOT
HETATM    1  C2  UNL     1      55.539  37.971  63.509  1.00  0.00     0.056 C 
HETATM    2  C3  UNL     1      54.982  38.291  64.883  1.00  0.00     0.131 C 
HETATM    3  N1  UNL     1      54.729  39.678  65.043  1.00  0.00    -0.392 N 
HETATM    4  C10 UNL     1      55.855  40.468  65.126  1.00  0.00     0.124 C 
HETATM    5  C11 UNL     1      56.965  39.913  64.225  1.00  0.00     0.052 C 
HETATM    6  C12 UNL     1      56.410  39.118  63.082  1.00  0.00     0.127 C 
ENDROOT
BRANCH   3   7
HETATM    7  C4  UNL     1      53.484  39.972  65.553  1.00  0.00     0.063 C 
BRANCH   7   8
HETATM    8  C5  UNL     1      53.036  41.397  65.630  1.00  0.00     0.028 C 
HETATM    9  C6  UNL     1      52.062  41.717  66.711  1.00  0.00     0.036 C 
HETATM   10  C7  UNL     1      50.843  42.448  66.111  1.00  0.00     0.168 C 
HETATM   11  O2  UNL     1      50.224  41.487  65.295  1.00  0.00    -0.391 OA
HETATM   12  C8  UNL     1      50.992  41.253  64.186  1.00  0.00     0.168 C 
HETATM   13  C9  UNL     1      52.403  41.762  64.294  1.00  0.00     0.036 C 
ENDBRANCH   7   8
ENDBRANCH   3   7
BRANCH   1  14
HETATM   14  C1  UNL     1      54.390  37.738  62.540  1.00  0.00     0.172 C 
BRANCH  14  15
HETATM   15  O1  UNL     1      54.008  36.403  62.525  1.00  0.00    -0.400 OA
ATOM     16  H1  UNL     1      54.384  35.946  61.782  1.00  0.00     0.209 HD
ENDBRANCH  14  15
ENDBRANCH   1  14
BRANCH   6  17
HETATM   17  O3  UNL     1      57.486  38.573  62.385  1.00  0.00    -0.395 OA
ATOM     18  H3  UNL     1      57.475  38.956  61.515  1.00  0.00     0.210 HD
ENDBRANCH   6  17
TORSDOF 5
ENDMDL
MODEL 3
REMARK VINA RESULT: -6.720953847      1.726      5.810
REMARK  5 active torsions:
REMARK  status: ('A' for Active; 'I' for Inactive)
REMARK    1  A    between atoms: O1_1  and  C1_3 
REMARK    2  A    between atoms: C1_3  and  C2_4 
REMARK    3  A    between atoms: N1_6  and  C4_7 
REMARK    4  A    between atoms: C4_7  and  C5_8 
REMARK    5  A    between atoms: C12_16  and  O3_17 
ROOT
HETATM    1  C2  UNL     1      55.468  38.064  63.717  1.00  0.00     0.056 C 
HETATM    2  C3  UNL     1      55.001  38.595  65.059  1.00  0.00     0.131 C 
HETATM    3  N1  UNL     1      54.966  40.014  65.085  1.00  0.00    -0.392 N 
HETATM    4  C10 UNL     1      56.201  40.626  65.079  1.00  0.00     0.124 C 
HETATM    5  C11 UNL     1      57.191  39.823  64.225  1.00  0.00     0.052 C 
HETATM    6  C12 UNL     1      56.493  39.018  63.171  1.00  0.00     0.127 C 
ENDROOT
BRANCH   3   7
HETATM    7  C4  UNL     1      53.794  40.543  65.577  1.00  0.00     0.063 C 
BRANCH   7   8
HETATM    8  C5  UNL     1      52.593  40.626  64.689  1.00  0.00     0.028 C 
HETATM    9  C6  UNL     1      52.147  42.000  64.321  1.00  0.00     0.036 C 
HETATM   10  C7  UNL     1      50.645  42.158  64.633  1.00  0.00     0.168 C 
HETATM   11  O2  UNL     1      50.567  42.082  66.033  1.00  0.00    -0.391 OA
HETATM   12  C8  UNL     1      50.809  40.797  66.443  1.00  0.00     0.168 C 
HETATM   13  C9  UNL     1      51.439  39.924  65.394  1.00  0.00     0.036 C 
ENDBRANCH   7   8
ENDBRANCH   3   7
BRANCH   1  14
HETATM   14  C1  UNL     1      54.274  37.920  62.787  1.00  0.00     0.172 C 
BRANCH  14  15
HETATM   15  O1  UNL     1      54.025  36.586  62.492  1.00  0.00    -0.400 OA
ATOM     16  H1  UNL     1      53.108  36.444  62.287  1.00  0.00     0.209 HD
ENDBRANCH  14  15
ENDBRANCH   1  14
BRANCH   6  17
HETATM   17  O3  UNL     1      57.456  38.251  62.519  1.00  0.00    -0.395 OA
ATOM     18  H3  UNL     1      58.062  38.856  62.110  1.00  0.00     0.210 HD
ENDBRANCH   6  17
TORSDOF 5
ENDMDL
MODEL 4
REMARK VINA RESULT: -6.642188064      1.434      1.785
REMARK  5 active torsions:
REMARK  status: ('A' for Active; 'I' for Inactive)
REMARK    1  A    between atoms: O1_1  and  C1_3 
REMARK    2  A    between atoms: C1_3  and  C2_4 
REMARK    3  A    between atoms: N1_6  and  C4_7 
REMARK    4  A    between atoms: C4_7  and  C5_8 
REMARK    5  A    between atoms: C12_16  and  O3_17 
ROOT
HETATM    1  C2  UNL     1      51.171  39.603  65.877  1.00  0.00     0.056 C 
HETATM    2  C3  UNL     1      51.865  40.045  64.603  1.00  0.00     0.131 C 
HETATM    3  N1  UNL     1      52.978  40.884  64.869  1.00  0.00    -0.392 N 
HETATM    4  C10 UNL     1      52.660  42.142  65.334  1.00  0.00     0.124 C 
HETATM    5  C11 UNL     1      51.418  42.080  66.234  1.00  0.00     0.052 C 
HETATM    6  C12 UNL     1      51.255  40.731  66.867  1.00  0.00     0.127 C 
ENDROOT
BRANCH   3   7
HETATM    7  C4  UNL     1      54.129  40.526  64.202  1.00  0.00     0.063 C 
BRANCH   7   8
HETATM    8  C5  UNL     1      55.134  39.653  64.884  1.00  0.00     0.028 C 
HETATM    9  C6  UNL     1      56.407  40.315  65.288  1.00  0.00     0.036 C 
HETATM   10  C7  UNL     1      57.605  39.508  64.748  1.00  0.00     0.168 C 
HETATM   11  O2  UNL     1      57.518  39.641  63.352  1.00  0.00    -0.391 OA
HETATM   12  C8  UNL     1      56.453  38.919  62.882  1.00  0.00     0.168 C 
HETATM   13  C9  UNL     1      55.472  38.504  63.944  1.00  0.00     0.036 C 
ENDBRANCH   7   8
ENDBRANCH   3   7
BRANCH   1  14
HETATM   14  C1  UNL     1      51.832  38.338  66.400  1.00  0.00     0.172 C 
BRANCH  14  15
HETATM   15  O1  UNL     1      51.485  38.098  67.723  1.00  0.00    -0.400 OA
ATOM     16  H1  UNL     1      52.083  37.483  68.130  1.00  0.00     0.209 HD
ENDBRANCH  14  15
ENDBRANCH   1  14
BRANCH   6  17
HETATM   17  O3  UNL     1      50.057  40.740  67.576  1.00  0.00    -0.395 OA
ATOM     18  H3  UNL     1      50.159  41.363  68.286  1.00  0.00     0.210 HD
ENDBRANCH   6  17
TORSDOF 5
ENDMDL
MODEL 5
REMARK VINA RESULT: -6.640029905      1.460      5.540
REMARK  5 active torsions:
REMARK  status: ('A' for Active; 'I' for Inactive)
REMARK    1  A    between atoms: O1_1  and  C1_3 
REMARK    2  A    between atoms: C1_3  and  C2_4 
REMARK    3  A    between atoms: N1_6  and  C4_7 
REMARK    4  A    between atoms: C4_7  and  C5_8 
REMARK    5  A    between atoms: C12_16  and  O3_17 
ROOT
HETATM    1  C2  UNL     1      56.261  39.749  64.018  1.00  0.00     0.056 C 
HETATM    2  C3  UNL     1      54.815  40.187  64.150  1.00  0.00     0.131 C 
HETATM    3  N1  UNL     1      53.964  39.108  64.505  1.00  0.00    -0.392 N 
HETATM    4  C10 UNL     1      53.768  38.172  63.512  1.00  0.00     0.124 C 
HETATM    5  C11 UNL     1      55.047  37.999  62.682  1.00  0.00     0.052 C 
HETATM    6  C12 UNL     1      56.274  38.350  63.468  1.00  0.00     0.127 C 
ENDROOT
BRANCH   3   7
HETATM    7  C4  UNL     1      53.113  39.379  65.553  1.00  0.00     0.063 C 
BRANCH   7   8
HETATM    8  C5  UNL     1      51.704  39.794  65.270  1.00  0.00     0.028 C 
HETATM    9  C6  UNL     1      51.539  41.006  64.419  1.00  0.00     0.036 C 
HETATM   10  C7  UNL     1      50.598  42.007  65.121  1.00  0.00     0.168 C 
HETATM   11  O2  UNL     1      51.311  42.419  66.259  1.00  0.00    -0.391 OA
HETATM   12  C8  UNL     1      51.368  41.396  67.168  1.00  0.00     0.168 C 
HETATM   13  C9  UNL     1      51.013  40.049  66.603  1.00  0.00     0.036 C 
ENDBRANCH   7   8
ENDBRANCH   3   7
BRANCH   1  14
HETATM   14  C1  UNL     1      56.941  39.832  65.376  1.00  0.00     0.172 C 
BRANCH  14  15
HETATM   15  O1  UNL     1      56.351  40.803  66.174  1.00  0.00    -0.400 OA
ATOM     16  H1  UNL     1      55.445  40.590  66.364  1.00  0.00     0.209 HD
ENDBRANCH  14  15
ENDBRANCH   1  14
BRANCH   6  17
HETATM   17  O3  UNL     1      57.365  38.262  62.608  1.00  0.00    -0.395 OA
ATOM     18  H3  UNL     1      57.947  37.600  62.964  1.00  0.00     0.210 HD
ENDBRANCH   6  17
TORSDOF 5
ENDMDL
