MODEL 1
REMARK VINA RESULT: -7.975703419      0.000      0.000
REMARK  6 active torsions:
REMARK  status: ('A' for Active; 'I' for Inactive)
REMARK    1  A    between atoms: C2_2  and  O2_4 
REMARK    2  A    between atoms: O2_4  and  C3_5 
REMARK    3  A    between atoms: C17_19  and  N1_20 
REMARK    4  A    between atoms: N1_20  and  C18_22 
REMARK    5  A    between atoms: C18_22  and  C19_23 
REMARK    6  A    between atoms: C19_23  and  C20_24 
ROOT
HETATM    1  C3  UNL     1     -19.773  -5.683  59.446  1.00  0.00     0.136 C 
HETATM    2  C4  UNL     1     -20.248  -6.506  58.322  1.00  0.00     0.034 C 
HETATM    3  C5  UNL     1     -19.497  -6.423  57.025  1.00  0.00     0.016 C 
HETATM    4  C6  UNL     1     -19.272  -4.978  56.688  1.00  0.00    -0.017 C 
HETATM    5  C7  UNL     1     -20.633  -4.274  56.862  1.00  0.00     0.020 C 
HETATM    6  C8  UNL     1     -18.364  -4.490  57.765  1.00  0.00    -0.072 C 
HETATM    7  C9  UNL     1     -17.146  -4.113  57.478  1.00  0.00    -0.023 C 
HETATM    8  C10 UNL     1     -16.512  -4.109  56.149  1.00  0.00     0.033 C 
HETATM    9  C11 UNL     1     -17.386  -4.573  55.028  1.00  0.00    -0.001 C 
HETATM   10  C12 UNL     1     -18.834  -4.668  55.306  1.00  0.00     0.003 C 
HETATM   11  C13 UNL     1     -19.614  -5.477  54.309  1.00  0.00     0.007 C 
HETATM   12  C14 UNL     1     -18.848  -6.605  53.697  1.00  0.00     0.012 C 
HETATM   13  C15 UNL     1     -17.560  -6.107  53.147  1.00  0.00    -0.020 C 
HETATM   14  C16 UNL     1     -17.623  -4.874  52.309  1.00  0.00     0.018 C 
HETATM   15  C17 UNL     1     -16.671  -7.114  52.514  1.00  0.00     0.085 C 
HETATM   16  C23 UNL     1     -15.258  -6.551  52.768  1.00  0.00     0.026 C 
HETATM   17  C24 UNL     1     -15.392  -5.612  53.939  1.00  0.00     0.008 C 
HETATM   18  C25 UNL     1     -16.756  -5.823  54.447  1.00  0.00     0.000 C 
HETATM   19  C26 UNL     1     -18.928  -4.491  59.138  1.00  0.00     0.067 C 
ENDROOT
BRANCH  15  20
HETATM   20  N1  UNL     1     -16.809  -7.246  51.119  1.00  0.00    -0.416 N 
ATOM     21  H1  UNL     1     -17.011  -6.420  50.556  1.00  0.00     0.153 HD
BRANCH  20  22
HETATM   22  C18 UNL     1     -16.673  -8.492  50.487  1.00  0.00     0.118 C 
BRANCH  22  23
HETATM   23  C19 UNL     1     -17.934  -9.309  50.864  1.00  0.00     0.047 C 
BRANCH  23  24
HETATM   24  C20 UNL     1     -19.149  -8.632  50.383  1.00  0.00    -0.006 C 
HETATM   25  C21 UNL     1     -19.624  -8.912  49.183  1.00  0.00     0.004 C 
HETATM   26  C22 UNL     1     -20.845  -8.245  48.679  1.00  0.00     0.061 C 
HETATM   27 CL1  UNL     1     -18.812 -10.090  48.141  1.00  0.00    -0.090 Cl
ENDBRANCH  23  24
ENDBRANCH  22  23
ENDBRANCH  20  22
ENDBRANCH  15  20
BRANCH   1  28
HETATM   28  O2  UNL     1     -20.905  -5.188  60.170  1.00  0.00    -0.316 OA
BRANCH  28  29
HETATM   29  C2  UNL     1     -21.413  -5.759  61.308  1.00  0.00     0.255 C 
HETATM   30  C1  UNL     1     -20.635  -6.835  62.000  1.00  0.00     0.126 C 
HETATM   31  O1  UNL     1     -22.520  -5.354  61.726  1.00  0.00    -0.266 OA
ENDBRANCH  28  29
ENDBRANCH   1  28
TORSDOF 6
ENDMDL
MODEL 2
REMARK VINA RESULT: -7.850927518      4.878      7.487
REMARK  6 active torsions:
REMARK  status: ('A' for Active; 'I' for Inactive)
REMARK    1  A    between atoms: C2_2  and  O2_4 
REMARK    2  A    between atoms: O2_4  and  C3_5 
REMARK    3  A    between atoms: C17_19  and  N1_20 
REMARK    4  A    between atoms: N1_20  and  C18_22 
REMARK    5  A    between atoms: C18_22  and  C19_23 
REMARK    6  A    between atoms: C19_23  and  C20_24 
ROOT
HETATM    1  C3  UNL     1     -16.041  -6.100  53.072  1.00  0.00     0.136 C 
HETATM    2  C4  UNL     1     -16.806  -5.339  52.071  1.00  0.00     0.034 C 
HETATM    3  C5  UNL     1     -18.121  -4.751  52.493  1.00  0.00     0.016 C 
HETATM    4  C6  UNL     1     -18.912  -5.803  53.215  1.00  0.00    -0.017 C 
HETATM    5  C7  UNL     1     -18.855  -7.069  52.336  1.00  0.00     0.020 C 
HETATM    6  C8  UNL     1     -18.122  -6.069  54.451  1.00  0.00    -0.072 C 
HETATM    7  C9  UNL     1     -18.613  -5.765  55.623  1.00  0.00    -0.023 C 
HETATM    8  C10 UNL     1     -19.924  -5.155  55.902  1.00  0.00     0.033 C 
HETATM    9  C11 UNL     1     -20.766  -4.884  54.696  1.00  0.00    -0.001 C 
HETATM   10  C12 UNL     1     -20.353  -5.532  53.434  1.00  0.00     0.003 C 
HETATM   11  C13 UNL     1     -20.977  -4.951  52.197  1.00  0.00     0.007 C 
HETATM   12  C14 UNL     1     -21.266  -3.487  52.280  1.00  0.00     0.012 C 
HETATM   13  C15 UNL     1     -22.050  -3.192  53.508  1.00  0.00    -0.020 C 
HETATM   14  C16 UNL     1     -23.224  -4.072  53.779  1.00  0.00     0.018 C 
HETATM   15  C17 UNL     1     -22.407  -1.770  53.746  1.00  0.00     0.085 C 
HETATM   16  C23 UNL     1     -22.460  -1.670  55.284  1.00  0.00     0.026 C 
HETATM   17  C24 UNL     1     -21.636  -2.820  55.802  1.00  0.00     0.008 C 
HETATM   18  C25 UNL     1     -20.976  -3.385  54.616  1.00  0.00     0.000 C 
HETATM   19  C26 UNL     1     -16.776  -6.659  54.245  1.00  0.00     0.067 C 
ENDROOT
BRANCH  15  20
HETATM   20  N1  UNL     1     -23.673  -1.380  53.270  1.00  0.00    -0.416 N 
ATOM     21  H1  UNL     1     -24.503  -1.599  53.821  1.00  0.00     0.153 HD
BRANCH  20  22
HETATM   22  C18 UNL     1     -23.816  -0.695  52.054  1.00  0.00     0.118 C 
BRANCH  22  23
HETATM   23  C19 UNL     1     -24.427  -1.708  51.055  1.00  0.00     0.047 C 
BRANCH  23  24
HETATM   24  C20 UNL     1     -25.722  -2.202  51.549  1.00  0.00    -0.006 C 
HETATM   25  C21 UNL     1     -25.995  -3.494  51.497  1.00  0.00     0.004 C 
HETATM   26  C22 UNL     1     -27.290  -4.012  51.990  1.00  0.00     0.061 C 
HETATM   27 CL1  UNL     1     -24.820  -4.639  50.833  1.00  0.00    -0.090 Cl
ENDBRANCH  23  24
ENDBRANCH  22  23
ENDBRANCH  20  22
ENDBRANCH  15  20
BRANCH   1  28
HETATM   28  O2  UNL     1     -15.417  -7.217  52.428  1.00  0.00    -0.316 OA
BRANCH  28  29
HETATM   29  C2  UNL     1     -16.093  -8.262  51.854  1.00  0.00     0.255 C 
HETATM   30  C1  UNL     1     -16.159  -8.365  50.362  1.00  0.00     0.126 C 
HETATM   31  O1  UNL     1     -16.635  -9.098  52.610  1.00  0.00    -0.266 OA
ENDBRANCH  28  29
ENDBRANCH   1  28
TORSDOF 6
ENDMDL
MODEL 3
REMARK VINA RESULT: -7.827050191      1.040      1.153
REMARK  6 active torsions:
REMARK  status: ('A' for Active; 'I' for Inactive)
REMARK    1  A    between atoms: C2_2  and  O2_4 
REMARK    2  A    between atoms: O2_4  and  C3_5 
REMARK    3  A    between atoms: C17_19  and  N1_20 
REMARK    4  A    between atoms: N1_20  and  C18_22 
REMARK    5  A    between atoms: C18_22  and  C19_23 
REMARK    6  A    between atoms: C19_23  and  C20_24 
ROOT
HETATM    1  C3  UNL     1     -19.530  -4.450  59.933  1.00  0.00     0.136 C 
HETATM    2  C4  UNL     1     -20.078  -5.492  59.048  1.00  0.00     0.034 C 
HETATM    3  C5  UNL     1     -19.452  -5.662  57.695  1.00  0.00     0.016 C 
HETATM    4  C6  UNL     1     -19.310  -4.312  57.055  1.00  0.00    -0.017 C 
HETATM    5  C7  UNL     1     -20.673  -3.610  57.215  1.00  0.00     0.020 C 
HETATM    6  C8  UNL     1     -18.325  -3.601  57.918  1.00  0.00    -0.072 C 
HETATM    7  C9  UNL     1     -17.152  -3.271  57.445  1.00  0.00    -0.023 C 
HETATM    8  C10 UNL     1     -16.644  -3.527  56.086  1.00  0.00     0.033 C 
HETATM    9  C11 UNL     1     -17.600  -4.223  55.172  1.00  0.00    -0.001 C 
HETATM   10  C12 UNL     1     -19.012  -4.282  55.603  1.00  0.00     0.003 C 
HETATM   11  C13 UNL     1     -19.851  -5.290  54.869  1.00  0.00     0.007 C 
HETATM   12  C14 UNL     1     -19.105  -6.507  54.424  1.00  0.00     0.012 C 
HETATM   13  C15 UNL     1     -17.892  -6.110  53.663  1.00  0.00    -0.020 C 
HETATM   14  C16 UNL     1     -18.076  -5.074  52.605  1.00  0.00     0.018 C 
HETATM   15  C17 UNL     1     -17.030  -7.210  53.161  1.00  0.00     0.085 C 
HETATM   16  C23 UNL     1     -15.620  -6.584  53.159  1.00  0.00     0.026 C 
HETATM   17  C24 UNL     1     -15.679  -5.430  54.125  1.00  0.00     0.008 C 
HETATM   18  C25 UNL     1     -16.983  -5.555  54.795  1.00  0.00     0.000 C 
HETATM   19  C26 UNL     1     -18.760  -3.333  59.312  1.00  0.00     0.067 C 
ENDROOT
BRANCH  15  20
HETATM   20  N1  UNL     1     -17.290  -7.625  51.842  1.00  0.00    -0.416 N 
ATOM     21  H1  UNL     1     -18.254  -7.657  51.508  1.00  0.00     0.153 HD
BRANCH  20  22
HETATM   22  C18 UNL     1     -16.251  -7.995  50.975  1.00  0.00     0.118 C 
BRANCH  22  23
HETATM   23  C19 UNL     1     -16.803  -9.151  50.104  1.00  0.00     0.047 C 
BRANCH  23  24
HETATM   24  C20 UNL     1     -18.252  -8.993  49.897  1.00  0.00    -0.006 C 
HETATM   25  C21 UNL     1     -18.776  -9.243  48.711  1.00  0.00     0.004 C 
HETATM   26  C22 UNL     1     -20.230  -9.093  48.480  1.00  0.00     0.061 C 
HETATM   27 CL1  UNL     1     -17.754  -9.763  47.363  1.00  0.00    -0.090 Cl
ENDBRANCH  23  24
ENDBRANCH  22  23
ENDBRANCH  20  22
ENDBRANCH  15  20
BRANCH   1  28
HETATM   28  O2  UNL     1     -20.608  -3.837  60.650  1.00  0.00    -0.316 OA
BRANCH  28  29
HETATM   29  C2  UNL     1     -21.330  -4.446  61.643  1.00  0.00     0.255 C 
HETATM   30  C1  UNL     1     -22.826  -4.403  61.598  1.00  0.00     0.126 C 
HETATM   31  O1  UNL     1     -20.700  -5.020  62.559  1.00  0.00    -0.266 OA
ENDBRANCH  28  29
ENDBRANCH   1  28
TORSDOF 6
ENDMDL
MODEL 4
REMARK VINA RESULT: -7.726276244      4.558      8.528
REMARK  6 active torsions:
REMARK  status: ('A' for Active; 'I' for Inactive)
REMARK    1  A    between atoms: C2_2  and  O2_4 
REMARK    2  A    between atoms: O2_4  and  C3_5 
REMARK    3  A    between atoms: C17_19  and  N1_20 
REMARK    4  A    between atoms: N1_20  and  C18_22 
REMARK    5  A    between atoms: C18_22  and  C19_23 
REMARK    6  A    between atoms: C19_23  and  C20_24 
ROOT
HETATM    1  C3  UNL     1     -17.468  -7.932  52.032  1.00  0.00     0.136 C 
HETATM    2  C4  UNL     1     -16.444  -7.611  53.040  1.00  0.00     0.034 C 
HETATM    3  C5  UNL     1     -16.858  -6.781  54.220  1.00  0.00     0.016 C 
HETATM    4  C6  UNL     1     -17.642  -5.600  53.729  1.00  0.00    -0.017 C 
HETATM    5  C7  UNL     1     -16.825  -4.984  52.575  1.00  0.00     0.020 C 
HETATM    6  C8  UNL     1     -18.877  -6.198  53.146  1.00  0.00    -0.072 C 
HETATM    7  C9  UNL     1     -20.041  -5.970  53.694  1.00  0.00    -0.023 C 
HETATM    8  C10 UNL     1     -20.311  -5.148  54.886  1.00  0.00     0.033 C 
HETATM    9  C11 UNL     1     -19.107  -4.508  55.501  1.00  0.00    -0.001 C 
HETATM   10  C12 UNL     1     -17.872  -4.495  54.691  1.00  0.00     0.003 C 
HETATM   11  C13 UNL     1     -16.618  -4.196  55.464  1.00  0.00     0.007 C 
HETATM   12  C14 UNL     1     -16.635  -4.679  56.878  1.00  0.00     0.012 C 
HETATM   13  C15 UNL     1     -17.860  -4.195  57.566  1.00  0.00    -0.020 C 
HETATM   14  C16 UNL     1     -18.192  -2.750  57.401  1.00  0.00     0.018 C 
HETATM   15  C17 UNL     1     -18.034  -4.604  58.984  1.00  0.00     0.085 C 
HETATM   16  C23 UNL     1     -19.566  -4.666  59.149  1.00  0.00     0.026 C 
HETATM   17  C24 UNL     1     -20.126  -4.826  57.760  1.00  0.00     0.008 C 
HETATM   18  C25 UNL     1     -18.958  -5.070  56.901  1.00  0.00     0.000 C 
HETATM   19  C26 UNL     1     -18.678  -7.062  51.955  1.00  0.00     0.067 C 
ENDROOT
BRANCH  15  20
HETATM   20  N1  UNL     1     -17.560  -3.683  59.938  1.00  0.00    -0.416 N 
ATOM     21  H1  UNL     1     -18.148  -2.893  60.204  1.00  0.00     0.153 HD
BRANCH  20  22
HETATM   22  C18 UNL     1     -16.297  -3.832  60.531  1.00  0.00     0.118 C 
BRANCH  22  23
HETATM   23  C19 UNL     1     -15.414  -2.696  59.959  1.00  0.00     0.047 C 
BRANCH  23  24
HETATM   24  C20 UNL     1     -14.189  -3.248  59.357  1.00  0.00    -0.006 C 
HETATM   25  C21 UNL     1     -13.788  -2.819  58.174  1.00  0.00     0.004 C 
HETATM   26  C22 UNL     1     -12.559  -3.359  57.552  1.00  0.00     0.061 C 
HETATM   27 CL1  UNL     1     -14.711  -1.588  57.299  1.00  0.00    -0.090 Cl
ENDBRANCH  23  24
ENDBRANCH  22  23
ENDBRANCH  20  22
ENDBRANCH  15  20
BRANCH   1  28
HETATM   28  O2  UNL     1     -16.868  -7.891  50.732  1.00  0.00    -0.316 OA
BRANCH  28  29
HETATM   29  C2  UNL     1     -16.839  -8.944  49.854  1.00  0.00     0.255 C 
HETATM   30  C1  UNL     1     -18.074  -9.764  49.647  1.00  0.00     0.126 C 
HETATM   31  O1  UNL     1     -15.767  -9.180  49.255  1.00  0.00    -0.266 OA
ENDBRANCH  28  29
ENDBRANCH   1  28
TORSDOF 6
ENDMDL
MODEL 5
REMARK VINA RESULT: -7.559853025      4.633      8.663
REMARK  6 active torsions:
REMARK  status: ('A' for Active; 'I' for Inactive)
REMARK    1  A    between atoms: C2_2  and  O2_4 
REMARK    2  A    between atoms: O2_4  and  C3_5 
REMARK    3  A    between atoms: C17_19  and  N1_20 
REMARK    4  A    between atoms: N1_20  and  C18_22 
REMARK    5  A    between atoms: C18_22  and  C19_23 
REMARK    6  A    between atoms: C19_23  and  C20_24 
ROOT
HETATM    1  C3  UNL     1     -17.223  -7.962  52.157  1.00  0.00     0.136 C 
HETATM    2  C4  UNL     1     -16.159  -7.453  53.037  1.00  0.00     0.034 C 
HETATM    3  C5  UNL     1     -16.566  -6.652  54.239  1.00  0.00     0.016 C 
HETATM    4  C6  UNL     1     -17.571  -5.621  53.816  1.00  0.00    -0.017 C 
HETATM    5  C7  UNL     1     -16.987  -4.932  52.566  1.00  0.00     0.020 C 
HETATM    6  C8  UNL     1     -18.754  -6.419  53.386  1.00  0.00    -0.072 C 
HETATM    7  C9  UNL     1     -19.874  -6.348  54.056  1.00  0.00    -0.023 C 
HETATM    8  C10 UNL     1     -20.137  -5.533  55.255  1.00  0.00     0.033 C 
HETATM    9  C11 UNL     1     -18.987  -4.697  55.718  1.00  0.00    -0.001 C 
HETATM   10  C12 UNL     1     -17.862  -4.529  54.775  1.00  0.00     0.003 C 
HETATM   11  C13 UNL     1     -16.594  -4.016  55.396  1.00  0.00     0.007 C 
HETATM   12  C14 UNL     1     -16.384  -4.443  56.813  1.00  0.00     0.012 C 
HETATM   13  C15 UNL     1     -17.588  -4.124  57.624  1.00  0.00    -0.020 C 
HETATM   14  C16 UNL     1     -18.154  -2.752  57.468  1.00  0.00     0.018 C 
HETATM   15  C17 UNL     1     -17.543  -4.501  59.060  1.00  0.00     0.085 C 
HETATM   16  C23 UNL     1     -19.021  -4.787  59.397  1.00  0.00     0.026 C 
HETATM   17  C24 UNL     1     -19.696  -5.082  58.083  1.00  0.00     0.008 C 
HETATM   18  C25 UNL     1     -18.603  -5.179  57.103  1.00  0.00     0.000 C 
HETATM   19  C26 UNL     1     -18.554  -7.287  52.199  1.00  0.00     0.067 C 
ENDROOT
BRANCH  15  20
HETATM   20  N1  UNL     1     -17.117  -3.486  59.937  1.00  0.00    -0.416 N 
ATOM     21  H1  UNL     1     -17.766  -2.741  60.192  1.00  0.00     0.153 HD
BRANCH  20  22
HETATM   22  C18 UNL     1     -15.818  -3.477  60.467  1.00  0.00     0.118 C 
BRANCH  22  23
HETATM   23  C19 UNL     1     -14.998  -2.501  59.588  1.00  0.00     0.047 C 
BRANCH  23  24
HETATM   24  C20 UNL     1     -15.587  -1.153  59.628  1.00  0.00    -0.006 C 
HETATM   25  C21 UNL     1     -15.624  -0.421  58.529  1.00  0.00     0.004 C 
HETATM   26  C22 UNL     1     -16.214   0.936  58.545  1.00  0.00     0.061 C 
HETATM   27 CL1  UNL     1     -14.968  -1.042  57.007  1.00  0.00    -0.090 Cl
ENDBRANCH  23  24
ENDBRANCH  22  23
ENDBRANCH  20  22
ENDBRANCH  15  20
BRANCH   1  28
HETATM   28  O2  UNL     1     -16.781  -7.879  50.798  1.00  0.00    -0.316 OA
BRANCH  28  29
HETATM   29  C2  UNL     1     -16.804  -8.920  49.906  1.00  0.00     0.255 C 
HETATM   30  C1  UNL     1     -18.067  -9.703  49.723  1.00  0.00     0.126 C 
HETATM   31  O1  UNL     1     -15.756  -9.176  49.274  1.00  0.00    -0.266 OA
ENDBRANCH  28  29
ENDBRANCH   1  28
TORSDOF 6
ENDMDL
