MODEL 1
REMARK VINA RESULT: -8.735402668      0.000      0.000
REMARK  9 active torsions:
REMARK  status: ('A' for Active; 'I' for Inactive)
REMARK    1  A    between atoms: C3_4  and  N2_5 
REMARK    2  A    between atoms: C3_4  and  C19_28 
REMARK       I    between atoms: N2_5  and  C4_7 
REMARK    3  A    between atoms: C4_7  and  C5_9 
REMARK    4  A    between atoms: C5_9  and  C6_10 
REMARK    5  A    between atoms: C6_10  and  C7_11 
REMARK    6  A    between atoms: C7_11  and  C8_12 
REMARK       I    between atoms: C8_12  and  N3_14 
REMARK    7  A    between atoms: N3_14  and  C9_15 
REMARK    8  A    between atoms: N3_14  and  C13_19 
REMARK    9  A    between atoms: N4_22  and  S1_23 
ROOT
HETATM    1  C7  UNL     1     -24.874   8.588 -15.360  1.00  0.00     0.103 C 
ENDROOT
BRANCH   1   2
HETATM    2  C6  UNL     1     -23.959   8.109 -14.238  1.00  0.00     0.019 C 
BRANCH   2   3
HETATM    3  C5  UNL     1     -24.724   7.044 -13.500  1.00  0.00     0.103 C 
BRANCH   3   4
HETATM    4  C4  UNL     1     -24.614   7.285 -11.991  1.00  0.00     0.222 C 
HETATM    5  N2  UNL     1     -25.270   6.373 -11.182  1.00  0.00    -0.329 N 
ATOM      6  H2  UNL     1     -25.772   5.646 -11.692  1.00  0.00     0.168 HD
HETATM    7  O1  UNL     1     -23.954   8.262 -11.655  1.00  0.00    -0.273 OA
BRANCH   5   8
HETATM    8  C3  UNL     1     -25.369   6.266  -9.755  1.00  0.00     0.036 C 
HETATM    9  C2  UNL     1     -26.575   6.150  -9.276  1.00  0.00     0.043 C 
HETATM   10  C1  UNL     1     -27.752   6.138 -10.198  1.00  0.00     0.067 C 
HETATM   11  N1  UNL     1     -26.885   6.003  -7.913  1.00  0.00    -0.105 NA
BRANCH   8  12
HETATM   12  C19 UNL     1     -24.108   6.381  -8.985  1.00  0.00     0.037 C 
HETATM   13  C20 UNL     1     -23.316   5.086  -9.330  1.00  0.00     0.011 C 
HETATM   14  C21 UNL     1     -23.769   3.915  -8.498  1.00  0.00     0.001 C 
HETATM   15  C22 UNL     1     -23.526   4.109  -7.048  1.00  0.00     0.000 C 
HETATM   16  C23 UNL     1     -23.853   5.473  -6.571  1.00  0.00     0.001 C 
HETATM   17  C24 UNL     1     -24.154   6.528  -7.530  1.00  0.00     0.011 C 
ENDBRANCH   8  12
ENDBRANCH   5   8
ENDBRANCH   3   4
ENDBRANCH   2   3
ENDBRANCH   1   2
BRANCH   1  18
HETATM   18  C8  UNL     1     -25.474   9.888 -15.043  1.00  0.00     0.220 C 
HETATM   19  O2  UNL     1     -25.398  10.322 -13.880  1.00  0.00    -0.273 OA
HETATM   20  N3  UNL     1     -26.138  10.656 -16.045  1.00  0.00    -0.343 N 
BRANCH  20  21
HETATM   21  C9  UNL     1     -26.185  10.083 -17.363  1.00  0.00     0.087 C 
HETATM   22  C10 UNL     1     -27.322  10.431 -18.266  1.00  0.00     0.025 C 
HETATM   23  C11 UNL     1     -26.334  11.132 -19.174  1.00  0.00     0.004 C 
HETATM   24  C12 UNL     1     -25.199  10.468 -18.393  1.00  0.00     0.025 C 
ENDBRANCH  20  21
BRANCH  20  25
HETATM   25  C13 UNL     1     -26.644  11.886 -15.598  1.00  0.00     0.089 C 
HETATM   26  C14 UNL     1     -26.268  13.172 -16.203  1.00  0.00     0.041 C 
HETATM   27  C15 UNL     1     -27.055  14.271 -15.461  1.00  0.00     0.107 C 
HETATM   28  N4  UNL     1     -27.575  13.786 -14.215  1.00  0.00    -0.234 NA
HETATM   29  C17 UNL     1     -28.664  12.870 -14.512  1.00  0.00     0.107 C 
HETATM   30  C18 UNL     1     -28.173  11.859 -15.567  1.00  0.00     0.041 C 
BRANCH  28  31
HETATM   31  S1  UNL     1     -28.129  15.151 -13.317  1.00  0.00     0.087 S 
HETATM   32  C16 UNL     1     -29.302  16.119 -14.201  1.00  0.00     0.146 C 
HETATM   33  O3  UNL     1     -28.876  14.574 -11.922  1.00  0.00    -0.242 OA
ENDBRANCH  28  31
ENDBRANCH  20  25
ENDBRANCH   1  18
TORSDOF 9
ENDMDL
MODEL 2
REMARK VINA RESULT: -8.512711792      1.318      2.072
REMARK  9 active torsions:
REMARK  status: ('A' for Active; 'I' for Inactive)
REMARK    1  A    between atoms: C3_4  and  N2_5 
REMARK    2  A    between atoms: C3_4  and  C19_28 
REMARK       I    between atoms: N2_5  and  C4_7 
REMARK    3  A    between atoms: C4_7  and  C5_9 
REMARK    4  A    between atoms: C5_9  and  C6_10 
REMARK    5  A    between atoms: C6_10  and  C7_11 
REMARK    6  A    between atoms: C7_11  and  C8_12 
REMARK       I    between atoms: C8_12  and  N3_14 
REMARK    7  A    between atoms: N3_14  and  C9_15 
REMARK    8  A    between atoms: N3_14  and  C13_19 
REMARK    9  A    between atoms: N4_22  and  S1_23 
ROOT
HETATM    1  C7  UNL     1     -24.800   8.656 -15.723  1.00  0.00     0.103 C 
ENDROOT
BRANCH   1   2
HETATM    2  C6  UNL     1     -24.214   7.928 -14.518  1.00  0.00     0.019 C 
BRANCH   2   3
HETATM    3  C5  UNL     1     -25.168   6.810 -14.201  1.00  0.00     0.103 C 
BRANCH   3   4
HETATM    4  C4  UNL     1     -24.593   5.949 -13.071  1.00  0.00     0.222 C 
HETATM    5  N2  UNL     1     -24.430   6.580 -11.850  1.00  0.00    -0.329 N 
ATOM      6  H2  UNL     1     -24.700   7.564 -11.848  1.00  0.00     0.168 HD
HETATM    7  O1  UNL     1     -24.336   4.787 -13.367  1.00  0.00    -0.273 OA
BRANCH   5   8
HETATM    8  C3  UNL     1     -23.951   6.099 -10.586  1.00  0.00     0.036 C 
HETATM    9  C2  UNL     1     -22.722   6.412 -10.288  1.00  0.00     0.043 C 
HETATM   10  C1  UNL     1     -21.900   7.219 -11.239  1.00  0.00     0.067 C 
HETATM   11  N1  UNL     1     -22.076   6.063  -9.090  1.00  0.00    -0.105 NA
BRANCH   8  12
HETATM   12  C19 UNL     1     -24.871   5.240  -9.805  1.00  0.00     0.037 C 
HETATM   13  C20 UNL     1     -25.944   6.218  -9.245  1.00  0.00     0.011 C 
HETATM   14  C21 UNL     1     -25.468   6.917  -7.999  1.00  0.00     0.001 C 
HETATM   15  C22 UNL     1     -25.212   5.984  -6.875  1.00  0.00     0.000 C 
HETATM   16  C23 UNL     1     -24.520   4.740  -7.285  1.00  0.00     0.001 C 
HETATM   17  C24 UNL     1     -24.351   4.433  -8.699  1.00  0.00     0.011 C 
ENDBRANCH   8  12
ENDBRANCH   5   8
ENDBRANCH   3   4
ENDBRANCH   2   3
ENDBRANCH   1   2
BRANCH   1  18
HETATM   18  C8  UNL     1     -25.409   9.932 -15.334  1.00  0.00     0.220 C 
HETATM   19  O2  UNL     1     -25.301  10.319 -14.157  1.00  0.00    -0.273 OA
HETATM   20  N3  UNL     1     -26.117  10.729 -16.281  1.00  0.00    -0.343 N 
BRANCH  20  21
HETATM   21  C9  UNL     1     -26.199  10.210 -17.620  1.00  0.00     0.087 C 
HETATM   22  C10 UNL     1     -27.362  10.588 -18.475  1.00  0.00     0.025 C 
HETATM   23  C11 UNL     1     -26.403  11.330 -19.381  1.00  0.00     0.004 C 
HETATM   24  C12 UNL     1     -25.244  10.641 -18.660  1.00  0.00     0.025 C 
ENDBRANCH  20  21
BRANCH  20  25
HETATM   25  C13 UNL     1     -26.627  11.931 -15.767  1.00  0.00     0.089 C 
HETATM   26  C14 UNL     1     -26.245  13.250 -16.293  1.00  0.00     0.041 C 
HETATM   27  C15 UNL     1     -27.038  14.304 -15.495  1.00  0.00     0.107 C 
HETATM   28  N4  UNL     1     -27.568  13.748 -14.283  1.00  0.00    -0.234 NA
HETATM   29  C17 UNL     1     -28.655  12.852 -14.642  1.00  0.00     0.107 C 
HETATM   30  C18 UNL     1     -28.156  11.904 -15.751  1.00  0.00     0.041 C 
BRANCH  28  31
HETATM   31  S1  UNL     1     -28.130  15.059 -13.312  1.00  0.00     0.087 S 
HETATM   32  C16 UNL     1     -29.277  16.092 -14.156  1.00  0.00     0.146 C 
HETATM   33  O3  UNL     1     -28.911  14.402 -11.972  1.00  0.00    -0.242 OA
ENDBRANCH  28  31
ENDBRANCH  20  25
ENDBRANCH   1  18
TORSDOF 9
ENDMDL
MODEL 3
REMARK VINA RESULT: -8.110940668      1.104      2.138
REMARK  9 active torsions:
REMARK  status: ('A' for Active; 'I' for Inactive)
REMARK    1  A    between atoms: C3_4  and  N2_5 
REMARK    2  A    between atoms: C3_4  and  C19_28 
REMARK       I    between atoms: N2_5  and  C4_7 
REMARK    3  A    between atoms: C4_7  and  C5_9 
REMARK    4  A    between atoms: C5_9  and  C6_10 
REMARK    5  A    between atoms: C6_10  and  C7_11 
REMARK    6  A    between atoms: C7_11  and  C8_12 
REMARK       I    between atoms: C8_12  and  N3_14 
REMARK    7  A    between atoms: N3_14  and  C9_15 
REMARK    8  A    between atoms: N3_14  and  C13_19 
REMARK    9  A    between atoms: N4_22  and  S1_23 
ROOT
HETATM    1  C7  UNL     1     -24.936   8.644 -15.511  1.00  0.00     0.103 C 
ENDROOT
BRANCH   1   2
HETATM    2  C6  UNL     1     -24.089   8.103 -14.365  1.00  0.00     0.019 C 
BRANCH   2   3
HETATM    3  C5  UNL     1     -25.014   7.276 -13.514  1.00  0.00     0.103 C 
BRANCH   3   4
HETATM    4  C4  UNL     1     -24.692   7.505 -12.033  1.00  0.00     0.222 C 
HETATM    5  N2  UNL     1     -25.200   6.567 -11.151  1.00  0.00    -0.329 N 
ATOM      6  H2  UNL     1     -25.752   5.832 -11.593  1.00  0.00     0.168 HD
HETATM    7  O1  UNL     1     -24.016   8.497 -11.784  1.00  0.00    -0.273 OA
BRANCH   5   8
HETATM    8  C3  UNL     1     -25.089   6.444  -9.726  1.00  0.00     0.036 C 
HETATM    9  C2  UNL     1     -23.963   5.959  -9.283  1.00  0.00     0.043 C 
HETATM   10  C1  UNL     1     -22.886   5.566 -10.241  1.00  0.00     0.067 C 
HETATM   11  N1  UNL     1     -23.645   5.787  -7.925  1.00  0.00    -0.105 NA
BRANCH   8  12
HETATM   12  C19 UNL     1     -26.285   6.801  -8.928  1.00  0.00     0.037 C 
HETATM   13  C20 UNL     1     -26.387   5.685  -7.848  1.00  0.00     0.011 C 
HETATM   14  C21 UNL     1     -27.058   4.448  -8.383  1.00  0.00     0.001 C 
HETATM   15  C22 UNL     1     -28.465   4.684  -8.788  1.00  0.00     0.000 C 
HETATM   16  C23 UNL     1     -28.664   5.958  -9.518  1.00  0.00     0.001 C 
HETATM   17  C24 UNL     1     -27.586   6.935  -9.586  1.00  0.00     0.011 C 
ENDBRANCH   8  12
ENDBRANCH   5   8
ENDBRANCH   3   4
ENDBRANCH   2   3
ENDBRANCH   1   2
BRANCH   1  18
HETATM   18  C8  UNL     1     -25.519   9.948 -15.178  1.00  0.00     0.220 C 
HETATM   19  O2  UNL     1     -25.421  10.373 -14.014  1.00  0.00    -0.273 OA
HETATM   20  N3  UNL     1     -26.190  10.728 -16.166  1.00  0.00    -0.343 N 
BRANCH  20  21
HETATM   21  C9  UNL     1     -26.262  10.163 -17.487  1.00  0.00     0.087 C 
HETATM   22  C10 UNL     1     -27.409  10.526 -18.370  1.00  0.00     0.025 C 
HETATM   23  C11 UNL     1     -26.429  11.224 -19.288  1.00  0.00     0.004 C 
HETATM   24  C12 UNL     1     -25.288  10.545 -18.529  1.00  0.00     0.025 C 
ENDBRANCH  20  21
BRANCH  20  25
HETATM   25  C13 UNL     1     -26.676  11.960 -15.704  1.00  0.00     0.089 C 
HETATM   26  C14 UNL     1     -26.261  13.249 -16.277  1.00  0.00     0.041 C 
HETATM   27  C15 UNL     1     -27.037  14.351 -15.529  1.00  0.00     0.107 C 
HETATM   28  N4  UNL     1     -27.589  13.855 -14.301  1.00  0.00    -0.234 NA
HETATM   29  C17 UNL     1     -28.693  12.969 -14.634  1.00  0.00     0.107 C 
HETATM   30  C18 UNL     1     -28.206  11.967 -15.701  1.00  0.00     0.041 C 
BRANCH  28  31
HETATM   31  S1  UNL     1     -28.129  15.214 -13.387  1.00  0.00     0.087 S 
HETATM   32  C16 UNL     1     -29.373  16.143 -14.215  1.00  0.00     0.146 C 
HETATM   33  O3  UNL     1     -28.785  14.633 -11.948  1.00  0.00    -0.242 OA
ENDBRANCH  28  31
ENDBRANCH  20  25
ENDBRANCH   1  18
TORSDOF 9
ENDMDL
MODEL 4
REMARK VINA RESULT: -7.829610068      3.899     10.801
REMARK  9 active torsions:
REMARK  status: ('A' for Active; 'I' for Inactive)
REMARK    1  A    between atoms: C3_4  and  N2_5 
REMARK    2  A    between atoms: C3_4  and  C19_28 
REMARK       I    between atoms: N2_5  and  C4_7 
REMARK    3  A    between atoms: C4_7  and  C5_9 
REMARK    4  A    between atoms: C5_9  and  C6_10 
REMARK    5  A    between atoms: C6_10  and  C7_11 
REMARK    6  A    between atoms: C7_11  and  C8_12 
REMARK       I    between atoms: C8_12  and  N3_14 
REMARK    7  A    between atoms: N3_14  and  C9_15 
REMARK    8  A    between atoms: N3_14  and  C13_19 
REMARK    9  A    between atoms: N4_22  and  S1_23 
ROOT
HETATM    1  C7  UNL     1     -24.940   6.683 -11.155  1.00  0.00     0.103 C 
ENDROOT
BRANCH   1   2
HETATM    2  C6  UNL     1     -24.150   7.707 -11.965  1.00  0.00     0.019 C 
BRANCH   2   3
HETATM    3  C5  UNL     1     -25.155   8.708 -12.467  1.00  0.00     0.103 C 
BRANCH   3   4
HETATM    4  C4  UNL     1     -24.677   9.290 -13.802  1.00  0.00     0.222 C 
HETATM    5  N2  UNL     1     -25.658   9.832 -14.613  1.00  0.00    -0.329 N 
ATOM      6  H2  UNL     1     -26.602   9.764 -14.231  1.00  0.00     0.168 HD
HETATM    7  O1  UNL     1     -23.471   9.216 -14.012  1.00  0.00    -0.273 OA
BRANCH   5   8
HETATM    8  C3  UNL     1     -25.587  10.472 -15.895  1.00  0.00     0.036 C 
HETATM    9  C2  UNL     1     -25.398   9.684 -16.914  1.00  0.00     0.043 C 
HETATM   10  C1  UNL     1     -25.265   8.210 -16.710  1.00  0.00     0.067 C 
HETATM   11  N1  UNL     1     -25.328  10.108 -18.252  1.00  0.00    -0.105 NA
BRANCH   8  12
HETATM   12  C19 UNL     1     -25.654  11.953 -15.908  1.00  0.00     0.037 C 
HETATM   13  C20 UNL     1     -26.901  12.299 -15.043  1.00  0.00     0.011 C 
HETATM   14  C21 UNL     1     -28.177  12.190 -15.833  1.00  0.00     0.001 C 
HETATM   15  C22 UNL     1     -28.244  13.153 -16.959  1.00  0.00     0.000 C 
HETATM   16  C23 UNL     1     -26.970  13.279 -17.705  1.00  0.00     0.001 C 
HETATM   17  C24 UNL     1     -25.756  12.666 -17.182  1.00  0.00     0.011 C 
ENDBRANCH   8  12
ENDBRANCH   5   8
ENDBRANCH   3   4
ENDBRANCH   2   3
ENDBRANCH   1   2
BRANCH   1  18
HETATM   18  C8  UNL     1     -24.076   5.965 -10.213  1.00  0.00     0.220 C 
HETATM   19  O2  UNL     1     -22.941   5.615 -10.580  1.00  0.00    -0.273 OA
HETATM   20  N3  UNL     1     -24.518   5.666  -8.890  1.00  0.00    -0.343 N 
BRANCH  20  21
HETATM   21  C9  UNL     1     -25.845   6.104  -8.545  1.00  0.00     0.087 C 
HETATM   22  C10 UNL     1     -26.919   6.049  -9.581  1.00  0.00     0.025 C 
HETATM   23  C11 UNL     1     -27.614   4.995  -8.745  1.00  0.00     0.004 C 
HETATM   24  C12 UNL     1     -26.671   5.339  -7.591  1.00  0.00     0.025 C 
ENDBRANCH  20  21
BRANCH  20  25
HETATM   25  C13 UNL     1     -23.576   4.993  -8.098  1.00  0.00     0.089 C 
HETATM   26  C14 UNL     1     -22.232   5.526  -7.829  1.00  0.00     0.041 C 
HETATM   27  C15 UNL     1     -21.523   4.520  -6.900  1.00  0.00     0.107 C 
HETATM   28  N4  UNL     1     -22.188   3.249  -6.906  1.00  0.00    -0.234 NA
HETATM   29  C17 UNL     1     -23.441   3.399  -6.183  1.00  0.00     0.107 C 
HETATM   30  C18 UNL     1     -24.175   4.636  -6.736  1.00  0.00     0.041 C 
BRANCH  28  31
HETATM   31  S1  UNL     1     -21.147   2.113  -6.129  1.00  0.00     0.087 S 
HETATM   32  C16 UNL     1     -19.646   2.837  -5.565  1.00  0.00     0.146 C 
HETATM   33  O3  UNL     1     -21.966   1.504  -4.790  1.00  0.00    -0.242 OA
ENDBRANCH  28  31
ENDBRANCH  20  25
ENDBRANCH   1  18
TORSDOF 9
ENDMDL
MODEL 5
REMARK VINA RESULT: -7.701546575      1.163      1.389
REMARK  9 active torsions:
REMARK  status: ('A' for Active; 'I' for Inactive)
REMARK    1  A    between atoms: C3_4  and  N2_5 
REMARK    2  A    between atoms: C3_4  and  C19_28 
REMARK       I    between atoms: N2_5  and  C4_7 
REMARK    3  A    between atoms: C4_7  and  C5_9 
REMARK    4  A    between atoms: C5_9  and  C6_10 
REMARK    5  A    between atoms: C6_10  and  C7_11 
REMARK    6  A    between atoms: C7_11  and  C8_12 
REMARK       I    between atoms: C8_12  and  N3_14 
REMARK    7  A    between atoms: N3_14  and  C9_15 
REMARK    8  A    between atoms: N3_14  and  C13_19 
REMARK    9  A    between atoms: N4_22  and  S1_23 
ROOT
HETATM    1  C7  UNL     1     -24.791   8.552 -15.379  1.00  0.00     0.103 C 
ENDROOT
BRANCH   1   2
HETATM    2  C6  UNL     1     -23.936   8.151 -14.182  1.00  0.00     0.019 C 
BRANCH   2   3
HETATM    3  C5  UNL     1     -24.701   7.075 -13.462  1.00  0.00     0.103 C 
BRANCH   3   4
HETATM    4  C4  UNL     1     -24.654   7.333 -11.952  1.00  0.00     0.222 C 
HETATM    5  N2  UNL     1     -25.217   6.354 -11.152  1.00  0.00    -0.329 N 
ATOM      6  H2  UNL     1     -25.620   5.571 -11.668  1.00  0.00     0.168 HD
HETATM    7  O1  UNL     1     -24.120   8.382 -11.609  1.00  0.00    -0.273 OA
BRANCH   5   8
HETATM    8  C3  UNL     1     -25.337   6.242  -9.726  1.00  0.00     0.036 C 
HETATM    9  C2  UNL     1     -26.551   6.152  -9.263  1.00  0.00     0.043 C 
HETATM   10  C1  UNL     1     -27.716   6.174 -10.198  1.00  0.00     0.067 C 
HETATM   11  N1  UNL     1     -26.880   6.006  -7.904  1.00  0.00    -0.105 NA
BRANCH   8  12
HETATM   12  C19 UNL     1     -24.082   6.323  -8.942  1.00  0.00     0.037 C 
HETATM   13  C20 UNL     1     -23.304   5.025  -9.308  1.00  0.00     0.011 C 
HETATM   14  C21 UNL     1     -23.781   3.843  -8.506  1.00  0.00     0.001 C 
HETATM   15  C22 UNL     1     -23.551   4.001  -7.050  1.00  0.00     0.000 C 
HETATM   16  C23 UNL     1     -23.865   5.358  -6.546  1.00  0.00     0.001 C 
HETATM   17  C24 UNL     1     -24.141   6.438  -7.484  1.00  0.00     0.011 C 
ENDBRANCH   8  12
ENDBRANCH   5   8
ENDBRANCH   3   4
ENDBRANCH   2   3
ENDBRANCH   1   2
BRANCH   1  18
HETATM   18  C8  UNL     1     -25.428   9.857 -15.169  1.00  0.00     0.220 C 
HETATM   19  O2  UNL     1     -25.399  10.368 -14.035  1.00  0.00    -0.273 OA
HETATM   20  N3  UNL     1     -26.073  10.542 -16.240  1.00  0.00    -0.343 N 
BRANCH  20  21
HETATM   21  C9  UNL     1     -26.064   9.882 -17.518  1.00  0.00     0.087 C 
HETATM   22  C10 UNL     1     -27.119  10.223 -18.519  1.00  0.00     0.025 C 
HETATM   23  C11 UNL     1     -26.035  10.809 -19.400  1.00  0.00     0.004 C 
HETATM   24  C12 UNL     1     -24.993  10.144 -18.500  1.00  0.00     0.025 C 
ENDBRANCH  20  21
BRANCH  20  25
HETATM   25  C13 UNL     1     -26.618  11.787 -15.893  1.00  0.00     0.089 C 
HETATM   26  C14 UNL     1     -27.054  12.115 -14.527  1.00  0.00     0.041 C 
HETATM   27  C15 UNL     1     -27.555  13.573 -14.548  1.00  0.00     0.107 C 
HETATM   28  N4  UNL     1     -27.814  14.014 -15.889  1.00  0.00    -0.234 NA
HETATM   29  C17 UNL     1     -26.533  14.192 -16.554  1.00  0.00     0.107 C 
HETATM   30  C18 UNL     1     -25.689  12.921 -16.329  1.00  0.00     0.041 C 
BRANCH  28  31
HETATM   31  S1  UNL     1     -28.681  15.502 -15.788  1.00  0.00     0.087 S 
HETATM   32  C16 UNL     1     -29.013  15.988 -14.130  1.00  0.00     0.146 C 
HETATM   33  O3  UNL     1     -27.729  16.696 -16.499  1.00  0.00    -0.242 OA
ENDBRANCH  28  31
ENDBRANCH  20  25
ENDBRANCH   1  18
TORSDOF 9
ENDMDL
