MODEL 1
REMARK VINA RESULT: -8.528248710      0.000      0.000
REMARK  9 active torsions:
REMARK  status: ('A' for Active; 'I' for Inactive)
REMARK    1  A    between atoms: C2_2  and  N1_3 
REMARK       I    between atoms: N1_3  and  C3_5 
REMARK    2  A    between atoms: C3_5  and  C4_7 
REMARK    3  A    between atoms: C4_7  and  C5_8 
REMARK    4  A    between atoms: C7_10  and  C8_11 
REMARK       I    between atoms: N2_14  and  C11_15 
REMARK    5  A    between atoms: C11_15  and  C12_17 
REMARK    6  A    between atoms: C12_17  and  N3_19 
REMARK    7  A    between atoms: N3_19  and  C14_21 
REMARK    8  A    between atoms: C14_21  and  C16_23 
REMARK    9  A    between atoms: C16_23  and  C17_24 
ROOT
HETATM    1  C5  UNL     1     -25.200  10.080 -17.262  1.00  0.00     0.089 C 
HETATM    2  C6  UNL     1     -25.410   9.801 -18.736  1.00  0.00     0.041 C 
HETATM    3  C7  UNL     1     -25.282  11.257 -19.230  1.00  0.00     0.100 C 
HETATM    4  N2  UNL     1     -26.193  11.931 -18.357  1.00  0.00    -0.281 N 
HETATM    5  C11 UNL     1     -26.994  13.100 -18.609  1.00  0.00     0.249 C 
HETATM    6  O2  UNL     1     -26.820  13.571 -19.750  1.00  0.00    -0.271 OA
HETATM    7  C27 UNL     1     -26.160  11.256 -17.116  1.00  0.00     0.231 C 
HETATM    8  O3  UNL     1     -26.726  11.434 -16.016  1.00  0.00    -0.273 OA
ENDROOT
BRANCH   5   9
HETATM    9  C12 UNL     1     -27.913  13.710 -17.684  1.00  0.00     0.170 C 
HETATM   10  C13 UNL     1     -29.329  13.093 -17.981  1.00  0.00     0.042 C 
BRANCH   9  11
HETATM   11  N3  UNL     1     -28.032  15.080 -17.480  1.00  0.00    -0.384 N 
ATOM     12  H3  UNL     1     -28.560  15.565 -18.206  1.00  0.00     0.160 HD
BRANCH  11  13
HETATM   13  C14 UNL     1     -27.569  15.899 -16.480  1.00  0.00    -0.021 C 
HETATM   14  C15 UNL     1     -26.124  15.889 -16.063  1.00  0.00     0.062 C 
BRANCH  13  15
HETATM   15  C16 UNL     1     -28.495  16.155 -15.324  1.00  0.00     0.061 C 
BRANCH  15  16
HETATM   16  C17 UNL     1     -28.731  15.149 -14.296  1.00  0.00    -0.035 C 
HETATM   17  C18 UNL     1     -28.685  15.524 -12.870  1.00  0.00     0.014 C 
HETATM   18  C19 UNL     1     -28.873  14.256 -12.020  1.00  0.00    -0.013 C 
HETATM   19  C20 UNL     1     -27.786  13.255 -12.223  1.00  0.00     0.009 C 
HETATM   20  C24 UNL     1     -30.198  13.608 -12.338  1.00  0.00     0.009 C 
HETATM   21  C21 UNL     1     -27.798  12.881 -13.690  1.00  0.00    -0.013 C 
HETATM   22  C22 UNL     1     -29.071  12.196 -14.066  1.00  0.00     0.009 C 
HETATM   23  C26 UNL     1     -27.615  14.102 -14.515  1.00  0.00     0.014 C 
HETATM   24  C23 UNL     1     -30.206  13.160 -13.778  1.00  0.00    -0.013 C 
HETATM   25  C25 UNL     1     -30.021  14.388 -14.645  1.00  0.00     0.014 C 
ENDBRANCH  15  16
ENDBRANCH  13  15
ENDBRANCH  11  13
ENDBRANCH   9  11
ENDBRANCH   5   9
BRANCH   3  26
HETATM   26  C8  UNL     1     -25.450  11.369 -20.680  1.00  0.00     0.001 C 
HETATM   27  C9  UNL     1     -24.118  10.870 -21.292  1.00  0.00     0.011 C 
HETATM   28  C10 UNL     1     -26.517  10.505 -21.277  1.00  0.00     0.011 C 
ENDBRANCH   3  26
BRANCH   1  29
HETATM   29  C4  UNL     1     -25.463   8.975 -16.337  1.00  0.00     0.117 C 
BRANCH  29  30
HETATM   30  C3  UNL     1     -24.486   8.706 -15.286  1.00  0.00     0.218 C 
HETATM   31  N1  UNL     1     -23.908   7.413 -15.076  1.00  0.00    -0.361 N 
ATOM     32  H1  UNL     1     -24.198   6.650 -15.689  1.00  0.00     0.162 HD
HETATM   33  O1  UNL     1     -24.094   9.610 -14.500  1.00  0.00    -0.274 OA
BRANCH  31  34
HETATM   34  C2  UNL     1     -22.948   7.132 -14.054  1.00  0.00     0.118 C 
HETATM   35  C1  UNL     1     -23.509   6.368 -12.871  1.00  0.00     0.026 C 
ENDBRANCH  31  34
ENDBRANCH  29  30
ENDBRANCH   1  29
TORSDOF 9
ENDMDL
MODEL 2
REMARK VINA RESULT: -8.384030483      0.177      1.316
REMARK  9 active torsions:
REMARK  status: ('A' for Active; 'I' for Inactive)
REMARK    1  A    between atoms: C2_2  and  N1_3 
REMARK       I    between atoms: N1_3  and  C3_5 
REMARK    2  A    between atoms: C3_5  and  C4_7 
REMARK    3  A    between atoms: C4_7  and  C5_8 
REMARK    4  A    between atoms: C7_10  and  C8_11 
REMARK       I    between atoms: N2_14  and  C11_15 
REMARK    5  A    between atoms: C11_15  and  C12_17 
REMARK    6  A    between atoms: C12_17  and  N3_19 
REMARK    7  A    between atoms: N3_19  and  C14_21 
REMARK    8  A    between atoms: C14_21  and  C16_23 
REMARK    9  A    between atoms: C16_23  and  C17_24 
ROOT
HETATM    1  C5  UNL     1     -25.258  10.094 -17.258  1.00  0.00     0.089 C 
HETATM    2  C6  UNL     1     -25.404   9.822 -18.742  1.00  0.00     0.041 C 
HETATM    3  C7  UNL     1     -25.272  11.282 -19.221  1.00  0.00     0.100 C 
HETATM    4  N2  UNL     1     -26.226  11.941 -18.384  1.00  0.00    -0.281 N 
HETATM    5  C11 UNL     1     -27.029  13.103 -18.661  1.00  0.00     0.249 C 
HETATM    6  O2  UNL     1     -26.812  13.583 -19.791  1.00  0.00    -0.271 OA
HETATM    7  C27 UNL     1     -26.237  11.258 -17.146  1.00  0.00     0.231 C 
HETATM    8  O3  UNL     1     -26.851  11.422 -16.070  1.00  0.00    -0.273 OA
ENDROOT
BRANCH   5   9
HETATM    9  C12 UNL     1     -27.992  13.696 -17.772  1.00  0.00     0.170 C 
HETATM   10  C13 UNL     1     -29.393  13.091 -18.153  1.00  0.00     0.042 C 
BRANCH   9  11
HETATM   11  N3  UNL     1     -28.118  15.062 -17.545  1.00  0.00    -0.384 N 
ATOM     12  H3  UNL     1     -28.686  15.549 -18.239  1.00  0.00     0.160 HD
BRANCH  11  13
HETATM   13  C14 UNL     1     -27.618  15.875 -16.558  1.00  0.00    -0.021 C 
HETATM   14  C15 UNL     1     -26.142  15.963 -16.287  1.00  0.00     0.062 C 
BRANCH  13  15
HETATM   15  C16 UNL     1     -28.437  16.010 -15.305  1.00  0.00     0.061 C 
BRANCH  15  16
HETATM   16  C17 UNL     1     -28.767  14.855 -14.478  1.00  0.00    -0.035 C 
HETATM   17  C18 UNL     1     -30.026  14.121 -14.703  1.00  0.00     0.014 C 
HETATM   18  C19 UNL     1     -30.154  13.022 -13.634  1.00  0.00    -0.013 C 
HETATM   19  C20 UNL     1     -30.230  13.567 -12.247  1.00  0.00     0.009 C 
HETATM   20  C24 UNL     1     -28.983  12.074 -13.720  1.00  0.00     0.009 C 
HETATM   21  C21 UNL     1     -28.957  14.352 -12.011  1.00  0.00    -0.013 C 
HETATM   22  C22 UNL     1     -27.757  13.463 -12.043  1.00  0.00     0.009 C 
HETATM   23  C26 UNL     1     -28.831  15.415 -13.039  1.00  0.00     0.014 C 
HETATM   24  C23 UNL     1     -27.708  12.818 -13.415  1.00  0.00    -0.013 C 
HETATM   25  C25 UNL     1     -27.553  13.912 -14.451  1.00  0.00     0.014 C 
ENDBRANCH  15  16
ENDBRANCH  13  15
ENDBRANCH  11  13
ENDBRANCH   9  11
ENDBRANCH   5   9
BRANCH   3  26
HETATM   26  C8  UNL     1     -25.380  11.402 -20.677  1.00  0.00     0.001 C 
HETATM   27  C9  UNL     1     -24.028  10.898 -21.237  1.00  0.00     0.011 C 
HETATM   28  C10 UNL     1     -26.427  10.546 -21.321  1.00  0.00     0.011 C 
ENDBRANCH   3  26
BRANCH   1  29
HETATM   29  C4  UNL     1     -25.548   8.980 -16.352  1.00  0.00     0.117 C 
BRANCH  29  30
HETATM   30  C3  UNL     1     -24.562   8.651 -15.326  1.00  0.00     0.218 C 
HETATM   31  N1  UNL     1     -23.979   7.349 -15.199  1.00  0.00    -0.361 N 
ATOM     32  H1  UNL     1     -24.270   6.624 -15.855  1.00  0.00     0.162 HD
HETATM   33  O1  UNL     1     -24.168   9.506 -14.489  1.00  0.00    -0.274 OA
BRANCH  31  34
HETATM   34  C2  UNL     1     -23.012   7.010 -14.202  1.00  0.00     0.118 C 
HETATM   35  C1  UNL     1     -23.582   6.255 -13.017  1.00  0.00     0.026 C 
ENDBRANCH  31  34
ENDBRANCH  29  30
ENDBRANCH   1  29
TORSDOF 9
ENDMDL
MODEL 3
REMARK VINA RESULT: -8.212173285      4.498      8.921
REMARK  9 active torsions:
REMARK  status: ('A' for Active; 'I' for Inactive)
REMARK    1  A    between atoms: C2_2  and  N1_3 
REMARK       I    between atoms: N1_3  and  C3_5 
REMARK    2  A    between atoms: C3_5  and  C4_7 
REMARK    3  A    between atoms: C4_7  and  C5_8 
REMARK    4  A    between atoms: C7_10  and  C8_11 
REMARK       I    between atoms: N2_14  and  C11_15 
REMARK    5  A    between atoms: C11_15  and  C12_17 
REMARK    6  A    between atoms: C12_17  and  N3_19 
REMARK    7  A    between atoms: N3_19  and  C14_21 
REMARK    8  A    between atoms: C14_21  and  C16_23 
REMARK    9  A    between atoms: C16_23  and  C17_24 
ROOT
HETATM    1  C5  UNL     1     -23.640   5.301  -9.030  1.00  0.00     0.089 C 
HETATM    2  C6  UNL     1     -24.904   5.930  -8.479  1.00  0.00     0.041 C 
HETATM    3  C7  UNL     1     -25.700   5.956  -9.800  1.00  0.00     0.100 C 
HETATM    4  N2  UNL     1     -24.760   6.577 -10.683  1.00  0.00    -0.281 N 
HETATM    5  C11 UNL     1     -25.005   7.420 -11.823  1.00  0.00     0.249 C 
HETATM    6  O2  UNL     1     -26.220   7.587 -12.050  1.00  0.00    -0.271 OA
HETATM    7  C27 UNL     1     -23.469   6.182 -10.263  1.00  0.00     0.231 C 
HETATM    8  O3  UNL     1     -22.314   6.405 -10.684  1.00  0.00    -0.273 OA
ENDROOT
BRANCH   5   9
HETATM    9  C12 UNL     1     -24.002   8.033 -12.652  1.00  0.00     0.170 C 
HETATM   10  C13 UNL     1     -24.058   9.579 -12.364  1.00  0.00     0.042 C 
BRANCH   9  11
HETATM   11  N3  UNL     1     -23.869   7.816 -14.019  1.00  0.00    -0.384 N 
ATOM     12  H3  UNL     1     -22.941   7.504 -14.304  1.00  0.00     0.160 HD
BRANCH  11  13
HETATM   13  C14 UNL     1     -24.761   7.946 -15.055  1.00  0.00    -0.021 C 
HETATM   14  C15 UNL     1     -25.461   6.752 -15.643  1.00  0.00     0.062 C 
BRANCH  13  15
HETATM   15  C16 UNL     1     -24.458   8.996 -16.088  1.00  0.00     0.061 C 
BRANCH  15  16
HETATM   16  C17 UNL     1     -25.492   9.888 -16.597  1.00  0.00    -0.035 C 
HETATM   17  C18 UNL     1     -26.877   9.403 -16.750  1.00  0.00     0.014 C 
HETATM   18  C19 UNL     1     -27.722  10.517 -17.392  1.00  0.00    -0.013 C 
HETATM   19  C20 UNL     1     -27.255  10.884 -18.761  1.00  0.00     0.009 C 
HETATM   20  C24 UNL     1     -27.702  11.751 -16.524  1.00  0.00     0.009 C 
HETATM   21  C21 UNL     1     -25.822  11.354 -18.627  1.00  0.00    -0.013 C 
HETATM   22  C22 UNL     1     -25.734  12.601 -17.809  1.00  0.00     0.009 C 
HETATM   23  C26 UNL     1     -25.003  10.282 -18.010  1.00  0.00     0.014 C 
HETATM   24  C23 UNL     1     -26.293  12.282 -16.436  1.00  0.00    -0.013 C 
HETATM   25  C25 UNL     1     -25.433  11.205 -15.808  1.00  0.00     0.014 C 
ENDBRANCH  15  16
ENDBRANCH  13  15
ENDBRANCH  11  13
ENDBRANCH   9  11
ENDBRANCH   5   9
BRANCH   3  26
HETATM   26  C8  UNL     1     -27.033   6.539  -9.636  1.00  0.00     0.001 C 
HETATM   27  C9  UNL     1     -27.985   5.339  -9.411  1.00  0.00     0.011 C 
HETATM   28  C10 UNL     1     -27.210   7.424  -8.440  1.00  0.00     0.011 C 
ENDBRANCH   3  26
BRANCH   1  29
HETATM   29  C4  UNL     1     -22.474   5.281  -8.144  1.00  0.00     0.117 C 
BRANCH  29  30
HETATM   30  C3  UNL     1     -22.272   4.110  -7.295  1.00  0.00     0.218 C 
HETATM   31  N1  UNL     1     -21.080   3.901  -6.530  1.00  0.00    -0.361 N 
ATOM     32  H1  UNL     1     -20.342   4.604  -6.586  1.00  0.00     0.162 HD
HETATM   33  O1  UNL     1     -23.149   3.210  -7.190  1.00  0.00    -0.274 OA
BRANCH  31  34
HETATM   34  C2  UNL     1     -20.867   2.762  -5.692  1.00  0.00     0.118 C 
HETATM   35  C1  UNL     1     -19.408   2.477  -5.395  1.00  0.00     0.026 C 
ENDBRANCH  31  34
ENDBRANCH  29  30
ENDBRANCH   1  29
TORSDOF 9
ENDMDL
MODEL 4
REMARK VINA RESULT: -8.010172003      4.535      8.946
REMARK  9 active torsions:
REMARK  status: ('A' for Active; 'I' for Inactive)
REMARK    1  A    between atoms: C2_2  and  N1_3 
REMARK       I    between atoms: N1_3  and  C3_5 
REMARK    2  A    between atoms: C3_5  and  C4_7 
REMARK    3  A    between atoms: C4_7  and  C5_8 
REMARK    4  A    between atoms: C7_10  and  C8_11 
REMARK       I    between atoms: N2_14  and  C11_15 
REMARK    5  A    between atoms: C11_15  and  C12_17 
REMARK    6  A    between atoms: C12_17  and  N3_19 
REMARK    7  A    between atoms: N3_19  and  C14_21 
REMARK    8  A    between atoms: C14_21  and  C16_23 
REMARK    9  A    between atoms: C16_23  and  C17_24 
ROOT
HETATM    1  C5  UNL     1     -23.666   5.259  -9.057  1.00  0.00     0.089 C 
HETATM    2  C6  UNL     1     -24.892   5.866  -8.405  1.00  0.00     0.041 C 
HETATM    3  C7  UNL     1     -25.772   5.933  -9.669  1.00  0.00     0.100 C 
HETATM    4  N2  UNL     1     -24.893   6.585 -10.590  1.00  0.00    -0.281 N 
HETATM    5  C11 UNL     1     -25.213   7.466 -11.682  1.00  0.00     0.249 C 
HETATM    6  O2  UNL     1     -26.440   7.636 -11.825  1.00  0.00    -0.271 OA
HETATM    7  C27 UNL     1     -23.577   6.181 -10.269  1.00  0.00     0.231 C 
HETATM    8  O3  UNL     1     -22.452   6.421 -10.757  1.00  0.00    -0.273 OA
ENDROOT
BRANCH   5   9
HETATM    9  C12 UNL     1     -24.266   8.109 -12.555  1.00  0.00     0.170 C 
HETATM   10  C13 UNL     1     -23.420   9.089 -11.661  1.00  0.00     0.042 C 
BRANCH   9  11
HETATM   11  N3  UNL     1     -24.596   8.733 -13.752  1.00  0.00    -0.384 N 
ATOM     12  H3  UNL     1     -24.489   9.747 -13.737  1.00  0.00     0.160 HD
BRANCH  11  13
HETATM   13  C14 UNL     1     -25.039   8.234 -14.952  1.00  0.00    -0.021 C 
HETATM   14  C15 UNL     1     -25.168   6.754 -15.187  1.00  0.00     0.062 C 
BRANCH  13  15
HETATM   15  C16 UNL     1     -24.626   8.974 -16.193  1.00  0.00     0.061 C 
BRANCH  15  16
HETATM   16  C17 UNL     1     -25.386  10.114 -16.692  1.00  0.00    -0.035 C 
HETATM   17  C18 UNL     1     -25.423  11.371 -15.921  1.00  0.00     0.014 C 
HETATM   18  C19 UNL     1     -26.369  12.357 -16.629  1.00  0.00    -0.013 C 
HETATM   19  C20 UNL     1     -27.776  11.865 -16.697  1.00  0.00     0.009 C 
HETATM   20  C24 UNL     1     -25.880  12.628 -18.031  1.00  0.00     0.009 C 
HETATM   21  C21 UNL     1     -27.751  10.557 -17.459  1.00  0.00    -0.013 C 
HETATM   22  C22 UNL     1     -27.313  10.760 -18.873  1.00  0.00     0.009 C 
HETATM   23  C26 UNL     1     -26.842   9.602 -16.777  1.00  0.00     0.014 C 
HETATM   24  C23 UNL     1     -25.917  11.352 -18.834  1.00  0.00    -0.013 C 
HETATM   25  C25 UNL     1     -24.996  10.356 -18.159  1.00  0.00     0.014 C 
ENDBRANCH  15  16
ENDBRANCH  13  15
ENDBRANCH  11  13
ENDBRANCH   9  11
ENDBRANCH   5   9
BRANCH   3  26
HETATM   26  C8  UNL     1     -27.093   6.506  -9.398  1.00  0.00     0.001 C 
HETATM   27  C9  UNL     1     -28.031   5.296  -9.173  1.00  0.00     0.011 C 
HETATM   28  C10 UNL     1     -27.196   7.334  -8.155  1.00  0.00     0.011 C 
ENDBRANCH   3  26
BRANCH   1  29
HETATM   29  C4  UNL     1     -22.444   5.213  -8.250  1.00  0.00     0.117 C 
BRANCH  29  30
HETATM   30  C3  UNL     1     -22.275   4.103  -7.317  1.00  0.00     0.218 C 
HETATM   31  N1  UNL     1     -21.065   3.882  -6.584  1.00  0.00    -0.361 N 
ATOM     32  H1  UNL     1     -20.290   4.530  -6.726  1.00  0.00     0.162 HD
HETATM   33  O1  UNL     1     -23.198   3.271  -7.104  1.00  0.00    -0.274 OA
BRANCH  31  34
HETATM   34  C2  UNL     1     -20.884   2.802  -5.665  1.00  0.00     0.118 C 
HETATM   35  C1  UNL     1     -19.440   2.370  -5.495  1.00  0.00     0.026 C 
ENDBRANCH  31  34
ENDBRANCH  29  30
ENDBRANCH   1  29
TORSDOF 9
ENDMDL
MODEL 5
REMARK VINA RESULT: -7.832793526      4.546      8.985
REMARK  9 active torsions:
REMARK  status: ('A' for Active; 'I' for Inactive)
REMARK    1  A    between atoms: C2_2  and  N1_3 
REMARK       I    between atoms: N1_3  and  C3_5 
REMARK    2  A    between atoms: C3_5  and  C4_7 
REMARK    3  A    between atoms: C4_7  and  C5_8 
REMARK    4  A    between atoms: C7_10  and  C8_11 
REMARK       I    between atoms: N2_14  and  C11_15 
REMARK    5  A    between atoms: C11_15  and  C12_17 
REMARK    6  A    between atoms: C12_17  and  N3_19 
REMARK    7  A    between atoms: N3_19  and  C14_21 
REMARK    8  A    between atoms: C14_21  and  C16_23 
REMARK    9  A    between atoms: C16_23  and  C17_24 
ROOT
HETATM    1  C5  UNL     1     -23.697   5.252  -9.012  1.00  0.00     0.089 C 
HETATM    2  C6  UNL     1     -24.935   5.861  -8.384  1.00  0.00     0.041 C 
HETATM    3  C7  UNL     1     -25.782   5.948  -9.670  1.00  0.00     0.100 C 
HETATM    4  N2  UNL     1     -24.875   6.603 -10.561  1.00  0.00    -0.281 N 
HETATM    5  C11 UNL     1     -25.160   7.496 -11.653  1.00  0.00     0.249 C 
HETATM    6  O2  UNL     1     -26.382   7.677 -11.824  1.00  0.00    -0.271 OA
HETATM    7  C27 UNL     1     -23.570   6.186 -10.211  1.00  0.00     0.231 C 
HETATM    8  O3  UNL     1     -22.432   6.422 -10.669  1.00  0.00    -0.273 OA
ENDROOT
BRANCH   5   9
HETATM    9  C12 UNL     1     -24.188   8.141 -12.495  1.00  0.00     0.170 C 
HETATM   10  C13 UNL     1     -23.384   9.135 -11.578  1.00  0.00     0.042 C 
BRANCH   9  11
HETATM   11  N3  UNL     1     -24.478   8.754 -13.708  1.00  0.00    -0.384 N 
ATOM     12  H3  UNL     1     -24.323   9.762 -13.713  1.00  0.00     0.160 HD
BRANCH  11  13
HETATM   13  C14 UNL     1     -24.935   8.250 -14.900  1.00  0.00    -0.021 C 
HETATM   14  C15 UNL     1     -25.154   6.775 -15.097  1.00  0.00     0.062 C 
BRANCH  13  15
HETATM   15  C16 UNL     1     -24.462   8.929 -16.155  1.00  0.00     0.061 C 
BRANCH  15  16
HETATM   16  C17 UNL     1     -25.307   9.867 -16.883  1.00  0.00    -0.035 C 
HETATM   17  C18 UNL     1     -24.988  10.219 -18.279  1.00  0.00     0.014 C 
HETATM   18  C19 UNL     1     -25.983  11.291 -18.757  1.00  0.00    -0.013 C 
HETATM   19  C20 UNL     1     -25.891  12.558 -17.976  1.00  0.00     0.009 C 
HETATM   20  C24 UNL     1     -27.395  10.766 -18.669  1.00  0.00     0.009 C 
HETATM   21  C21 UNL     1     -26.184  12.209 -16.532  1.00  0.00    -0.013 C 
HETATM   22  C22 UNL     1     -27.586  11.719 -16.366  1.00  0.00     0.009 C 
HETATM   23  C26 UNL     1     -25.225  11.177 -16.066  1.00  0.00     0.014 C 
HETATM   24  C23 UNL     1     -27.737  10.480 -17.228  1.00  0.00    -0.013 C 
HETATM   25  C25 UNL     1     -26.772   9.427 -16.725  1.00  0.00     0.014 C 
ENDBRANCH  15  16
ENDBRANCH  13  15
ENDBRANCH  11  13
ENDBRANCH   9  11
ENDBRANCH   5   9
BRANCH   3  26
HETATM   26  C8  UNL     1     -27.105   6.528  -9.427  1.00  0.00     0.001 C 
HETATM   27  C9  UNL     1     -28.059   5.322  -9.246  1.00  0.00     0.011 C 
HETATM   28  C10 UNL     1     -27.236   7.338  -8.174  1.00  0.00     0.011 C 
ENDBRANCH   3  26
BRANCH   1  29
HETATM   29  C4  UNL     1     -22.496   5.189  -8.175  1.00  0.00     0.117 C 
BRANCH  29  30
HETATM   30  C3  UNL     1     -22.316   4.024  -7.313  1.00  0.00     0.218 C 
HETATM   31  N1  UNL     1     -21.121   3.792  -6.560  1.00  0.00    -0.361 N 
ATOM     32  H1  UNL     1     -20.365   4.474  -6.634  1.00  0.00     0.162 HD
HETATM   33  O1  UNL     1     -23.215   3.150  -7.186  1.00  0.00    -0.274 OA
BRANCH  31  34
HETATM   34  C2  UNL     1     -20.928   2.659  -5.710  1.00  0.00     0.118 C 
HETATM   35  C1  UNL     1     -19.475   2.354  -5.405  1.00  0.00     0.026 C 
ENDBRANCH  31  34
ENDBRANCH  29  30
ENDBRANCH   1  29
TORSDOF 9
ENDMDL
