MODEL 1
REMARK VINA RESULT: -7.357130076      0.000      0.000
REMARK  6 active torsions:
REMARK  status: ('A' for Active; 'I' for Inactive)
REMARK    1  A    between atoms: C3_11  and  C4_12 
REMARK    2  A    between atoms: C5_13  and  S1_14 
REMARK    3  A    between atoms: S1_14  and  N4_15 
REMARK    4  A    between atoms: N6_22  and  C6_23 
REMARK    5  A    between atoms: C6_23  and  N7_24 
REMARK       I    between atoms: N7_24  and  C7_25 
REMARK       I    between atoms: C7_25  and  N8_27 
REMARK    6  A    between atoms: N8_27  and  N9_28 
ROOT
HETATM    1  N1  UNL     1      17.196   5.323  -0.422  1.00  0.00    -0.231 N 
ATOM      2  H11 UNL     1      16.951   4.339  -0.323  1.00  0.00     0.174 HD
ATOM      3  H12 UNL     1      16.637   6.049   0.027  1.00  0.00     0.174 HD
HETATM    4  C1  UNL     1      18.207   5.638  -1.084  1.00  0.00     0.713 C 
HETATM    5  N2  UNL     1      18.556   7.039  -1.225  1.00  0.00    -0.128 N 
ATOM      6  H2  UNL     1      17.771   7.690  -1.246  1.00  0.00     0.205 HD
HETATM    7  N3  UNL     1      19.838   7.620  -1.336  1.00  0.00    -0.250 N 
ATOM      8  H3  UNL     1      19.880   8.630  -1.472  1.00  0.00     0.191 HD
HETATM    9  C2  UNL     1      21.087   6.916  -1.276  1.00  0.00     0.288 C 
HETATM   10  O1  UNL     1      22.066   7.507  -0.781  1.00  0.00    -0.264 OA
HETATM   11  C3  UNL     1      21.283   5.553  -1.758  1.00  0.00     0.119 C 
HETATM   12  N5  UNL     1      20.374   4.595  -1.934  1.00  0.00    -0.273 N 
ATOM     13  H5  UNL     1      20.739   3.709  -2.283  1.00  0.00     0.188 HD
HETATM   14  N6  UNL     1      18.988   4.625  -1.712  1.00  0.00    -0.067 N 
ENDROOT
BRANCH  11  15
HETATM   15  C4  UNL     1      22.599   5.132  -2.126  1.00  0.00     0.050 C 
HETATM   16  C5  UNL     1      22.995   4.217  -2.973  1.00  0.00     0.133 C 
BRANCH  16  17
HETATM   17  S1  UNL     1      24.701   3.937  -3.217  1.00  0.00     0.246 S 
HETATM   18  O2  UNL     1      25.319   3.477  -1.919  1.00  0.00    -0.202 OA
HETATM   19  O3  UNL     1      25.327   5.221  -3.697  1.00  0.00    -0.202 OA
BRANCH  17  20
HETATM   20  N4  UNL     1      25.040   2.705  -4.374  1.00  0.00    -0.325 N 
ATOM     21  H42 UNL     1      25.969   2.575  -4.775  1.00  0.00     0.169 HD
ATOM     22  H41 UNL     1      24.229   2.132  -4.610  1.00  0.00     0.169 HD
ENDBRANCH  17  20
ENDBRANCH  16  17
ENDBRANCH  11  15
BRANCH  14  23
HETATM   23  C6  UNL     1      18.231   3.471  -2.206  1.00  0.00     0.324 C 
BRANCH  23  24
HETATM   24  N7  UNL     1      17.952   2.427  -1.438  1.00  0.00    -0.331 NA
HETATM   25  C7  UNL     1      17.647   1.301  -0.628  1.00  0.00     0.492 C 
HETATM   26  O4  UNL     1      16.989   0.309  -1.067  1.00  0.00    -0.212 OA
HETATM   27  N8  UNL     1      18.136   1.344   0.670  1.00  0.00    -0.260 NA
BRANCH  27  28
HETATM   28  N9  UNL     1      18.596   1.385   1.891  1.00  0.00    -0.274 N 
ATOM     29  H92 UNL     1      18.257   1.351   0.930  1.00  0.00     0.192 HD
ATOM     30  H91 UNL     1      18.955   1.417   2.845  1.00  0.00     0.192 HD
ENDBRANCH  27  28
ENDBRANCH  23  24
ENDBRANCH  14  23
TORSDOF 6
ENDMDL
MODEL 2
REMARK VINA RESULT: -7.126128320      3.039      4.562
REMARK  6 active torsions:
REMARK  status: ('A' for Active; 'I' for Inactive)
REMARK    1  A    between atoms: C3_11  and  C4_12 
REMARK    2  A    between atoms: C5_13  and  S1_14 
REMARK    3  A    between atoms: S1_14  and  N4_15 
REMARK    4  A    between atoms: N6_22  and  C6_23 
REMARK    5  A    between atoms: C6_23  and  N7_24 
REMARK       I    between atoms: N7_24  and  C7_25 
REMARK       I    between atoms: C7_25  and  N8_27 
REMARK    6  A    between atoms: N8_27  and  N9_28 
ROOT
HETATM    1  N1  UNL     1      17.118   5.640  -2.763  1.00  0.00    -0.231 N 
ATOM      2  H11 UNL     1      17.217   6.454  -2.157  1.00  0.00     0.174 HD
ATOM      3  H12 UNL     1      16.237   5.445  -3.237  1.00  0.00     0.174 HD
HETATM    4  C1  UNL     1      18.099   4.887  -2.939  1.00  0.00     0.713 C 
HETATM    5  N2  UNL     1      17.959   3.729  -3.800  1.00  0.00    -0.128 N 
ATOM      6  H2  UNL     1      17.037   3.292  -3.808  1.00  0.00     0.205 HD
HETATM    7  N3  UNL     1      18.930   3.125  -4.629  1.00  0.00    -0.250 N 
ATOM      8  H3  UNL     1      18.652   2.283  -5.133  1.00  0.00     0.191 HD
HETATM    9  C2  UNL     1      20.274   3.591  -4.824  1.00  0.00     0.288 C 
HETATM   10  O1  UNL     1      20.797   3.408  -5.941  1.00  0.00    -0.264 OA
HETATM   11  C3  UNL     1      21.064   4.264  -3.800  1.00  0.00     0.119 C 
HETATM   12  N5  UNL     1      20.641   4.926  -2.725  1.00  0.00    -0.273 N 
ATOM     13  H5  UNL     1      21.377   5.322  -2.141  1.00  0.00     0.188 HD
HETATM   14  N6  UNL     1      19.331   5.159  -2.276  1.00  0.00    -0.067 N 
ENDROOT
BRANCH  11  15
HETATM   15  C4  UNL     1      22.491   4.230  -3.894  1.00  0.00     0.050 C 
HETATM   16  C5  UNL     1      23.352   3.347  -3.457  1.00  0.00     0.133 C 
BRANCH  16  17
HETATM   17  S1  UNL     1      25.059   3.582  -3.739  1.00  0.00     0.246 S 
HETATM   18  O2  UNL     1      25.372   5.058  -3.691  1.00  0.00    -0.202 OA
HETATM   19  O3  UNL     1      25.401   2.994  -5.085  1.00  0.00    -0.202 OA
BRANCH  17  20
HETATM   20  N4  UNL     1      26.064   2.839  -2.553  1.00  0.00    -0.325 N 
ATOM     21  H42 UNL     1      25.699   2.507  -1.661  1.00  0.00     0.169 HD
ATOM     22  H41 UNL     1      27.043   2.768  -2.833  1.00  0.00     0.169 HD
ENDBRANCH  17  20
ENDBRANCH  16  17
ENDBRANCH  11  15
BRANCH  14  23
HETATM   23  C6  UNL     1      19.203   5.743  -0.937  1.00  0.00     0.324 C 
BRANCH  23  24
HETATM   24  N7  UNL     1      18.716   6.960  -0.741  1.00  0.00    -0.331 NA
HETATM   25  C7  UNL     1      18.181   8.260  -0.542  1.00  0.00     0.492 C 
HETATM   26  O4  UNL     1      17.192   8.696  -1.207  1.00  0.00    -0.212 OA
HETATM   27  N8  UNL     1      18.794   9.018   0.447  1.00  0.00    -0.260 NA
BRANCH  27  28
HETATM   28  N9  UNL     1      19.372   9.729   1.375  1.00  0.00    -0.274 N 
ATOM     29  H92 UNL     1      18.938   9.160   0.650  1.00  0.00     0.192 HD
ATOM     30  H91 UNL     1      19.823  10.286   2.101  1.00  0.00     0.192 HD
ENDBRANCH  27  28
ENDBRANCH  23  24
ENDBRANCH  14  23
TORSDOF 6
ENDMDL
MODEL 3
REMARK VINA RESULT: -7.107218220      3.473      6.439
REMARK  6 active torsions:
REMARK  status: ('A' for Active; 'I' for Inactive)
REMARK    1  A    between atoms: C3_11  and  C4_12 
REMARK    2  A    between atoms: C5_13  and  S1_14 
REMARK    3  A    between atoms: S1_14  and  N4_15 
REMARK    4  A    between atoms: N6_22  and  C6_23 
REMARK    5  A    between atoms: C6_23  and  N7_24 
REMARK       I    between atoms: N7_24  and  C7_25 
REMARK       I    between atoms: C7_25  and  N8_27 
REMARK    6  A    between atoms: N8_27  and  N9_28 
ROOT
HETATM    1  N1  UNL     1      22.209   8.028  -0.865  1.00  0.00    -0.231 N 
ATOM      2  H11 UNL     1      22.984   7.559  -1.332  1.00  0.00     0.174 HD
ATOM      3  H12 UNL     1      22.349   8.915  -0.382  1.00  0.00     0.174 HD
HETATM    4  C1  UNL     1      21.071   7.515  -0.905  1.00  0.00     0.713 C 
HETATM    5  N2  UNL     1      19.968   8.181  -0.240  1.00  0.00    -0.128 N 
ATOM      6  H2  UNL     1      20.209   8.699   0.605  1.00  0.00     0.205 HD
HETATM    7  N3  UNL     1      18.605   8.208  -0.607  1.00  0.00    -0.250 N 
ATOM      8  H3  UNL     1      17.965   8.700   0.016  1.00  0.00     0.191 HD
HETATM    9  C2  UNL     1      18.039   7.602  -1.780  1.00  0.00     0.288 C 
HETATM   10  O1  UNL     1      17.061   8.163  -2.310  1.00  0.00    -0.264 OA
HETATM   11  C3  UNL     1      18.537   6.374  -2.389  1.00  0.00     0.119 C 
HETATM   12  N5  UNL     1      19.749   5.830  -2.290  1.00  0.00    -0.273 N 
ATOM     13  H5  UNL     1      19.877   4.960  -2.806  1.00  0.00     0.188 HD
HETATM   14  N6  UNL     1      20.875   6.275  -1.580  1.00  0.00    -0.067 N 
ENDROOT
BRANCH  11  15
HETATM   15  C4  UNL     1      17.651   5.593  -3.195  1.00  0.00     0.050 C 
HETATM   16  C5  UNL     1      17.742   4.355  -3.607  1.00  0.00     0.133 C 
BRANCH  16  17
HETATM   17  S1  UNL     1      16.471   3.668  -4.587  1.00  0.00     0.246 S 
HETATM   18  O2  UNL     1      16.736   2.195  -4.783  1.00  0.00    -0.202 OA
HETATM   19  O3  UNL     1      16.443   4.400  -5.906  1.00  0.00    -0.202 OA
BRANCH  17  20
HETATM   20  N4  UNL     1      14.908   3.784  -3.872  1.00  0.00    -0.325 N 
ATOM     21  H42 UNL     1      14.671   4.509  -3.193  1.00  0.00     0.169 HD
ATOM     22  H41 UNL     1      14.257   3.066  -4.192  1.00  0.00     0.169 HD
ENDBRANCH  17  20
ENDBRANCH  16  17
ENDBRANCH  11  15
BRANCH  14  23
HETATM   23  C6  UNL     1      21.999   5.337  -1.499  1.00  0.00     0.324 C 
BRANCH  23  24
HETATM   24  N7  UNL     1      22.878   5.202  -2.482  1.00  0.00    -0.331 NA
HETATM   25  C7  UNL     1      23.832   5.054  -3.524  1.00  0.00     0.492 C 
HETATM   26  O4  UNL     1      25.064   4.861  -3.292  1.00  0.00    -0.212 OA
HETATM   27  N8  UNL     1      23.326   5.109  -4.815  1.00  0.00    -0.260 NA
BRANCH  27  28
HETATM   28  N9  UNL     1      22.849   5.162  -6.029  1.00  0.00    -0.274 N 
ATOM     29  H92 UNL     1      23.242   5.124  -5.088  1.00  0.00     0.192 HD
ATOM     30  H91 UNL     1      22.477   5.203  -6.978  1.00  0.00     0.192 HD
ENDBRANCH  27  28
ENDBRANCH  23  24
ENDBRANCH  14  23
TORSDOF 6
ENDMDL
MODEL 4
REMARK VINA RESULT: -7.019466755      6.444      8.791
REMARK  6 active torsions:
REMARK  status: ('A' for Active; 'I' for Inactive)
REMARK    1  A    between atoms: C3_11  and  C4_12 
REMARK    2  A    between atoms: C5_13  and  S1_14 
REMARK    3  A    between atoms: S1_14  and  N4_15 
REMARK    4  A    between atoms: N6_22  and  C6_23 
REMARK    5  A    between atoms: C6_23  and  N7_24 
REMARK       I    between atoms: N7_24  and  C7_25 
REMARK       I    between atoms: C7_25  and  N8_27 
REMARK    6  A    between atoms: N8_27  and  N9_28 
ROOT
HETATM    1  N1  UNL     1      22.694   5.281  -6.287  1.00  0.00    -0.231 N 
ATOM      2  H11 UNL     1      23.437   5.061  -5.625  1.00  0.00     0.174 HD
ATOM      3  H12 UNL     1      22.270   6.209  -6.308  1.00  0.00     0.174 HD
HETATM    4  C1  UNL     1      22.317   4.407  -7.095  1.00  0.00     0.713 C 
HETATM    5  N2  UNL     1      21.259   4.720  -8.037  1.00  0.00    -0.128 N 
ATOM      6  H2  UNL     1      20.552   5.376  -7.706  1.00  0.00     0.205 HD
HETATM    7  N3  UNL     1      21.079   4.236  -9.352  1.00  0.00    -0.250 N 
ATOM      8  H3  UNL     1      20.243   4.542  -9.849  1.00  0.00     0.191 HD
HETATM    9  C2  UNL     1      21.969   3.352 -10.051  1.00  0.00     0.288 C 
HETATM   10  O1  UNL     1      22.068   3.483 -11.286  1.00  0.00    -0.264 OA
HETATM   11  C3  UNL     1      22.764   2.313  -9.406  1.00  0.00     0.119 C 
HETATM   12  N5  UNL     1      23.153   2.233  -8.134  1.00  0.00    -0.273 N 
ATOM     13  H5  UNL     1      23.709   1.410  -7.902  1.00  0.00     0.188 HD
HETATM   14  N6  UNL     1      22.909   3.111  -7.067  1.00  0.00    -0.067 N 
ENDROOT
BRANCH  11  15
HETATM   15  C4  UNL     1      23.200   1.194 -10.183  1.00  0.00     0.050 C 
HETATM   16  C5  UNL     1      24.354   0.945 -10.746  1.00  0.00     0.133 C 
BRANCH  16  17
HETATM   17  S1  UNL     1      24.586  -0.539 -11.636  1.00  0.00     0.246 S 
HETATM   18  O2  UNL     1      24.105  -0.349 -13.054  1.00  0.00    -0.202 OA
HETATM   19  O3  UNL     1      23.817  -1.633 -10.939  1.00  0.00    -0.202 OA
BRANCH  17  20
HETATM   20  N4  UNL     1      26.235  -1.025 -11.749  1.00  0.00    -0.325 N 
ATOM     21  H42 UNL     1      26.727  -1.081 -12.641  1.00  0.00     0.169 HD
ATOM     22  H41 UNL     1      26.659  -1.247 -10.847  1.00  0.00     0.169 HD
ENDBRANCH  17  20
ENDBRANCH  16  17
ENDBRANCH  11  15
BRANCH  14  23
HETATM   23  C6  UNL     1      23.295   2.631  -5.736  1.00  0.00     0.324 C 
BRANCH  23  24
HETATM   24  N7  UNL     1      24.170   3.277  -4.979  1.00  0.00    -0.331 NA
HETATM   25  C7  UNL     1      25.103   3.984  -4.175  1.00  0.00     0.492 C 
HETATM   26  O4  UNL     1      25.330   5.222  -4.330  1.00  0.00    -0.212 OA
HETATM   27  N8  UNL     1      25.733   3.238  -3.189  1.00  0.00    -0.260 NA
BRANCH  27  28
HETATM   28  N9  UNL     1      26.327   2.536  -2.262  1.00  0.00    -0.274 N 
ATOM     29  H92 UNL     1      25.874   3.073  -3.001  1.00  0.00     0.192 HD
ATOM     30  H91 UNL     1      26.790   1.987  -1.538  1.00  0.00     0.192 HD
ENDBRANCH  27  28
ENDBRANCH  23  24
ENDBRANCH  14  23
TORSDOF 6
ENDMDL
MODEL 5
REMARK VINA RESULT: -6.909798171      2.775      4.930
REMARK  6 active torsions:
REMARK  status: ('A' for Active; 'I' for Inactive)
REMARK    1  A    between atoms: C3_11  and  C4_12 
REMARK    2  A    between atoms: C5_13  and  S1_14 
REMARK    3  A    between atoms: S1_14  and  N4_15 
REMARK    4  A    between atoms: N6_22  and  C6_23 
REMARK    5  A    between atoms: C6_23  and  N7_24 
REMARK       I    between atoms: N7_24  and  C7_25 
REMARK       I    between atoms: C7_25  and  N8_27 
REMARK    6  A    between atoms: N8_27  and  N9_28 
ROOT
HETATM    1  N1  UNL     1      16.955   2.856  -3.478  1.00  0.00    -0.231 N 
ATOM      2  H11 UNL     1      16.794   3.818  -3.182  1.00  0.00     0.174 HD
ATOM      3  H12 UNL     1      16.194   2.288  -3.851  1.00  0.00     0.174 HD
HETATM    4  C1  UNL     1      18.107   2.378  -3.401  1.00  0.00     0.713 C 
HETATM    5  N2  UNL     1      18.337   1.009  -3.822  1.00  0.00    -0.128 N 
ATOM      6  H2  UNL     1      17.561   0.365  -3.675  1.00  0.00     0.205 HD
HETATM    7  N3  UNL     1      19.494   0.451  -4.410  1.00  0.00    -0.250 N 
ATOM      8  H3  UNL     1      19.481  -0.551  -4.599  1.00  0.00     0.191 HD
HETATM    9  C2  UNL     1      20.686   1.170  -4.764  1.00  0.00     0.288 C 
HETATM   10  O1  UNL     1      21.326   0.779  -5.759  1.00  0.00    -0.264 OA
HETATM   11  C3  UNL     1      21.192   2.326  -4.033  1.00  0.00     0.119 C 
HETATM   12  N5  UNL     1      20.528   3.163  -3.238  1.00  0.00    -0.273 N 
ATOM     13  H5  UNL     1      21.089   3.909  -2.828  1.00  0.00     0.188 HD
HETATM   14  N6  UNL     1      19.171   3.170  -2.881  1.00  0.00    -0.067 N 
ENDROOT
BRANCH  11  15
HETATM   15  C4  UNL     1      22.583   2.645  -4.123  1.00  0.00     0.050 C 
HETATM   16  C5  UNL     1      23.325   3.436  -3.392  1.00  0.00     0.133 C 
BRANCH  16  17
HETATM   17  S1  UNL     1      25.024   3.614  -3.751  1.00  0.00     0.246 S 
HETATM   18  O2  UNL     1      25.382   5.080  -3.746  1.00  0.00    -0.202 OA
HETATM   19  O3  UNL     1      25.291   2.990  -5.097  1.00  0.00    -0.202 OA
BRANCH  17  20
HETATM   20  N4  UNL     1      26.058   2.864  -2.594  1.00  0.00    -0.325 N 
ATOM     21  H42 UNL     1      26.230   3.269  -1.674  1.00  0.00     0.169 HD
ATOM     22  H41 UNL     1      26.470   1.989  -2.920  1.00  0.00     0.169 HD
ENDBRANCH  17  20
ENDBRANCH  16  17
ENDBRANCH  11  15
BRANCH  14  23
HETATM   23  C6  UNL     1      18.790   4.101  -1.814  1.00  0.00     0.324 C 
BRANCH  23  24
HETATM   24  N7  UNL     1      18.890   5.416  -1.955  1.00  0.00    -0.331 NA
HETATM   25  C7  UNL     1      18.981   6.824  -2.111  1.00  0.00     0.492 C 
HETATM   26  O4  UNL     1      18.032   7.515  -2.593  1.00  0.00    -0.212 OA
HETATM   27  N8  UNL     1      20.167   7.402  -1.680  1.00  0.00    -0.260 NA
BRANCH  27  28
HETATM   28  N9  UNL     1      21.283   7.944  -1.275  1.00  0.00    -0.274 N 
ATOM     29  H92 UNL     1      20.421   7.501  -1.590  1.00  0.00     0.192 HD
ATOM     30  H91 UNL     1      22.155   8.368  -0.958  1.00  0.00     0.192 HD
ENDBRANCH  27  28
ENDBRANCH  23  24
ENDBRANCH  14  23
TORSDOF 6
ENDMDL
