MODEL 1
REMARK VINA RESULT: -7.961387721      0.000      0.000
REMARK  9 active torsions:
REMARK  status: ('A' for Active; 'I' for Inactive)
REMARK    1  A    between atoms: O1_2  and  C2_3 
REMARK    2  A    between atoms: C2_3  and  C3_5 
REMARK    3  A    between atoms: C3_5  and  C4_6 
REMARK    4  A    between atoms: C4_6  and  C5_7 
REMARK    5  A    between atoms: C5_7  and  N2_11 
REMARK    6  A    between atoms: N2_11  and  C6_13 
REMARK    7  A    between atoms: C18_25  and  C19_26 
REMARK    8  A    between atoms: C19_26  and  O3_29 
REMARK    9  A    between atoms: C24_33  and  O4_34 
ROOT
HETATM    1  C6  UNL     1      -1.669 -11.521  -7.511  1.00  0.00     0.093 C 
HETATM    2  C7  UNL     1      -1.663 -12.683  -8.481  1.00  0.00     0.026 C 
HETATM    3  C8  UNL     1      -0.381 -13.484  -8.211  1.00  0.00     0.008 C 
HETATM    4  C9  UNL     1       0.349 -12.571  -7.293  1.00  0.00     0.003 C 
HETATM    5  C10 UNL     1       1.534 -13.089  -6.595  1.00  0.00    -0.005 C 
HETATM    6  C11 UNL     1       2.766 -12.575  -7.296  1.00  0.00     0.006 C 
HETATM    7  C12 UNL     1       3.722 -11.848  -6.385  1.00  0.00     0.010 C 
HETATM    8  C13 UNL     1       4.060 -12.771  -5.264  1.00  0.00    -0.034 C 
HETATM    9  C14 UNL     1       4.667 -14.034  -5.891  1.00  0.00     0.016 C 
HETATM   10  C15 UNL     1       2.835 -13.118  -4.435  1.00  0.00    -0.001 C 
HETATM   11  C16 UNL     1       2.993 -12.400  -3.131  1.00  0.00     0.006 C 
HETATM   12  C17 UNL     1       4.180 -11.446  -3.329  1.00  0.00     0.009 C 
HETATM   13  C18 UNL     1       5.018 -12.263  -4.266  1.00  0.00     0.028 C 
HETATM   14  C22 UNL     1       1.522 -12.880  -5.114  1.00  0.00    -0.003 C 
HETATM   15  C23 UNL     1       0.855 -11.612  -4.647  1.00  0.00     0.038 C 
HETATM   16  C24 UNL     1      -0.187 -11.050  -5.534  1.00  0.00     0.129 C 
HETATM   17  C25 UNL     1      -0.775 -12.091  -6.399  1.00  0.00     0.006 C 
HETATM   18  C26 UNL     1      -1.548 -13.157  -5.743  1.00  0.00     0.020 C 
ENDROOT
BRANCH   1  19
HETATM   19  N2  UNL     1      -2.974 -11.245  -6.968  1.00  0.00    -0.375 N 
ATOM     20  H2  UNL     1      -3.181 -11.459  -5.992  1.00  0.00     0.161 HD
BRANCH  19  21
HETATM   21  C5  UNL     1      -3.976 -10.670  -7.806  1.00  0.00     0.071 C 
HETATM   22  N1  UNL     1      -3.717  -9.542  -8.361  1.00  0.00    -0.389 N 
ATOM     23  H12 UNL     1      -4.432  -9.132  -8.960  1.00  0.00     0.157 HD
ATOM     24  H11 UNL     1      -2.819  -9.087  -8.193  1.00  0.00     0.157 HD
BRANCH  21  25
HETATM   25  C4  UNL     1      -5.277 -11.329  -8.049  1.00  0.00     0.085 C 
BRANCH  25  26
HETATM   26  C3  UNL     1      -5.113 -12.828  -8.217  1.00  0.00     0.118 C 
BRANCH  26  27
HETATM   27  C2  UNL     1      -6.433 -13.505  -8.229  1.00  0.00     0.258 C 
HETATM   28  O2  UNL     1      -7.035 -13.634  -7.135  1.00  0.00    -0.265 OA
BRANCH  27  29
HETATM   29  O1  UNL     1      -7.028 -13.995  -9.375  1.00  0.00    -0.326 OA
HETATM   30  C1  UNL     1      -7.710 -15.222  -9.370  1.00  0.00     0.213 C 
ENDBRANCH  27  29
ENDBRANCH  26  27
ENDBRANCH  25  26
ENDBRANCH  21  25
ENDBRANCH  19  21
ENDBRANCH   1  19
BRANCH  16  31
HETATM   31  O4  UNL     1      -1.183 -10.379  -4.788  1.00  0.00    -0.395 OA
ATOM     32  H4  UNL     1      -1.291  -9.485  -5.089  1.00  0.00     0.210 HD
ENDBRANCH  16  31
BRANCH  13  33
HETATM   33  C19 UNL     1       6.163 -11.441  -4.727  1.00  0.00     0.055 C 
HETATM   34  C20 UNL     1       5.784  -9.979  -4.418  1.00  0.00     0.045 C 
HETATM   35  C21 UNL     1       7.436 -11.656  -3.901  1.00  0.00     0.045 C 
BRANCH  33  36
HETATM   36  O3  UNL     1       6.406 -11.474  -6.080  1.00  0.00    -0.390 OA
ATOM     37  H3  UNL     1       7.175 -10.995  -6.368  1.00  0.00     0.210 HD
ENDBRANCH  33  36
ENDBRANCH  13  33
TORSDOF 9
ENDMDL
MODEL 2
REMARK VINA RESULT: -7.541547814      4.991     10.827
REMARK  9 active torsions:
REMARK  status: ('A' for Active; 'I' for Inactive)
REMARK    1  A    between atoms: O1_2  and  C2_3 
REMARK    2  A    between atoms: C2_3  and  C3_5 
REMARK    3  A    between atoms: C3_5  and  C4_6 
REMARK    4  A    between atoms: C4_6  and  C5_7 
REMARK    5  A    between atoms: C5_7  and  N2_11 
REMARK    6  A    between atoms: N2_11  and  C6_13 
REMARK    7  A    between atoms: C18_25  and  C19_26 
REMARK    8  A    between atoms: C19_26  and  O3_29 
REMARK    9  A    between atoms: C24_33  and  O4_34 
ROOT
HETATM    1  C6  UNL     1      -5.070 -11.299  -7.052  1.00  0.00     0.093 C 
HETATM    2  C7  UNL     1      -6.051 -12.208  -7.762  1.00  0.00     0.026 C 
HETATM    3  C8  UNL     1      -7.306 -11.371  -8.051  1.00  0.00     0.008 C 
HETATM    4  C9  UNL     1      -7.031 -10.144  -7.259  1.00  0.00     0.003 C 
HETATM    5  C10 UNL     1      -7.893  -8.973  -7.470  1.00  0.00    -0.005 C 
HETATM    6  C11 UNL     1      -8.880  -8.893  -6.334  1.00  0.00     0.006 C 
HETATM    7  C12 UNL     1      -8.871  -7.569  -5.615  1.00  0.00     0.010 C 
HETATM    8  C13 UNL     1      -9.104  -6.506  -6.634  1.00  0.00    -0.034 C 
HETATM    9  C14 UNL     1     -10.449  -6.818  -7.307  1.00  0.00     0.016 C 
HETATM   10  C15 UNL     1      -7.987  -6.460  -7.662  1.00  0.00    -0.001 C 
HETATM   11  C16 UNL     1      -7.205  -5.215  -7.377  1.00  0.00     0.006 C 
HETATM   12  C17 UNL     1      -7.732  -4.699  -6.031  1.00  0.00     0.009 C 
HETATM   13  C18 UNL     1      -9.167  -5.122  -6.132  1.00  0.00     0.028 C 
HETATM   14  C22 UNL     1      -7.155  -7.702  -7.749  1.00  0.00    -0.003 C 
HETATM   15  C23 UNL     1      -5.830  -7.557  -7.045  1.00  0.00     0.038 C 
HETATM   16  C24 UNL     1      -5.137  -8.813  -6.683  1.00  0.00     0.129 C 
HETATM   17  C25 UNL     1      -5.560  -9.931  -7.547  1.00  0.00     0.006 C 
HETATM   18  C26 UNL     1      -5.210  -9.851  -8.974  1.00  0.00     0.020 C 
ENDROOT
BRANCH   1  19
HETATM   19  N2  UNL     1      -3.708 -11.494  -7.480  1.00  0.00    -0.375 N 
ATOM     20  H2  UNL     1      -3.466 -11.428  -8.469  1.00  0.00     0.161 HD
BRANCH  19  21
HETATM   21  C5  UNL     1      -2.701 -11.779  -6.509  1.00  0.00     0.071 C 
HETATM   22  N1  UNL     1      -2.852 -11.294  -5.331  1.00  0.00    -0.389 N 
ATOM     23  H12 UNL     1      -2.133 -11.499  -4.637  1.00  0.00     0.157 HD
ATOM     24  H11 UNL     1      -3.671 -10.725  -5.116  1.00  0.00     0.157 HD
BRANCH  21  25
HETATM   25  C4  UNL     1      -1.515 -12.604  -6.821  1.00  0.00     0.085 C 
BRANCH  25  26
HETATM   26  C3  UNL     1      -1.323 -12.751  -8.319  1.00  0.00     0.118 C 
BRANCH  26  27
HETATM   27  C2  UNL     1      -0.013 -12.197  -8.740  1.00  0.00     0.258 C 
HETATM   28  O2  UNL     1       0.048 -10.970  -9.000  1.00  0.00    -0.265 OA
BRANCH  27  29
HETATM   29  O1  UNL     1       1.134 -12.958  -8.859  1.00  0.00    -0.326 OA
HETATM   30  C1  UNL     1       2.354 -12.518  -8.323  1.00  0.00     0.213 C 
ENDBRANCH  27  29
ENDBRANCH  26  27
ENDBRANCH  25  26
ENDBRANCH  21  25
ENDBRANCH  19  21
ENDBRANCH   1  19
BRANCH  16  31
HETATM   31  O4  UNL     1      -3.733  -8.645  -6.710  1.00  0.00    -0.395 OA
ATOM     32  H4  UNL     1      -3.454  -7.993  -6.079  1.00  0.00     0.210 HD
ENDBRANCH  16  31
BRANCH  13  33
HETATM   33  C19 UNL     1      -9.837  -4.861  -4.835  1.00  0.00     0.055 C 
HETATM   34  C20 UNL     1      -9.306  -3.495  -4.354  1.00  0.00     0.045 C 
HETATM   35  C21 UNL     1     -11.345  -4.624  -4.967  1.00  0.00     0.045 C 
BRANCH  33  36
HETATM   36  O3  UNL     1      -9.533  -5.743  -3.825  1.00  0.00    -0.390 OA
ATOM     37  H3  UNL     1      -9.593  -5.392  -2.944  1.00  0.00     0.210 HD
ENDBRANCH  33  36
ENDBRANCH  13  33
TORSDOF 9
ENDMDL
MODEL 3
REMARK VINA RESULT: -7.519785488      2.372      3.144
REMARK  9 active torsions:
REMARK  status: ('A' for Active; 'I' for Inactive)
REMARK    1  A    between atoms: O1_2  and  C2_3 
REMARK    2  A    between atoms: C2_3  and  C3_5 
REMARK    3  A    between atoms: C3_5  and  C4_6 
REMARK    4  A    between atoms: C4_6  and  C5_7 
REMARK    5  A    between atoms: C5_7  and  N2_11 
REMARK    6  A    between atoms: N2_11  and  C6_13 
REMARK    7  A    between atoms: C18_25  and  C19_26 
REMARK    8  A    between atoms: C19_26  and  O3_29 
REMARK    9  A    between atoms: C24_33  and  O4_34 
ROOT
HETATM    1  C6  UNL     1      -1.723 -11.483  -7.552  1.00  0.00     0.093 C 
HETATM    2  C7  UNL     1      -1.727 -12.665  -8.499  1.00  0.00     0.026 C 
HETATM    3  C8  UNL     1      -0.462 -13.483  -8.199  1.00  0.00     0.008 C 
HETATM    4  C9  UNL     1       0.274 -12.564  -7.291  1.00  0.00     0.003 C 
HETATM    5  C10 UNL     1       1.443 -13.088  -6.570  1.00  0.00    -0.005 C 
HETATM    6  C11 UNL     1       2.690 -12.609  -7.268  1.00  0.00     0.006 C 
HETATM    7  C12 UNL     1       3.649 -11.881  -6.361  1.00  0.00     0.010 C 
HETATM    8  C13 UNL     1       3.959 -12.787  -5.218  1.00  0.00    -0.034 C 
HETATM    9  C14 UNL     1       4.551 -14.073  -5.814  1.00  0.00     0.016 C 
HETATM   10  C15 UNL     1       2.720 -13.097  -4.396  1.00  0.00    -0.001 C 
HETATM   11  C16 UNL     1       2.876 -12.355  -3.105  1.00  0.00     0.006 C 
HETATM   12  C17 UNL     1       4.081 -11.426  -3.309  1.00  0.00     0.009 C 
HETATM   13  C18 UNL     1       4.915 -12.276  -4.220  1.00  0.00     0.028 C 
HETATM   14  C22 UNL     1       1.418 -12.850  -5.094  1.00  0.00    -0.003 C 
HETATM   15  C23 UNL     1       0.769 -11.560  -4.659  1.00  0.00     0.038 C 
HETATM   16  C24 UNL     1      -0.254 -10.999  -5.569  1.00  0.00     0.129 C 
HETATM   17  C25 UNL     1      -0.851 -12.046  -6.420  1.00  0.00     0.006 C 
HETATM   18  C26 UNL     1      -1.649 -13.085  -5.751  1.00  0.00     0.020 C 
ENDROOT
BRANCH   1  19
HETATM   19  N2  UNL     1      -3.029 -11.174  -7.029  1.00  0.00    -0.375 N 
ATOM     20  H2  UNL     1      -3.285 -11.458  -6.083  1.00  0.00     0.161 HD
BRANCH  19  21
HETATM   21  C5  UNL     1      -3.962 -10.467  -7.845  1.00  0.00     0.071 C 
HETATM   22  N1  UNL     1      -4.824 -11.156  -8.501  1.00  0.00    -0.389 N 
ATOM     23  H12 UNL     1      -5.491 -10.650  -9.084  1.00  0.00     0.157 HD
ATOM     24  H11 UNL     1      -4.823 -12.173  -8.430  1.00  0.00     0.157 HD
BRANCH  21  25
HETATM   25  C4  UNL     1      -3.963  -8.993  -7.949  1.00  0.00     0.085 C 
BRANCH  25  26
HETATM   26  C3  UNL     1      -4.885  -8.368  -6.919  1.00  0.00     0.118 C 
BRANCH  26  27
HETATM   27  C2  UNL     1      -4.134  -8.000  -5.693  1.00  0.00     0.258 C 
HETATM   28  O2  UNL     1      -2.905  -8.254  -5.661  1.00  0.00    -0.265 OA
BRANCH  27  29
HETATM   29  O1  UNL     1      -4.716  -7.399  -4.595  1.00  0.00    -0.326 OA
HETATM   30  C1  UNL     1      -4.295  -6.135  -4.153  1.00  0.00     0.213 C 
ENDBRANCH  27  29
ENDBRANCH  26  27
ENDBRANCH  25  26
ENDBRANCH  21  25
ENDBRANCH  19  21
ENDBRANCH   1  19
BRANCH  16  31
HETATM   31  O4  UNL     1      -1.246 -10.296  -4.848  1.00  0.00    -0.395 OA
ATOM     32  H4  UNL     1      -2.113 -10.484  -5.187  1.00  0.00     0.210 HD
ENDBRANCH  16  31
BRANCH  13  33
HETATM   33  C19 UNL     1       6.080 -11.484  -4.685  1.00  0.00     0.055 C 
HETATM   34  C20 UNL     1       5.722 -10.009  -4.410  1.00  0.00     0.045 C 
HETATM   35  C21 UNL     1       7.339 -11.703  -3.841  1.00  0.00     0.045 C 
BRANCH  33  36
HETATM   36  O3  UNL     1       6.337 -11.548  -6.034  1.00  0.00    -0.390 OA
ATOM     37  H3  UNL     1       6.599 -10.729  -6.439  1.00  0.00     0.210 HD
ENDBRANCH  33  36
ENDBRANCH  13  33
TORSDOF 9
ENDMDL
MODEL 4
REMARK VINA RESULT: -7.469366378      4.489     10.456
REMARK  9 active torsions:
REMARK  status: ('A' for Active; 'I' for Inactive)
REMARK    1  A    between atoms: O1_2  and  C2_3 
REMARK    2  A    between atoms: C2_3  and  C3_5 
REMARK    3  A    between atoms: C3_5  and  C4_6 
REMARK    4  A    between atoms: C4_6  and  C5_7 
REMARK    5  A    between atoms: C5_7  and  N2_11 
REMARK    6  A    between atoms: N2_11  and  C6_13 
REMARK    7  A    between atoms: C18_25  and  C19_26 
REMARK    8  A    between atoms: C19_26  and  O3_29 
REMARK    9  A    between atoms: C24_33  and  O4_34 
ROOT
HETATM    1  C6  UNL     1      -4.772 -11.800  -7.466  1.00  0.00     0.093 C 
HETATM    2  C7  UNL     1      -5.917 -12.772  -7.653  1.00  0.00     0.026 C 
HETATM    3  C8  UNL     1      -7.211 -11.945  -7.653  1.00  0.00     0.008 C 
HETATM    4  C9  UNL     1      -6.710 -10.616  -7.215  1.00  0.00     0.003 C 
HETATM    5  C10 UNL     1      -7.612  -9.461  -7.328  1.00  0.00    -0.005 C 
HETATM    6  C11 UNL     1      -8.173  -9.155  -5.962  1.00  0.00     0.006 C 
HETATM    7  C12 UNL     1      -7.949  -7.732  -5.521  1.00  0.00     0.010 C 
HETATM    8  C13 UNL     1      -8.521  -6.843  -6.574  1.00  0.00    -0.034 C 
HETATM    9  C14 UNL     1     -10.007  -7.206  -6.708  1.00  0.00     0.016 C 
HETATM   10  C15 UNL     1      -7.804  -7.013  -7.902  1.00  0.00    -0.001 C 
HETATM   11  C16 UNL     1      -6.992  -5.771  -8.103  1.00  0.00     0.006 C 
HETATM   12  C17 UNL     1      -7.056  -5.018  -6.767  1.00  0.00     0.009 C 
HETATM   13  C18 UNL     1      -8.437  -5.393  -6.321  1.00  0.00     0.028 C 
HETATM   14  C22 UNL     1      -7.027  -8.285  -8.044  1.00  0.00    -0.003 C 
HETATM   15  C23 UNL     1      -5.547  -8.080  -7.846  1.00  0.00     0.038 C 
HETATM   16  C24 UNL     1      -4.753  -9.286  -7.523  1.00  0.00     0.129 C 
HETATM   17  C25 UNL     1      -5.419 -10.513  -7.999  1.00  0.00     0.006 C 
HETATM   18  C26 UNL     1      -5.559 -10.684  -9.454  1.00  0.00     0.020 C 
ENDROOT
BRANCH   1  19
HETATM   19  N2  UNL     1      -3.623 -12.118  -8.276  1.00  0.00    -0.375 N 
ATOM     20  H2  UNL     1      -3.679 -12.057  -9.293  1.00  0.00     0.161 HD
BRANCH  19  21
HETATM   21  C5  UNL     1      -2.408 -12.519  -7.644  1.00  0.00     0.071 C 
HETATM   22  N1  UNL     1      -1.598 -13.252  -8.317  1.00  0.00    -0.389 N 
ATOM     23  H12 UNL     1      -0.729 -13.538  -7.866  1.00  0.00     0.157 HD
ATOM     24  H11 UNL     1      -1.834 -13.528  -9.271  1.00  0.00     0.157 HD
BRANCH  21  25
HETATM   25  C4  UNL     1      -2.066 -12.118  -6.263  1.00  0.00     0.085 C 
BRANCH  25  26
HETATM   26  C3  UNL     1      -0.672 -12.582  -5.884  1.00  0.00     0.118 C 
BRANCH  26  27
HETATM   27  C2  UNL     1       0.160 -11.438  -5.434  1.00  0.00     0.258 C 
HETATM   28  O2  UNL     1      -0.302 -10.697  -4.531  1.00  0.00    -0.265 OA
BRANCH  27  29
HETATM   29  O1  UNL     1       1.406 -11.151  -5.956  1.00  0.00    -0.326 OA
HETATM   30  C1  UNL     1       2.577 -11.606  -5.328  1.00  0.00     0.213 C 
ENDBRANCH  27  29
ENDBRANCH  26  27
ENDBRANCH  25  26
ENDBRANCH  21  25
ENDBRANCH  19  21
ENDBRANCH   1  19
BRANCH  16  31
HETATM   31  O4  UNL     1      -3.439  -9.183  -8.035  1.00  0.00    -0.395 OA
ATOM     32  H4  UNL     1      -2.797  -9.204  -7.336  1.00  0.00     0.210 HD
ENDBRANCH  16  31
BRANCH  13  33
HETATM   33  C19 UNL     1      -8.648  -4.894  -4.940  1.00  0.00     0.055 C 
HETATM   34  C20 UNL     1      -7.912  -3.541  -4.864  1.00  0.00     0.045 C 
HETATM   35  C21 UNL     1     -10.104  -4.519  -4.646  1.00  0.00     0.045 C 
BRANCH  33  36
HETATM   36  O3  UNL     1      -8.095  -5.663  -3.943  1.00  0.00    -0.390 OA
ATOM     37  H3  UNL     1      -7.209  -5.966  -4.106  1.00  0.00     0.210 HD
ENDBRANCH  33  36
ENDBRANCH  13  33
TORSDOF 9
ENDMDL
MODEL 5
REMARK VINA RESULT: -7.460500216      4.449     10.520
REMARK  9 active torsions:
REMARK  status: ('A' for Active; 'I' for Inactive)
REMARK    1  A    between atoms: O1_2  and  C2_3 
REMARK    2  A    between atoms: C2_3  and  C3_5 
REMARK    3  A    between atoms: C3_5  and  C4_6 
REMARK    4  A    between atoms: C4_6  and  C5_7 
REMARK    5  A    between atoms: C5_7  and  N2_11 
REMARK    6  A    between atoms: N2_11  and  C6_13 
REMARK    7  A    between atoms: C18_25  and  C19_26 
REMARK    8  A    between atoms: C19_26  and  O3_29 
REMARK    9  A    between atoms: C24_33  and  O4_34 
ROOT
HETATM    1  C6  UNL     1      -3.151 -10.730  -7.464  1.00  0.00     0.093 C 
HETATM    2  C7  UNL     1      -2.872 -11.181  -6.046  1.00  0.00     0.026 C 
HETATM    3  C8  UNL     1      -4.048 -10.700  -5.184  1.00  0.00     0.008 C 
HETATM    4  C9  UNL     1      -4.761  -9.805  -6.133  1.00  0.00     0.003 C 
HETATM    5  C10 UNL     1      -6.104  -9.332  -5.766  1.00  0.00    -0.005 C 
HETATM    6  C11 UNL     1      -5.993  -7.911  -5.273  1.00  0.00     0.006 C 
HETATM    7  C12 UNL     1      -6.889  -6.945  -6.005  1.00  0.00     0.010 C 
HETATM    8  C13 UNL     1      -8.284  -7.466  -5.905  1.00  0.00    -0.034 C 
HETATM    9  C14 UNL     1      -8.613  -7.580  -4.409  1.00  0.00     0.016 C 
HETATM   10  C15 UNL     1      -8.429  -8.813  -6.591  1.00  0.00    -0.001 C 
HETATM   11  C16 UNL     1      -9.222  -8.565  -7.837  1.00  0.00     0.006 C 
HETATM   12  C17 UNL     1      -9.299  -7.039  -7.978  1.00  0.00     0.009 C 
HETATM   13  C18 UNL     1      -9.334  -6.644  -6.532  1.00  0.00     0.028 C 
HETATM   14  C22 UNL     1      -7.147  -9.553  -6.815  1.00  0.00    -0.003 C 
HETATM   15  C23 UNL     1      -6.663  -9.446  -8.239  1.00  0.00     0.038 C 
HETATM   16  C24 UNL     1      -5.231  -9.739  -8.471  1.00  0.00     0.129 C 
HETATM   17  C25 UNL     1      -4.681 -10.608  -7.414  1.00  0.00     0.006 C 
HETATM   18  C26 UNL     1      -5.209 -11.978  -7.323  1.00  0.00     0.020 C 
ENDROOT
BRANCH   1  19
HETATM   19  N2  UNL     1      -2.791 -11.716  -8.451  1.00  0.00    -0.375 N 
ATOM     20  H2  UNL     1      -3.434 -11.942  -9.211  1.00  0.00     0.161 HD
BRANCH  19  21
HETATM   21  C5  UNL     1      -1.528 -12.374  -8.358  1.00  0.00     0.071 C 
HETATM   22  N1  UNL     1      -1.521 -13.604  -7.992  1.00  0.00    -0.389 N 
ATOM     23  H12 UNL     1      -0.618 -14.075  -7.925  1.00  0.00     0.157 HD
ATOM     24  H11 UNL     1      -2.400 -14.077  -7.778  1.00  0.00     0.157 HD
BRANCH  21  25
HETATM   25  C4  UNL     1      -0.255 -11.690  -8.668  1.00  0.00     0.085 C 
BRANCH  25  26
HETATM   26  C3  UNL     1       0.787 -11.951  -7.596  1.00  0.00     0.118 C 
BRANCH  26  27
HETATM   27  C2  UNL     1       1.850 -12.854  -8.104  1.00  0.00     0.258 C 
HETATM   28  O2  UNL     1       1.539 -14.046  -8.349  1.00  0.00    -0.265 OA
BRANCH  27  29
HETATM   29  O1  UNL     1       3.153 -12.451  -8.318  1.00  0.00    -0.326 OA
HETATM   30  C1  UNL     1       4.192 -12.878  -7.476  1.00  0.00     0.213 C 
ENDBRANCH  27  29
ENDBRANCH  26  27
ENDBRANCH  25  26
ENDBRANCH  21  25
ENDBRANCH  19  21
ENDBRANCH   1  19
BRANCH  16  31
HETATM   31  O4  UNL     1      -5.028 -10.299  -9.753  1.00  0.00    -0.395 OA
ATOM     32  H4  UNL     1      -5.538 -11.092  -9.865  1.00  0.00     0.210 HD
ENDBRANCH  16  31
BRANCH  13  33
HETATM   33  C19 UNL     1      -9.241  -5.167  -6.434  1.00  0.00     0.055 C 
HETATM   34  C20 UNL     1      -9.134  -4.655  -7.885  1.00  0.00     0.045 C 
HETATM   35  C21 UNL     1     -10.528  -4.510  -5.924  1.00  0.00     0.045 C 
BRANCH  33  36
HETATM   36  O3  UNL     1      -8.121  -4.687  -5.797  1.00  0.00    -0.390 OA
ATOM     37  H3  UNL     1      -7.606  -4.061  -6.294  1.00  0.00     0.210 HD
ENDBRANCH  33  36
ENDBRANCH  13  33
TORSDOF 9
ENDMDL
