MODEL 1
REMARK VINA RESULT: -4.231344159      0.000      0.000
REMARK  0 active torsions:
REMARK  status: ('A' for Active; 'I' for Inactive)
ROOT
HETATM    1  C1  UNL     1     -33.644   4.675   2.486  1.00  0.00     0.015 C 
HETATM    2  C2  UNL     1     -33.781   5.619   3.689  1.00  0.00    -0.040 A 
HETATM    3  C3  UNL     1     -33.061   6.912   3.504  1.00  0.00     0.015 C 
HETATM    4  C4  UNL     1     -33.942   4.993   5.032  1.00  0.00    -0.001 A 
HETATM    5  C5  UNL     1     -35.119   5.380   5.915  1.00  0.00     0.011 A 
HETATM    6  C6  UNL     1     -35.118   5.589   4.405  1.00  0.00    -0.001 A 
ENDROOT
TORSDOF 0
ENDMDL
MODEL 2
REMARK VINA RESULT: -4.111328504      0.476      1.729
REMARK  0 active torsions:
REMARK  status: ('A' for Active; 'I' for Inactive)
ROOT
HETATM    1  C1  UNL     1     -32.814   7.063   3.096  1.00  0.00     0.015 C 
HETATM    2  C2  UNL     1     -33.616   5.853   3.598  1.00  0.00    -0.040 A 
HETATM    3  C3  UNL     1     -33.515   4.669   2.697  1.00  0.00     0.015 C 
HETATM    4  C4  UNL     1     -34.845   6.133   4.395  1.00  0.00    -0.001 A 
HETATM    5  C5  UNL     1     -35.017   5.504   5.770  1.00  0.00     0.011 A 
HETATM    6  C6  UNL     1     -33.656   5.664   5.103  1.00  0.00    -0.001 A 
ENDROOT
TORSDOF 0
ENDMDL
MODEL 3
REMARK VINA RESULT: -4.039720916      1.212      2.813
REMARK  0 active torsions:
REMARK  status: ('A' for Active; 'I' for Inactive)
ROOT
HETATM    1  C1  UNL     1     -35.379   5.278   4.440  1.00  0.00     0.015 C 
HETATM    2  C2  UNL     1     -34.180   6.235   4.490  1.00  0.00    -0.040 A 
HETATM    3  C3  UNL     1     -33.866   6.710   5.869  1.00  0.00     0.015 C 
HETATM    4  C4  UNL     1     -33.936   7.086   3.290  1.00  0.00    -0.001 A 
HETATM    5  C5  UNL     1     -32.573   7.073   2.615  1.00  0.00     0.011 A 
HETATM    6  C6  UNL     1     -33.057   5.941   3.513  1.00  0.00    -0.001 A 
ENDROOT
TORSDOF 0
ENDMDL
MODEL 4
REMARK VINA RESULT: -3.958961300      1.336      2.029
REMARK  0 active torsions:
REMARK  status: ('A' for Active; 'I' for Inactive)
ROOT
HETATM    1  C1  UNL     1     -34.102   4.128   3.819  1.00  0.00     0.015 C 
HETATM    2  C2  UNL     1     -34.789   5.382   4.379  1.00  0.00    -0.040 A 
HETATM    3  C3  UNL     1     -36.170   5.579   3.850  1.00  0.00     0.015 C 
HETATM    4  C4  UNL     1     -33.915   6.533   4.745  1.00  0.00    -0.001 A 
HETATM    5  C5  UNL     1     -33.994   7.133   6.140  1.00  0.00     0.011 A 
HETATM    6  C6  UNL     1     -34.471   5.721   5.823  1.00  0.00    -0.001 A 
ENDROOT
TORSDOF 0
ENDMDL
MODEL 5
REMARK VINA RESULT: -3.868110016      1.370      2.195
REMARK  0 active torsions:
REMARK  status: ('A' for Active; 'I' for Inactive)
ROOT
HETATM    1  C1  UNL     1     -36.207   5.472   3.837  1.00  0.00     0.015 C 
HETATM    2  C2  UNL     1     -34.798   5.358   4.437  1.00  0.00    -0.040 A 
HETATM    3  C3  UNL     1     -34.058   4.152   3.969  1.00  0.00     0.015 C 
HETATM    4  C4  UNL     1     -34.588   5.932   5.798  1.00  0.00    -0.001 A 
HETATM    5  C5  UNL     1     -33.478   6.945   6.031  1.00  0.00     0.011 A 
HETATM    6  C6  UNL     1     -34.062   6.668   4.651  1.00  0.00    -0.001 A 
ENDROOT
TORSDOF 0
ENDMDL
