MODEL 1
REMARK VINA RESULT: -5.063669926      0.000      0.000
REMARK  0 active torsions:
REMARK  status: ('A' for Active; 'I' for Inactive)
ROOT
HETATM    1  C1  UNL     1     -32.489   7.127   3.034  1.00  0.00     0.043 C 
HETATM    2  C2  UNL     1     -33.435   6.068   3.530  1.00  0.00    -0.082 A 
HETATM    3  C3  UNL     1     -34.101   5.969   4.660  1.00  0.00    -0.082 A 
HETATM    4  C4  UNL     1     -34.256   6.776   5.921  1.00  0.00     0.043 C 
HETATM    5  C5  UNL     1     -34.690   4.694   4.227  1.00  0.00     0.038 A 
HETATM    6  C6  UNL     1     -33.936   4.812   2.957  1.00  0.00     0.038 A 
ENDROOT
TORSDOF 0
ENDMDL
MODEL 2
REMARK VINA RESULT: -5.049080014      0.127      2.276
REMARK  0 active torsions:
REMARK  status: ('A' for Active; 'I' for Inactive)
ROOT
HETATM    1  C1  UNL     1     -34.268   6.954   5.786  1.00  0.00     0.043 C 
HETATM    2  C2  UNL     1     -34.143   6.031   4.605  1.00  0.00    -0.082 A 
HETATM    3  C3  UNL     1     -33.441   6.137   3.498  1.00  0.00    -0.082 A 
HETATM    4  C4  UNL     1     -32.489   7.132   2.890  1.00  0.00     0.043 C 
HETATM    5  C5  UNL     1     -33.949   4.842   3.025  1.00  0.00     0.038 A 
HETATM    6  C6  UNL     1     -34.738   4.729   4.274  1.00  0.00     0.038 A 
ENDROOT
TORSDOF 0
ENDMDL
MODEL 3
REMARK VINA RESULT: -5.028608977      0.757      2.688
REMARK  0 active torsions:
REMARK  status: ('A' for Active; 'I' for Inactive)
ROOT
HETATM    1  C1  UNL     1     -34.434   4.223   3.713  1.00  0.00     0.043 C 
HETATM    2  C2  UNL     1     -34.255   5.414   4.614  1.00  0.00    -0.082 A 
HETATM    3  C3  UNL     1     -33.582   6.531   4.444  1.00  0.00    -0.082 A 
HETATM    4  C4  UNL     1     -32.724   7.146   3.370  1.00  0.00     0.043 C 
HETATM    5  C5  UNL     1     -33.992   7.007   5.772  1.00  0.00     0.038 A 
HETATM    6  C6  UNL     1     -34.748   5.747   5.958  1.00  0.00     0.038 A 
ENDROOT
TORSDOF 0
ENDMDL
MODEL 4
REMARK VINA RESULT: -4.951935673      0.771      2.248
REMARK  0 active torsions:
REMARK  status: ('A' for Active; 'I' for Inactive)
ROOT
HETATM    1  C1  UNL     1     -32.762   7.151   3.340  1.00  0.00     0.043 C 
HETATM    2  C2  UNL     1     -33.584   6.578   4.461  1.00  0.00    -0.082 A 
HETATM    3  C3  UNL     1     -34.216   5.430   4.567  1.00  0.00    -0.082 A 
HETATM    4  C4  UNL     1     -34.429   4.208   3.714  1.00  0.00     0.043 C 
HETATM    5  C5  UNL     1     -34.679   5.783   5.916  1.00  0.00     0.038 A 
HETATM    6  C6  UNL     1     -33.966   7.075   5.790  1.00  0.00     0.038 A 
ENDROOT
TORSDOF 0
ENDMDL
MODEL 5
REMARK VINA RESULT: -4.606186806      0.713      2.164
REMARK  0 active torsions:
REMARK  status: ('A' for Active; 'I' for Inactive)
ROOT
HETATM    1  C1  UNL     1     -34.652   4.385   3.972  1.00  0.00     0.043 C 
HETATM    2  C2  UNL     1     -33.784   5.591   3.739  1.00  0.00    -0.082 A 
HETATM    3  C3  UNL     1     -33.513   6.621   4.511  1.00  0.00    -0.082 A 
HETATM    4  C4  UNL     1     -33.886   7.089   5.892  1.00  0.00     0.043 C 
HETATM    5  C5  UNL     1     -32.650   7.201   3.473  1.00  0.00     0.038 A 
HETATM    6  C6  UNL     1     -32.960   6.038   2.608  1.00  0.00     0.038 A 
ENDROOT
TORSDOF 0
ENDMDL
