MODEL 1
REMARK VINA RESULT: -3.273133998      0.000      0.000
REMARK  0 active torsions:
REMARK  status: ('A' for Active; 'I' for Inactive)
ROOT
HETATM    1  F1  UNL     1      88.753  -8.902  45.422  1.00  0.00    -0.191 F 
HETATM    2  C1  UNL     1      88.138  -9.813  46.245  1.00  0.00     0.364 A 
HETATM    3 CL1  UNL     1      89.298 -10.905  47.068  1.00  0.00    -0.051 Cl
HETATM    4  C2  UNL     1      86.938  -9.348  46.952  1.00  0.00     0.329 A 
HETATM    5  N1  UNL     1      86.835 -10.328  45.908  1.00  0.00    -0.016 N 
ATOM      6  H11 UNL     1      86.433 -11.264  45.848  1.00  0.00     0.282 HD
ATOM      7  H12 UNL     1      86.297 -10.392  45.043  1.00  0.00     0.282 HD
ENDROOT
TORSDOF 0
ENDMDL
MODEL 2
REMARK VINA RESULT: -3.263130638      1.868      1.904
REMARK  0 active torsions:
REMARK  status: ('A' for Active; 'I' for Inactive)
ROOT
HETATM    1  F1  UNL     1      86.434  -8.901  47.183  1.00  0.00    -0.191 F 
HETATM    2  C1  UNL     1      87.101  -9.934  46.572  1.00  0.00     0.364 A 
HETATM    3 CL1  UNL     1      88.660  -9.424  45.846  1.00  0.00    -0.051 Cl
HETATM    4  C2  UNL     1      86.982 -11.254  47.205  1.00  0.00     0.329 A 
HETATM    5  N1  UNL     1      86.365 -10.996  45.934  1.00  0.00    -0.016 N 
ATOM      6  H11 UNL     1      86.409 -11.442  45.019  1.00  0.00     0.282 HD
ATOM      7  H12 UNL     1      85.414 -11.085  45.574  1.00  0.00     0.282 HD
ENDROOT
TORSDOF 0
ENDMDL
MODEL 3
REMARK VINA RESULT: -3.201311541      7.779      7.823
REMARK  0 active torsions:
REMARK  status: ('A' for Active; 'I' for Inactive)
ROOT
HETATM    1  F1  UNL     1      81.841 -14.139  45.118  1.00  0.00    -0.191 F 
HETATM    2  C1  UNL     1      82.704 -14.783  44.266  1.00  0.00     0.364 A 
HETATM    3 CL1  UNL     1      84.261 -13.916  44.064  1.00  0.00    -0.051 Cl
HETATM    4  C2  UNL     1      82.680 -16.251  44.298  1.00  0.00     0.329 A 
HETATM    5  N1  UNL     1      82.192 -15.538  43.150  1.00  0.00    -0.016 N 
ATOM      6  H11 UNL     1      82.404 -15.567  42.153  1.00  0.00     0.282 HD
ATOM      7  H12 UNL     1      81.312 -15.537  42.635  1.00  0.00     0.282 HD
ENDROOT
TORSDOF 0
ENDMDL
MODEL 4
REMARK VINA RESULT: -3.200728578      3.956      4.010
REMARK  0 active torsions:
REMARK  status: ('A' for Active; 'I' for Inactive)
ROOT
HETATM    1  F1  UNL     1      85.842 -13.358  48.140  1.00  0.00    -0.191 F 
HETATM    2  C1  UNL     1      85.915 -12.364  47.196  1.00  0.00     0.364 A 
HETATM    3 CL1  UNL     1      84.656 -12.514  45.928  1.00  0.00    -0.051 Cl
HETATM    4  C2  UNL     1      86.322 -11.037  47.674  1.00  0.00     0.329 A 
HETATM    5  N1  UNL     1      87.192 -11.806  46.829  1.00  0.00    -0.016 N 
ATOM      6  H11 UNL     1      87.662 -11.626  45.942  1.00  0.00     0.282 HD
ATOM      7  H12 UNL     1      88.157 -12.127  46.906  1.00  0.00     0.282 HD
ENDROOT
TORSDOF 0
ENDMDL
MODEL 5
REMARK VINA RESULT: -3.181073318      1.981      1.981
REMARK  0 active torsions:
REMARK  status: ('A' for Active; 'I' for Inactive)
ROOT
HETATM    1  F1  UNL     1      88.869 -10.272  47.409  1.00  0.00    -0.191 F 
HETATM    2  C1  UNL     1      87.865  -9.660  46.699  1.00  0.00     0.364 A 
HETATM    3 CL1  UNL     1      88.483  -8.602  45.389  1.00  0.00    -0.051 Cl
HETATM    4  C2  UNL     1      86.639 -10.442  46.495  1.00  0.00     0.329 A 
HETATM    5  N1  UNL     1      86.636  -9.291  47.354  1.00  0.00    -0.016 N 
ATOM      6  H11 UNL     1      86.081  -8.437  47.396  1.00  0.00     0.282 HD
ATOM      7  H12 UNL     1      86.368  -9.129  48.325  1.00  0.00     0.282 HD
ENDROOT
TORSDOF 0
ENDMDL
