MODEL 1
REMARK VINA RESULT: -7.231637278      0.000      0.000
REMARK  6 active torsions:
REMARK  status: ('A' for Active; 'I' for Inactive)
REMARK    1  A    between atoms: C2_2  and  N1_3 
REMARK    2  A    between atoms: C5_8  and  N3_9 
REMARK    3  A    between atoms: N3_9  and  C6_11 
REMARK    4  A    between atoms: C6_11  and  C7_12 
REMARK    5  A    between atoms: N4_15  and  C10_16 
REMARK    6  A    between atoms: N6_26  and  C18_28 
ROOT
HETATM    1  N1  UNL     1       9.039  54.468  89.607  1.00  0.00    -0.301 N 
HETATM    2  C3  UNL     1       8.817  53.363  88.877  1.00  0.00     0.142 A 
HETATM    3  C4  UNL     1      10.065  52.762  88.780  1.00  0.00     0.098 A 
HETATM    4  N2  UNL     1      10.441  51.641  88.173  1.00  0.00    -0.188 N 
ATOM      5  H2  UNL     1       9.758  51.073  87.672  1.00  0.00     0.184 HD
HETATM    6  C5  UNL     1      11.743  51.259  88.225  1.00  0.00     0.680 A 
HETATM    7  N5  UNL     1      12.655  51.991  88.875  1.00  0.00    -0.175 N 
ATOM      8  H5  UNL     1      13.623  51.669  88.889  1.00  0.00     0.186 HD
HETATM    9  C17 UNL     1      12.339  53.166  89.529  1.00  0.00     0.148 A 
HETATM   10  N6  UNL     1      13.231  53.754  90.087  1.00  0.00    -0.370 N 
ATOM     11  H6  UNL     1      14.037  53.159  89.897  1.00  0.00     0.161 HD
HETATM   12  C21 UNL     1      11.012  53.531  89.462  1.00  0.00     0.121 A 
HETATM   13  N7  UNL     1      10.300  54.557  89.938  1.00  0.00    -0.293 N 
ATOM     14  H7  UNL     1      10.694  55.318  90.493  1.00  0.00     0.187 HD
ENDROOT
BRANCH   6  15
HETATM   15  N3  UNL     1      12.015  50.167  87.620  1.00  0.00    -0.226 N 
ATOM     16  H3  UNL     1      12.639  49.516  88.096  1.00  0.00     0.177 HD
BRANCH  15  17
HETATM   17  C6  UNL     1      11.523  49.779  86.338  1.00  0.00     0.142 C 
BRANCH  17  18
HETATM   18  C7  UNL     1      12.541  50.180  85.301  1.00  0.00     0.007 C 
HETATM   19  C8  UNL     1      12.373  49.421  84.030  1.00  0.00     0.026 C 
HETATM   20  C9  UNL     1      12.641  50.283  82.803  1.00  0.00     0.117 C 
HETATM   21  N4  UNL     1      13.714  51.185  82.980  1.00  0.00    -0.408 N 
HETATM   22  C15 UNL     1      13.707  51.978  84.146  1.00  0.00     0.117 C 
HETATM   23  C16 UNL     1      12.450  51.656  84.957  1.00  0.00     0.026 C 
BRANCH  21  24
HETATM   24  C10 UNL     1      14.952  50.649  82.539  1.00  0.00     0.079 C 
HETATM   25  C11 UNL     1      14.834  50.290  81.062  1.00  0.00     0.025 C 
HETATM   26  C12 UNL     1      15.752  51.214  80.311  1.00  0.00     0.002 C 
HETATM   27  C13 UNL     1      16.016  52.326  81.302  1.00  0.00     0.002 C 
HETATM   28  C14 UNL     1      16.130  51.561  82.600  1.00  0.00     0.025 C 
ENDBRANCH  21  24
ENDBRANCH  17  18
ENDBRANCH  15  17
ENDBRANCH   6  15
BRANCH  10  29
HETATM   29  C18 UNL     1      13.771  54.754  90.822  1.00  0.00     0.075 C 
HETATM   30  C19 UNL     1      13.812  54.509  92.336  1.00  0.00     0.031 C 
HETATM   31  C20 UNL     1      15.136  55.303  90.458  1.00  0.00     0.031 C 
ENDBRANCH  10  29
BRANCH   1  32
HETATM   32  C2  UNL     1       8.015  55.427  89.977  1.00  0.00     0.143 C 
HETATM   33  C1  UNL     1       6.683  55.132  89.347  1.00  0.00     0.028 C 
ENDBRANCH   1  32
TORSDOF 6
ENDMDL
MODEL 2
REMARK VINA RESULT: -7.070183413      1.598      1.877
REMARK  6 active torsions:
REMARK  status: ('A' for Active; 'I' for Inactive)
REMARK    1  A    between atoms: C2_2  and  N1_3 
REMARK    2  A    between atoms: C5_8  and  N3_9 
REMARK    3  A    between atoms: N3_9  and  C6_11 
REMARK    4  A    between atoms: C6_11  and  C7_12 
REMARK    5  A    between atoms: N4_15  and  C10_16 
REMARK    6  A    between atoms: N6_26  and  C18_28 
ROOT
HETATM    1  N1  UNL     1       9.880  53.252  92.320  1.00  0.00    -0.301 N 
HETATM    2  C3  UNL     1       9.319  52.532  91.335  1.00  0.00     0.142 A 
HETATM    3  C4  UNL     1      10.206  52.659  90.274  1.00  0.00     0.098 A 
HETATM    4  N2  UNL     1      10.162  52.155  89.044  1.00  0.00    -0.188 N 
ATOM      5  H2  UNL     1       9.378  51.570  88.756  1.00  0.00     0.184 HD
HETATM    6  C5  UNL     1      11.169  52.427  88.176  1.00  0.00     0.680 A 
HETATM    7  N5  UNL     1      12.206  53.194  88.534  1.00  0.00    -0.175 N 
ATOM      8  H5  UNL     1      12.941  53.374  87.851  1.00  0.00     0.186 HD
HETATM    9  C17 UNL     1      12.320  53.751  89.793  1.00  0.00     0.148 A 
HETATM   10  N6  UNL     1      13.292  54.427  90.021  1.00  0.00    -0.370 N 
ATOM     11  H6  UNL     1      13.796  54.390  89.135  1.00  0.00     0.161 HD
HETATM   12  C21 UNL     1      11.285  53.460  90.655  1.00  0.00     0.121 A 
HETATM   13  N7  UNL     1      11.007  53.781  91.923  1.00  0.00    -0.293 N 
ATOM     14  H7  UNL     1      11.601  54.368  92.508  1.00  0.00     0.187 HD
ENDROOT
BRANCH   6  15
HETATM   15  N3  UNL     1      11.050  51.898  87.020  1.00  0.00    -0.226 N 
ATOM     16  H3  UNL     1      10.567  52.445  86.306  1.00  0.00     0.177 HD
BRANCH  15  17
HETATM   17  C6  UNL     1      11.533  50.611  86.637  1.00  0.00     0.142 C 
BRANCH  17  18
HETATM   18  C7  UNL     1      12.547  50.796  85.536  1.00  0.00     0.007 C 
HETATM   19  C8  UNL     1      12.189  50.029  84.311  1.00  0.00     0.026 C 
HETATM   20  C9  UNL     1      12.531  50.787  83.035  1.00  0.00     0.117 C 
HETATM   21  N4  UNL     1      13.747  51.500  83.120  1.00  0.00    -0.408 N 
HETATM   22  C15 UNL     1      13.933  52.326  84.248  1.00  0.00     0.117 C 
HETATM   23  C16 UNL     1      12.685  52.252  85.130  1.00  0.00     0.026 C 
BRANCH  21  24
HETATM   24  C10 UNL     1      14.853  50.747  82.648  1.00  0.00     0.079 C 
HETATM   25  C11 UNL     1      14.599  50.358  81.196  1.00  0.00     0.025 C 
HETATM   26  C12 UNL     1      15.617  51.086  80.362  1.00  0.00     0.002 C 
HETATM   27  C13 UNL     1      16.114  52.173  81.289  1.00  0.00     0.002 C 
HETATM   28  C14 UNL     1      16.168  51.449  82.614  1.00  0.00     0.025 C 
ENDBRANCH  21  24
ENDBRANCH  17  18
ENDBRANCH  15  17
ENDBRANCH   6  15
BRANCH  10  29
HETATM   29  C18 UNL     1      14.094  55.207  90.782  1.00  0.00     0.075 C 
HETATM   30  C19 UNL     1      14.350  54.696  92.206  1.00  0.00     0.031 C 
HETATM   31  C20 UNL     1      15.447  55.639  90.252  1.00  0.00     0.031 C 
ENDBRANCH  10  29
BRANCH   1  32
HETATM   32  C2  UNL     1       9.309  53.416  93.644  1.00  0.00     0.143 C 
HETATM   33  C1  UNL     1      10.198  54.193  94.573  1.00  0.00     0.028 C 
ENDBRANCH   1  32
TORSDOF 6
ENDMDL
MODEL 3
REMARK VINA RESULT: -6.836682117      1.902      3.065
REMARK  6 active torsions:
REMARK  status: ('A' for Active; 'I' for Inactive)
REMARK    1  A    between atoms: C2_2  and  N1_3 
REMARK    2  A    between atoms: C5_8  and  N3_9 
REMARK    3  A    between atoms: N3_9  and  C6_11 
REMARK    4  A    between atoms: C6_11  and  C7_12 
REMARK    5  A    between atoms: N4_15  and  C10_16 
REMARK    6  A    between atoms: N6_26  and  C18_28 
ROOT
HETATM    1  N1  UNL     1      12.607  50.865  92.060  1.00  0.00    -0.301 N 
HETATM    2  C3  UNL     1      11.792  50.285  91.163  1.00  0.00     0.142 A 
HETATM    3  C4  UNL     1      11.690  51.221  90.142  1.00  0.00     0.098 A 
HETATM    4  N2  UNL     1      11.014  51.182  88.998  1.00  0.00    -0.188 N 
ATOM      5  H2  UNL     1      10.454  50.365  88.758  1.00  0.00     0.184 HD
HETATM    6  C5  UNL     1      11.077  52.241  88.150  1.00  0.00     0.680 A 
HETATM    7  N5  UNL     1      11.806  53.324  88.447  1.00  0.00    -0.175 N 
ATOM      8  H5  UNL     1      11.826  54.098  87.783  1.00  0.00     0.186 HD
HETATM    9  C17 UNL     1      12.533  53.435  89.616  1.00  0.00     0.148 A 
HETATM   10  N6  UNL     1      13.159  54.451  89.792  1.00  0.00    -0.370 N 
ATOM     11  H6  UNL     1      12.951  54.985  88.948  1.00  0.00     0.161 HD
HETATM   12  C21 UNL     1      12.453  52.348  90.458  1.00  0.00     0.121 A 
HETATM   13  N7  UNL     1      12.981  52.047  91.649  1.00  0.00    -0.293 N 
ATOM     14  H7  UNL     1      13.600  52.666  92.172  1.00  0.00     0.187 HD
ENDROOT
BRANCH   6  15
HETATM   15  N3  UNL     1      10.404  52.117  87.072  1.00  0.00    -0.226 N 
ATOM     16  H3  UNL     1       9.820  52.907  86.796  1.00  0.00     0.177 HD
BRANCH  15  17
HETATM   17  C6  UNL     1      10.397  50.973  86.220  1.00  0.00     0.142 C 
BRANCH  17  18
HETATM   18  C7  UNL     1      11.611  51.042  85.327  1.00  0.00     0.007 C 
HETATM   19  C8  UNL     1      11.367  50.408  84.002  1.00  0.00     0.026 C 
HETATM   20  C9  UNL     1      12.048  51.162  82.867  1.00  0.00     0.117 C 
HETATM   21  N4  UNL     1      13.324  51.659  83.216  1.00  0.00    -0.408 N 
HETATM   22  C15 UNL     1      13.427  52.385  84.421  1.00  0.00     0.117 C 
HETATM   23  C16 UNL     1      12.044  52.474  85.068  1.00  0.00     0.026 C 
BRANCH  21  24
HETATM   24  C10 UNL     1      14.368  50.758  82.882  1.00  0.00     0.079 C 
HETATM   25  C11 UNL     1      14.205  50.334  81.426  1.00  0.00     0.025 C 
HETATM   26  C12 UNL     1      15.379  50.894  80.672  1.00  0.00     0.002 C 
HETATM   27  C13 UNL     1      15.917  51.957  81.604  1.00  0.00     0.002 C 
HETATM   28  C14 UNL     1      15.757  51.295  82.953  1.00  0.00     0.025 C 
ENDBRANCH  21  24
ENDBRANCH  17  18
ENDBRANCH  15  17
ENDBRANCH   6  15
BRANCH  10  29
HETATM   29  C18 UNL     1      13.980  55.285  90.471  1.00  0.00     0.075 C 
HETATM   30  C19 UNL     1      13.938  55.148  91.999  1.00  0.00     0.031 C 
HETATM   31  C20 UNL     1      15.449  55.358  90.105  1.00  0.00     0.031 C 
ENDBRANCH  10  29
BRANCH   1  32
HETATM   32  C2  UNL     1      13.014  50.256  93.313  1.00  0.00     0.143 C 
HETATM   33  C1  UNL     1      14.005  51.090  94.074  1.00  0.00     0.028 C 
ENDBRANCH   1  32
TORSDOF 6
ENDMDL
MODEL 4
REMARK VINA RESULT: -6.715922598      2.129      4.128
REMARK  6 active torsions:
REMARK  status: ('A' for Active; 'I' for Inactive)
REMARK    1  A    between atoms: C2_2  and  N1_3 
REMARK    2  A    between atoms: C5_8  and  N3_9 
REMARK    3  A    between atoms: N3_9  and  C6_11 
REMARK    4  A    between atoms: C6_11  and  C7_12 
REMARK    5  A    between atoms: N4_15  and  C10_16 
REMARK    6  A    between atoms: N6_26  and  C18_28 
ROOT
HETATM    1  N1  UNL     1      12.905  54.529  93.661  1.00  0.00    -0.301 N 
HETATM    2  C3  UNL     1      13.705  54.499  92.582  1.00  0.00     0.142 A 
HETATM    3  C4  UNL     1      12.881  54.047  91.561  1.00  0.00     0.098 A 
HETATM    4  N2  UNL     1      13.138  53.827  90.275  1.00  0.00    -0.188 N 
ATOM      5  H2  UNL     1      14.073  53.992  89.901  1.00  0.00     0.184 HD
HETATM    6  C5  UNL     1      12.146  53.379  89.463  1.00  0.00     0.680 A 
HETATM    7  N5  UNL     1      10.913  53.155  89.934  1.00  0.00    -0.175 N 
ATOM      8  H5  UNL     1      10.197  52.818  89.291  1.00  0.00     0.186 HD
HETATM    9  C17 UNL     1      10.572  53.361  91.257  1.00  0.00     0.148 A 
HETATM   10  N6  UNL     1       9.435  53.131  91.584  1.00  0.00    -0.370 N 
ATOM     11  H6  UNL     1       9.013  52.821  90.709  1.00  0.00     0.161 HD
HETATM   12  C21 UNL     1      11.596  53.816  92.059  1.00  0.00     0.121 A 
HETATM   13  N7  UNL     1      11.698  54.136  93.353  1.00  0.00    -0.293 N 
ATOM     14  H7  UNL     1      10.927  54.079  94.018  1.00  0.00     0.187 HD
ENDROOT
BRANCH   6  15
HETATM   15  N3  UNL     1      12.478  53.200  88.244  1.00  0.00    -0.226 N 
ATOM     16  H3  UNL     1      13.229  53.785  87.876  1.00  0.00     0.177 HD
BRANCH  15  17
HETATM   17  C6  UNL     1      11.892  52.255  87.349  1.00  0.00     0.142 C 
BRANCH  17  18
HETATM   18  C7  UNL     1      12.838  52.049  86.194  1.00  0.00     0.007 C 
HETATM   19  C8  UNL     1      12.203  51.297  85.077  1.00  0.00     0.026 C 
HETATM   20  C9  UNL     1      12.644  51.807  83.711  1.00  0.00     0.117 C 
HETATM   21  N4  UNL     1      14.010  52.165  83.666  1.00  0.00    -0.408 N 
HETATM   22  C15 UNL     1      14.490  53.012  84.686  1.00  0.00     0.117 C 
HETATM   23  C16 UNL     1      13.333  53.367  85.623  1.00  0.00     0.026 C 
BRANCH  21  24
HETATM   24  C10 UNL     1      14.838  51.097  83.235  1.00  0.00     0.079 C 
HETATM   25  C11 UNL     1      14.183  50.420  82.035  1.00  0.00     0.025 C 
HETATM   26  C12 UNL     1      15.070  50.677  80.848  1.00  0.00     0.002 C 
HETATM   27  C13 UNL     1      15.939  51.828  81.304  1.00  0.00     0.002 C 
HETATM   28  C14 UNL     1      16.199  51.466  82.748  1.00  0.00     0.025 C 
ENDBRANCH  21  24
ENDBRANCH  17  18
ENDBRANCH  15  17
ENDBRANCH   6  15
BRANCH  10  29
HETATM   29  C18 UNL     1       8.400  53.050  92.452  1.00  0.00     0.075 C 
HETATM   30  C19 UNL     1       7.019  53.361  91.860  1.00  0.00     0.031 C 
HETATM   31  C20 UNL     1       8.216  51.800  93.290  1.00  0.00     0.031 C 
ENDBRANCH  10  29
BRANCH   1  32
HETATM   32  C2  UNL     1      13.328  54.945  94.985  1.00  0.00     0.143 C 
HETATM   33  C1  UNL     1      12.501  56.070  95.538  1.00  0.00     0.028 C 
ENDBRANCH   1  32
TORSDOF 6
ENDMDL
MODEL 5
REMARK VINA RESULT: -6.656182397      2.455      4.068
REMARK  6 active torsions:
REMARK  status: ('A' for Active; 'I' for Inactive)
REMARK    1  A    between atoms: C2_2  and  N1_3 
REMARK    2  A    between atoms: C5_8  and  N3_9 
REMARK    3  A    between atoms: N3_9  and  C6_11 
REMARK    4  A    between atoms: C6_11  and  C7_12 
REMARK    5  A    between atoms: N4_15  and  C10_16 
REMARK    6  A    between atoms: N6_26  and  C18_28 
ROOT
HETATM    1  N1  UNL     1      13.330  54.227  93.697  1.00  0.00    -0.301 N 
HETATM    2  C3  UNL     1      13.241  54.931  92.556  1.00  0.00     0.142 A 
HETATM    3  C4  UNL     1      12.954  53.977  91.590  1.00  0.00     0.098 A 
HETATM    4  N2  UNL     1      12.757  54.102  90.281  1.00  0.00    -0.188 N 
ATOM      5  H2  UNL     1      12.810  55.020  89.838  1.00  0.00     0.184 HD
HETATM    6  C5  UNL     1      12.484  52.999  89.538  1.00  0.00     0.680 A 
HETATM    7  N5  UNL     1      12.411  51.786  90.099  1.00  0.00    -0.175 N 
ATOM      8  H5  UNL     1      12.205  50.983  89.505  1.00  0.00     0.186 HD
HETATM    9  C17 UNL     1      12.604  51.578  91.451  1.00  0.00     0.148 A 
HETATM   10  N6  UNL     1      12.517  50.449  91.862  1.00  0.00    -0.370 N 
ATOM     11  H6  UNL     1      12.307  49.922  91.014  1.00  0.00     0.161 HD
HETATM   12  C21 UNL     1      12.879  52.714  92.182  1.00  0.00     0.121 A 
HETATM   13  N7  UNL     1      13.121  52.957  93.474  1.00  0.00    -0.293 N 
ATOM     14  H7  UNL     1      13.142  52.238  94.197  1.00  0.00     0.187 HD
ENDROOT
BRANCH   6  15
HETATM   15  N3  UNL     1      12.303  53.212  88.292  1.00  0.00    -0.226 N 
ATOM     16  H3  UNL     1      12.589  54.121  87.929  1.00  0.00     0.177 HD
BRANCH  15  17
HETATM   17  C6  UNL     1      11.736  52.289  87.362  1.00  0.00     0.142 C 
BRANCH  17  18
HETATM   18  C7  UNL     1      12.716  52.097  86.232  1.00  0.00     0.007 C 
HETATM   19  C8  UNL     1      12.117  51.346  85.095  1.00  0.00     0.026 C 
HETATM   20  C9  UNL     1      12.592  51.866  83.744  1.00  0.00     0.117 C 
HETATM   21  N4  UNL     1      13.956  52.235  83.739  1.00  0.00    -0.408 N 
HETATM   22  C15 UNL     1      14.401  53.080  84.776  1.00  0.00     0.117 C 
HETATM   23  C16 UNL     1      13.216  53.421  85.682  1.00  0.00     0.026 C 
BRANCH  21  24
HETATM   24  C10 UNL     1      14.804  51.176  83.324  1.00  0.00     0.079 C 
HETATM   25  C11 UNL     1      14.192  50.506  82.098  1.00  0.00     0.025 C 
HETATM   26  C12 UNL     1      15.116  50.779  80.943  1.00  0.00     0.002 C 
HETATM   27  C13 UNL     1      15.963  51.930  81.438  1.00  0.00     0.002 C 
HETATM   28  C14 UNL     1      16.177  51.556  82.886  1.00  0.00     0.025 C 
ENDBRANCH  21  24
ENDBRANCH  17  18
ENDBRANCH  15  17
ENDBRANCH   6  15
BRANCH  10  29
HETATM   29  C18 UNL     1      12.539  49.481  92.808  1.00  0.00     0.075 C 
HETATM   30  C19 UNL     1      12.241  48.062  92.305  1.00  0.00     0.031 C 
HETATM   31  C20 UNL     1      13.742  49.349  93.721  1.00  0.00     0.031 C 
ENDBRANCH  10  29
BRANCH   1  32
HETATM   32  C2  UNL     1      13.617  54.805  94.997  1.00  0.00     0.143 C 
HETATM   33  C1  UNL     1      12.644  55.881  95.387  1.00  0.00     0.028 C 
ENDBRANCH   1  32
TORSDOF 6
ENDMDL
