MODEL 1
REMARK VINA RESULT: -6.325914797      0.000      0.000
REMARK  7 active torsions:
REMARK  status: ('A' for Active; 'I' for Inactive)
REMARK    1  A    between atoms: C2_2  and  O1_3 
REMARK    2  A    between atoms: O1_3  and  C3_4 
REMARK    3  A    between atoms: C3_4  and  C4_6 
REMARK    4  A    between atoms: N1_9  and  C7_10 
REMARK    5  A    between atoms: C12_17  and  N3_18 
REMARK    6  A    between atoms: N3_18  and  C13_20 
REMARK    7  A    between atoms: C18_28  and  C19_29 
ROOT
HETATM    1  C7  UNL     1      -4.358  34.410   7.855  1.00  0.00     0.112 A 
HETATM    2  N2  UNL     1      -4.751  33.127   7.871  1.00  0.00    -0.345 N 
ATOM      3  H2  UNL     1      -5.213  32.732   7.052  1.00  0.00     0.167 HD
HETATM    4  C8  UNL     1      -4.545  32.360   8.940  1.00  0.00     0.015 A 
HETATM    5  C9  UNL     1      -4.988  30.926   8.937  1.00  0.00     0.069 C 
HETATM    6  C10 UNL     1      -3.922  32.881  10.055  1.00  0.00    -0.013 A 
HETATM    7  C11 UNL     1      -3.742  31.982  11.233  1.00  0.00     0.052 C 
HETATM    8  C12 UNL     1      -3.497  34.216  10.073  1.00  0.00     0.046 A 
HETATM    9  C18 UNL     1      -3.722  35.018   8.939  1.00  0.00     0.017 A 
ENDROOT
BRANCH   1  10
HETATM   10  N1  UNL     1      -4.584  35.162   6.650  1.00  0.00    -0.367 N 
HETATM   11  C6  UNL     1      -5.893  35.758   6.486  1.00  0.00     0.125 C 
HETATM   12  C5  UNL     1      -6.588  35.238   5.247  1.00  0.00     0.034 C 
HETATM   13  C4  UNL     1      -5.643  34.705   4.217  1.00  0.00     0.088 C 
HETATM   14  C24 UNL     1      -4.298  35.376   4.233  1.00  0.00     0.034 C 
HETATM   15  C23 UNL     1      -3.634  35.344   5.602  1.00  0.00     0.125 C 
BRANCH  13  16
HETATM   16  C3  UNL     1      -6.201  34.889   2.855  1.00  0.00     0.263 C 
HETATM   17  O2  UNL     1      -6.295  36.025   2.349  1.00  0.00    -0.265 OA
BRANCH  16  18
HETATM   18  O1  UNL     1      -6.626  33.790   2.135  1.00  0.00    -0.322 OA
BRANCH  18  19
HETATM   19  C2  UNL     1      -7.930  33.255   2.224  1.00  0.00     0.174 C 
HETATM   20  C1  UNL     1      -8.184  32.162   1.221  1.00  0.00     0.034 C 
ENDBRANCH  18  19
ENDBRANCH  16  18
ENDBRANCH  13  16
ENDBRANCH   1  10
BRANCH   9  21
HETATM   21  C19 UNL     1      -3.305  36.390   8.876  1.00  0.00     0.025 C 
HETATM   22  C20 UNL     1      -1.830  36.653   8.867  1.00  0.00     0.009 C 
HETATM   23  C21 UNL     1      -2.158  38.046   9.484  1.00  0.00     0.001 C 
HETATM   24  C22 UNL     1      -3.355  37.301  10.058  1.00  0.00     0.009 C 
ENDBRANCH   9  21
BRANCH   8  25
HETATM   25  N3  UNL     1      -2.881  34.622  11.071  1.00  0.00    -0.384 N 
ATOM     26  H3  UNL     1      -3.405  35.440  11.385  1.00  0.00     0.160 HD
BRANCH  25  27
HETATM   27  C13 UNL     1      -1.851  34.510  11.948  1.00  0.00     0.085 C 
HETATM   28  C14 UNL     1      -0.429  34.456  11.313  1.00  0.00     0.052 C 
HETATM   29  C15 UNL     1       0.515  34.156  12.453  1.00  0.00     0.234 C 
HETATM   30  N4  UNL     1       0.545  35.264  13.394  1.00  0.00    -0.075 N 
HETATM   31  C16 UNL     1      -0.777  35.433  13.973  1.00  0.00     0.234 C 
ATOM     32  H42 UNL     1       1.267  35.150  14.105  1.00  0.00     0.277 HD
ATOM     33  H41 UNL     1       0.895  36.124  12.971  1.00  0.00     0.277 HD
HETATM   34  C17 UNL     1      -1.743  35.744  12.878  1.00  0.00     0.052 C 
ENDBRANCH  25  27
ENDBRANCH   8  25
TORSDOF 7
ENDMDL
MODEL 2
REMARK VINA RESULT: -6.091430484      3.459      8.032
REMARK  7 active torsions:
REMARK  status: ('A' for Active; 'I' for Inactive)
REMARK    1  A    between atoms: C2_2  and  O1_3 
REMARK    2  A    between atoms: O1_3  and  C3_4 
REMARK    3  A    between atoms: C3_4  and  C4_6 
REMARK    4  A    between atoms: N1_9  and  C7_10 
REMARK    5  A    between atoms: C12_17  and  N3_18 
REMARK    6  A    between atoms: N3_18  and  C13_20 
REMARK    7  A    between atoms: C18_28  and  C19_29 
ROOT
HETATM    1  C7  UNL     1      -3.495  37.346   7.747  1.00  0.00     0.112 A 
HETATM    2  N2  UNL     1      -2.770  38.463   7.575  1.00  0.00    -0.345 N 
ATOM      3  H2  UNL     1      -2.223  38.832   8.353  1.00  0.00     0.167 HD
HETATM    4  C8  UNL     1      -2.753  39.096   6.404  1.00  0.00     0.015 A 
HETATM    5  C9  UNL     1      -1.934  40.340   6.230  1.00  0.00     0.069 C 
HETATM    6  C10 UNL     1      -3.489  38.608   5.343  1.00  0.00    -0.013 A 
HETATM    7  C11 UNL     1      -3.453  39.374   4.063  1.00  0.00     0.052 C 
HETATM    8  C12 UNL     1      -4.255  37.444   5.486  1.00  0.00     0.046 A 
HETATM    9  C18 UNL     1      -4.268  36.785   6.729  1.00  0.00     0.017 A 
ENDROOT
BRANCH   1  10
HETATM   10  N1  UNL     1      -3.432  36.701   9.031  1.00  0.00    -0.367 N 
HETATM   11  C6  UNL     1      -2.227  35.956   9.330  1.00  0.00     0.125 C 
HETATM   12  C5  UNL     1      -2.529  34.496   9.593  1.00  0.00     0.034 C 
HETATM   13  C4  UNL     1      -3.939  34.252  10.028  1.00  0.00     0.088 C 
HETATM   14  C24 UNL     1      -4.544  35.406  10.779  1.00  0.00     0.034 C 
HETATM   15  C23 UNL     1      -4.465  36.719  10.014  1.00  0.00     0.125 C 
BRANCH  13  16
HETATM   16  C3  UNL     1      -4.010  33.071  10.922  1.00  0.00     0.263 C 
HETATM   17  O2  UNL     1      -3.066  32.790  11.688  1.00  0.00    -0.265 OA
BRANCH  16  18
HETATM   18  O1  UNL     1      -5.133  32.267  10.907  1.00  0.00    -0.322 OA
BRANCH  18  19
HETATM   19  C2  UNL     1      -5.171  30.990  10.305  1.00  0.00     0.174 C 
HETATM   20  C1  UNL     1      -5.124  31.051   8.802  1.00  0.00     0.034 C 
ENDBRANCH  18  19
ENDBRANCH  16  18
ENDBRANCH  13  16
ENDBRANCH   1  10
BRANCH   9  21
HETATM   21  C19 UNL     1      -5.018  35.580   6.950  1.00  0.00     0.025 C 
HETATM   22  C20 UNL     1      -4.495  34.328   6.317  1.00  0.00     0.009 C 
HETATM   23  C21 UNL     1      -5.962  33.803   6.337  1.00  0.00     0.001 C 
HETATM   24  C22 UNL     1      -6.295  35.286   6.234  1.00  0.00     0.009 C 
ENDBRANCH   9  21
BRANCH   8  25
HETATM   25  N3  UNL     1      -4.847  37.005   4.488  1.00  0.00    -0.384 N 
ATOM     26  H3  UNL     1      -5.834  37.011   4.745  1.00  0.00     0.160 HD
BRANCH  25  27
HETATM   27  C13 UNL     1      -4.821  36.519   3.220  1.00  0.00     0.085 C 
HETATM   28  C14 UNL     1      -3.802  35.371   2.959  1.00  0.00     0.052 C 
HETATM   29  C15 UNL     1      -3.834  35.128   1.469  1.00  0.00     0.234 C 
HETATM   30  N4  UNL     1      -5.130  34.605   1.065  1.00  0.00    -0.075 N 
HETATM   31  C16 UNL     1      -6.154  35.595   1.355  1.00  0.00     0.234 C 
ATOM     32  H42 UNL     1      -5.141  34.310   0.089  1.00  0.00     0.277 HD
ATOM     33  H41 UNL     1      -5.333  33.701   1.492  1.00  0.00     0.277 HD
HETATM   34  C17 UNL     1      -6.164  35.856   2.824  1.00  0.00     0.052 C 
ENDBRANCH  25  27
ENDBRANCH   8  25
TORSDOF 7
ENDMDL
MODEL 3
REMARK VINA RESULT: -6.074355584      9.106     12.944
REMARK  7 active torsions:
REMARK  status: ('A' for Active; 'I' for Inactive)
REMARK    1  A    between atoms: C2_2  and  O1_3 
REMARK    2  A    between atoms: O1_3  and  C3_4 
REMARK    3  A    between atoms: C3_4  and  C4_6 
REMARK    4  A    between atoms: N1_9  and  C7_10 
REMARK    5  A    between atoms: C12_17  and  N3_18 
REMARK    6  A    between atoms: N3_18  and  C13_20 
REMARK    7  A    between atoms: C18_28  and  C19_29 
ROOT
HETATM    1  C7  UNL     1      -5.046  34.520  -5.000  1.00  0.00     0.112 A 
HETATM    2  N2  UNL     1      -3.771  34.124  -4.861  1.00  0.00    -0.345 N 
ATOM      3  H2  UNL     1      -3.100  34.320  -5.604  1.00  0.00     0.167 HD
HETATM    4  C8  UNL     1      -3.369  33.480  -3.767  1.00  0.00     0.015 A 
HETATM    5  C9  UNL     1      -1.938  33.049  -3.629  1.00  0.00     0.069 C 
HETATM    6  C10 UNL     1      -4.266  33.209  -2.755  1.00  0.00    -0.013 A 
HETATM    7  C11 UNL     1      -3.763  32.461  -1.565  1.00  0.00     0.052 C 
HETATM    8  C12 UNL     1      -5.603  33.609  -2.865  1.00  0.00     0.046 A 
HETATM    9  C18 UNL     1      -6.019  34.286  -4.026  1.00  0.00     0.017 A 
ENDROOT
BRANCH   1  10
HETATM   10  N1  UNL     1      -5.394  35.242  -6.194  1.00  0.00    -0.367 N 
HETATM   11  C6  UNL     1      -4.839  36.570  -6.341  1.00  0.00     0.125 C 
HETATM   12  C5  UNL     1      -5.927  37.617  -6.446  1.00  0.00     0.034 C 
HETATM   13  C4  UNL     1      -7.234  37.067  -6.923  1.00  0.00     0.088 C 
HETATM   14  C24 UNL     1      -7.089  35.880  -7.834  1.00  0.00     0.034 C 
HETATM   15  C23 UNL     1      -6.255  34.762  -7.225  1.00  0.00     0.125 C 
BRANCH  13  16
HETATM   16  C3  UNL     1      -7.988  38.100  -7.675  1.00  0.00     0.263 C 
HETATM   17  O2  UNL     1      -7.561  38.543  -8.760  1.00  0.00    -0.265 OA
BRANCH  16  18
HETATM   18  O1  UNL     1      -9.180  38.581  -7.169  1.00  0.00    -0.322 OA
BRANCH  18  19
HETATM   19  C2  UNL     1      -9.903  37.944  -6.136  1.00  0.00     0.174 C 
HETATM   20  C1  UNL     1     -10.138  38.839  -4.949  1.00  0.00     0.034 C 
ENDBRANCH  18  19
ENDBRANCH  16  18
ENDBRANCH  13  16
ENDBRANCH   1  10
BRANCH   9  21
HETATM   21  C19 UNL     1      -7.369  34.739  -4.207  1.00  0.00     0.025 C 
HETATM   22  C20 UNL     1      -7.764  35.999  -3.500  1.00  0.00     0.009 C 
HETATM   23  C21 UNL     1      -9.226  35.461  -3.532  1.00  0.00     0.001 C 
HETATM   24  C22 UNL     1      -8.530  34.108  -3.512  1.00  0.00     0.009 C 
ENDBRANCH   9  21
BRANCH   8  25
HETATM   25  N3  UNL     1      -6.359  33.403  -1.902  1.00  0.00    -0.384 N 
ATOM     26  H3  UNL     1      -7.118  32.838  -2.282  1.00  0.00     0.160 HD
BRANCH  25  27
HETATM   27  C13 UNL     1      -6.667  33.564  -0.589  1.00  0.00     0.085 C 
HETATM   28  C14 UNL     1      -6.964  35.026  -0.142  1.00  0.00     0.052 C 
HETATM   29  C15 UNL     1      -7.101  34.972   1.361  1.00  0.00     0.234 C 
HETATM   30  N4  UNL     1      -8.274  34.198   1.739  1.00  0.00    -0.075 N 
HETATM   31  C16 UNL     1      -8.108  32.829   1.279  1.00  0.00     0.234 C 
ATOM     32  H42 UNL     1      -8.468  34.251   2.738  1.00  0.00     0.277 HD
ATOM     33  H41 UNL     1      -9.140  34.618   1.402  1.00  0.00     0.277 HD
HETATM   34  C17 UNL     1      -7.980  32.836  -0.208  1.00  0.00     0.052 C 
ENDBRANCH  25  27
ENDBRANCH   8  25
TORSDOF 7
ENDMDL
MODEL 4
REMARK VINA RESULT: -6.004014799      4.515     10.336
REMARK  7 active torsions:
REMARK  status: ('A' for Active; 'I' for Inactive)
REMARK    1  A    between atoms: C2_2  and  O1_3 
REMARK    2  A    between atoms: O1_3  and  C3_4 
REMARK    3  A    between atoms: C3_4  and  C4_6 
REMARK    4  A    between atoms: N1_9  and  C7_10 
REMARK    5  A    between atoms: C12_17  and  N3_18 
REMARK    6  A    between atoms: N3_18  and  C13_20 
REMARK    7  A    between atoms: C18_28  and  C19_29 
ROOT
HETATM    1  C7  UNL     1      -5.933  35.098   3.275  1.00  0.00     0.112 A 
HETATM    2  N2  UNL     1      -4.913  35.970   3.243  1.00  0.00    -0.345 N 
ATOM      3  H2  UNL     1      -4.513  36.309   4.118  1.00  0.00     0.167 HD
HETATM    4  C8  UNL     1      -4.416  36.401   2.085  1.00  0.00     0.015 A 
HETATM    5  C9  UNL     1      -3.273  37.373   2.069  1.00  0.00     0.069 C 
HETATM    6  C10 UNL     1      -4.948  35.951   0.894  1.00  0.00    -0.013 A 
HETATM    7  C11 UNL     1      -4.367  36.488  -0.372  1.00  0.00     0.052 C 
HETATM    8  C12 UNL     1      -6.011  35.039   0.890  1.00  0.00     0.046 A 
HETATM    9  C18 UNL     1      -6.531  34.594   2.119  1.00  0.00     0.017 A 
ENDROOT
BRANCH   1  10
HETATM   10  N1  UNL     1      -6.390  34.654   4.565  1.00  0.00    -0.367 N 
HETATM   11  C6  UNL     1      -6.313  35.609   5.650  1.00  0.00     0.125 C 
HETATM   12  C5  UNL     1      -5.426  35.106   6.768  1.00  0.00     0.034 C 
HETATM   13  C4  UNL     1      -5.288  33.616   6.791  1.00  0.00     0.088 C 
HETATM   14  C24 UNL     1      -6.494  32.894   6.256  1.00  0.00     0.034 C 
HETATM   15  C23 UNL     1      -6.888  33.350   4.858  1.00  0.00     0.125 C 
BRANCH  13  16
HETATM   16  C3  UNL     1      -5.077  33.135   8.178  1.00  0.00     0.263 C 
HETATM   17  O2  UNL     1      -4.397  33.795   8.989  1.00  0.00    -0.265 OA
BRANCH  16  18
HETATM   18  O1  UNL     1      -5.639  31.939   8.581  1.00  0.00    -0.322 OA
BRANCH  18  19
HETATM   19  C2  UNL     1      -4.954  30.977   9.355  1.00  0.00     0.174 C 
HETATM   20  C1  UNL     1      -5.311  31.040  10.816  1.00  0.00     0.034 C 
ENDBRANCH  18  19
ENDBRANCH  16  18
ENDBRANCH  13  16
ENDBRANCH   1  10
BRANCH   9  21
HETATM   21  C19 UNL     1      -7.611  33.650   2.197  1.00  0.00     0.025 C 
HETATM   22  C20 UNL     1      -7.451  32.370   1.437  1.00  0.00     0.009 C 
HETATM   23  C21 UNL     1      -9.007  32.305   1.381  1.00  0.00     0.001 C 
HETATM   24  C22 UNL     1      -8.885  33.822   1.438  1.00  0.00     0.009 C 
ENDBRANCH   9  21
BRANCH   8  25
HETATM   25  N3  UNL     1      -6.413  34.611  -0.203  1.00  0.00    -0.384 N 
ATOM     26  H3  UNL     1      -7.286  34.129   0.011  1.00  0.00     0.160 HD
BRANCH  25  27
HETATM   27  C13 UNL     1      -6.257  34.472  -1.545  1.00  0.00     0.085 C 
HETATM   28  C14 UNL     1      -5.292  33.336  -1.997  1.00  0.00     0.052 C 
HETATM   29  C15 UNL     1      -5.149  33.494  -3.492  1.00  0.00     0.234 C 
HETATM   30  N4  UNL     1      -6.415  33.224  -4.156  1.00  0.00    -0.075 N 
HETATM   31  C16 UNL     1      -7.399  34.200  -3.720  1.00  0.00     0.234 C 
ATOM     32  H42 UNL     1      -6.321  33.194  -5.171  1.00  0.00     0.277 HD
ATOM     33  H41 UNL     1      -6.731  32.264  -4.013  1.00  0.00     0.277 HD
HETATM   34  C17 UNL     1      -7.580  34.070  -2.244  1.00  0.00     0.052 C 
ENDBRANCH  25  27
ENDBRANCH   8  25
TORSDOF 7
ENDMDL
MODEL 5
REMARK VINA RESULT: -5.925386825      4.075      8.660
REMARK  7 active torsions:
REMARK  status: ('A' for Active; 'I' for Inactive)
REMARK    1  A    between atoms: C2_2  and  O1_3 
REMARK    2  A    between atoms: O1_3  and  C3_4 
REMARK    3  A    between atoms: C3_4  and  C4_6 
REMARK    4  A    between atoms: N1_9  and  C7_10 
REMARK    5  A    between atoms: C12_17  and  N3_18 
REMARK    6  A    between atoms: N3_18  and  C13_20 
REMARK    7  A    between atoms: C18_28  and  C19_29 
ROOT
HETATM    1  C7  UNL     1      -6.756  33.976   4.046  1.00  0.00     0.112 A 
HETATM    2  N2  UNL     1      -7.725  33.316   3.391  1.00  0.00    -0.345 N 
ATOM      3  H2  UNL     1      -8.376  32.732   3.913  1.00  0.00     0.167 HD
HETATM    4  C8  UNL     1      -7.847  33.414   2.069  1.00  0.00     0.015 A 
HETATM    5  C9  UNL     1      -8.938  32.672   1.354  1.00  0.00     0.069 C 
HETATM    6  C10 UNL     1      -6.971  34.202   1.350  1.00  0.00    -0.013 A 
HETATM    7  C11 UNL     1      -7.141  34.252  -0.132  1.00  0.00     0.052 C 
HETATM    8  C12 UNL     1      -5.950  34.906   2.000  1.00  0.00     0.046 A 
HETATM    9  C18 UNL     1      -5.828  34.793   3.397  1.00  0.00     0.017 A 
ENDROOT
BRANCH   1  10
HETATM   10  N1  UNL     1      -6.713  33.847   5.478  1.00  0.00    -0.367 N 
HETATM   11  C6  UNL     1      -6.551  35.067   6.240  1.00  0.00     0.125 C 
HETATM   12  C5  UNL     1      -5.291  35.034   7.078  1.00  0.00     0.034 C 
HETATM   13  C4  UNL     1      -4.815  33.648   7.377  1.00  0.00     0.088 C 
HETATM   14  C24 UNL     1      -5.923  32.634   7.447  1.00  0.00     0.034 C 
HETATM   15  C23 UNL     1      -6.793  32.618   6.197  1.00  0.00     0.125 C 
BRANCH  13  16
HETATM   16  C3  UNL     1      -4.113  33.610   8.683  1.00  0.00     0.263 C 
HETATM   17  O2  UNL     1      -3.697  34.658   9.218  1.00  0.00    -0.265 OA
BRANCH  16  18
HETATM   18  O1  UNL     1      -3.914  32.400   9.319  1.00  0.00    -0.322 OA
BRANCH  18  19
HETATM   19  C2  UNL     1      -4.172  32.188  10.691  1.00  0.00     0.174 C 
HETATM   20  C1  UNL     1      -5.368  31.306  10.931  1.00  0.00     0.034 C 
ENDBRANCH  18  19
ENDBRANCH  16  18
ENDBRANCH  13  16
ENDBRANCH   1  10
BRANCH   9  21
HETATM   21  C19 UNL     1      -4.817  35.494   4.137  1.00  0.00     0.025 C 
HETATM   22  C20 UNL     1      -4.649  36.953   3.846  1.00  0.00     0.009 C 
HETATM   23  C21 UNL     1      -3.175  36.795   4.327  1.00  0.00     0.001 C 
HETATM   24  C22 UNL     1      -3.362  35.370   3.826  1.00  0.00     0.009 C 
ENDBRANCH   9  21
BRANCH   8  25
HETATM   25  N3  UNL     1      -5.229  35.654   1.322  1.00  0.00    -0.384 N 
ATOM     26  H3  UNL     1      -5.363  36.581   1.726  1.00  0.00     0.160 HD
BRANCH  25  27
HETATM   27  C13 UNL     1      -4.348  35.839   0.305  1.00  0.00     0.085 C 
HETATM   28  C14 UNL     1      -3.424  37.087   0.435  1.00  0.00     0.052 C 
HETATM   29  C15 UNL     1      -2.675  37.176  -0.874  1.00  0.00     0.234 C 
HETATM   30  N4  UNL     1      -1.783  36.038  -1.029  1.00  0.00    -0.075 N 
HETATM   31  C16 UNL     1      -2.571  34.818  -1.075  1.00  0.00     0.234 C 
ATOM     32  H42 UNL     1      -1.169  36.134  -1.838  1.00  0.00     0.277 HD
ATOM     33  H41 UNL     1      -1.064  36.007  -0.306  1.00  0.00     0.277 HD
HETATM   34  C17 UNL     1      -3.321  34.684   0.209  1.00  0.00     0.052 C 
ENDBRANCH  25  27
ENDBRANCH   8  25
TORSDOF 7
ENDMDL
