MODEL 1
REMARK VINA RESULT: -6.310053025      0.000      0.000
REMARK  6 active torsions:
REMARK  status: ('A' for Active; 'I' for Inactive)
REMARK    1  A    between atoms: C2_3  and  C3_4 
REMARK    2  A    between atoms: C3_4  and  C4_5 
REMARK    3  A    between atoms: C4_5  and  N2_6 
REMARK    4  A    between atoms: C9_11  and  C10_12 
REMARK    5  A    between atoms: C13_17  and  O1_18 
REMARK    6  A    between atoms: C17_24  and  N5_25 
ROOT
HETATM    1  N1  UNL     1      -2.866  32.325  11.828  1.00  0.00    -0.197 NA
HETATM    2  C1  UNL     1      -3.894  31.906  11.481  1.00  0.00     0.059 C 
HETATM    3  C2  UNL     1      -5.166  31.345  11.086  1.00  0.00     0.125 C 
ENDROOT
BRANCH   3   4
HETATM    4  C3  UNL     1      -5.310  30.972   9.663  1.00  0.00     0.034 C 
BRANCH   4   5
HETATM    5  C4  UNL     1      -4.511  31.619   8.619  1.00  0.00     0.129 C 
BRANCH   5   6
HETATM    6  N2  UNL     1      -5.127  32.564   7.735  1.00  0.00    -0.357 N 
HETATM    7  C5  UNL     1      -6.287  32.146   7.146  1.00  0.00     0.091 A 
HETATM    8  C6  UNL     1      -6.869  32.998   6.261  1.00  0.00     0.017 A 
HETATM    9  C7  UNL     1      -6.355  34.216   5.950  1.00  0.00     0.004 A 
HETATM   10  C8  UNL     1      -5.171  34.635   6.555  1.00  0.00     0.030 A 
HETATM   11  C9  UNL     1      -4.574  33.768   7.459  1.00  0.00     0.036 A 
BRANCH  11  12
HETATM   12  C10 UNL     1      -3.335  34.151   8.081  1.00  0.00     0.066 C 
HETATM   13  C11 UNL     1      -3.183  34.864   9.190  1.00  0.00     0.077 A 
HETATM   14  N3  UNL     1      -4.141  35.429  10.049  1.00  0.00    -0.347 N 
HETATM   15  S1  UNL     1      -1.627  35.307   9.953  1.00  0.00    -0.068 SA
HETATM   16  C12 UNL     1      -3.669  36.083  11.185  1.00  0.00     0.086 A 
ATOM     17  H3  UNL     1      -5.139  35.362   9.849  1.00  0.00     0.167 HD
HETATM   18  C13 UNL     1      -4.453  36.674  12.190  1.00  0.00     0.095 A 
HETATM   19  C23 UNL     1      -2.332  36.133  11.380  1.00  0.00     0.064 A 
HETATM   20  C14 UNL     1      -3.849  37.245  13.270  1.00  0.00     0.064 A 
HETATM   21  C15 UNL     1      -2.453  37.277  13.437  1.00  0.00     0.075 A 
HETATM   22  C16 UNL     1      -1.942  37.987  14.595  1.00  0.00     0.102 C 
HETATM   23  C17 UNL     1      -1.670  36.712  12.480  1.00  0.00     0.071 A 
HETATM   24  N4  UNL     1      -1.572  38.572  15.506  1.00  0.00    -0.191 NA
BRANCH  18  25
HETATM   25  O1  UNL     1      -5.852  36.690  12.105  1.00  0.00    -0.358 OA
ATOM     26  H1  UNL     1      -6.333  37.507  12.052  1.00  0.00     0.217 HD
ENDBRANCH  18  25
BRANCH  23  27
HETATM   27  N5  UNL     1      -0.280  36.586  12.619  1.00  0.00    -0.378 N 
HETATM   28  C18 UNL     1       0.604  37.615  12.019  1.00  0.00     0.123 C 
HETATM   29  C19 UNL     1       1.973  37.553  12.716  1.00  0.00     0.020 C 
HETATM   30  C20 UNL     1       1.849  37.308  14.184  1.00  0.00     0.003 C 
HETATM   31  C21 UNL     1       1.367  35.876  14.338  1.00  0.00     0.020 C 
HETATM   32  C22 UNL     1       0.466  35.503  13.177  1.00  0.00     0.123 C 
ENDBRANCH  23  27
ENDBRANCH  11  12
ENDBRANCH   5   6
ENDBRANCH   4   5
ENDBRANCH   3   4
TORSDOF 6
ENDMDL
MODEL 2
REMARK VINA RESULT: -6.257350837      5.407      9.821
REMARK  6 active torsions:
REMARK  status: ('A' for Active; 'I' for Inactive)
REMARK    1  A    between atoms: C2_3  and  C3_4 
REMARK    2  A    between atoms: C3_4  and  C4_5 
REMARK    3  A    between atoms: C4_5  and  N2_6 
REMARK    4  A    between atoms: C9_11  and  C10_12 
REMARK    5  A    between atoms: C13_17  and  O1_18 
REMARK    6  A    between atoms: C17_24  and  N5_25 
ROOT
HETATM    1  N1  UNL     1      -5.254  37.225   9.505  1.00  0.00    -0.197 NA
HETATM    2  C1  UNL     1      -4.765  36.315  10.038  1.00  0.00     0.059 C 
HETATM    3  C2  UNL     1      -4.138  35.217  10.738  1.00  0.00     0.125 C 
ENDROOT
BRANCH   3   4
HETATM    4  C3  UNL     1      -3.146  34.428   9.976  1.00  0.00     0.034 C 
BRANCH   4   5
HETATM    5  C4  UNL     1      -3.335  34.133   8.554  1.00  0.00     0.129 C 
BRANCH   5   6
HETATM    6  N2  UNL     1      -4.460  33.350   8.133  1.00  0.00    -0.357 N 
HETATM    7  C5  UNL     1      -4.611  32.151   8.770  1.00  0.00     0.091 A 
HETATM    8  C6  UNL     1      -5.638  31.361   8.357  1.00  0.00     0.017 A 
HETATM    9  C7  UNL     1      -6.495  31.711   7.363  1.00  0.00     0.004 A 
HETATM   10  C8  UNL     1      -6.333  32.937   6.719  1.00  0.00     0.030 A 
HETATM   11  C9  UNL     1      -5.287  33.745   7.136  1.00  0.00     0.036 A 
BRANCH  11  12
HETATM   12  C10 UNL     1      -5.069  35.003   6.475  1.00  0.00     0.066 C 
HETATM   13  C11 UNL     1      -5.349  35.304   5.213  1.00  0.00     0.077 A 
HETATM   14  N3  UNL     1      -5.916  34.520   4.194  1.00  0.00    -0.347 N 
HETATM   15  S1  UNL     1      -5.085  36.887   4.422  1.00  0.00    -0.068 SA
HETATM   16  C12 UNL     1      -6.145  35.140   2.967  1.00  0.00     0.086 A 
ATOM     17  H3  UNL     1      -6.152  33.540   4.347  1.00  0.00     0.167 HD
HETATM   18  C13 UNL     1      -6.740  34.556   1.838  1.00  0.00     0.095 A 
HETATM   19  C23 UNL     1      -5.803  36.443   2.840  1.00  0.00     0.064 A 
HETATM   20  C14 UNL     1      -6.938  35.302   0.714  1.00  0.00     0.064 A 
HETATM   21  C15 UNL     1      -6.568  36.655   0.622  1.00  0.00     0.075 A 
HETATM   22  C16 UNL     1      -6.764  37.308  -0.660  1.00  0.00     0.102 C 
HETATM   23  C17 UNL     1      -5.990  37.248   1.700  1.00  0.00     0.071 A 
HETATM   24  N4  UNL     1      -6.911  37.786  -1.690  1.00  0.00    -0.191 NA
BRANCH  18  25
HETATM   25  O1  UNL     1      -7.138  33.211   1.840  1.00  0.00    -0.358 OA
ATOM     26  H1  UNL     1      -6.507  32.510   1.733  1.00  0.00     0.217 HD
ENDBRANCH  18  25
BRANCH  23  27
HETATM   27  N5  UNL     1      -5.702  38.620   1.744  1.00  0.00    -0.378 N 
HETATM   28  C18 UNL     1      -4.344  39.087   1.369  1.00  0.00     0.123 C 
HETATM   29  C19 UNL     1      -4.423  40.579   1.004  1.00  0.00     0.020 C 
HETATM   30  C20 UNL     1      -5.664  40.909   0.241  1.00  0.00     0.003 C 
HETATM   31  C21 UNL     1      -6.815  40.778   1.222  1.00  0.00     0.020 C 
HETATM   32  C22 UNL     1      -6.517  39.687   2.231  1.00  0.00     0.123 C 
ENDBRANCH  23  27
ENDBRANCH  11  12
ENDBRANCH   5   6
ENDBRANCH   4   5
ENDBRANCH   3   4
TORSDOF 6
ENDMDL
MODEL 3
REMARK VINA RESULT: -6.239692924      8.123     12.047
REMARK  6 active torsions:
REMARK  status: ('A' for Active; 'I' for Inactive)
REMARK    1  A    between atoms: C2_3  and  C3_4 
REMARK    2  A    between atoms: C3_4  and  C4_5 
REMARK    3  A    between atoms: C4_5  and  N2_6 
REMARK    4  A    between atoms: C9_11  and  C10_12 
REMARK    5  A    between atoms: C13_17  and  O1_18 
REMARK    6  A    between atoms: C17_24  and  N5_25 
ROOT
HETATM    1  N1  UNL     1      -4.607  33.155  -1.217  1.00  0.00    -0.197 NA
HETATM    2  C1  UNL     1      -4.821  33.195  -2.359  1.00  0.00     0.059 C 
HETATM    3  C2  UNL     1      -5.065  33.195  -3.784  1.00  0.00     0.125 C 
ENDROOT
BRANCH   3   4
HETATM    4  C3  UNL     1      -4.467  34.307  -4.555  1.00  0.00     0.034 C 
BRANCH   4   5
HETATM    5  C4  UNL     1      -5.120  35.615  -4.641  1.00  0.00     0.129 C 
BRANCH   5   6
HETATM    6  N2  UNL     1      -6.549  35.693  -4.728  1.00  0.00    -0.357 N 
HETATM    7  C5  UNL     1      -7.085  35.313  -5.926  1.00  0.00     0.091 A 
HETATM    8  C6  UNL     1      -8.434  35.425  -6.059  1.00  0.00     0.017 A 
HETATM    9  C7  UNL     1      -9.244  35.887  -5.073  1.00  0.00     0.004 A 
HETATM   10  C8  UNL     1      -8.689  36.272  -3.853  1.00  0.00     0.030 A 
HETATM   11  C9  UNL     1      -7.314  36.160  -3.713  1.00  0.00     0.036 A 
BRANCH  11  12
HETATM   12  C10 UNL     1      -6.700  36.576  -2.481  1.00  0.00     0.066 C 
HETATM   13  C11 UNL     1      -6.826  36.004  -1.290  1.00  0.00     0.077 A 
HETATM   14  N3  UNL     1      -7.560  34.873  -0.896  1.00  0.00    -0.347 N 
HETATM   15  S1  UNL     1      -6.032  36.533   0.223  1.00  0.00    -0.068 SA
HETATM   16  C12 UNL     1      -7.448  34.474   0.435  1.00  0.00     0.086 A 
ATOM     17  H3  UNL     1      -8.149  34.365  -1.556  1.00  0.00     0.167 HD
HETATM   18  C13 UNL     1      -8.057  33.352   1.020  1.00  0.00     0.095 A 
HETATM   19  C23 UNL     1      -6.650  35.199   1.250  1.00  0.00     0.064 A 
HETATM   20  C14 UNL     1      -7.821  33.062   2.331  1.00  0.00     0.064 A 
HETATM   21  C15 UNL     1      -6.983  33.842   3.147  1.00  0.00     0.075 A 
HETATM   22  C16 UNL     1      -6.883  33.464   4.546  1.00  0.00     0.102 C 
HETATM   23  C17 UNL     1      -6.380  34.933   2.607  1.00  0.00     0.071 A 
HETATM   24  N4  UNL     1      -6.844  33.151   5.646  1.00  0.00    -0.191 NA
BRANCH  18  25
HETATM   25  O1  UNL     1      -8.909  32.519   0.282  1.00  0.00    -0.358 OA
ATOM     26  H1  UNL     1      -9.757  32.824  -0.019  1.00  0.00     0.217 HD
ENDBRANCH  18  25
BRANCH  23  27
HETATM   27  N5  UNL     1      -5.434  35.697   3.305  1.00  0.00    -0.378 N 
HETATM   28  C18 UNL     1      -5.879  36.913   4.032  1.00  0.00     0.123 C 
HETATM   29  C19 UNL     1      -4.824  37.263   5.094  1.00  0.00     0.020 C 
HETATM   30  C20 UNL     1      -4.266  36.047   5.758  1.00  0.00     0.003 C 
HETATM   31  C21 UNL     1      -3.419  35.341   4.714  1.00  0.00     0.020 C 
HETATM   32  C22 UNL     1      -4.014  35.550   3.335  1.00  0.00     0.123 C 
ENDBRANCH  23  27
ENDBRANCH  11  12
ENDBRANCH   5   6
ENDBRANCH   4   5
ENDBRANCH   3   4
TORSDOF 6
ENDMDL
MODEL 4
REMARK VINA RESULT: -6.201909415      5.432     10.560
REMARK  6 active torsions:
REMARK  status: ('A' for Active; 'I' for Inactive)
REMARK    1  A    between atoms: C2_3  and  C3_4 
REMARK    2  A    between atoms: C3_4  and  C4_5 
REMARK    3  A    between atoms: C4_5  and  N2_6 
REMARK    4  A    between atoms: C9_11  and  C10_12 
REMARK    5  A    between atoms: C13_17  and  O1_18 
REMARK    6  A    between atoms: C17_24  and  N5_25 
ROOT
HETATM    1  N1  UNL     1      -6.392  31.737   7.349  1.00  0.00    -0.197 NA
HETATM    2  C1  UNL     1      -5.555  31.815   8.152  1.00  0.00     0.059 C 
HETATM    3  C2  UNL     1      -4.552  31.899   9.190  1.00  0.00     0.125 C 
ENDROOT
BRANCH   3   4
HETATM    4  C3  UNL     1      -3.824  33.182   9.300  1.00  0.00     0.034 C 
BRANCH   4   5
HETATM    5  C4  UNL     1      -3.829  34.161   8.210  1.00  0.00     0.129 C 
BRANCH   5   6
HETATM    6  N2  UNL     1      -4.515  35.409   8.379  1.00  0.00    -0.357 N 
HETATM    7  C5  UNL     1      -4.257  36.065   9.549  1.00  0.00     0.091 A 
HETATM    8  C6  UNL     1      -4.932  37.227   9.763  1.00  0.00     0.017 A 
HETATM    9  C7  UNL     1      -5.826  37.743   8.881  1.00  0.00     0.004 A 
HETATM   10  C8  UNL     1      -6.083  37.066   7.689  1.00  0.00     0.030 A 
HETATM   11  C9  UNL     1      -5.397  35.881   7.467  1.00  0.00     0.036 A 
BRANCH  11  12
HETATM   12  C10 UNL     1      -5.657  35.138   6.264  1.00  0.00     0.066 C 
HETATM   13  C11 UNL     1      -5.881  35.630   5.051  1.00  0.00     0.077 A 
HETATM   14  N3  UNL     1      -5.928  36.960   4.602  1.00  0.00    -0.347 N 
HETATM   15  S1  UNL     1      -6.182  34.678   3.566  1.00  0.00    -0.068 SA
HETATM   16  C12 UNL     1      -6.131  37.164   3.238  1.00  0.00     0.086 A 
ATOM     17  H3  UNL     1      -5.818  37.743   5.247  1.00  0.00     0.167 HD
HETATM   18  C13 UNL     1      -6.165  38.403   2.579  1.00  0.00     0.095 A 
HETATM   19  C23 UNL     1      -6.271  36.076   2.447  1.00  0.00     0.064 A 
HETATM   20  C14 UNL     1      -6.331  38.446   1.227  1.00  0.00     0.064 A 
HETATM   21  C15 UNL     1      -6.474  37.291   0.438  1.00  0.00     0.075 A 
HETATM   22  C16 UNL     1      -6.723  37.484  -0.979  1.00  0.00     0.102 C 
HETATM   23  C17 UNL     1      -6.444  36.077   1.050  1.00  0.00     0.071 A 
HETATM   24  N4  UNL     1      -6.939  37.672  -2.087  1.00  0.00    -0.191 NA
BRANCH  18  25
HETATM   25  O1  UNL     1      -6.032  39.607   3.286  1.00  0.00    -0.358 OA
ATOM     26  H1  UNL     1      -5.922  40.434   2.834  1.00  0.00     0.217 HD
ENDBRANCH  18  25
BRANCH  23  27
HETATM   27  N5  UNL     1      -6.454  34.870   0.335  1.00  0.00    -0.378 N 
HETATM   28  C18 UNL     1      -7.616  33.957   0.471  1.00  0.00     0.123 C 
HETATM   29  C19 UNL     1      -7.642  33.012  -0.742  1.00  0.00     0.020 C 
HETATM   30  C20 UNL     1      -7.267  33.708  -2.008  1.00  0.00     0.003 C 
HETATM   31  C21 UNL     1      -5.785  34.020  -1.901  1.00  0.00     0.020 C 
HETATM   32  C22 UNL     1      -5.414  34.294  -0.457  1.00  0.00     0.123 C 
ENDBRANCH  23  27
ENDBRANCH  11  12
ENDBRANCH   5   6
ENDBRANCH   4   5
ENDBRANCH   3   4
TORSDOF 6
ENDMDL
MODEL 5
REMARK VINA RESULT: -6.075172430      5.866     10.271
REMARK  6 active torsions:
REMARK  status: ('A' for Active; 'I' for Inactive)
REMARK    1  A    between atoms: C2_3  and  C3_4 
REMARK    2  A    between atoms: C3_4  and  C4_5 
REMARK    3  A    between atoms: C4_5  and  N2_6 
REMARK    4  A    between atoms: C9_11  and  C10_12 
REMARK    5  A    between atoms: C13_17  and  O1_18 
REMARK    6  A    between atoms: C17_24  and  N5_25 
ROOT
HETATM    1  N1  UNL     1      -2.215  36.406   4.450  1.00  0.00    -0.197 NA
HETATM    2  C1  UNL     1      -2.184  35.497   5.175  1.00  0.00     0.059 C 
HETATM    3  C2  UNL     1      -2.184  34.343   6.046  1.00  0.00     0.125 C 
ENDROOT
BRANCH   3   4
HETATM    4  C3  UNL     1      -2.444  34.599   7.479  1.00  0.00     0.034 C 
BRANCH   4   5
HETATM    5  C4  UNL     1      -3.802  34.819   7.982  1.00  0.00     0.129 C 
BRANCH   5   6
HETATM    6  N2  UNL     1      -4.860  33.937   7.583  1.00  0.00    -0.357 N 
HETATM    7  C5  UNL     1      -4.854  32.708   8.180  1.00  0.00     0.091 A 
HETATM    8  C6  UNL     1      -5.813  31.829   7.785  1.00  0.00     0.017 A 
HETATM    9  C7  UNL     1      -6.751  32.120   6.847  1.00  0.00     0.004 A 
HETATM   10  C8  UNL     1      -6.749  33.376   6.243  1.00  0.00     0.030 A 
HETATM   11  C9  UNL     1      -5.773  34.276   6.643  1.00  0.00     0.036 A 
BRANCH  11  12
HETATM   12  C10 UNL     1      -5.719  35.572   6.021  1.00  0.00     0.066 C 
HETATM   13  C11 UNL     1      -5.875  35.849   4.732  1.00  0.00     0.077 A 
HETATM   14  N3  UNL     1      -6.128  35.000   3.642  1.00  0.00    -0.347 N 
HETATM   15  S1  UNL     1      -5.825  37.476   3.990  1.00  0.00    -0.068 SA
HETATM   16  C12 UNL     1      -6.302  35.600   2.396  1.00  0.00     0.086 A 
ATOM     17  H3  UNL     1      -6.182  33.988   3.758  1.00  0.00     0.167 HD
HETATM   18  C13 UNL     1      -6.606  34.943   1.192  1.00  0.00     0.095 A 
HETATM   19  C23 UNL     1      -6.213  36.947   2.321  1.00  0.00     0.064 A 
HETATM   20  C14 UNL     1      -6.790  35.669   0.053  1.00  0.00     0.064 A 
HETATM   21  C15 UNL     1      -6.689  37.071   0.016  1.00  0.00     0.075 A 
HETATM   22  C16 UNL     1      -6.830  37.710  -1.279  1.00  0.00     0.102 C 
HETATM   23  C17 UNL     1      -6.396  37.733   1.167  1.00  0.00     0.071 A 
HETATM   24  N4  UNL     1      -6.925  38.180  -2.318  1.00  0.00    -0.191 NA
BRANCH  18  25
HETATM   25  O1  UNL     1      -6.725  33.547   1.136  1.00  0.00    -0.358 OA
ATOM     26  H1  UNL     1      -7.454  33.097   1.547  1.00  0.00     0.217 HD
ENDBRANCH  18  25
BRANCH  23  27
HETATM   27  N5  UNL     1      -6.396  39.133   1.254  1.00  0.00    -0.378 N 
HETATM   28  C18 UNL     1      -7.673  39.841   1.516  1.00  0.00     0.123 C 
HETATM   29  C19 UNL     1      -7.353  41.242   2.065  1.00  0.00     0.020 C 
HETATM   30  C20 UNL     1      -6.194  41.228   3.006  1.00  0.00     0.003 C 
HETATM   31  C21 UNL     1      -4.963  40.947   2.163  1.00  0.00     0.020 C 
HETATM   32  C22 UNL     1      -5.325  40.043   1.001  1.00  0.00     0.123 C 
ENDBRANCH  23  27
ENDBRANCH  11  12
ENDBRANCH   5   6
ENDBRANCH   4   5
ENDBRANCH   3   4
TORSDOF 6
ENDMDL
