MODEL 1
REMARK VINA RESULT: -8.600407798      0.000      0.000
REMARK  8 active torsions:
REMARK  status: ('A' for Active; 'I' for Inactive)
REMARK    1  A    between atoms: C4_4  and  N1_5 
REMARK    2  A    between atoms: N1_5  and  C5_7 
REMARK    3  A    between atoms: C6_10  and  N3_11 
REMARK    4  A    between atoms: C7_13  and  C8_14 
REMARK    5  A    between atoms: C8_14  and  N4_15 
REMARK    6  A    between atoms: C13_23  and  N6_24 
REMARK    7  A    between atoms: N6_24  and  C14_26 
REMARK    8  A    between atoms: C17_29  and  N7_30 
ROOT
HETATM    1  C5  UNL     1      12.462  53.009  90.060  1.00  0.00     0.711 A 
HETATM    2  N2  UNL     1      12.051  51.784  90.395  1.00  0.00    -0.021 N 
ATOM      3  H2  UNL     1      12.148  51.472  91.361  1.00  0.00     0.203 HD
HETATM    4  C6  UNL     1      11.495  50.930  89.459  1.00  0.00     0.711 A 
HETATM    5  N5  UNL     1      11.409  51.423  88.227  1.00  0.00    -0.021 N 
ATOM      6  H5  UNL     1      11.004  50.816  87.513  1.00  0.00     0.203 HD
HETATM    7  C13 UNL     1      11.810  52.656  87.831  1.00  0.00     0.711 A 
HETATM    8  N8  UNL     1      12.339  53.438  88.784  1.00  0.00    -0.021 N 
ATOM      9  H8  UNL     1      12.656  54.376  88.541  1.00  0.00     0.203 HD
ENDROOT
BRANCH   7  10
HETATM   10  N6  UNL     1      11.659  52.969  86.620  1.00  0.00    -0.191 N 
ATOM     11  H6  UNL     1      10.937  53.671  86.462  1.00  0.00     0.184 HD
BRANCH  10  12
HETATM   12  C14 UNL     1      12.285  52.544  85.465  1.00  0.00     0.049 A 
HETATM   13  C15 UNL     1      11.755  51.551  84.673  1.00  0.00     0.032 A 
HETATM   14  C16 UNL     1      12.363  51.113  83.521  1.00  0.00     0.031 A 
HETATM   15  C17 UNL     1      13.572  51.670  83.095  1.00  0.00     0.030 A 
HETATM   16  C23 UNL     1      14.110  52.661  83.875  1.00  0.00     0.031 A 
HETATM   17  C24 UNL     1      13.472  53.087  85.040  1.00  0.00     0.032 A 
BRANCH  15  18
HETATM   18  N7  UNL     1      14.196  51.200  81.907  1.00  0.00    -0.381 N 
HETATM   19  C18 UNL     1      15.627  51.233  81.786  1.00  0.00     0.123 C 
HETATM   20  C19 UNL     1      15.913  51.815  80.391  1.00  0.00     0.020 C 
HETATM   21  C20 UNL     1      15.388  50.865  79.366  1.00  0.00     0.003 C 
HETATM   22  C21 UNL     1      14.385  49.865  79.925  1.00  0.00     0.020 C 
HETATM   23  C22 UNL     1      13.424  50.671  80.803  1.00  0.00     0.123 C 
ENDBRANCH  15  18
ENDBRANCH  10  12
ENDBRANCH   7  10
BRANCH   4  24
HETATM   24  N3  UNL     1      11.155  49.825  89.885  1.00  0.00    -0.203 N 
HETATM   25  C7  UNL     1      11.518  48.552  90.219  1.00  0.00     0.098 C 
ATOM     26  H3  UNL     1      10.155  49.891  90.073  1.00  0.00     0.183 HD
BRANCH  25  27
HETATM   27  C8  UNL     1      12.920  48.187  89.933  1.00  0.00     0.167 C 
BRANCH  27  28
HETATM   28  N4  UNL     1      13.129  47.161  88.972  1.00  0.00    -0.385 N 
HETATM   29  C9  UNL     1      13.781  47.504  87.768  1.00  0.00     0.148 C 
HETATM   30  C10 UNL     1      15.213  47.115  87.710  1.00  0.00     0.187 C 
HETATM   31  O1  UNL     1      15.715  46.426  88.769  1.00  0.00    -0.385 OA
HETATM   32  C11 UNL     1      14.899  45.534  89.395  1.00  0.00     0.212 C 
HETATM   33  C12 UNL     1      13.443  45.861  89.400  1.00  0.00     0.084 C 
ENDBRANCH  27  28
ENDBRANCH  25  27
ENDBRANCH   4  24
BRANCH   1  34
HETATM   34  N1  UNL     1      12.985  53.820  90.921  1.00  0.00    -0.191 N 
ATOM     35  H1  UNL     1      13.419  54.679  90.583  1.00  0.00     0.184 HD
BRANCH  34  36
HETATM   36  C4  UNL     1      12.978  53.564  92.312  1.00  0.00     0.049 A 
HETATM   37  C3  UNL     1      13.357  52.365  92.862  1.00  0.00     0.030 A 
HETATM   38  C2  UNL     1      13.330  52.173  94.244  1.00  0.00     0.002 A 
HETATM   39  C1  UNL     1      12.921  53.184  95.083  1.00  0.00     0.000 A 
HETATM   40  C26 UNL     1      12.533  54.407  94.550  1.00  0.00     0.002 A 
HETATM   41  C25 UNL     1      12.576  54.548  93.191  1.00  0.00     0.030 A 
ENDBRANCH  34  36
ENDBRANCH   1  34
TORSDOF 8
ENDMDL
MODEL 2
REMARK VINA RESULT: -8.570903358      3.173      4.632
REMARK  8 active torsions:
REMARK  status: ('A' for Active; 'I' for Inactive)
REMARK    1  A    between atoms: C4_4  and  N1_5 
REMARK    2  A    between atoms: N1_5  and  C5_7 
REMARK    3  A    between atoms: C6_10  and  N3_11 
REMARK    4  A    between atoms: C7_13  and  C8_14 
REMARK    5  A    between atoms: C8_14  and  N4_15 
REMARK    6  A    between atoms: C13_23  and  N6_24 
REMARK    7  A    between atoms: N6_24  and  C14_26 
REMARK    8  A    between atoms: C17_29  and  N7_30 
ROOT
HETATM    1  C5  UNL     1      11.925  53.409  89.579  1.00  0.00     0.711 A 
HETATM    2  N2  UNL     1      10.762  54.050  89.713  1.00  0.00    -0.021 N 
ATOM      3  H2  UNL     1      10.669  54.769  90.431  1.00  0.00     0.203 HD
HETATM    4  C6  UNL     1       9.681  53.761  88.900  1.00  0.00     0.711 A 
HETATM    5  N5  UNL     1       9.896  52.811  87.994  1.00  0.00    -0.021 N 
ATOM      6  H5  UNL     1       9.118  52.574  87.378  1.00  0.00     0.203 HD
HETATM    7  C13 UNL     1      11.054  52.129  87.813  1.00  0.00     0.711 A 
HETATM    8  N8  UNL     1      12.065  52.455  88.632  1.00  0.00    -0.021 N 
ATOM      9  H8  UNL     1      12.959  51.973  88.538  1.00  0.00     0.203 HD
ENDROOT
BRANCH   7  10
HETATM   10  N6  UNL     1      11.092  51.253  86.907  1.00  0.00    -0.191 N 
ATOM     11  H6  UNL     1      10.483  50.454  87.081  1.00  0.00     0.184 HD
BRANCH  10  12
HETATM   12  C14 UNL     1      11.800  51.168  85.725  1.00  0.00     0.049 A 
HETATM   13  C15 UNL     1      11.942  49.979  85.045  1.00  0.00     0.032 A 
HETATM   14  C16 UNL     1      12.643  49.874  83.868  1.00  0.00     0.031 A 
HETATM   15  C17 UNL     1      13.256  50.993  83.299  1.00  0.00     0.030 A 
HETATM   16  C23 UNL     1      13.122  52.184  83.967  1.00  0.00     0.031 A 
HETATM   17  C24 UNL     1      12.404  52.263  85.160  1.00  0.00     0.032 A 
BRANCH  15  18
HETATM   18  N7  UNL     1      13.988  50.868  82.087  1.00  0.00    -0.381 N 
HETATM   19  C18 UNL     1      15.416  51.026  82.090  1.00  0.00     0.123 C 
HETATM   20  C19 UNL     1      15.736  51.946  80.899  1.00  0.00     0.020 C 
HETATM   21  C20 UNL     1      15.356  51.238  79.641  1.00  0.00     0.003 C 
HETATM   22  C21 UNL     1      14.409  50.067  79.867  1.00  0.00     0.020 C 
HETATM   23  C22 UNL     1      13.332  50.570  80.832  1.00  0.00     0.123 C 
ENDBRANCH  15  18
ENDBRANCH  10  12
ENDBRANCH   7  10
BRANCH   4  24
HETATM   24  N3  UNL     1       8.661  54.415  89.119  1.00  0.00    -0.203 N 
HETATM   25  C7  UNL     1       7.355  54.425  89.518  1.00  0.00     0.098 C 
ATOM     26  H3  UNL     1       8.898  55.385  88.909  1.00  0.00     0.183 HD
BRANCH  25  27
HETATM   27  C8  UNL     1       6.754  53.101  89.781  1.00  0.00     0.167 C 
BRANCH  27  28
HETATM   28  N4  UNL     1       5.970  52.539  88.738  1.00  0.00    -0.385 N 
HETATM   29  C9  UNL     1       5.799  53.294  87.557  1.00  0.00     0.148 C 
HETATM   30  C10 UNL     1       6.655  52.865  86.422  1.00  0.00     0.187 C 
HETATM   31  O1  UNL     1       7.444  51.774  86.614  1.00  0.00    -0.385 OA
HETATM   32  C11 UNL     1       6.959  50.763  87.386  1.00  0.00     0.212 C 
HETATM   33  C12 UNL     1       6.032  51.160  88.487  1.00  0.00     0.084 C 
ENDBRANCH  27  28
ENDBRANCH  25  27
ENDBRANCH   4  24
BRANCH   1  34
HETATM   34  N1  UNL     1      12.945  53.666  90.332  1.00  0.00    -0.191 N 
ATOM     35  H1  UNL     1      13.794  54.029  89.899  1.00  0.00     0.184 HD
BRANCH  34  36
HETATM   36  C4  UNL     1      12.930  53.464  91.732  1.00  0.00     0.049 A 
HETATM   37  C3  UNL     1      12.914  52.222  92.316  1.00  0.00     0.030 A 
HETATM   38  C2  UNL     1      12.901  52.086  93.704  1.00  0.00     0.002 A 
HETATM   39  C1  UNL     1      12.902  53.197  94.517  1.00  0.00     0.000 A 
HETATM   40  C26 UNL     1      12.918  54.465  93.948  1.00  0.00     0.002 A 
HETATM   41  C25 UNL     1      12.931  54.548  92.584  1.00  0.00     0.030 A 
ENDBRANCH  34  36
ENDBRANCH   1  34
TORSDOF 8
ENDMDL
MODEL 3
REMARK VINA RESULT: -8.543813417      2.705      3.844
REMARK  8 active torsions:
REMARK  status: ('A' for Active; 'I' for Inactive)
REMARK    1  A    between atoms: C4_4  and  N1_5 
REMARK    2  A    between atoms: N1_5  and  C5_7 
REMARK    3  A    between atoms: C6_10  and  N3_11 
REMARK    4  A    between atoms: C7_13  and  C8_14 
REMARK    5  A    between atoms: C8_14  and  N4_15 
REMARK    6  A    between atoms: C13_23  and  N6_24 
REMARK    7  A    between atoms: N6_24  and  C14_26 
REMARK    8  A    between atoms: C17_29  and  N7_30 
ROOT
HETATM    1  C5  UNL     1      12.668  52.878  90.295  1.00  0.00     0.711 A 
HETATM    2  N2  UNL     1      11.969  51.790  90.626  1.00  0.00    -0.021 N 
ATOM      3  H2  UNL     1      12.013  51.442  91.585  1.00  0.00     0.203 HD
HETATM    4  C6  UNL     1      11.188  51.125  89.699  1.00  0.00     0.711 A 
HETATM    5  N5  UNL     1      11.192  51.650  88.477  1.00  0.00    -0.021 N 
ATOM      6  H5  UNL     1      10.626  51.182  87.769  1.00  0.00     0.203 HD
HETATM    7  C13 UNL     1      11.881  52.751  88.085  1.00  0.00     0.711 A 
HETATM    8  N8  UNL     1      12.619  53.352  89.030  1.00  0.00    -0.021 N 
ATOM      9  H8  UNL     1      13.156  54.185  88.789  1.00  0.00     0.203 HD
ENDROOT
BRANCH   7  10
HETATM   10  N6  UNL     1      11.779  53.119  86.884  1.00  0.00    -0.191 N 
ATOM     11  H6  UNL     1      11.138  53.899  86.745  1.00  0.00     0.184 HD
BRANCH  10  12
HETATM   12  C14 UNL     1      12.369  52.668  85.720  1.00  0.00     0.049 A 
HETATM   13  C15 UNL     1      11.854  51.610  85.005  1.00  0.00     0.032 A 
HETATM   14  C16 UNL     1      12.428  51.146  83.845  1.00  0.00     0.031 A 
HETATM   15  C17 UNL     1      13.583  51.741  83.331  1.00  0.00     0.030 A 
HETATM   16  C23 UNL     1      14.106  52.797  84.035  1.00  0.00     0.031 A 
HETATM   17  C24 UNL     1      13.504  53.248  85.210  1.00  0.00     0.032 A 
BRANCH  15  18
HETATM   18  N7  UNL     1      14.173  51.245  82.137  1.00  0.00    -0.381 N 
HETATM   19  C18 UNL     1      15.599  51.286  81.969  1.00  0.00     0.123 C 
HETATM   20  C19 UNL     1      15.835  51.832  80.550  1.00  0.00     0.020 C 
HETATM   21  C20 UNL     1      15.285  50.850  79.569  1.00  0.00     0.003 C 
HETATM   22  C21 UNL     1      14.310  49.857  80.187  1.00  0.00     0.020 C 
HETATM   23  C22 UNL     1      13.370  50.680  81.073  1.00  0.00     0.123 C 
ENDBRANCH  15  18
ENDBRANCH  10  12
ENDBRANCH   7  10
BRANCH   4  24
HETATM   24  N3  UNL     1      10.591  50.133  90.121  1.00  0.00    -0.203 N 
HETATM   25  C7  UNL     1       9.400  49.549  90.444  1.00  0.00     0.098 C 
ATOM     26  H3  UNL     1      11.310  49.435  90.317  1.00  0.00     0.183 HD
BRANCH  25  27
HETATM   27  C8  UNL     1       8.209  50.417  90.337  1.00  0.00     0.167 C 
BRANCH  27  28
HETATM   28  N4  UNL     1       7.831  51.127  91.509  1.00  0.00    -0.385 N 
HETATM   29  C9  UNL     1       8.115  50.539  92.760  1.00  0.00     0.148 C 
HETATM   30  C10 UNL     1       9.306  51.098  93.449  1.00  0.00     0.187 C 
HETATM   31  O1  UNL     1       9.941  52.139  92.848  1.00  0.00    -0.385 OA
HETATM   32  C11 UNL     1       9.184  53.047  92.174  1.00  0.00     0.212 C 
HETATM   33  C12 UNL     1       7.939  52.526  91.538  1.00  0.00     0.084 C 
ENDBRANCH  27  28
ENDBRANCH  25  27
ENDBRANCH   4  24
BRANCH   1  34
HETATM   34  N1  UNL     1      13.404  53.511  91.149  1.00  0.00    -0.191 N 
ATOM     35  H1  UNL     1      14.249  53.976  90.816  1.00  0.00     0.184 HD
BRANCH  34  36
HETATM   36  C4  UNL     1      13.085  53.585  92.525  1.00  0.00     0.049 A 
HETATM   37  C3  UNL     1      12.498  54.681  93.106  1.00  0.00     0.030 A 
HETATM   38  C2  UNL     1      12.206  54.695  94.471  1.00  0.00     0.002 A 
HETATM   39  C1  UNL     1      12.503  53.608  95.261  1.00  0.00     0.000 A 
HETATM   40  C26 UNL     1      13.098  52.487  94.694  1.00  0.00     0.002 A 
HETATM   41  C25 UNL     1      13.364  52.520  93.354  1.00  0.00     0.030 A 
ENDBRANCH  34  36
ENDBRANCH   1  34
TORSDOF 8
ENDMDL
MODEL 4
REMARK VINA RESULT: -8.541212691      3.344      9.443
REMARK  8 active torsions:
REMARK  status: ('A' for Active; 'I' for Inactive)
REMARK    1  A    between atoms: C4_4  and  N1_5 
REMARK    2  A    between atoms: N1_5  and  C5_7 
REMARK    3  A    between atoms: C6_10  and  N3_11 
REMARK    4  A    between atoms: C7_13  and  C8_14 
REMARK    5  A    between atoms: C8_14  and  N4_15 
REMARK    6  A    between atoms: C13_23  and  N6_24 
REMARK    7  A    between atoms: N6_24  and  C14_26 
REMARK    8  A    between atoms: C17_29  and  N7_30 
ROOT
HETATM    1  C5  UNL     1      12.400  51.380  84.017  1.00  0.00     0.711 A 
HETATM    2  N2  UNL     1      11.120  51.662  83.762  1.00  0.00    -0.021 N 
ATOM      3  H2  UNL     1      10.632  51.145  83.030  1.00  0.00     0.203 HD
HETATM    4  C6  UNL     1      10.443  52.639  84.469  1.00  0.00     0.711 A 
HETATM    5  N5  UNL     1      11.159  53.259  85.402  1.00  0.00    -0.021 N 
ATOM      6  H5  UNL     1      10.688  53.986  85.941  1.00  0.00     0.203 HD
HETATM    7  C13 UNL     1      12.458  53.014  85.704  1.00  0.00     0.711 A 
HETATM    8  N8  UNL     1      13.060  52.055  84.984  1.00  0.00    -0.021 N 
ATOM      9  H8  UNL     1      14.037  51.830  85.172  1.00  0.00     0.203 HD
ENDROOT
BRANCH   7  10
HETATM   10  N6  UNL     1      12.994  53.695  86.619  1.00  0.00    -0.191 N 
ATOM     11  H6  UNL     1      13.691  54.359  86.284  1.00  0.00     0.184 HD
BRANCH  10  12
HETATM   12  C14 UNL     1      12.818  53.715  87.988  1.00  0.00     0.049 A 
HETATM   13  C15 UNL     1      11.922  52.882  88.620  1.00  0.00     0.032 A 
HETATM   14  C16 UNL     1      11.732  52.888  89.981  1.00  0.00     0.031 A 
HETATM   15  C17 UNL     1      12.455  53.759  90.800  1.00  0.00     0.030 A 
HETATM   16  C23 UNL     1      13.351  54.594  90.182  1.00  0.00     0.031 A 
HETATM   17  C24 UNL     1      13.525  54.568  88.799  1.00  0.00     0.032 A 
BRANCH  15  18
HETATM   18  N7  UNL     1      12.240  53.763  92.205  1.00  0.00    -0.381 N 
HETATM   19  C18 UNL     1      11.116  53.063  92.762  1.00  0.00     0.123 C 
HETATM   20  C19 UNL     1      10.482  54.032  93.775  1.00  0.00     0.020 C 
HETATM   21  C20 UNL     1      11.463  54.273  94.874  1.00  0.00     0.003 C 
HETATM   22  C21 UNL     1      12.890  53.886  94.509  1.00  0.00     0.020 C 
HETATM   23  C22 UNL     1      13.139  54.450  93.108  1.00  0.00     0.123 C 
ENDBRANCH  15  18
ENDBRANCH  10  12
ENDBRANCH   7  10
BRANCH   4  24
HETATM   24  N3  UNL     1       9.267  52.811  84.142  1.00  0.00    -0.203 N 
HETATM   25  C7  UNL     1       7.953  52.826  84.513  1.00  0.00     0.098 C 
ATOM     26  H3  UNL     1       9.282  53.049  83.150  1.00  0.00     0.183 HD
BRANCH  25  27
HETATM   27  C8  UNL     1       7.673  52.408  85.902  1.00  0.00     0.167 C 
BRANCH  27  28
HETATM   28  N4  UNL     1       7.473  51.018  86.121  1.00  0.00    -0.385 N 
HETATM   29  C9  UNL     1       6.970  50.245  85.052  1.00  0.00     0.148 C 
HETATM   30  C10 UNL     1       7.994  49.442  84.336  1.00  0.00     0.187 C 
HETATM   31  O1  UNL     1       9.265  49.483  84.816  1.00  0.00    -0.385 OA
HETATM   32  C11 UNL     1       9.437  49.567  86.164  1.00  0.00     0.212 C 
HETATM   33  C12 UNL     1       8.379  50.302  86.919  1.00  0.00     0.084 C 
ENDBRANCH  27  28
ENDBRANCH  25  27
ENDBRANCH   4  24
BRANCH   1  34
HETATM   34  N1  UNL     1      13.049  50.471  83.366  1.00  0.00    -0.191 N 
ATOM     35  H1  UNL     1      12.963  49.500  83.664  1.00  0.00     0.184 HD
BRANCH  34  36
HETATM   36  C4  UNL     1      13.874  50.771  82.256  1.00  0.00     0.049 A 
HETATM   37  C3  UNL     1      15.014  51.529  82.344  1.00  0.00     0.030 A 
HETATM   38  C2  UNL     1      15.788  51.790  81.213  1.00  0.00     0.002 A 
HETATM   39  C1  UNL     1      15.421  51.291  79.984  1.00  0.00     0.000 A 
HETATM   40  C26 UNL     1      14.270  50.520  79.870  1.00  0.00     0.002 A 
HETATM   41  C25 UNL     1      13.545  50.291  81.005  1.00  0.00     0.030 A 
ENDBRANCH  34  36
ENDBRANCH   1  34
TORSDOF 8
ENDMDL
MODEL 5
REMARK VINA RESULT: -8.519375801      3.003      4.465
REMARK  8 active torsions:
REMARK  status: ('A' for Active; 'I' for Inactive)
REMARK    1  A    between atoms: C4_4  and  N1_5 
REMARK    2  A    between atoms: N1_5  and  C5_7 
REMARK    3  A    between atoms: C6_10  and  N3_11 
REMARK    4  A    between atoms: C7_13  and  C8_14 
REMARK    5  A    between atoms: C8_14  and  N4_15 
REMARK    6  A    between atoms: C13_23  and  N6_24 
REMARK    7  A    between atoms: N6_24  and  C14_26 
REMARK    8  A    between atoms: C17_29  and  N7_30 
ROOT
HETATM    1  C5  UNL     1      11.966  53.395  89.543  1.00  0.00     0.711 A 
HETATM    2  N2  UNL     1      10.809  54.036  89.722  1.00  0.00    -0.021 N 
ATOM      3  H2  UNL     1      10.735  54.736  90.460  1.00  0.00     0.203 HD
HETATM    4  C6  UNL     1       9.708  53.772  88.927  1.00  0.00     0.711 A 
HETATM    5  N5  UNL     1       9.897  52.846  87.991  1.00  0.00    -0.021 N 
ATOM      6  H5  UNL     1       9.104  52.627  87.388  1.00  0.00     0.203 HD
HETATM    7  C13 UNL     1      11.048  52.164  87.765  1.00  0.00     0.711 A 
HETATM    8  N8  UNL     1      12.079  52.465  88.568  1.00  0.00    -0.021 N 
ATOM      9  H8  UNL     1      12.968  51.983  88.440  1.00  0.00     0.203 HD
ENDROOT
BRANCH   7  10
HETATM   10  N6  UNL     1      11.061  51.313  86.836  1.00  0.00    -0.191 N 
ATOM     11  H6  UNL     1      10.408  50.542  86.975  1.00  0.00     0.184 HD
BRANCH  10  12
HETATM   12  C14 UNL     1      11.788  51.223  85.666  1.00  0.00     0.049 A 
HETATM   13  C15 UNL     1      11.905  50.042  84.969  1.00  0.00     0.032 A 
HETATM   14  C16 UNL     1      12.625  49.932  83.804  1.00  0.00     0.031 A 
HETATM   15  C17 UNL     1      13.285  51.040  83.265  1.00  0.00     0.030 A 
HETATM   16  C23 UNL     1      13.176  52.224  83.950  1.00  0.00     0.031 A 
HETATM   17  C24 UNL     1      12.438  52.307  85.131  1.00  0.00     0.032 A 
BRANCH  15  18
HETATM   18  N7  UNL     1      14.036  50.911  82.065  1.00  0.00    -0.381 N 
HETATM   19  C18 UNL     1      15.462  51.083  82.088  1.00  0.00     0.123 C 
HETATM   20  C19 UNL     1      15.790  51.995  80.893  1.00  0.00     0.020 C 
HETATM   21  C20 UNL     1      15.436  51.271  79.636  1.00  0.00     0.003 C 
HETATM   22  C21 UNL     1      14.497  50.093  79.859  1.00  0.00     0.020 C 
HETATM   23  C22 UNL     1      13.401  50.594  80.804  1.00  0.00     0.123 C 
ENDBRANCH  15  18
ENDBRANCH  10  12
ENDBRANCH   7  10
BRANCH   4  24
HETATM   24  N3  UNL     1       8.696  54.424  89.187  1.00  0.00    -0.203 N 
HETATM   25  C7  UNL     1       7.359  54.425  89.466  1.00  0.00     0.098 C 
ATOM     26  H3  UNL     1       8.988  55.402  89.202  1.00  0.00     0.183 HD
BRANCH  25  27
HETATM   27  C8  UNL     1       6.688  53.111  89.399  1.00  0.00     0.167 C 
BRANCH  27  28
HETATM   28  N4  UNL     1       6.729  52.314  90.574  1.00  0.00    -0.385 N 
HETATM   29  C9  UNL     1       7.386  51.066  90.505  1.00  0.00     0.148 C 
HETATM   30  C10 UNL     1       8.750  51.054  91.091  1.00  0.00     0.187 C 
HETATM   31  O1  UNL     1       9.186  52.200  91.678  1.00  0.00    -0.385 OA
HETATM   32  C11 UNL     1       8.277  52.961  92.348  1.00  0.00     0.212 C 
HETATM   33  C12 UNL     1       6.879  52.929  91.827  1.00  0.00     0.084 C 
ENDBRANCH  27  28
ENDBRANCH  25  27
ENDBRANCH   4  24
BRANCH   1  34
HETATM   34  N1  UNL     1      13.004  53.628  90.278  1.00  0.00    -0.191 N 
ATOM     35  H1  UNL     1      13.873  53.906  89.823  1.00  0.00     0.184 HD
BRANCH  34  36
HETATM   36  C4  UNL     1      12.982  53.512  91.688  1.00  0.00     0.049 A 
HETATM   37  C3  UNL     1      12.979  54.592  92.535  1.00  0.00     0.030 A 
HETATM   38  C2  UNL     1      12.957  54.414  93.918  1.00  0.00     0.002 A 
HETATM   39  C1  UNL     1      12.938  53.150  94.462  1.00  0.00     0.000 A 
HETATM   40  C26 UNL     1      12.941  52.041  93.624  1.00  0.00     0.002 A 
HETATM   41  C25 UNL     1      12.963  52.265  92.275  1.00  0.00     0.030 A 
ENDBRANCH  34  36
ENDBRANCH   1  34
TORSDOF 8
ENDMDL
