MODEL 1
REMARK VINA RESULT: -8.350726549      0.000      0.000
REMARK  8 active torsions:
REMARK  status: ('A' for Active; 'I' for Inactive)
REMARK    1  A    between atoms: C1_2  and  C2_4 
REMARK    2  A    between atoms: C10_14  and  N3_15 
REMARK    3  A    between atoms: N3_15  and  C11_17 
REMARK    4  A    between atoms: C11_17  and  C12_18 
REMARK    5  A    between atoms: C12_18  and  C13_19 
REMARK    6  A    between atoms: C13_19  and  N4_20 
REMARK    7  A    between atoms: C18_28  and  N6_29 
REMARK    8  A    between atoms: N6_29  and  C19_31 
ROOT
HETATM    1  C2  UNL     1       7.298  52.292  83.478  1.00  0.00     0.030 A 
HETATM    2  C3  UNL     1       8.549  52.384  82.913  1.00  0.00     0.019 A 
HETATM    3  C4  UNL     1       9.694  52.550  83.706  1.00  0.00     0.032 A 
HETATM    4  C5  UNL     1       9.622  52.630  85.078  1.00  0.00     0.069 A 
HETATM    5  C6  UNL     1       8.357  52.535  85.618  1.00  0.00    -0.004 A 
HETATM    6  C7  UNL     1       7.217  52.370  84.850  1.00  0.00     0.030 A 
HETATM    7  C8  UNL     1       8.520  52.637  86.985  1.00  0.00     0.064 A 
HETATM    8  C9  UNL     1       9.882  52.790  87.211  1.00  0.00     0.145 A 
HETATM    9  N2  UNL     1      10.597  52.933  88.344  1.00  0.00    -0.175 N 
ATOM     10  H2  UNL     1      10.107  52.939  89.239  1.00  0.00     0.186 HD
HETATM   11  C10 UNL     1      11.925  53.066  88.337  1.00  0.00     0.694 A 
HETATM   12  N5  UNL     1      12.566  53.059  87.161  1.00  0.00    -0.022 N 
ATOM     13  H5  UNL     1      13.580  53.162  87.152  1.00  0.00     0.203 HD
HETATM   14  C18 UNL     1      11.926  52.922  86.008  1.00  0.00     0.702 A 
HETATM   15  N7  UNL     1      10.559  52.787  86.063  1.00  0.00    -0.131 N 
ENDROOT
BRANCH  11  16
HETATM   16  N3  UNL     1      12.626  53.196  89.417  1.00  0.00    -0.225 N 
ATOM     17  H3  UNL     1      12.892  52.346  89.914  1.00  0.00     0.177 HD
BRANCH  16  18
HETATM   18  C11 UNL     1      13.055  54.444  89.962  1.00  0.00     0.140 C 
BRANCH  18  19
HETATM   19  C12 UNL     1      13.996  54.214  91.137  1.00  0.00     0.050 C 
BRANCH  19  20
HETATM   20  C13 UNL     1      13.227  53.362  92.131  1.00  0.00     0.274 C 
BRANCH  20  21
HETATM   21  N4  UNL     1      12.269  54.230  92.833  1.00  0.00     0.092 N 
HETATM   22  C14 UNL     1      11.024  53.485  92.911  1.00  0.00     0.298 C 
HETATM   23  C15 UNL     1      10.047  54.138  93.863  1.00  0.00     0.198 C 
HETATM   24  O2  UNL     1      10.650  55.151  94.605  1.00  0.00    -0.388 OA
HETATM   25  C16 UNL     1      11.777  54.613  95.216  1.00  0.00     0.198 C 
HETATM   26  C17 UNL     1      12.841  54.441  94.150  1.00  0.00     0.298 C 
ENDBRANCH  20  21
ENDBRANCH  19  20
ENDBRANCH  18  19
ENDBRANCH  16  18
ENDBRANCH  11  16
BRANCH  14  27
HETATM   27  N6  UNL     1      12.466  52.911  84.928  1.00  0.00    -0.217 N 
ATOM     28  H6  UNL     1      12.526  53.890  84.647  1.00  0.00     0.178 HD
BRANCH  27  29
HETATM   29  C19 UNL     1      13.050  52.188  83.877  1.00  0.00     0.123 C 
HETATM   30  C20 UNL     1      14.445  52.649  83.781  1.00  0.00    -0.005 C 
HETATM   31  C21 UNL     1      15.521  52.129  82.981  1.00  0.00    -0.028 C 
HETATM   32  C22 UNL     1      15.580  51.875  81.546  1.00  0.00     0.038 C 
HETATM   33  C23 UNL     1      14.844  50.587  81.040  1.00  0.00     0.083 C 
HETATM   34  C24 UNL     1      13.787  50.437  81.951  1.00  0.00    -0.183 C 
HETATM   35  C25 UNL     1      12.643  49.979  82.618  1.00  0.00     0.082 C 
HETATM   36  C26 UNL     1      12.656  50.786  83.969  1.00  0.00     0.041 C 
ENDBRANCH  27  29
ENDBRANCH  14  27
BRANCH   1  37
HETATM   37  C1  UNL     1       6.117  52.118  82.643  1.00  0.00     0.265 C 
HETATM   38  N1  UNL     1       5.958  51.086  81.712  1.00  0.00    -0.057 NA
HETATM   39  O1  UNL     1       5.186  52.953  82.771  1.00  0.00    -0.271 OA
ENDBRANCH   1  37
TORSDOF 8
ENDMDL
MODEL 2
REMARK VINA RESULT: -8.148098414      0.855      1.071
REMARK  8 active torsions:
REMARK  status: ('A' for Active; 'I' for Inactive)
REMARK    1  A    between atoms: C1_2  and  C2_4 
REMARK    2  A    between atoms: C10_14  and  N3_15 
REMARK    3  A    between atoms: N3_15  and  C11_17 
REMARK    4  A    between atoms: C11_17  and  C12_18 
REMARK    5  A    between atoms: C12_18  and  C13_19 
REMARK    6  A    between atoms: C13_19  and  N4_20 
REMARK    7  A    between atoms: C18_28  and  N6_29 
REMARK    8  A    between atoms: N6_29  and  C19_31 
ROOT
HETATM    1  C2  UNL     1       7.123  52.284  83.673  1.00  0.00     0.030 A 
HETATM    2  C3  UNL     1       8.338  52.354  83.033  1.00  0.00     0.019 A 
HETATM    3  C4  UNL     1       9.530  52.531  83.752  1.00  0.00     0.032 A 
HETATM    4  C5  UNL     1       9.540  52.644  85.124  1.00  0.00     0.069 A 
HETATM    5  C6  UNL     1       8.309  52.570  85.740  1.00  0.00    -0.004 A 
HETATM    6  C7  UNL     1       7.124  52.396  85.045  1.00  0.00     0.030 A 
HETATM    7  C8  UNL     1       8.553  52.704  87.091  1.00  0.00     0.064 A 
HETATM    8  C9  UNL     1       9.927  52.852  87.232  1.00  0.00     0.145 A 
HETATM    9  N2  UNL     1      10.710  53.017  88.318  1.00  0.00    -0.175 N 
ATOM     10  H2  UNL     1      10.274  53.048  89.239  1.00  0.00     0.186 HD
HETATM   11  C10 UNL     1      12.035  53.141  88.228  1.00  0.00     0.694 A 
HETATM   12  N5  UNL     1      12.604  53.102  87.016  1.00  0.00    -0.022 N 
ATOM     13  H5  UNL     1      13.617  53.197  86.945  1.00  0.00     0.203 HD
HETATM   14  C18 UNL     1      11.897  52.942  85.908  1.00  0.00     0.702 A 
HETATM   15  N7  UNL     1      10.534  52.818  86.047  1.00  0.00    -0.131 N 
ENDROOT
BRANCH  11  16
HETATM   16  N3  UNL     1      12.800  53.292  89.261  1.00  0.00    -0.225 N 
ATOM     17  H3  UNL     1      12.745  52.589  89.997  1.00  0.00     0.177 HD
BRANCH  16  18
HETATM   18  C11 UNL     1      13.716  54.372  89.443  1.00  0.00     0.140 C 
BRANCH  18  19
HETATM   19  C12 UNL     1      14.165  54.448  90.896  1.00  0.00     0.050 C 
BRANCH  19  20
HETATM   20  C13 UNL     1      12.894  54.511  91.726  1.00  0.00     0.274 C 
BRANCH  20  21
HETATM   21  N4  UNL     1      13.219  54.072  93.091  1.00  0.00     0.092 N 
HETATM   22  C14 UNL     1      12.148  54.562  93.943  1.00  0.00     0.298 C 
HETATM   23  C15 UNL     1      12.201  53.933  95.317  1.00  0.00     0.198 C 
HETATM   24  O2  UNL     1      13.106  52.875  95.364  1.00  0.00    -0.388 OA
HETATM   25  C16 UNL     1      12.779  51.994  94.339  1.00  0.00     0.198 C 
HETATM   26  C17 UNL     1      13.223  52.621  93.033  1.00  0.00     0.298 C 
ENDBRANCH  20  21
ENDBRANCH  19  20
ENDBRANCH  18  19
ENDBRANCH  16  18
ENDBRANCH  11  16
BRANCH  14  27
HETATM   27  N6  UNL     1      12.371  52.902  84.798  1.00  0.00    -0.217 N 
ATOM     28  H6  UNL     1      12.296  53.854  84.438  1.00  0.00     0.178 HD
BRANCH  27  29
HETATM   29  C19 UNL     1      12.977  52.164  83.769  1.00  0.00     0.123 C 
HETATM   30  C20 UNL     1      14.375  52.622  83.698  1.00  0.00    -0.005 C 
HETATM   31  C21 UNL     1      15.467  52.089  82.930  1.00  0.00    -0.028 C 
HETATM   32  C22 UNL     1      15.558  51.817  81.499  1.00  0.00     0.038 C 
HETATM   33  C23 UNL     1      14.830  50.524  80.994  1.00  0.00     0.083 C 
HETATM   34  C24 UNL     1      13.753  50.388  81.883  1.00  0.00    -0.183 C 
HETATM   35  C25 UNL     1      12.593  49.940  82.530  1.00  0.00     0.082 C 
HETATM   36  C26 UNL     1      12.578  50.764  83.870  1.00  0.00     0.041 C 
ENDBRANCH  27  29
ENDBRANCH  14  27
BRANCH   1  37
HETATM   37  C1  UNL     1       5.893  52.098  82.914  1.00  0.00     0.265 C 
HETATM   38  N1  UNL     1       5.807  51.367  81.725  1.00  0.00    -0.057 NA
HETATM   39  O1  UNL     1       4.847  52.633  83.361  1.00  0.00    -0.271 OA
ENDBRANCH   1  37
TORSDOF 8
ENDMDL
MODEL 3
REMARK VINA RESULT: -8.026544970      1.930      2.845
REMARK  8 active torsions:
REMARK  status: ('A' for Active; 'I' for Inactive)
REMARK    1  A    between atoms: C1_2  and  C2_4 
REMARK    2  A    between atoms: C10_14  and  N3_15 
REMARK    3  A    between atoms: N3_15  and  C11_17 
REMARK    4  A    between atoms: C11_17  and  C12_18 
REMARK    5  A    between atoms: C12_18  and  C13_19 
REMARK    6  A    between atoms: C13_19  and  N4_20 
REMARK    7  A    between atoms: C18_28  and  N6_29 
REMARK    8  A    between atoms: N6_29  and  C19_31 
ROOT
HETATM    1  C2  UNL     1       6.099  52.926  86.921  1.00  0.00     0.030 A 
HETATM    2  C3  UNL     1       7.089  52.552  86.041  1.00  0.00     0.019 A 
HETATM    3  C4  UNL     1       8.439  52.558  86.421  1.00  0.00     0.032 A 
HETATM    4  C5  UNL     1       8.837  52.935  87.684  1.00  0.00     0.069 A 
HETATM    5  C6  UNL     1       7.826  53.304  88.545  1.00  0.00    -0.004 A 
HETATM    6  C7  UNL     1       6.488  53.305  88.186  1.00  0.00     0.030 A 
HETATM    7  C8  UNL     1       8.443  53.637  89.734  1.00  0.00     0.064 A 
HETATM    8  C9  UNL     1       9.805  53.453  89.537  1.00  0.00     0.145 A 
HETATM    9  N2  UNL     1      10.865  53.624  90.352  1.00  0.00    -0.175 N 
ATOM     10  H2  UNL     1      10.706  53.948  91.306  1.00  0.00     0.186 HD
HETATM   11  C10 UNL     1      12.116  53.383  89.954  1.00  0.00     0.694 A 
HETATM   12  N5  UNL     1      12.322  52.958  88.701  1.00  0.00    -0.022 N 
ATOM     13  H5  UNL     1      13.277  52.774  88.395  1.00  0.00     0.203 HD
HETATM   14  C18 UNL     1      11.328  52.768  87.847  1.00  0.00     0.702 A 
HETATM   15  N7  UNL     1      10.055  53.027  88.299  1.00  0.00    -0.131 N 
ENDROOT
BRANCH  11  16
HETATM   16  N3  UNL     1      13.143  53.534  90.728  1.00  0.00    -0.225 N 
ATOM     17  H3  UNL     1      13.981  52.994  90.513  1.00  0.00     0.177 HD
BRANCH  16  18
HETATM   18  C11 UNL     1      13.187  54.404  91.859  1.00  0.00     0.140 C 
BRANCH  18  19
HETATM   19  C12 UNL     1      13.027  53.607  93.147  1.00  0.00     0.050 C 
BRANCH  19  20
HETATM   20  C13 UNL     1      12.835  54.629  94.254  1.00  0.00     0.274 C 
BRANCH  20  21
HETATM   21  N4  UNL     1      11.441  55.095  94.208  1.00  0.00     0.092 N 
HETATM   22  C14 UNL     1      10.646  54.065  94.854  1.00  0.00     0.298 C 
HETATM   23  C15 UNL     1       9.241  54.547  95.139  1.00  0.00     0.198 C 
HETATM   24  O2  UNL     1       9.115  55.919  94.932  1.00  0.00    -0.388 OA
HETATM   25  C16 UNL     1      10.104  56.549  95.679  1.00  0.00     0.198 C 
HETATM   26  C17 UNL     1      11.427  56.329  94.973  1.00  0.00     0.298 C 
ENDBRANCH  20  21
ENDBRANCH  19  20
ENDBRANCH  18  19
ENDBRANCH  16  18
ENDBRANCH  11  16
BRANCH  14  27
HETATM   27  N6  UNL     1      11.471  52.387  86.710  1.00  0.00    -0.217 N 
ATOM     28  H6  UNL     1      10.552  52.055  86.419  1.00  0.00     0.178 HD
BRANCH  27  29
HETATM   29  C19 UNL     1      12.306  52.185  85.600  1.00  0.00     0.123 C 
HETATM   30  C20 UNL     1      11.538  51.366  84.647  1.00  0.00    -0.005 C 
HETATM   31  C21 UNL     1      11.861  51.004  83.294  1.00  0.00    -0.028 C 
HETATM   32  C22 UNL     1      13.063  50.377  82.755  1.00  0.00     0.038 C 
HETATM   33  C23 UNL     1      14.317  51.304  82.598  1.00  0.00     0.083 C 
HETATM   34  C24 UNL     1      14.160  52.241  83.631  1.00  0.00    -0.183 C 
HETATM   35  C25 UNL     1      14.357  53.306  84.521  1.00  0.00     0.082 C 
HETATM   36  C26 UNL     1      12.970  53.437  85.253  1.00  0.00     0.041 C 
ENDBRANCH  27  29
ENDBRANCH  14  27
BRANCH   1  37
HETATM   37  C1  UNL     1       4.700  52.915  86.514  1.00  0.00     0.265 C 
HETATM   38  N1  UNL     1       4.178  53.695  85.477  1.00  0.00    -0.057 NA
HETATM   39  O1  UNL     1       3.918  52.155  87.139  1.00  0.00    -0.271 OA
ENDBRANCH   1  37
TORSDOF 8
ENDMDL
MODEL 4
REMARK VINA RESULT: -7.994974453      2.372      3.659
REMARK  8 active torsions:
REMARK  status: ('A' for Active; 'I' for Inactive)
REMARK    1  A    between atoms: C1_2  and  C2_4 
REMARK    2  A    between atoms: C10_14  and  N3_15 
REMARK    3  A    between atoms: N3_15  and  C11_17 
REMARK    4  A    between atoms: C11_17  and  C12_18 
REMARK    5  A    between atoms: C12_18  and  C13_19 
REMARK    6  A    between atoms: C13_19  and  N4_20 
REMARK    7  A    between atoms: C18_28  and  N6_29 
REMARK    8  A    between atoms: N6_29  and  C19_31 
ROOT
HETATM    1  C2  UNL     1       7.691  51.671  79.403  1.00  0.00     0.030 A 
HETATM    2  C3  UNL     1       8.919  51.060  79.518  1.00  0.00     0.019 A 
HETATM    3  C4  UNL     1       9.639  51.096  80.722  1.00  0.00     0.032 A 
HETATM    4  C5  UNL     1       9.156  51.740  81.838  1.00  0.00     0.069 A 
HETATM    5  C6  UNL     1       7.924  52.344  81.696  1.00  0.00    -0.004 A 
HETATM    6  C7  UNL     1       7.201  52.318  80.515  1.00  0.00     0.030 A 
HETATM    7  C8  UNL     1       7.640  52.918  82.918  1.00  0.00     0.064 A 
HETATM    8  C9  UNL     1       8.717  52.635  83.748  1.00  0.00     0.145 A 
HETATM    9  N2  UNL     1       8.969  52.945  85.035  1.00  0.00    -0.175 N 
ATOM     10  H2  UNL     1       8.281  53.491  85.554  1.00  0.00     0.186 HD
HETATM   11  C10 UNL     1      10.089  52.565  85.654  1.00  0.00     0.694 A 
HETATM   12  N5  UNL     1      10.991  51.850  84.969  1.00  0.00    -0.022 N 
ATOM     13  H5  UNL     1      11.847  51.559  85.439  1.00  0.00     0.203 HD
HETATM   14  C18 UNL     1      10.808  51.509  83.702  1.00  0.00     0.702 A 
HETATM   15  N7  UNL     1       9.641  51.921  83.104  1.00  0.00    -0.131 N 
ENDROOT
BRANCH  11  16
HETATM   16  N3  UNL     1      10.342  52.848  86.891  1.00  0.00    -0.225 N 
ATOM     17  H3  UNL     1      11.316  52.995  87.153  1.00  0.00     0.177 HD
BRANCH  16  18
HETATM   18  C11 UNL     1       9.354  52.970  87.914  1.00  0.00     0.140 C 
BRANCH  18  19
HETATM   19  C12 UNL     1       9.989  53.461  89.209  1.00  0.00     0.050 C 
BRANCH  19  20
HETATM   20  C13 UNL     1      11.453  53.063  89.136  1.00  0.00     0.274 C 
BRANCH  20  21
HETATM   21  N4  UNL     1      12.236  54.072  89.867  1.00  0.00     0.092 N 
HETATM   22  C14 UNL     1      12.666  53.438  91.101  1.00  0.00     0.298 C 
HETATM   23  C15 UNL     1      13.722  54.259  91.807  1.00  0.00     0.198 C 
HETATM   24  O2  UNL     1      14.193  55.294  91.001  1.00  0.00    -0.388 OA
HETATM   25  C16 UNL     1      14.607  54.734  89.798  1.00  0.00     0.198 C 
HETATM   26  C17 UNL     1      13.367  54.372  89.007  1.00  0.00     0.298 C 
ENDBRANCH  20  21
ENDBRANCH  19  20
ENDBRANCH  18  19
ENDBRANCH  16  18
ENDBRANCH  11  16
BRANCH  14  27
HETATM   27  N6  UNL     1      11.596  50.867  83.050  1.00  0.00    -0.217 N 
ATOM     28  H6  UNL     1      11.429  49.893  83.306  1.00  0.00     0.178 HD
BRANCH  27  29
HETATM   29  C19 UNL     1      12.634  50.827  82.107  1.00  0.00     0.123 C 
HETATM   30  C20 UNL     1      13.851  51.267  82.810  1.00  0.00    -0.005 C 
HETATM   31  C21 UNL     1      15.215  51.263  82.355  1.00  0.00    -0.028 C 
HETATM   32  C22 UNL     1      15.798  51.827  81.142  1.00  0.00     0.038 C 
HETATM   33  C23 UNL     1      15.561  51.018  79.821  1.00  0.00     0.083 C 
HETATM   34  C24 UNL     1      14.320  50.399  80.036  1.00  0.00    -0.183 C 
HETATM   35  C25 UNL     1      13.146  49.652  79.874  1.00  0.00     0.082 C 
HETATM   36  C26 UNL     1      12.540  49.599  81.325  1.00  0.00     0.041 C 
ENDBRANCH  27  29
ENDBRANCH  14  27
BRANCH   1  37
HETATM   37  C1  UNL     1       6.954  51.626  78.147  1.00  0.00     0.265 C 
HETATM   38  N1  UNL     1       7.538  51.795  76.888  1.00  0.00    -0.057 NA
HETATM   39  O1  UNL     1       5.715  51.422  78.208  1.00  0.00    -0.271 OA
ENDBRANCH   1  37
TORSDOF 8
ENDMDL
MODEL 5
REMARK VINA RESULT: -7.789222972      1.641      2.275
REMARK  8 active torsions:
REMARK  status: ('A' for Active; 'I' for Inactive)
REMARK    1  A    between atoms: C1_2  and  C2_4 
REMARK    2  A    between atoms: C10_14  and  N3_15 
REMARK    3  A    between atoms: N3_15  and  C11_17 
REMARK    4  A    between atoms: C11_17  and  C12_18 
REMARK    5  A    between atoms: C12_18  and  C13_19 
REMARK    6  A    between atoms: C13_19  and  N4_20 
REMARK    7  A    between atoms: C18_28  and  N6_29 
REMARK    8  A    between atoms: N6_29  and  C19_31 
ROOT
HETATM    1  C2  UNL     1       7.433  51.792  80.890  1.00  0.00     0.030 A 
HETATM    2  C3  UNL     1       8.631  51.152  80.671  1.00  0.00     0.019 A 
HETATM    3  C4  UNL     1       9.648  51.164  81.638  1.00  0.00     0.032 A 
HETATM    4  C5  UNL     1       9.497  51.811  82.843  1.00  0.00     0.069 A 
HETATM    5  C6  UNL     1       8.287  52.443  83.036  1.00  0.00    -0.004 A 
HETATM    6  C7  UNL     1       7.274  52.442  82.093  1.00  0.00     0.030 A 
HETATM    7  C8  UNL     1       8.355  53.016  84.290  1.00  0.00     0.064 A 
HETATM    8  C9  UNL     1       9.607  52.702  84.801  1.00  0.00     0.145 A 
HETATM    9  N2  UNL     1      10.203  52.999  85.974  1.00  0.00    -0.175 N 
ATOM     10  H2  UNL     1       9.692  53.556  86.658  1.00  0.00     0.186 HD
HETATM   11  C10 UNL     1      11.438  52.588  86.269  1.00  0.00     0.694 A 
HETATM   12  N5  UNL     1      12.106  51.858  85.368  1.00  0.00    -0.022 N 
ATOM     13  H5  UNL     1      13.050  51.544  85.591  1.00  0.00     0.203 HD
HETATM   14  C18 UNL     1      11.583  51.530  84.196  1.00  0.00     0.702 A 
HETATM   15  N7  UNL     1      10.308  51.973  83.933  1.00  0.00    -0.131 N 
ENDROOT
BRANCH  11  16
HETATM   16  N3  UNL     1      12.019  52.858  87.394  1.00  0.00    -0.225 N 
ATOM     17  H3  UNL     1      12.923  53.330  87.358  1.00  0.00     0.177 HD
BRANCH  16  18
HETATM   18  C11 UNL     1      11.487  52.541  88.680  1.00  0.00     0.140 C 
BRANCH  18  19
HETATM   19  C12 UNL     1      11.774  53.667  89.664  1.00  0.00     0.050 C 
BRANCH  19  20
HETATM   20  C13 UNL     1      12.030  52.999  91.005  1.00  0.00     0.274 C 
BRANCH  20  21
HETATM   21  N4  UNL     1      11.852  54.010  92.059  1.00  0.00     0.092 N 
HETATM   22  C14 UNL     1      10.793  53.516  92.922  1.00  0.00     0.298 C 
HETATM   23  C15 UNL     1      10.712  54.309  94.207  1.00  0.00     0.198 C 
HETATM   24  O2  UNL     1      11.806  55.158  94.358  1.00  0.00    -0.388 OA
HETATM   25  C16 UNL     1      12.957  54.390  94.227  1.00  0.00     0.198 C 
HETATM   26  C17 UNL     1      13.124  54.056  92.758  1.00  0.00     0.298 C 
ENDBRANCH  20  21
ENDBRANCH  19  20
ENDBRANCH  18  19
ENDBRANCH  16  18
ENDBRANCH  11  16
BRANCH  14  27
HETATM   27  N6  UNL     1      12.152  50.874  83.356  1.00  0.00    -0.217 N 
ATOM     28  H6  UNL     1      11.890  49.907  83.546  1.00  0.00     0.178 HD
BRANCH  27  29
HETATM   29  C19 UNL     1      13.004  50.816  82.243  1.00  0.00     0.123 C 
HETATM   30  C20 UNL     1      14.329  51.255  82.711  1.00  0.00    -0.005 C 
HETATM   31  C21 UNL     1      15.590  51.234  82.020  1.00  0.00    -0.028 C 
HETATM   32  C22 UNL     1      15.949  51.779  80.715  1.00  0.00     0.038 C 
HETATM   33  C23 UNL     1      15.476  50.955  79.468  1.00  0.00     0.083 C 
HETATM   34  C24 UNL     1      14.290  50.349  79.909  1.00  0.00    -0.183 C 
HETATM   35  C25 UNL     1      13.101  49.609  79.970  1.00  0.00     0.082 C 
HETATM   36  C26 UNL     1      12.765  49.579  81.507  1.00  0.00     0.041 C 
ENDBRANCH  27  29
ENDBRANCH  14  27
BRANCH   1  37
HETATM   37  C1  UNL     1       6.385  51.771  79.877  1.00  0.00     0.265 C 
HETATM   38  N1  UNL     1       5.024  51.936  80.153  1.00  0.00    -0.057 NA
HETATM   39  O1  UNL     1       6.734  51.593  78.683  1.00  0.00    -0.271 OA
ENDBRANCH   1  37
TORSDOF 8
ENDMDL
