MODEL 1
REMARK VINA RESULT: -7.378490259      0.000      0.000
REMARK  7 active torsions:
REMARK  status: ('A' for Active; 'I' for Inactive)
REMARK    1  A    between atoms: O1_2  and  C2_3 
REMARK    2  A    between atoms: C7_8  and  N1_9 
REMARK    3  A    between atoms: N1_9  and  C8_11 
REMARK    4  A    between atoms: C11_16  and  N3_17 
REMARK    5  A    between atoms: N3_17  and  C12_19 
REMARK    6  A    between atoms: C12_19  and  C13_20 
REMARK    7  A    between atoms: C13_20  and  N4_21 
ROOT
HETATM    1  N1  UNL     1      12.276  53.539  91.710  1.00  0.00    -0.189 N 
ATOM      2  H1  UNL     1      11.265  53.675  91.695  1.00  0.00     0.184 HD
ENDROOT
BRANCH   1   3
HETATM    3  C7  UNL     1      12.818  52.869  92.815  1.00  0.00     0.084 A 
HETATM    4  C2  UNL     1      12.676  53.426  94.081  1.00  0.00     0.096 A 
HETATM    5  C3  UNL     1      13.195  52.804  95.185  1.00  0.00     0.049 A 
HETATM    6  C4  UNL     1      13.873  51.589  95.001  1.00  0.00    -0.011 A 
HETATM    7  C5  UNL     1      14.024  51.026  93.768  1.00  0.00     0.044 A 
HETATM    8  C20 UNL     1      14.522  50.701  96.003  1.00  0.00     0.074 A 
HETATM    9  C6  UNL     1      13.483  51.679  92.648  1.00  0.00     0.063 A 
HETATM   10  N7  UNL     1      14.755  49.814  93.848  1.00  0.00    -0.326 N 
HETATM   11  C19 UNL     1      15.087  49.599  95.203  1.00  0.00     0.235 A 
ATOM     12  H7  UNL     1      14.998  49.205  93.066  1.00  0.00     0.169 HD
HETATM   13  O2  UNL     1      15.770  48.603  95.641  1.00  0.00    -0.272 OA
HETATM   14  C21 UNL     1      13.489  50.145  96.969  1.00  0.00     0.050 C 
HETATM   15  C24 UNL     1      15.666  51.394  96.673  1.00  0.00     0.050 C 
HETATM   16  C22 UNL     1      13.641  50.886  98.276  1.00  0.00     0.169 C 
HETATM   17  O3  UNL     1      14.893  50.463  98.781  1.00  0.00    -0.391 OA
HETATM   18  C23 UNL     1      15.893  51.110  98.106  1.00  0.00     0.169 C 
BRANCH   4  19
HETATM   19  O1  UNL     1      12.001  54.634  94.260  1.00  0.00    -0.354 OA
HETATM   20  C1  UNL     1      11.395  54.960  95.488  1.00  0.00     0.210 C 
ENDBRANCH   4  19
ENDBRANCH   1   3
BRANCH   1  21
HETATM   21  C8  UNL     1      12.937  53.990  90.728  1.00  0.00     0.684 A 
HETATM   22  N2  UNL     1      13.991  54.804  90.942  1.00  0.00    -0.202 N 
HETATM   23  C9  UNL     1      14.658  55.241  89.862  1.00  0.00     0.110 A 
ATOM     24  H2  UNL     1      14.269  55.076  91.886  1.00  0.00     0.183 HD
HETATM   25  C10 UNL     1      14.320  54.901  88.582  1.00  0.00     0.066 A 
HETATM   26  C11 UNL     1      13.242  54.072  88.405  1.00  0.00     0.118 A 
HETATM   27  N6  UNL     1      12.555  53.620  89.482  1.00  0.00    -0.177 N 
ATOM     28  H6  UNL     1      11.752  53.004  89.355  1.00  0.00     0.186 HD
BRANCH  26  29
HETATM   29  N3  UNL     1      12.810  53.659  87.261  1.00  0.00    -0.374 N 
ATOM     30  H3  UNL     1      11.964  53.090  87.258  1.00  0.00     0.161 HD
BRANCH  29  31
HETATM   31  C12 UNL     1      13.420  53.933  85.993  1.00  0.00     0.140 C 
BRANCH  31  32
HETATM   32  C13 UNL     1      12.716  53.196  84.876  1.00  0.00     0.136 C 
BRANCH  32  33
HETATM   33  N4  UNL     1      13.570  52.266  84.202  1.00  0.00    -0.408 N 
HETATM   34  C14 UNL     1      12.910  51.130  83.638  1.00  0.00     0.147 C 
HETATM   35  C15 UNL     1      13.020  51.069  82.131  1.00  0.00     0.291 C 
HETATM   36  N5  UNL     1      14.411  51.058  81.725  1.00  0.00     0.087 N 
HETATM   37  C16 UNL     1      14.497  51.501  80.334  1.00  0.00     0.310 C 
HETATM   38  C17 UNL     1      15.277  51.791  82.596  1.00  0.00     0.291 C 
HETATM   39  C18 UNL     1      14.567  52.866  83.376  1.00  0.00     0.147 C 
ENDBRANCH  32  33
ENDBRANCH  31  32
ENDBRANCH  29  31
ENDBRANCH  26  29
ENDBRANCH   1  21
TORSDOF 7
ENDMDL
MODEL 2
REMARK VINA RESULT: -7.086640923      2.470      4.608
REMARK  7 active torsions:
REMARK  status: ('A' for Active; 'I' for Inactive)
REMARK    1  A    between atoms: O1_2  and  C2_3 
REMARK    2  A    between atoms: C7_8  and  N1_9 
REMARK    3  A    between atoms: N1_9  and  C8_11 
REMARK    4  A    between atoms: C11_16  and  N3_17 
REMARK    5  A    between atoms: N3_17  and  C12_19 
REMARK    6  A    between atoms: C12_19  and  C13_20 
REMARK    7  A    between atoms: C13_20  and  N4_21 
ROOT
HETATM    1  N1  UNL     1      13.779  53.269  92.445  1.00  0.00    -0.189 N 
ATOM      2  H1  UNL     1      14.385  52.458  92.562  1.00  0.00     0.184 HD
ENDROOT
BRANCH   1   3
HETATM    3  C7  UNL     1      13.035  53.683  93.559  1.00  0.00     0.084 A 
HETATM    4  C2  UNL     1      12.791  52.776  94.584  1.00  0.00     0.096 A 
HETATM    5  C3  UNL     1      12.064  53.140  95.687  1.00  0.00     0.049 A 
HETATM    6  C4  UNL     1      11.576  54.454  95.751  1.00  0.00    -0.011 A 
HETATM    7  C5  UNL     1      11.804  55.358  94.756  1.00  0.00     0.044 A 
HETATM    8  C20 UNL     1      10.776  55.120  96.814  1.00  0.00     0.074 A 
HETATM    9  C6  UNL     1      12.551  54.966  93.634  1.00  0.00     0.063 A 
HETATM   10  N7  UNL     1      11.194  56.604  95.052  1.00  0.00    -0.326 N 
HETATM   11  C19 UNL     1      10.544  56.481  96.298  1.00  0.00     0.235 A 
ATOM     12  H7  UNL     1      11.221  57.440  94.467  1.00  0.00     0.169 HD
HETATM   13  O2  UNL     1       9.869  57.414  96.868  1.00  0.00    -0.272 OA
HETATM   14  C21 UNL     1      11.572  55.199  98.107  1.00  0.00     0.050 C 
HETATM   15  C24 UNL     1       9.438  54.470  96.966  1.00  0.00     0.050 C 
HETATM   16  C22 UNL     1      11.017  54.155  99.048  1.00  0.00     0.169 C 
HETATM   17  O3  UNL     1       9.723  54.624  99.375  1.00  0.00    -0.391 OA
HETATM   18  C23 UNL     1       8.875  54.372  98.330  1.00  0.00     0.169 C 
BRANCH   4  19
HETATM   19  O1  UNL     1      13.279  51.471  94.516  1.00  0.00    -0.354 OA
HETATM   20  C1  UNL     1      14.255  51.005  95.418  1.00  0.00     0.210 C 
ENDBRANCH   4  19
ENDBRANCH   1   3
BRANCH   1  21
HETATM   21  C8  UNL     1      13.760  53.820  91.304  1.00  0.00     0.684 A 
HETATM   22  N2  UNL     1      14.661  54.777  91.003  1.00  0.00    -0.202 N 
HETATM   23  C9  UNL     1      14.596  55.316  89.775  1.00  0.00     0.110 A 
ATOM     24  H2  UNL     1      15.362  55.079  91.680  1.00  0.00     0.183 HD
HETATM   25  C10 UNL     1      13.673  54.942  88.838  1.00  0.00     0.066 A 
HETATM   26  C11 UNL     1      12.774  53.966  89.182  1.00  0.00     0.118 A 
HETATM   27  N6  UNL     1      12.822  53.409  90.417  1.00  0.00    -0.177 N 
ATOM     28  H6  UNL     1      12.154  52.684  90.678  1.00  0.00     0.186 HD
BRANCH  26  29
HETATM   29  N3  UNL     1      11.854  53.504  88.403  1.00  0.00    -0.374 N 
ATOM     30  H3  UNL     1      11.456  54.145  87.717  1.00  0.00     0.161 HD
BRANCH  29  31
HETATM   31  C12 UNL     1      11.344  52.164  88.422  1.00  0.00     0.140 C 
BRANCH  31  32
HETATM   32  C13 UNL     1      10.010  52.077  87.717  1.00  0.00     0.136 C 
BRANCH  32  33
HETATM   33  N4  UNL     1      10.134  51.705  86.339  1.00  0.00    -0.408 N 
HETATM   34  C14 UNL     1      10.062  52.787  85.408  1.00  0.00     0.147 C 
HETATM   35  C15 UNL     1      11.340  52.978  84.623  1.00  0.00     0.291 C 
HETATM   36  N5  UNL     1      11.686  51.764  83.913  1.00  0.00     0.087 N 
HETATM   37  C16 UNL     1      13.114  51.793  83.598  1.00  0.00     0.310 C 
HETATM   38  C17 UNL     1      11.291  50.564  84.586  1.00  0.00     0.291 C 
HETATM   39  C18 UNL     1      11.147  50.736  86.076  1.00  0.00     0.147 C 
ENDBRANCH  32  33
ENDBRANCH  31  32
ENDBRANCH  29  31
ENDBRANCH  26  29
ENDBRANCH   1  21
TORSDOF 7
ENDMDL
MODEL 3
REMARK VINA RESULT: -7.063931516      0.966      1.041
REMARK  7 active torsions:
REMARK  status: ('A' for Active; 'I' for Inactive)
REMARK    1  A    between atoms: O1_2  and  C2_3 
REMARK    2  A    between atoms: C7_8  and  N1_9 
REMARK    3  A    between atoms: N1_9  and  C8_11 
REMARK    4  A    between atoms: C11_16  and  N3_17 
REMARK    5  A    between atoms: N3_17  and  C12_19 
REMARK    6  A    between atoms: C12_19  and  C13_20 
REMARK    7  A    between atoms: C13_20  and  N4_21 
ROOT
HETATM    1  N1  UNL     1      12.166  53.133  91.839  1.00  0.00    -0.189 N 
ATOM      2  H1  UNL     1      11.155  53.051  91.738  1.00  0.00     0.184 HD
ENDROOT
BRANCH   1   3
HETATM    3  C7  UNL     1      12.750  52.535  92.965  1.00  0.00     0.084 A 
HETATM    4  C2  UNL     1      12.477  53.056  94.225  1.00  0.00     0.096 A 
HETATM    5  C3  UNL     1      13.031  52.503  95.350  1.00  0.00     0.049 A 
HETATM    6  C4  UNL     1      13.881  51.398  95.191  1.00  0.00    -0.011 A 
HETATM    7  C5  UNL     1      14.162  50.873  93.964  1.00  0.00     0.044 A 
HETATM    8  C20 UNL     1      14.606  50.601  96.218  1.00  0.00     0.074 A 
HETATM    9  C6  UNL     1      13.584  51.453  92.824  1.00  0.00     0.063 A 
HETATM   10  N7  UNL     1      15.054  49.775  94.073  1.00  0.00    -0.326 N 
HETATM   11  C19 UNL     1      15.355  49.597  95.440  1.00  0.00     0.235 A 
ATOM     12  H7  UNL     1      15.414  49.214  93.300  1.00  0.00     0.169 HD
HETATM   13  O2  UNL     1      16.152  48.704  95.905  1.00  0.00    -0.272 OA
HETATM   14  C21 UNL     1      13.621  49.895  97.136  1.00  0.00     0.050 C 
HETATM   15  C24 UNL     1      15.611  51.442  96.940  1.00  0.00     0.050 C 
HETATM   16  C22 UNL     1      13.611  50.639  98.451  1.00  0.00     0.169 C 
HETATM   17  O3  UNL     1      14.887  50.392  99.009  1.00  0.00    -0.391 OA
HETATM   18  C23 UNL     1      15.814  51.180  98.380  1.00  0.00     0.169 C 
BRANCH   4  19
HETATM   19  O1  UNL     1      11.631  54.154  94.378  1.00  0.00    -0.354 OA
HETATM   20  C1  UNL     1      12.140  55.439  94.647  1.00  0.00     0.210 C 
ENDBRANCH   4  19
ENDBRANCH   1   3
BRANCH   1  21
HETATM   21  C8  UNL     1      12.791  53.766  90.938  1.00  0.00     0.684 A 
HETATM   22  N2  UNL     1      13.706  54.696  91.279  1.00  0.00    -0.202 N 
HETATM   23  C9  UNL     1      14.342  55.326  90.278  1.00  0.00     0.110 A 
ATOM     24  H2  UNL     1      13.907  54.911  92.256  1.00  0.00     0.183 HD
HETATM   25  C10 UNL     1      14.105  55.068  88.957  1.00  0.00     0.066 A 
HETATM   26  C11 UNL     1      13.167  54.117  88.650  1.00  0.00     0.118 A 
HETATM   27  N6  UNL     1      12.513  53.469  89.645  1.00  0.00    -0.177 N 
ATOM     28  H6  UNL     1      11.814  52.761  89.422  1.00  0.00     0.186 HD
BRANCH  26  29
HETATM   29  N3  UNL     1      12.843  53.760  87.453  1.00  0.00    -0.374 N 
ATOM     30  H3  UNL     1      13.242  54.296  86.682  1.00  0.00     0.161 HD
BRANCH  29  31
HETATM   31  C12 UNL     1      11.970  52.675  87.116  1.00  0.00     0.140 C 
BRANCH  31  32
HETATM   32  C13 UNL     1      11.593  52.710  85.652  1.00  0.00     0.136 C 
BRANCH  32  33
HETATM   33  N4  UNL     1      12.274  51.715  84.880  1.00  0.00    -0.408 N 
HETATM   34  C14 UNL     1      11.481  50.585  84.506  1.00  0.00     0.147 C 
HETATM   35  C15 UNL     1      11.308  50.454  83.010  1.00  0.00     0.291 C 
HETATM   36  N5  UNL     1      12.597  50.364  82.356  1.00  0.00     0.087 N 
HETATM   37  C16 UNL     1      12.440  50.743  80.952  1.00  0.00     0.310 C 
HETATM   38  C17 UNL     1      13.635  51.097  83.015  1.00  0.00     0.291 C 
HETATM   39  C18 UNL     1      13.121  52.235  83.857  1.00  0.00     0.147 C 
ENDBRANCH  32  33
ENDBRANCH  31  32
ENDBRANCH  29  31
ENDBRANCH  26  29
ENDBRANCH   1  21
TORSDOF 7
ENDMDL
MODEL 4
REMARK VINA RESULT: -7.044877578      3.551      5.263
REMARK  7 active torsions:
REMARK  status: ('A' for Active; 'I' for Inactive)
REMARK    1  A    between atoms: O1_2  and  C2_3 
REMARK    2  A    between atoms: C7_8  and  N1_9 
REMARK    3  A    between atoms: N1_9  and  C8_11 
REMARK    4  A    between atoms: C11_16  and  N3_17 
REMARK    5  A    between atoms: N3_17  and  C12_19 
REMARK    6  A    between atoms: C12_19  and  C13_20 
REMARK    7  A    between atoms: C13_20  and  N4_21 
ROOT
HETATM    1  N1  UNL     1      13.099  53.525  92.537  1.00  0.00    -0.189 N 
ATOM      2  H1  UNL     1      13.659  52.730  92.842  1.00  0.00     0.184 HD
ENDROOT
BRANCH   1   3
HETATM    3  C7  UNL     1      12.101  53.982  93.409  1.00  0.00     0.084 A 
HETATM    4  C2  UNL     1      10.774  53.667  93.143  1.00  0.00     0.096 A 
HETATM    5  C3  UNL     1       9.769  54.098  93.969  1.00  0.00     0.049 A 
HETATM    6  C4  UNL     1      10.121  54.865  95.090  1.00  0.00    -0.011 A 
HETATM    7  C5  UNL     1      11.417  55.186  95.369  1.00  0.00     0.044 A 
HETATM    8  C20 UNL     1       9.256  55.453  96.149  1.00  0.00     0.074 A 
HETATM    9  C6  UNL     1      12.432  54.734  94.510  1.00  0.00     0.063 A 
HETATM   10  N7  UNL     1      11.504  55.977  96.542  1.00  0.00    -0.326 N 
HETATM   11  C19 UNL     1      10.195  56.170  97.032  1.00  0.00     0.235 A 
ATOM     12  H7  UNL     1      12.362  56.342  96.959  1.00  0.00     0.169 HD
HETATM   13  O2  UNL     1       9.895  56.859  98.073  1.00  0.00    -0.272 OA
HETATM   14  C21 UNL     1       8.561  54.355  96.938  1.00  0.00     0.050 C 
HETATM   15  C24 UNL     1       8.322  56.471  95.576  1.00  0.00     0.050 C 
HETATM   16  C22 UNL     1       7.119  54.315  96.490  1.00  0.00     0.169 C 
HETATM   17  O3  UNL     1       6.565  55.527  96.967  1.00  0.00    -0.391 OA
HETATM   18  C23 UNL     1       6.963  56.554  96.153  1.00  0.00     0.169 C 
BRANCH   4  19
HETATM   19  O1  UNL     1      10.428  52.904  92.028  1.00  0.00    -0.354 OA
HETATM   20  C1  UNL     1       9.367  53.279  91.182  1.00  0.00     0.210 C 
ENDBRANCH   4  19
ENDBRANCH   1   3
BRANCH   1  21
HETATM   21  C8  UNL     1      13.362  54.019  91.400  1.00  0.00     0.684 A 
HETATM   22  N2  UNL     1      14.247  55.031  91.293  1.00  0.00    -0.202 N 
HETATM   23  C9  UNL     1      14.490  55.505  90.061  1.00  0.00     0.110 A 
ATOM     24  H2  UNL     1      14.712  55.419  92.114  1.00  0.00     0.183 HD
HETATM   25  C10 UNL     1      13.890  55.014  88.935  1.00  0.00     0.066 A 
HETATM   26  C11 UNL     1      12.996  53.986  89.084  1.00  0.00     0.118 A 
HETATM   27  N6  UNL     1      12.735  53.493  90.320  1.00  0.00    -0.177 N 
ATOM     28  H6  UNL     1      12.070  52.729  90.436  1.00  0.00     0.186 HD
BRANCH  26  29
HETATM   29  N3  UNL     1      12.360  53.416  88.117  1.00  0.00    -0.374 N 
ATOM     30  H3  UNL     1      12.429  53.845  87.194  1.00  0.00     0.161 HD
BRANCH  29  31
HETATM   31  C12 UNL     1      11.564  52.229  88.230  1.00  0.00     0.140 C 
BRANCH  31  32
HETATM   32  C13 UNL     1      10.213  52.411  87.577  1.00  0.00     0.136 C 
BRANCH  32  33
HETATM   33  N4  UNL     1      10.173  51.911  86.236  1.00  0.00    -0.408 N 
HETATM   34  C14 UNL     1      10.244  52.906  85.212  1.00  0.00     0.147 C 
HETATM   35  C15 UNL     1      11.481  52.781  84.351  1.00  0.00     0.291 C 
HETATM   36  N5  UNL     1      11.543  51.469  83.741  1.00  0.00     0.087 N 
HETATM   37  C16 UNL     1      12.927  51.196  83.354  1.00  0.00     0.310 C 
HETATM   38  C17 UNL     1      10.975  50.428  84.542  1.00  0.00     0.291 C 
HETATM   39  C18 UNL     1      10.965  50.745  86.014  1.00  0.00     0.147 C 
ENDBRANCH  32  33
ENDBRANCH  31  32
ENDBRANCH  29  31
ENDBRANCH  26  29
ENDBRANCH   1  21
TORSDOF 7
ENDMDL
MODEL 5
REMARK VINA RESULT: -7.040654961      4.195     10.477
REMARK  7 active torsions:
REMARK  status: ('A' for Active; 'I' for Inactive)
REMARK    1  A    between atoms: O1_2  and  C2_3 
REMARK    2  A    between atoms: C7_8  and  N1_9 
REMARK    3  A    between atoms: N1_9  and  C8_11 
REMARK    4  A    between atoms: C11_16  and  N3_17 
REMARK    5  A    between atoms: N3_17  and  C12_19 
REMARK    6  A    between atoms: C12_19  and  C13_20 
REMARK    7  A    between atoms: C13_20  and  N4_21 
ROOT
HETATM    1  N1  UNL     1      11.429  53.646  88.572  1.00  0.00    -0.189 N 
ATOM      2  H1  UNL     1      10.560  54.179  88.578  1.00  0.00     0.184 HD
ENDROOT
BRANCH   1   3
HETATM    3  C7  UNL     1      11.485  52.516  87.744  1.00  0.00     0.084 A 
HETATM    4  C2  UNL     1      11.169  51.271  88.277  1.00  0.00     0.096 A 
HETATM    5  C3  UNL     1      11.216  50.142  87.502  1.00  0.00     0.049 A 
HETATM    6  C4  UNL     1      11.590  50.281  86.157  1.00  0.00    -0.011 A 
HETATM    7  C5  UNL     1      11.904  51.492  85.615  1.00  0.00     0.044 A 
HETATM    8  C20 UNL     1      11.717  49.247  85.094  1.00  0.00     0.074 A 
HETATM    9  C6  UNL     1      11.850  52.637  86.426  1.00  0.00     0.063 A 
HETATM   10  N7  UNL     1      12.263  51.362  84.249  1.00  0.00    -0.326 N 
HETATM   11  C19 UNL     1      12.173  49.995  83.908  1.00  0.00     0.235 A 
ATOM     12  H7  UNL     1      12.537  52.121  83.624  1.00  0.00     0.169 HD
HETATM   13  O2  UNL     1      12.448  49.509  82.752  1.00  0.00    -0.272 OA
HETATM   14  C21 UNL     1      10.366  48.614  84.803  1.00  0.00     0.050 C 
HETATM   15  C24 UNL     1      12.788  48.258  85.432  1.00  0.00     0.050 C 
HETATM   16  C22 UNL     1      10.360  47.241  85.433  1.00  0.00     0.169 C 
HETATM   17  O3  UNL     1      11.294  46.498  84.673  1.00  0.00    -0.391 OA
HETATM   18  C23 UNL     1      12.563  46.848  85.050  1.00  0.00     0.169 C 
BRANCH   4  19
HETATM   19  O1  UNL     1      10.797  51.138  89.614  1.00  0.00    -0.354 OA
HETATM   20  C1  UNL     1      11.459  50.241  90.474  1.00  0.00     0.210 C 
ENDBRANCH   4  19
ENDBRANCH   1   3
BRANCH   1  21
HETATM   21  C8  UNL     1      12.369  54.059  89.314  1.00  0.00     0.684 A 
HETATM   22  N2  UNL     1      13.308  54.887  88.813  1.00  0.00    -0.202 N 
HETATM   23  C9  UNL     1      14.273  55.298  89.652  1.00  0.00     0.110 A 
ATOM     24  H2  UNL     1      13.286  55.189  87.839  1.00  0.00     0.183 HD
HETATM   25  C10 UNL     1      14.340  54.919  90.963  1.00  0.00     0.066 A 
HETATM   26  C11 UNL     1      13.368  54.076  91.435  1.00  0.00     0.118 A 
HETATM   27  N6  UNL     1      12.385  53.649  90.605  1.00  0.00    -0.177 N 
ATOM     28  H6  UNL     1      11.660  53.020  90.951  1.00  0.00     0.186 HD
BRANCH  26  29
HETATM   29  N3  UNL     1      13.295  53.640  92.648  1.00  0.00    -0.374 N 
ATOM     30  H3  UNL     1      13.266  52.629  92.781  1.00  0.00     0.161 HD
BRANCH  29  31
HETATM   31  C12 UNL     1      13.252  54.458  93.824  1.00  0.00     0.140 C 
BRANCH  31  32
HETATM   32  C13 UNL     1      11.922  55.165  93.951  1.00  0.00     0.136 C 
BRANCH  32  33
HETATM   33  N4  UNL     1      11.741  55.781  95.231  1.00  0.00    -0.408 N 
HETATM   34  C14 UNL     1      11.262  57.128  95.197  1.00  0.00     0.147 C 
HETATM   35  C15 UNL     1       9.903  57.288  95.841  1.00  0.00     0.291 C 
HETATM   36  N5  UNL     1       9.936  56.831  97.215  1.00  0.00     0.087 N 
HETATM   37  C16 UNL     1       8.571  56.522  97.640  1.00  0.00     0.310 C 
HETATM   38  C17 UNL     1      10.848  55.753  97.448  1.00  0.00     0.291 C 
HETATM   39  C18 UNL     1      11.139  54.941  96.214  1.00  0.00     0.147 C 
ENDBRANCH  32  33
ENDBRANCH  31  32
ENDBRANCH  29  31
ENDBRANCH  26  29
ENDBRANCH   1  21
TORSDOF 7
ENDMDL
