MODEL 1
REMARK VINA RESULT: -6.736579895      0.000      0.000
REMARK  7 active torsions:
REMARK  status: ('A' for Active; 'I' for Inactive)
REMARK    1  A    between atoms: C7_8  and  N1_9 
REMARK    2  A    between atoms: N1_9  and  C8_11 
REMARK    3  A    between atoms: C8_11  and  N2_13 
REMARK    4  A    between atoms: N2_13  and  C9_15 
REMARK    5  A    between atoms: C9_15  and  C10_16 
REMARK    6  A    between atoms: C10_16  and  C11_17 
REMARK    7  A    between atoms: C11_17  and  N3_18 
ROOT
HETATM    1  N3  UNL     1      11.834  51.074  88.734  1.00  0.00    -0.234 NA
HETATM    2  C12 UNL     1      12.085  50.805  90.113  1.00  0.00     0.139 C 
HETATM    3  C13 UNL     1      12.019  49.367  90.520  1.00  0.00     0.183 C 
HETATM    4  O1  UNL     1      12.488  49.313  91.855  1.00  0.00    -0.388 OA
HETATM    5  C14 UNL     1      11.526  49.734  92.753  1.00  0.00     0.193 C 
HETATM    6  C15 UNL     1      12.153  50.638  93.820  1.00  0.00     0.193 C 
HETATM    7  O2  UNL     1      12.719  51.726  93.206  1.00  0.00    -0.387 OA
HETATM    8  C16 UNL     1      12.900  52.831  94.001  1.00  0.00     0.193 C 
HETATM    9  C17 UNL     1      12.338  54.072  93.351  1.00  0.00     0.193 C 
HETATM   10  O3  UNL     1      13.317  54.891  92.797  1.00  0.00    -0.387 OA
HETATM   11  C18 UNL     1      13.917  54.300  91.692  1.00  0.00     0.193 C 
HETATM   12  C19 UNL     1      13.994  55.178  90.489  1.00  0.00     0.193 C 
HETATM   13  O4  UNL     1      12.889  55.131  89.667  1.00  0.00    -0.387 OA
HETATM   14  C20 UNL     1      12.802  53.911  88.956  1.00  0.00     0.188 C 
HETATM   15  C21 UNL     1      11.425  53.385  89.182  1.00  0.00     0.160 C 
HETATM   16  N4  UNL     1      11.086  52.195  88.501  1.00  0.00    -0.352 N 
ATOM     17  H4  UNL     1      10.300  52.172  87.850  1.00  0.00     0.174 HD
ENDROOT
BRANCH   1  18
HETATM   18  C11 UNL     1      11.178  49.947  88.099  1.00  0.00     0.114 C 
BRANCH  18  19
HETATM   19  C10 UNL     1      10.048  50.431  87.197  1.00  0.00     0.036 C 
BRANCH  19  20
HETATM   20  C9  UNL     1      10.407  50.183  85.753  1.00  0.00     0.123 C 
BRANCH  20  21
HETATM   21  N2  UNL     1      11.736  50.620  85.436  1.00  0.00    -0.367 N 
ATOM     22  H2  UNL     1      12.534  50.094  85.791  1.00  0.00     0.161 HD
BRANCH  21  23
HETATM   23  C8  UNL     1      11.966  51.799  84.618  1.00  0.00     0.172 C 
HETATM   24  S2  UNL     1      10.724  52.823  84.542  1.00  0.00    -0.041 SA
BRANCH  23  25
HETATM   25  N1  UNL     1      13.208  51.950  83.982  1.00  0.00    -0.333 N 
ATOM     26  H1  UNL     1      13.870  52.539  84.487  1.00  0.00     0.168 HD
BRANCH  25  27
HETATM   27  C7  UNL     1      13.693  51.438  82.786  1.00  0.00     0.041 A 
HETATM   28  C2  UNL     1      14.962  51.833  82.338  1.00  0.00    -0.035 A 
HETATM   29  C1  UNL     1      15.734  52.794  83.173  1.00  0.00     0.050 C 
HETATM   30  C3  UNL     1      15.501  51.370  81.175  1.00  0.00     0.010 A 
HETATM   31  C4  UNL     1      14.799  50.481  80.391  1.00  0.00     0.020 A 
HETATM   32  C5  UNL     1      13.551  50.066  80.792  1.00  0.00     0.014 A 
HETATM   33  S1  UNL     1      12.627  48.909  79.781  1.00  0.00    -0.052 SA
HETATM   34  C6  UNL     1      13.033  50.561  81.988  1.00  0.00     0.049 A 
ENDBRANCH  25  27
ENDBRANCH  23  25
ENDBRANCH  21  23
ENDBRANCH  20  21
ENDBRANCH  19  20
ENDBRANCH  18  19
ENDBRANCH   1  18
TORSDOF 7
ENDMDL
MODEL 2
REMARK VINA RESULT: -6.726812268      1.087      1.424
REMARK  7 active torsions:
REMARK  status: ('A' for Active; 'I' for Inactive)
REMARK    1  A    between atoms: C7_8  and  N1_9 
REMARK    2  A    between atoms: N1_9  and  C8_11 
REMARK    3  A    between atoms: C8_11  and  N2_13 
REMARK    4  A    between atoms: N2_13  and  C9_15 
REMARK    5  A    between atoms: C9_15  and  C10_16 
REMARK    6  A    between atoms: C10_16  and  C11_17 
REMARK    7  A    between atoms: C11_17  and  N3_18 
ROOT
HETATM    1  N3  UNL     1      11.890  51.109  88.686  1.00  0.00    -0.234 NA
HETATM    2  C12 UNL     1      12.071  50.801  90.068  1.00  0.00     0.139 C 
HETATM    3  C13 UNL     1      11.992  49.352  90.430  1.00  0.00     0.183 C 
HETATM    4  O1  UNL     1      12.391  49.261  91.786  1.00  0.00    -0.388 OA
HETATM    5  C14 UNL     1      11.382  49.652  92.644  1.00  0.00     0.193 C 
HETATM    6  C15 UNL     1      11.950  50.529  93.767  1.00  0.00     0.193 C 
HETATM    7  O2  UNL     1      12.541  51.635  93.214  1.00  0.00    -0.387 OA
HETATM    8  C16 UNL     1      12.675  52.718  94.048  1.00  0.00     0.193 C 
HETATM    9  C17 UNL     1      12.140  53.975  93.407  1.00  0.00     0.193 C 
HETATM   10  O3  UNL     1      13.142  54.813  92.927  1.00  0.00    -0.387 OA
HETATM   11  C18 UNL     1      13.801  54.256  91.838  1.00  0.00     0.193 C 
HETATM   12  C19 UNL     1      13.935  55.169  90.666  1.00  0.00     0.193 C 
HETATM   13  O4  UNL     1      12.874  55.141  89.787  1.00  0.00    -0.387 OA
HETATM   14  C20 UNL     1      12.830  53.942  89.038  1.00  0.00     0.188 C 
HETATM   15  C21 UNL     1      11.447  53.404  89.178  1.00  0.00     0.160 C 
HETATM   16  N4  UNL     1      11.148  52.233  88.447  1.00  0.00    -0.352 N 
ATOM     17  H4  UNL     1      10.397  52.226  87.756  1.00  0.00     0.174 HD
ENDROOT
BRANCH   1  18
HETATM   18  C11 UNL     1      11.273  49.998  87.987  1.00  0.00     0.114 C 
BRANCH  18  19
HETATM   19  C10 UNL     1       9.954  50.434  87.357  1.00  0.00     0.036 C 
BRANCH  19  20
HETATM   20  C9  UNL     1       9.905  49.987  85.917  1.00  0.00     0.123 C 
BRANCH  20  21
HETATM   21  N2  UNL     1       9.435  51.018  85.038  1.00  0.00    -0.367 N 
ATOM     22  H2  UNL     1       8.432  51.188  84.957  1.00  0.00     0.161 HD
BRANCH  21  23
HETATM   23  C8  UNL     1      10.360  51.825  84.261  1.00  0.00     0.172 C 
HETATM   24  S2  UNL     1       9.695  52.615  83.025  1.00  0.00    -0.041 SA
BRANCH  23  25
HETATM   25  N1  UNL     1      11.713  51.853  84.635  1.00  0.00    -0.333 N 
ATOM     26  H1  UNL     1      11.873  51.772  85.639  1.00  0.00     0.168 HD
BRANCH  25  27
HETATM   27  C7  UNL     1      12.871  51.971  83.878  1.00  0.00     0.041 A 
HETATM   28  C2  UNL     1      13.839  52.915  84.252  1.00  0.00    -0.035 A 
HETATM   29  C1  UNL     1      13.575  53.753  85.454  1.00  0.00     0.050 C 
HETATM   30  C3  UNL     1      14.998  53.084  83.556  1.00  0.00     0.010 A 
HETATM   31  C4  UNL     1      15.257  52.316  82.443  1.00  0.00     0.020 A 
HETATM   32  C5  UNL     1      14.336  51.379  82.039  1.00  0.00     0.014 A 
HETATM   33  S1  UNL     1      14.660  50.373  80.590  1.00  0.00    -0.052 SA
HETATM   34  C6  UNL     1      13.161  51.234  82.776  1.00  0.00     0.049 A 
ENDBRANCH  25  27
ENDBRANCH  23  25
ENDBRANCH  21  23
ENDBRANCH  20  21
ENDBRANCH  19  20
ENDBRANCH  18  19
ENDBRANCH   1  18
TORSDOF 7
ENDMDL
MODEL 3
REMARK VINA RESULT: -6.692930664      1.702      2.137
REMARK  7 active torsions:
REMARK  status: ('A' for Active; 'I' for Inactive)
REMARK    1  A    between atoms: C7_8  and  N1_9 
REMARK    2  A    between atoms: N1_9  and  C8_11 
REMARK    3  A    between atoms: C8_11  and  N2_13 
REMARK    4  A    between atoms: N2_13  and  C9_15 
REMARK    5  A    between atoms: C9_15  and  C10_16 
REMARK    6  A    between atoms: C10_16  and  C11_17 
REMARK    7  A    between atoms: C11_17  and  N3_18 
ROOT
HETATM    1  N3  UNL     1      11.181  50.091  87.964  1.00  0.00    -0.234 NA
HETATM    2  C12 UNL     1      12.075  49.883  89.056  1.00  0.00     0.139 C 
HETATM    3  C13 UNL     1      12.786  48.566  89.077  1.00  0.00     0.183 C 
HETATM    4  O1  UNL     1      13.749  48.653  90.111  1.00  0.00    -0.388 OA
HETATM    5  C14 UNL     1      13.176  48.498  91.359  1.00  0.00     0.193 C 
HETATM    6  C15 UNL     1      13.760  49.518  92.343  1.00  0.00     0.193 C 
HETATM    7  O2  UNL     1      13.511  50.783  91.875  1.00  0.00    -0.387 OA
HETATM    8  C16 UNL     1      13.537  51.782  92.816  1.00  0.00     0.193 C 
HETATM    9  C17 UNL     1      12.299  52.641  92.740  1.00  0.00     0.193 C 
HETATM   10  O3  UNL     1      12.519  53.865  92.116  1.00  0.00    -0.387 OA
HETATM   11  C18 UNL     1      12.783  53.711  90.761  1.00  0.00     0.193 C 
HETATM   12  C19 UNL     1      11.977  54.598  89.872  1.00  0.00     0.193 C 
HETATM   13  O4  UNL     1      10.757  54.081  89.492  1.00  0.00    -0.387 OA
HETATM   14  C20 UNL     1      10.889  53.022  88.564  1.00  0.00     0.188 C 
HETATM   15  C21 UNL     1      10.088  51.885  89.102  1.00  0.00     0.160 C 
HETATM   16  N4  UNL     1      10.017  50.727  88.296  1.00  0.00    -0.352 N 
ATOM     17  H4  UNL     1       9.117  50.374  87.969  1.00  0.00     0.174 HD
ENDROOT
BRANCH   1  18
HETATM   18  C11 UNL     1      10.847  48.834  87.323  1.00  0.00     0.114 C 
BRANCH  18  19
HETATM   19  C10 UNL     1       9.636  49.007  86.413  1.00  0.00     0.036 C 
BRANCH  19  20
HETATM   20  C9  UNL     1      10.089  49.112  84.977  1.00  0.00     0.123 C 
BRANCH  20  21
HETATM   21  N2  UNL     1       9.749  50.374  84.385  1.00  0.00    -0.367 N 
ATOM     22  H2  UNL     1       9.048  50.407  83.646  1.00  0.00     0.161 HD
BRANCH  21  23
HETATM   23  C8  UNL     1      10.387  51.605  84.820  1.00  0.00     0.172 C 
HETATM   24  S2  UNL     1       9.397  52.868  84.958  1.00  0.00    -0.041 SA
BRANCH  23  25
HETATM   25  N1  UNL     1      11.767  51.598  85.077  1.00  0.00    -0.333 N 
ATOM     26  H1  UNL     1      12.016  51.328  86.029  1.00  0.00     0.168 HD
BRANCH  25  27
HETATM   27  C7  UNL     1      12.853  51.894  84.264  1.00  0.00     0.041 A 
HETATM   28  C2  UNL     1      13.664  52.994  84.579  1.00  0.00    -0.035 A 
HETATM   29  C1  UNL     1      13.317  53.800  85.782  1.00  0.00     0.050 C 
HETATM   30  C3  UNL     1      14.745  53.342  83.826  1.00  0.00     0.010 A 
HETATM   31  C4  UNL     1      15.079  52.606  82.711  1.00  0.00     0.020 A 
HETATM   32  C5  UNL     1      14.311  51.520  82.363  1.00  0.00     0.014 A 
HETATM   33  S1  UNL     1      14.735  50.554  80.913  1.00  0.00    -0.052 SA
HETATM   34  C6  UNL     1      13.213  51.194  83.158  1.00  0.00     0.049 A 
ENDBRANCH  25  27
ENDBRANCH  23  25
ENDBRANCH  21  23
ENDBRANCH  20  21
ENDBRANCH  19  20
ENDBRANCH  18  19
ENDBRANCH   1  18
TORSDOF 7
ENDMDL
MODEL 4
REMARK VINA RESULT: -6.667197355      6.798     11.247
REMARK  7 active torsions:
REMARK  status: ('A' for Active; 'I' for Inactive)
REMARK    1  A    between atoms: C7_8  and  N1_9 
REMARK    2  A    between atoms: N1_9  and  C8_11 
REMARK    3  A    between atoms: C8_11  and  N2_13 
REMARK    4  A    between atoms: N2_13  and  C9_15 
REMARK    5  A    between atoms: C9_15  and  C10_16 
REMARK    6  A    between atoms: C10_16  and  C11_17 
REMARK    7  A    between atoms: C11_17  and  N3_18 
ROOT
HETATM    1  N3  UNL     1      11.775  53.891  93.820  1.00  0.00    -0.234 NA
HETATM    2  C12 UNL     1      10.809  53.632  92.802  1.00  0.00     0.139 C 
HETATM    3  C13 UNL     1       9.386  53.548  93.258  1.00  0.00     0.183 C 
HETATM    4  O1  UNL     1       8.598  53.487  92.083  1.00  0.00    -0.388 OA
HETATM    5  C14 UNL     1       8.616  52.226  91.519  1.00  0.00     0.193 C 
HETATM    6  C15 UNL     1       8.760  52.327  89.996  1.00  0.00     0.193 C 
HETATM    7  O2  UNL     1       9.928  52.981  89.701  1.00  0.00    -0.387 OA
HETATM    8  C16 UNL     1      10.437  52.753  88.446  1.00  0.00     0.193 C 
HETATM    9  C17 UNL     1      11.895  52.365  88.507  1.00  0.00     0.193 C 
HETATM   10  O3  UNL     1      12.752  53.403  88.156  1.00  0.00    -0.387 OA
HETATM   11  C18 UNL     1      12.741  54.422  89.100  1.00  0.00     0.193 C 
HETATM   12  C19 UNL     1      14.094  54.864  89.546  1.00  0.00     0.193 C 
HETATM   13  O4  UNL     1      14.613  54.155  90.608  1.00  0.00    -0.387 OA
HETATM   14  C20 UNL     1      13.951  54.449  91.823  1.00  0.00     0.188 C 
HETATM   15  C21 UNL     1      13.560  53.140  92.421  1.00  0.00     0.160 C 
HETATM   16  N4  UNL     1      12.940  53.187  93.689  1.00  0.00    -0.352 N 
ATOM     17  H4  UNL     1      13.352  52.706  94.489  1.00  0.00     0.174 HD
ENDROOT
BRANCH   1  18
HETATM   18  C11 UNL     1      11.225  53.622  95.134  1.00  0.00     0.114 C 
BRANCH  18  19
HETATM   19  C10 UNL     1      12.326  53.176  96.090  1.00  0.00     0.036 C 
BRANCH  19  20
HETATM   20  C9  UNL     1      11.712  52.601  97.342  1.00  0.00     0.123 C 
BRANCH  20  21
HETATM   21  N2  UNL     1      10.860  53.537  98.015  1.00  0.00    -0.367 N 
ATOM     22  H2  UNL     1       9.858  53.354  98.068  1.00  0.00     0.161 HD
BRANCH  21  23
HETATM   23  C8  UNL     1      11.397  54.743  98.623  1.00  0.00     0.172 C 
HETATM   24  S2  UNL     1      12.258  54.501  99.962  1.00  0.00    -0.041 SA
BRANCH  23  25
HETATM   25  N1  UNL     1      11.134  55.981  98.016  1.00  0.00    -0.333 N 
ATOM     26  H1  UNL     1      11.938  56.609  97.976  1.00  0.00     0.168 HD
BRANCH  25  27
HETATM   27  C7  UNL     1       9.973  56.502  97.460  1.00  0.00     0.041 A 
HETATM   28  C2  UNL     1      10.049  57.205  96.249  1.00  0.00    -0.035 A 
HETATM   29  C1  UNL     1      11.386  57.362  95.611  1.00  0.00     0.050 C 
HETATM   30  C3  UNL     1       8.951  57.741  95.648  1.00  0.00     0.010 A 
HETATM   31  C4  UNL     1       7.708  57.604  96.225  1.00  0.00     0.020 A 
HETATM   32  C5  UNL     1       7.586  56.924  97.413  1.00  0.00     0.014 A 
HETATM   33  S1  UNL     1       5.973  56.739  98.175  1.00  0.00    -0.052 SA
HETATM   34  C6  UNL     1       8.732  56.388  97.999  1.00  0.00     0.049 A 
ENDBRANCH  25  27
ENDBRANCH  23  25
ENDBRANCH  21  23
ENDBRANCH  20  21
ENDBRANCH  19  20
ENDBRANCH  18  19
ENDBRANCH   1  18
TORSDOF 7
ENDMDL
MODEL 5
REMARK VINA RESULT: -6.593773443      4.455     10.030
REMARK  7 active torsions:
REMARK  status: ('A' for Active; 'I' for Inactive)
REMARK    1  A    between atoms: C7_8  and  N1_9 
REMARK    2  A    between atoms: N1_9  and  C8_11 
REMARK    3  A    between atoms: C8_11  and  N2_13 
REMARK    4  A    between atoms: N2_13  and  C9_15 
REMARK    5  A    between atoms: C9_15  and  C10_16 
REMARK    6  A    between atoms: C10_16  and  C11_17 
REMARK    7  A    between atoms: C11_17  and  N3_18 
ROOT
HETATM    1  N3  UNL     1      13.167  52.228  84.216  1.00  0.00    -0.234 NA
HETATM    2  C12 UNL     1      13.770  51.619  83.075  1.00  0.00     0.139 C 
HETATM    3  C13 UNL     1      15.188  52.009  82.799  1.00  0.00     0.183 C 
HETATM    4  O1  UNL     1      15.638  51.153  81.765  1.00  0.00    -0.388 OA
HETATM    5  C14 UNL     1      15.164  51.550  80.529  1.00  0.00     0.193 C 
HETATM    6  C15 UNL     1      14.701  50.331  79.721  1.00  0.00     0.193 C 
HETATM    7  O2  UNL     1      13.706  49.690  80.412  1.00  0.00    -0.387 OA
HETATM    8  C16 UNL     1      12.878  48.893  79.661  1.00  0.00     0.193 C 
HETATM    9  C17 UNL     1      11.426  49.204  79.929  1.00  0.00     0.193 C 
HETATM   10  O3  UNL     1      10.808  48.266  80.751  1.00  0.00    -0.387 OA
HETATM   11  C18 UNL     1      11.301  48.315  82.048  1.00  0.00     0.193 C 
HETATM   12  C19 UNL     1      10.250  48.375  83.106  1.00  0.00     0.193 C 
HETATM   13  O4  UNL     1       9.828  49.647  83.429  1.00  0.00    -0.387 OA
HETATM   14  C20 UNL     1      10.806  50.369  84.151  1.00  0.00     0.188 C 
HETATM   15  C21 UNL     1      10.974  51.674  83.448  1.00  0.00     0.160 C 
HETATM   16  N4  UNL     1      11.862  52.599  84.040  1.00  0.00    -0.352 N 
ATOM     17  H4  UNL     1      11.538  53.522  84.329  1.00  0.00     0.174 HD
ENDROOT
BRANCH   1  18
HETATM   18  C11 UNL     1      13.919  53.395  84.636  1.00  0.00     0.114 C 
BRANCH  18  19
HETATM   19  C10 UNL     1      13.104  54.226  85.622  1.00  0.00     0.036 C 
BRANCH  19  20
HETATM   20  C9  UNL     1      13.238  53.647  87.009  1.00  0.00     0.123 C 
BRANCH  20  21
HETATM   21  N2  UNL     1      12.061  52.942  87.425  1.00  0.00    -0.367 N 
ATOM     22  H2  UNL     1      11.538  52.394  86.742  1.00  0.00     0.161 HD
BRANCH  21  23
HETATM   23  C8  UNL     1      11.598  52.996  88.802  1.00  0.00     0.172 C 
HETATM   24  S2  UNL     1      10.010  53.205  88.974  1.00  0.00    -0.041 SA
BRANCH  23  25
HETATM   25  N1  UNL     1      12.537  52.866  89.837  1.00  0.00    -0.333 N 
ATOM     26  H1  UNL     1      13.358  52.311  89.593  1.00  0.00     0.168 HD
BRANCH  25  27
HETATM   27  C7  UNL     1      12.544  53.358  91.135  1.00  0.00     0.041 A 
HETATM   28  C2  UNL     1      13.445  54.378  91.475  1.00  0.00    -0.035 A 
HETATM   29  C1  UNL     1      14.361  54.887  90.417  1.00  0.00     0.050 C 
HETATM   30  C3  UNL     1      13.506  54.908  92.729  1.00  0.00     0.010 A 
HETATM   31  C4  UNL     1      12.666  54.448  93.718  1.00  0.00     0.020 A 
HETATM   32  C5  UNL     1      11.767  53.449  93.430  1.00  0.00     0.014 A 
HETATM   33  S1  UNL     1      10.667  52.840  94.709  1.00  0.00    -0.052 SA
HETATM   34  C6  UNL     1      11.733  52.931  92.136  1.00  0.00     0.049 A 
ENDBRANCH  25  27
ENDBRANCH  23  25
ENDBRANCH  21  23
ENDBRANCH  20  21
ENDBRANCH  19  20
ENDBRANCH  18  19
ENDBRANCH   1  18
TORSDOF 7
ENDMDL
