MODEL 1
REMARK VINA RESULT: -6.813753550      0.000      0.000
REMARK  6 active torsions:
REMARK  status: ('A' for Active; 'I' for Inactive)
REMARK    1  A    between atoms: N2_10  and  C8_11 
REMARK    2  A    between atoms: C10_13  and  O2_14 
REMARK    3  A    between atoms: C12_16  and  O3_17 
REMARK    4  A    between atoms: C14_19  and  O4_20 
REMARK    5  A    between atoms: C19_25  and  C20_26 
REMARK    6  A    between atoms: C22_33  and  O6_34 
ROOT
HETATM    1  C1  UNL     1       9.586  51.933  92.875  1.00  0.00     0.024 C 
HETATM    2  C2  UNL     1      10.667  52.535  92.465  1.00  0.00    -0.033 C 
HETATM    3  C3  UNL     1      10.965  52.586  91.016  1.00  0.00     0.044 C 
HETATM    4  C4  UNL     1      11.915  53.309  90.395  1.00  0.00     0.072 A 
HETATM    5  C5  UNL     1      12.859  54.186  90.870  1.00  0.00     0.066 A 
HETATM    6  N1  UNL     1      13.631  54.616  89.847  1.00  0.00    -0.301 N 
HETATM    7  C6  UNL     1      14.733  55.516  89.817  1.00  0.00     0.161 C 
HETATM    8  C7  UNL     1      13.150  53.997  88.733  1.00  0.00     0.334 A 
HETATM    9  O1  UNL     1      13.605  54.134  87.558  1.00  0.00    -0.246 OA
HETATM   10  N2  UNL     1      12.115  53.209  89.072  1.00  0.00    -0.262 N 
HETATM   11  C17 UNL     1      13.063  54.663  92.099  1.00  0.00     0.044 C 
HETATM   12  C18 UNL     1      12.277  54.360  93.353  1.00  0.00    -0.021 C 
HETATM   13  C19 UNL     1      12.243  55.260  94.252  1.00  0.00     0.046 C 
HETATM   14  C23 UNL     1      11.552  53.115  93.496  1.00  0.00    -0.026 C 
HETATM   15  C24 UNL     1      11.651  52.427  94.594  1.00  0.00     0.025 C 
ENDROOT
BRANCH  10  16
HETATM   16  C8  UNL     1      11.390  52.417  88.134  1.00  0.00     0.050 A 
HETATM   17  C9  UNL     1      10.294  53.026  87.528  1.00  0.00     0.070 A 
HETATM   18  C10 UNL     1       9.510  52.377  86.605  1.00  0.00     0.106 A 
HETATM   19  C12 UNL     1       9.817  51.081  86.267  1.00  0.00     0.135 A 
HETATM   20  C14 UNL     1      10.919  50.466  86.876  1.00  0.00     0.106 A 
HETATM   21  C16 UNL     1      11.696  51.127  87.798  1.00  0.00     0.070 A 
BRANCH  18  22
HETATM   22  O2  UNL     1       8.419  52.995  86.007  1.00  0.00    -0.353 OA
HETATM   23  C11 UNL     1       7.157  53.051  86.655  1.00  0.00     0.210 C 
ENDBRANCH  18  22
BRANCH  19  24
HETATM   24  O3  UNL     1       9.086  50.346  85.348  1.00  0.00    -0.351 OA
HETATM   25  C13 UNL     1       9.386  50.510  83.977  1.00  0.00     0.210 C 
ENDBRANCH  19  24
BRANCH  20  26
HETATM   26  O4  UNL     1      11.185  49.169  86.505  1.00  0.00    -0.353 OA
HETATM   27  C15 UNL     1      12.309  48.836  85.740  1.00  0.00     0.210 C 
ENDBRANCH  20  26
ENDBRANCH  10  16
BRANCH  13  28
HETATM   28  C20 UNL     1      11.681  55.490  95.550  1.00  0.00     0.088 A 
HETATM   29  N3  UNL     1      11.408  54.762  96.616  1.00  0.00    -0.305 N 
HETATM   30  C21 UNL     1      10.841  55.503  97.581  1.00  0.00     0.326 A 
ATOM     31  H3  UNL     1      11.604  53.764  96.697  1.00  0.00     0.171 HD
HETATM   32  O5  UNL     1      10.462  55.111  98.716  1.00  0.00    -0.247 OA
HETATM   33  N4  UNL     1      10.727  56.768  97.157  1.00  0.00    -0.287 N 
HETATM   34  C22 UNL     1      11.228  56.800  95.923  1.00  0.00     0.171 A 
ATOM     35  H4  UNL     1      10.333  57.552  97.677  1.00  0.00     0.172 HD
BRANCH  34  36
HETATM   36  O6  UNL     1      11.291  57.940  95.142  1.00  0.00    -0.344 OA
ATOM     37  H6  UNL     1      10.928  58.045  94.270  1.00  0.00     0.219 HD
ENDBRANCH  34  36
ENDBRANCH  13  28
TORSDOF 6
ENDMDL
MODEL 2
REMARK VINA RESULT: -6.803502563      0.158      2.162
REMARK  6 active torsions:
REMARK  status: ('A' for Active; 'I' for Inactive)
REMARK    1  A    between atoms: N2_10  and  C8_11 
REMARK    2  A    between atoms: C10_13  and  O2_14 
REMARK    3  A    between atoms: C12_16  and  O3_17 
REMARK    4  A    between atoms: C14_19  and  O4_20 
REMARK    5  A    between atoms: C19_25  and  C20_26 
REMARK    6  A    between atoms: C22_33  and  O6_34 
ROOT
HETATM    1  C1  UNL     1       9.353  52.164  92.819  1.00  0.00     0.024 C 
HETATM    2  C2  UNL     1      10.483  52.685  92.426  1.00  0.00    -0.033 C 
HETATM    3  C3  UNL     1      10.795  52.734  90.980  1.00  0.00     0.044 C 
HETATM    4  C4  UNL     1      11.805  53.389  90.378  1.00  0.00     0.072 A 
HETATM    5  C5  UNL     1      12.812  54.181  90.874  1.00  0.00     0.066 A 
HETATM    6  N1  UNL     1      13.624  54.564  89.863  1.00  0.00    -0.301 N 
HETATM    7  C6  UNL     1      14.794  55.374  89.856  1.00  0.00     0.161 C 
HETATM    8  C7  UNL     1      13.106  54.001  88.736  1.00  0.00     0.334 A 
HETATM    9  O1  UNL     1      13.580  54.120  87.567  1.00  0.00    -0.246 OA
HETATM   10  N2  UNL     1      12.008  53.293  89.055  1.00  0.00    -0.262 N 
HETATM   11  C17 UNL     1      13.042  54.621  92.111  1.00  0.00     0.044 C 
HETATM   12  C18 UNL     1      12.224  54.363  93.354  1.00  0.00    -0.021 C 
HETATM   13  C19 UNL     1      12.254  55.249  94.267  1.00  0.00     0.046 C 
HETATM   14  C23 UNL     1      11.402  53.177  93.473  1.00  0.00    -0.026 C 
HETATM   15  C24 UNL     1      11.436  52.467  94.560  1.00  0.00     0.025 C 
ENDROOT
BRANCH  10  16
HETATM   16  C8  UNL     1      11.231  52.576  88.099  1.00  0.00     0.050 A 
HETATM   17  C9  UNL     1      11.618  51.262  87.848  1.00  0.00     0.070 A 
HETATM   18  C10 UNL     1      10.956  50.459  86.952  1.00  0.00     0.106 A 
HETATM   19  C12 UNL     1       9.871  50.968  86.280  1.00  0.00     0.135 A 
HETATM   20  C14 UNL     1       9.479  52.290  86.530  1.00  0.00     0.106 A 
HETATM   21  C16 UNL     1      10.151  53.084  87.430  1.00  0.00     0.070 A 
BRANCH  18  22
HETATM   22  O2  UNL     1      11.352  49.150  86.710  1.00  0.00    -0.353 OA
HETATM   23  C11 UNL     1      12.415  48.855  85.816  1.00  0.00     0.210 C 
ENDBRANCH  18  22
BRANCH  19  24
HETATM   24  O3  UNL     1       9.141  50.236  85.358  1.00  0.00    -0.351 OA
HETATM   25  C13 UNL     1       9.540  50.285  84.003  1.00  0.00     0.210 C 
ENDBRANCH  19  24
BRANCH  20  26
HETATM   26  O4  UNL     1       8.388  52.754  85.833  1.00  0.00    -0.353 OA
HETATM   27  C15 UNL     1       7.176  53.047  86.468  1.00  0.00     0.210 C 
ENDBRANCH  20  26
ENDBRANCH  10  16
BRANCH  13  28
HETATM   28  C20 UNL     1      11.700  55.503  95.565  1.00  0.00     0.088 A 
HETATM   29  N3  UNL     1      11.428  54.794  96.643  1.00  0.00    -0.305 N 
HETATM   30  C21 UNL     1      10.871  55.554  97.599  1.00  0.00     0.326 A 
ATOM     31  H3  UNL     1      11.617  53.796  96.739  1.00  0.00     0.171 HD
HETATM   32  O5  UNL     1      10.496  55.182  98.743  1.00  0.00    -0.247 OA
HETATM   33  N4  UNL     1      10.764  56.813  97.157  1.00  0.00    -0.287 N 
HETATM   34  C22 UNL     1      11.260  56.822  95.920  1.00  0.00     0.171 A 
ATOM     35  H4  UNL     1      10.379  57.608  97.667  1.00  0.00     0.172 HD
BRANCH  34  36
HETATM   36  O6  UNL     1      11.327  57.949  95.121  1.00  0.00    -0.344 OA
ATOM     37  H6  UNL     1      10.594  58.385  94.702  1.00  0.00     0.219 HD
ENDBRANCH  34  36
ENDBRANCH  13  28
TORSDOF 6
ENDMDL
MODEL 3
REMARK VINA RESULT: -6.751325054      1.195      2.368
REMARK  6 active torsions:
REMARK  status: ('A' for Active; 'I' for Inactive)
REMARK    1  A    between atoms: N2_10  and  C8_11 
REMARK    2  A    between atoms: C10_13  and  O2_14 
REMARK    3  A    between atoms: C12_16  and  O3_17 
REMARK    4  A    between atoms: C14_19  and  O4_20 
REMARK    5  A    between atoms: C19_25  and  C20_26 
REMARK    6  A    between atoms: C22_33  and  O6_34 
ROOT
HETATM    1  C1  UNL     1       9.160  52.073  93.323  1.00  0.00     0.024 C 
HETATM    2  C2  UNL     1      10.270  52.653  92.963  1.00  0.00    -0.033 C 
HETATM    3  C3  UNL     1      10.672  52.632  91.538  1.00  0.00     0.044 C 
HETATM    4  C4  UNL     1      11.667  53.324  90.953  1.00  0.00     0.072 A 
HETATM    5  C5  UNL     1      12.579  54.222  91.451  1.00  0.00     0.066 A 
HETATM    6  N1  UNL     1      13.424  54.601  90.466  1.00  0.00    -0.301 N 
HETATM    7  C6  UNL     1      14.529  55.497  90.473  1.00  0.00     0.161 C 
HETATM    8  C7  UNL     1      13.023  53.927  89.353  1.00  0.00     0.334 A 
HETATM    9  O1  UNL     1      13.562  54.006  88.208  1.00  0.00    -0.246 OA
HETATM   10  N2  UNL     1      11.962  53.158  89.654  1.00  0.00    -0.262 N 
HETATM   11  C17 UNL     1      12.696  54.759  92.666  1.00  0.00     0.044 C 
HETATM   12  C18 UNL     1      11.820  54.519  93.874  1.00  0.00    -0.021 C 
HETATM   13  C19 UNL     1      11.725  55.462  94.722  1.00  0.00     0.046 C 
HETATM   14  C23 UNL     1      11.081  53.282  94.026  1.00  0.00    -0.026 C 
HETATM   15  C24 UNL     1      11.098  52.650  95.160  1.00  0.00     0.025 C 
ENDROOT
BRANCH  10  16
HETATM   16  C8  UNL     1      11.303  52.321  88.706  1.00  0.00     0.050 A 
HETATM   17  C9  UNL     1      11.752  51.006  88.625  1.00  0.00     0.070 A 
HETATM   18  C10 UNL     1      11.204  50.094  87.755  1.00  0.00     0.106 A 
HETATM   19  C12 UNL     1      10.175  50.494  86.937  1.00  0.00     0.135 A 
HETATM   20  C14 UNL     1       9.721  51.817  87.017  1.00  0.00     0.106 A 
HETATM   21  C16 UNL     1      10.278  52.719  87.892  1.00  0.00     0.070 A 
BRANCH  18  22
HETATM   22  O2  UNL     1      11.661  48.785  87.683  1.00  0.00    -0.353 OA
HETATM   23  C11 UNL     1      12.754  48.341  88.473  1.00  0.00     0.210 C 
ENDBRANCH  18  22
BRANCH  19  24
HETATM   24  O3  UNL     1       9.560  49.647  86.029  1.00  0.00    -0.351 OA
HETATM   25  C13 UNL     1      10.182  49.453  84.775  1.00  0.00     0.210 C 
ENDBRANCH  19  24
BRANCH  20  26
HETATM   26  O4  UNL     1       8.690  52.167  86.177  1.00  0.00    -0.353 OA
HETATM   27  C15 UNL     1       8.890  52.998  85.068  1.00  0.00     0.210 C 
ENDBRANCH  20  26
ENDBRANCH  10  16
BRANCH  13  28
HETATM   28  C20 UNL     1      11.072  55.756  95.964  1.00  0.00     0.088 A 
HETATM   29  N3  UNL     1      11.439  55.930  97.219  1.00  0.00    -0.305 N 
HETATM   30  C21 UNL     1      10.379  56.165  98.009  1.00  0.00     0.326 A 
ATOM     31  H3  UNL     1      12.404  55.892  97.547  1.00  0.00     0.171 HD
HETATM   32  O5  UNL     1      10.389  56.370  99.252  1.00  0.00    -0.247 OA
HETATM   33  N4  UNL     1       9.264  56.151  97.268  1.00  0.00    -0.287 N 
HETATM   34  C22 UNL     1       9.645  55.905  96.015  1.00  0.00     0.171 A 
ATOM     35  H4  UNL     1       8.310  56.299  97.599  1.00  0.00     0.172 HD
BRANCH  34  36
HETATM   36  O6  UNL     1       8.774  55.813  94.945  1.00  0.00    -0.344 OA
ATOM     37  H6  UNL     1       7.840  55.649  94.993  1.00  0.00     0.219 HD
ENDBRANCH  34  36
ENDBRANCH  13  28
TORSDOF 6
ENDMDL
MODEL 4
REMARK VINA RESULT: -6.712913696      1.007      1.013
REMARK  6 active torsions:
REMARK  status: ('A' for Active; 'I' for Inactive)
REMARK    1  A    between atoms: N2_10  and  C8_11 
REMARK    2  A    between atoms: C10_13  and  O2_14 
REMARK    3  A    between atoms: C12_16  and  O3_17 
REMARK    4  A    between atoms: C14_19  and  O4_20 
REMARK    5  A    between atoms: C19_25  and  C20_26 
REMARK    6  A    between atoms: C22_33  and  O6_34 
ROOT
HETATM    1  C1  UNL     1       9.115  52.133  93.280  1.00  0.00     0.024 C 
HETATM    2  C2  UNL     1      10.239  52.696  92.933  1.00  0.00    -0.033 C 
HETATM    3  C3  UNL     1      10.649  52.681  91.511  1.00  0.00     0.044 C 
HETATM    4  C4  UNL     1      11.661  53.360  90.939  1.00  0.00     0.072 A 
HETATM    5  C5  UNL     1      12.585  54.237  91.452  1.00  0.00     0.066 A 
HETATM    6  N1  UNL     1      13.444  54.610  90.476  1.00  0.00    -0.301 N 
HETATM    7  C6  UNL     1      14.565  55.486  90.498  1.00  0.00     0.161 C 
HETATM    8  C7  UNL     1      13.038  53.954  89.354  1.00  0.00     0.334 A 
HETATM    9  O1  UNL     1      13.586  54.034  88.213  1.00  0.00    -0.246 OA
HETATM   10  N2  UNL     1      11.962  53.201  89.640  1.00  0.00    -0.262 N 
HETATM   11  C17 UNL     1      12.703  54.761  92.672  1.00  0.00     0.044 C 
HETATM   12  C18 UNL     1      11.815  54.525  93.872  1.00  0.00    -0.021 C 
HETATM   13  C19 UNL     1      11.731  55.462  94.728  1.00  0.00     0.046 C 
HETATM   14  C23 UNL     1      11.053  53.301  94.007  1.00  0.00    -0.026 C 
HETATM   15  C24 UNL     1      11.050  52.658  95.135  1.00  0.00     0.025 C 
ENDROOT
BRANCH  10  16
HETATM   16  C8  UNL     1      11.294  52.385  88.681  1.00  0.00     0.050 A 
HETATM   17  C9  UNL     1      10.263  52.989  87.967  1.00  0.00     0.070 A 
HETATM   18  C10 UNL     1       9.538  52.318  87.012  1.00  0.00     0.106 A 
HETATM   19  C12 UNL     1       9.842  51.004  86.750  1.00  0.00     0.135 A 
HETATM   20  C14 UNL     1      10.880  50.393  87.467  1.00  0.00     0.106 A 
HETATM   21  C16 UNL     1      11.598  51.077  88.421  1.00  0.00     0.070 A 
BRANCH  18  22
HETATM   22  O2  UNL     1       8.512  52.931  86.306  1.00  0.00    -0.353 OA
HETATM   23  C11 UNL     1       7.204  53.036  86.849  1.00  0.00     0.210 C 
ENDBRANCH  18  22
BRANCH  19  24
HETATM   24  O3  UNL     1       9.169  50.245  85.806  1.00  0.00    -0.351 OA
HETATM   25  C13 UNL     1       9.572  50.355  84.456  1.00  0.00     0.210 C 
ENDBRANCH  19  24
BRANCH  20  26
HETATM   26  O4  UNL     1      11.146  49.077  87.170  1.00  0.00    -0.353 OA
HETATM   27  C15 UNL     1      12.287  48.427  87.653  1.00  0.00     0.210 C 
ENDBRANCH  20  26
ENDBRANCH  10  16
BRANCH  13  28
HETATM   28  C20 UNL     1      11.074  55.757  95.968  1.00  0.00     0.088 A 
HETATM   29  N3  UNL     1      11.436  55.916  97.227  1.00  0.00    -0.305 N 
HETATM   30  C21 UNL     1      10.375  56.160  98.012  1.00  0.00     0.326 A 
ATOM     31  H3  UNL     1      12.399  55.862  97.560  1.00  0.00     0.171 HD
HETATM   32  O5  UNL     1      10.380  56.357  99.256  1.00  0.00    -0.247 OA
HETATM   33  N4  UNL     1       9.265  56.167  97.265  1.00  0.00    -0.287 N 
HETATM   34  C22 UNL     1       9.650  55.925  96.012  1.00  0.00     0.171 A 
ATOM     35  H4  UNL     1       8.311  56.327  97.591  1.00  0.00     0.172 HD
BRANCH  34  36
HETATM   36  O6  UNL     1       8.784  55.854  94.936  1.00  0.00    -0.344 OA
ATOM     37  H6  UNL     1       7.924  55.450  94.932  1.00  0.00     0.219 HD
ENDBRANCH  34  36
ENDBRANCH  13  28
TORSDOF 6
ENDMDL
MODEL 5
REMARK VINA RESULT: -6.632233444      3.649     10.133
REMARK  6 active torsions:
REMARK  status: ('A' for Active; 'I' for Inactive)
REMARK    1  A    between atoms: N2_10  and  C8_11 
REMARK    2  A    between atoms: C10_13  and  O2_14 
REMARK    3  A    between atoms: C12_16  and  O3_17 
REMARK    4  A    between atoms: C14_19  and  O4_20 
REMARK    5  A    between atoms: C19_25  and  C20_26 
REMARK    6  A    between atoms: C22_33  and  O6_34 
ROOT
HETATM    1  C1  UNL     1      11.614  56.848  95.092  1.00  0.00     0.024 C 
HETATM    2  C2  UNL     1      11.032  55.709  94.840  1.00  0.00    -0.033 C 
HETATM    3  C3  UNL     1       9.701  55.428  95.424  1.00  0.00     0.044 C 
HETATM    4  C4  UNL     1       8.873  54.408  95.134  1.00  0.00     0.072 A 
HETATM    5  C5  UNL     1       8.980  53.359  94.254  1.00  0.00     0.066 A 
HETATM    6  N1  UNL     1       7.899  52.556  94.374  1.00  0.00    -0.301 N 
HETATM    7  C6  UNL     1       7.543  51.355  93.698  1.00  0.00     0.161 C 
HETATM    8  C7  UNL     1       7.121  53.123  95.337  1.00  0.00     0.334 A 
HETATM    9  O1  UNL     1       6.010  52.671  95.749  1.00  0.00    -0.246 OA
HETATM   10  N2  UNL     1       7.715  54.240  95.792  1.00  0.00    -0.262 N 
HETATM   11  C17 UNL     1       9.912  53.082  93.340  1.00  0.00     0.044 C 
HETATM   12  C18 UNL     1      11.150  53.881  93.008  1.00  0.00    -0.021 C 
HETATM   13  C19 UNL     1      11.599  53.795  91.820  1.00  0.00     0.046 C 
HETATM   14  C23 UNL     1      11.766  54.746  93.992  1.00  0.00    -0.026 C 
HETATM   15  C24 UNL     1      13.052  54.715  94.174  1.00  0.00     0.025 C 
ENDROOT
BRANCH  10  16
HETATM   16  C8  UNL     1       7.159  55.067  96.811  1.00  0.00     0.050 A 
HETATM   17  C9  UNL     1       7.755  54.985  98.067  1.00  0.00     0.070 A 
HETATM   18  C10 UNL     1       7.319  55.728  99.137  1.00  0.00     0.106 A 
HETATM   19  C12 UNL     1       6.258  56.584  98.963  1.00  0.00     0.135 A 
HETATM   20  C14 UNL     1       5.657  56.668  97.700  1.00  0.00     0.106 A 
HETATM   21  C16 UNL     1       6.103  55.919  96.637  1.00  0.00     0.070 A 
BRANCH  18  22
HETATM   22  O2  UNL     1       7.921  55.637 100.386  1.00  0.00    -0.353 OA
HETATM   23  C11 UNL     1       7.784  54.473 101.187  1.00  0.00     0.210 C 
ENDBRANCH  18  22
BRANCH  19  24
HETATM   24  O3  UNL     1       5.748  57.373  99.981  1.00  0.00    -0.351 OA
HETATM   25  C13 UNL     1       4.801  56.797 100.857  1.00  0.00     0.210 C 
ENDBRANCH  19  24
BRANCH  20  26
HETATM   26  O4  UNL     1       4.599  57.538  97.576  1.00  0.00    -0.353 OA
HETATM   27  C15 UNL     1       4.695  58.714  96.823  1.00  0.00     0.210 C 
ENDBRANCH  20  26
ENDBRANCH  10  16
BRANCH  13  28
HETATM   28  C20 UNL     1      12.668  54.307  91.014  1.00  0.00     0.088 A 
HETATM   29  N3  UNL     1      13.566  55.268  91.116  1.00  0.00    -0.305 N 
HETATM   30  C21 UNL     1      14.337  55.334  90.019  1.00  0.00     0.326 A 
ATOM     31  H3  UNL     1      13.663  55.882  91.925  1.00  0.00     0.171 HD
HETATM   32  O5  UNL     1      15.282  56.138  89.802  1.00  0.00    -0.247 OA
HETATM   33  N4  UNL     1      13.951  54.391  89.151  1.00  0.00    -0.287 N 
HETATM   34  C22 UNL     1      12.935  53.744  89.721  1.00  0.00     0.171 A 
ATOM     35  H4  UNL     1      14.355  54.205  88.233  1.00  0.00     0.172 HD
BRANCH  34  36
HETATM   36  O6  UNL     1      12.260  52.691  89.133  1.00  0.00    -0.344 OA
ATOM     37  H6  UNL     1      11.342  52.678  88.888  1.00  0.00     0.219 HD
ENDBRANCH  34  36
ENDBRANCH  13  28
TORSDOF 6
ENDMDL
