MODEL 1
REMARK VINA RESULT: -7.806832268      0.000      0.000
REMARK  13 active torsions:
REMARK  status: ('A' for Active; 'I' for Inactive)
REMARK    1  A    between atoms: C2_2  and  S1_4 
REMARK    2  A    between atoms: S1_4  and  C4_7 
REMARK    3  A    between atoms: C9_12  and  N1_13 
REMARK    4  A    between atoms: N1_13  and  C10_15 
REMARK    5  A    between atoms: C11_18  and  N3_19 
REMARK    6  A    between atoms: N3_19  and  C12_21 
REMARK    7  A    between atoms: C12_21  and  C13_22 
REMARK    8  A    between atoms: C13_22  and  C14_23 
REMARK    9  A    between atoms: C14_23  and  N4_24 
REMARK   10  A    between atoms: C17_29  and  N6_30 
REMARK   11  A    between atoms: N6_30  and  C18_32 
REMARK   12  A    between atoms: C23_41  and  C24_42 
REMARK   13  A    between atoms: C24_42  and  C25_43 
ROOT
HETATM    1  C10 UNL     1      11.314  52.736  86.963  1.00  0.00     0.711 A 
HETATM    2  N2  UNL     1      11.149  51.461  87.311  1.00  0.00    -0.021 N 
ATOM      3  H2  UNL     1      11.002  51.209  88.288  1.00  0.00     0.203 HD
HETATM    4  C11 UNL     1      11.179  50.499  86.349  1.00  0.00     0.707 A 
HETATM    5  N5  UNL     1      11.371  50.827  85.063  1.00  0.00    -0.021 N 
ATOM      6  H5  UNL     1      11.391  50.089  84.359  1.00  0.00     0.203 HD
HETATM    7  C17 UNL     1      11.538  52.098  84.681  1.00  0.00     0.711 A 
HETATM    8  N10 UNL     1      11.506  53.031  85.639  1.00  0.00    -0.021 N 
ATOM      9  H10 UNL     1      11.632  54.008  85.372  1.00  0.00     0.203 HD
ENDROOT
BRANCH   7  10
HETATM   10  N6  UNL     1      11.716  52.468  83.440  1.00  0.00    -0.190 N 
ATOM     11  H6  UNL     1      10.925  52.799  82.887  1.00  0.00     0.184 HD
BRANCH  10  12
HETATM   12  C18 UNL     1      12.994  52.408  82.870  1.00  0.00     0.063 A 
HETATM   13  C19 UNL     1      14.032  53.211  83.324  1.00  0.00     0.031 A 
HETATM   14  C20 UNL     1      15.282  53.199  82.762  1.00  0.00     0.005 A 
HETATM   15  C21 UNL     1      15.518  52.356  81.703  1.00  0.00     0.032 A 
HETATM   16  C22 UNL     1      14.527  51.543  81.219  1.00  0.00     0.062 A 
HETATM   17  N7  UNL     1      14.495  50.645  80.197  1.00  0.00    -0.300 N 
HETATM   18  C30 UNL     1      13.265  51.559  81.792  1.00  0.00     0.043 A 
HETATM   19  N8  UNL     1      13.304  50.127  80.130  1.00  0.00    -0.303 N 
ATOM     20  H7  UNL     1      15.277  50.416  79.585  1.00  0.00     0.187 HD
HETATM   21  C23 UNL     1      12.489  50.664  81.112  1.00  0.00     0.044 A 
ATOM     22  H8  UNL     1      13.012  49.425  79.450  1.00  0.00     0.186 HD
BRANCH  21  23
HETATM   23  C24 UNL     1      11.112  50.205  81.330  1.00  0.00     0.099 C 
BRANCH  23  24
HETATM   24  C25 UNL     1      10.106  50.790  80.420  1.00  0.00    -0.037 A 
HETATM   25  C26 UNL     1       9.981  50.344  79.107  1.00  0.00     0.010 A 
HETATM   26  C27 UNL     1       9.063  50.951  78.293  1.00  0.00     0.018 A 
HETATM   27  C28 UNL     1       8.263  51.983  78.722  1.00  0.00     0.087 A 
HETATM   28  N9  UNL     1       8.398  52.400  79.991  1.00  0.00    -0.375 N 
HETATM   29  C29 UNL     1       9.298  51.811  80.806  1.00  0.00     0.095 A 
ATOM     30  H9  UNL     1       7.820  53.164  80.340  1.00  0.00     0.164 HD
ENDBRANCH  23  24
ENDBRANCH  21  23
ENDBRANCH  10  12
ENDBRANCH   7  10
BRANCH   4  31
HETATM   31  N3  UNL     1      11.021  49.242  86.656  1.00  0.00    -0.225 N 
ATOM     32  H3  UNL     1      10.501  48.649  86.009  1.00  0.00     0.177 HD
BRANCH  31  33
HETATM   33  C12 UNL     1      11.536  48.648  87.850  1.00  0.00     0.140 C 
BRANCH  33  34
HETATM   34  C13 UNL     1      12.991  48.279  87.591  1.00  0.00     0.050 C 
BRANCH  34  35
HETATM   35  C14 UNL     1      13.033  47.244  86.489  1.00  0.00     0.273 C 
BRANCH  35  36
HETATM   36  N4  UNL     1      14.332  47.075  85.926  1.00  0.00     0.080 N 
HETATM   37  C15 UNL     1      14.543  45.802  85.307  1.00  0.00     0.309 C 
HETATM   38  C16 UNL     1      15.405  47.462  86.784  1.00  0.00     0.309 C 
ENDBRANCH  35  36
ENDBRANCH  34  35
ENDBRANCH  33  34
ENDBRANCH  31  33
ENDBRANCH   4  31
BRANCH   1  39
HETATM   39  N1  UNL     1      11.327  53.710  87.763  1.00  0.00    -0.189 N 
ATOM     40  H1  UNL     1      10.506  54.315  87.724  1.00  0.00     0.184 HD
BRANCH  39  41
HETATM   41  C9  UNL     1      12.295  54.084  88.694  1.00  0.00     0.070 A 
HETATM   42  C4  UNL     1      12.093  53.974  90.040  1.00  0.00     0.086 A 
HETATM   43  C5  UNL     1      13.131  54.445  90.873  1.00  0.00     0.026 A 
HETATM   44  C6  UNL     1      14.290  54.987  90.401  1.00  0.00     0.002 A 
HETATM   45  C7  UNL     1      14.449  55.077  89.041  1.00  0.00     0.002 A 
HETATM   46  C8  UNL     1      13.485  54.642  88.183  1.00  0.00     0.031 A 
BRANCH  42  47
HETATM   47  S1  UNL     1      10.716  53.305  90.840  1.00  0.00     0.181 S 
HETATM   48  O1  UNL     1      10.597  51.857  90.347  1.00  0.00    -0.222 OA
HETATM   49  O2  UNL     1       9.450  54.018  90.379  1.00  0.00    -0.222 OA
BRANCH  47  50
HETATM   50  C2  UNL     1      10.717  53.357  92.588  1.00  0.00     0.105 C 
HETATM   51  C1  UNL     1       9.571  54.375  92.997  1.00  0.00     0.026 C 
HETATM   52  C3  UNL     1      10.273  52.091  93.215  1.00  0.00     0.026 C 
ENDBRANCH  47  50
ENDBRANCH  42  47
ENDBRANCH  39  41
ENDBRANCH   1  39
TORSDOF 13
ENDMDL
MODEL 2
REMARK VINA RESULT: -7.718661734      1.313      2.066
REMARK  13 active torsions:
REMARK  status: ('A' for Active; 'I' for Inactive)
REMARK    1  A    between atoms: C2_2  and  S1_4 
REMARK    2  A    between atoms: S1_4  and  C4_7 
REMARK    3  A    between atoms: C9_12  and  N1_13 
REMARK    4  A    between atoms: N1_13  and  C10_15 
REMARK    5  A    between atoms: C11_18  and  N3_19 
REMARK    6  A    between atoms: N3_19  and  C12_21 
REMARK    7  A    between atoms: C12_21  and  C13_22 
REMARK    8  A    between atoms: C13_22  and  C14_23 
REMARK    9  A    between atoms: C14_23  and  N4_24 
REMARK   10  A    between atoms: C17_29  and  N6_30 
REMARK   11  A    between atoms: N6_30  and  C18_32 
REMARK   12  A    between atoms: C23_41  and  C24_42 
REMARK   13  A    between atoms: C24_42  and  C25_43 
ROOT
HETATM    1  C10 UNL     1      11.335  52.713  86.933  1.00  0.00     0.711 A 
HETATM    2  N2  UNL     1      11.188  51.453  87.338  1.00  0.00    -0.021 N 
ATOM      3  H2  UNL     1      11.055  51.242  88.327  1.00  0.00     0.203 HD
HETATM    4  C11 UNL     1      11.218  50.450  86.419  1.00  0.00     0.707 A 
HETATM    5  N5  UNL     1      11.393  50.722  85.118  1.00  0.00    -0.021 N 
ATOM      6  H5  UNL     1      11.413  49.954  84.447  1.00  0.00     0.203 HD
HETATM    7  C17 UNL     1      11.541  51.978  84.679  1.00  0.00     0.711 A 
HETATM    8  N10 UNL     1      11.510  52.951  85.595  1.00  0.00    -0.021 N 
ATOM      9  H10 UNL     1      11.622  53.916  85.284  1.00  0.00     0.203 HD
ENDROOT
BRANCH   7  10
HETATM   10  N6  UNL     1      11.702  52.294  83.420  1.00  0.00    -0.190 N 
ATOM     11  H6  UNL     1      10.891  52.513  82.841  1.00  0.00     0.184 HD
BRANCH  10  12
HETATM   12  C18 UNL     1      12.989  52.330  82.869  1.00  0.00     0.063 A 
HETATM   13  C19 UNL     1      13.961  53.199  83.347  1.00  0.00     0.031 A 
HETATM   14  C20 UNL     1      15.217  53.281  82.803  1.00  0.00     0.005 A 
HETATM   15  C21 UNL     1      15.526  52.469  81.737  1.00  0.00     0.032 A 
HETATM   16  C22 UNL     1      14.601  51.595  81.230  1.00  0.00     0.062 A 
HETATM   17  N7  UNL     1      14.646  50.709  80.199  1.00  0.00    -0.300 N 
HETATM   18  C30 UNL     1      13.333  51.515  81.785  1.00  0.00     0.043 A 
HETATM   19  N8  UNL     1      13.495  50.109  80.108  1.00  0.00    -0.303 N 
ATOM     20  H7  UNL     1      15.451  50.543  79.595  1.00  0.00     0.187 HD
HETATM   21  C23 UNL     1      12.631  50.577  81.084  1.00  0.00     0.044 A 
ATOM     22  H8  UNL     1      13.263  49.397  79.417  1.00  0.00     0.186 HD
BRANCH  21  23
HETATM   23  C24 UNL     1      11.287  50.020  81.278  1.00  0.00     0.099 C 
BRANCH  23  24
HETATM   24  C25 UNL     1      11.250  48.595  81.664  1.00  0.00    -0.037 A 
HETATM   25  C26 UNL     1      10.974  47.604  80.724  1.00  0.00     0.010 A 
HETATM   26  C27 UNL     1      10.907  46.303  81.145  1.00  0.00     0.018 A 
HETATM   27  C28 UNL     1      11.100  45.938  82.456  1.00  0.00     0.087 A 
HETATM   28  N9  UNL     1      11.364  46.908  83.347  1.00  0.00    -0.375 N 
HETATM   29  C29 UNL     1      11.434  48.195  82.948  1.00  0.00     0.095 A 
ATOM     30  H9  UNL     1      11.512  46.671  84.328  1.00  0.00     0.164 HD
ENDBRANCH  23  24
ENDBRANCH  21  23
ENDBRANCH  10  12
ENDBRANCH   7  10
BRANCH   4  31
HETATM   31  N3  UNL     1      11.078  49.206  86.783  1.00  0.00    -0.225 N 
ATOM     32  H3  UNL     1      10.553  48.581  86.171  1.00  0.00     0.177 HD
BRANCH  31  33
HETATM   33  C12 UNL     1      11.619  48.668  87.992  1.00  0.00     0.140 C 
BRANCH  33  34
HETATM   34  C13 UNL     1      13.047  48.226  87.702  1.00  0.00     0.050 C 
BRANCH  34  35
HETATM   35  C14 UNL     1      13.019  47.244  86.552  1.00  0.00     0.273 C 
BRANCH  35  36
HETATM   36  N4  UNL     1      14.287  47.081  85.921  1.00  0.00     0.080 N 
HETATM   37  C15 UNL     1      14.463  45.817  85.274  1.00  0.00     0.309 C 
HETATM   38  C16 UNL     1      15.404  47.454  86.728  1.00  0.00     0.309 C 
ENDBRANCH  35  36
ENDBRANCH  34  35
ENDBRANCH  33  34
ENDBRANCH  31  33
ENDBRANCH   4  31
BRANCH   1  39
HETATM   39  N1  UNL     1      11.346  53.721  87.689  1.00  0.00    -0.189 N 
ATOM     40  H1  UNL     1      10.553  54.354  87.581  1.00  0.00     0.184 HD
BRANCH  39  41
HETATM   41  C9  UNL     1      12.280  54.101  88.652  1.00  0.00     0.070 A 
HETATM   42  C4  UNL     1      12.038  53.980  89.990  1.00  0.00     0.086 A 
HETATM   43  C5  UNL     1      13.043  54.459  90.858  1.00  0.00     0.026 A 
HETATM   44  C6  UNL     1      14.209  55.019  90.426  1.00  0.00     0.002 A 
HETATM   45  C7  UNL     1      14.410  55.119  89.071  1.00  0.00     0.002 A 
HETATM   46  C8  UNL     1      13.479  54.677  88.181  1.00  0.00     0.031 A 
BRANCH  42  47
HETATM   47  S1  UNL     1      10.645  53.289  90.744  1.00  0.00     0.181 S 
HETATM   48  O1  UNL     1      10.563  51.841  90.243  1.00  0.00    -0.222 OA
HETATM   49  O2  UNL     1       9.385  53.985  90.243  1.00  0.00    -0.222 OA
BRANCH  47  50
HETATM   50  C2  UNL     1      10.589  53.336  92.491  1.00  0.00     0.105 C 
HETATM   51  C1  UNL     1       9.378  54.290  92.864  1.00  0.00     0.026 C 
HETATM   52  C3  UNL     1      10.194  52.046  93.102  1.00  0.00     0.026 C 
ENDBRANCH  47  50
ENDBRANCH  42  47
ENDBRANCH  39  41
ENDBRANCH   1  39
TORSDOF 13
ENDMDL
MODEL 3
REMARK VINA RESULT: -7.605789462      1.183      3.227
REMARK  13 active torsions:
REMARK  status: ('A' for Active; 'I' for Inactive)
REMARK    1  A    between atoms: C2_2  and  S1_4 
REMARK    2  A    between atoms: S1_4  and  C4_7 
REMARK    3  A    between atoms: C9_12  and  N1_13 
REMARK    4  A    between atoms: N1_13  and  C10_15 
REMARK    5  A    between atoms: C11_18  and  N3_19 
REMARK    6  A    between atoms: N3_19  and  C12_21 
REMARK    7  A    between atoms: C12_21  and  C13_22 
REMARK    8  A    between atoms: C13_22  and  C14_23 
REMARK    9  A    between atoms: C14_23  and  N4_24 
REMARK   10  A    between atoms: C17_29  and  N6_30 
REMARK   11  A    between atoms: N6_30  and  C18_32 
REMARK   12  A    between atoms: C23_41  and  C24_42 
REMARK   13  A    between atoms: C24_42  and  C25_43 
ROOT
HETATM    1  C10 UNL     1      11.173  52.836  87.116  1.00  0.00     0.711 A 
HETATM    2  N2  UNL     1      11.034  51.554  87.450  1.00  0.00    -0.021 N 
ATOM      3  H2  UNL     1      10.933  51.284  88.428  1.00  0.00     0.203 HD
HETATM    4  C11 UNL     1      11.030  50.608  86.472  1.00  0.00     0.707 A 
HETATM    5  N5  UNL     1      11.163  50.958  85.184  1.00  0.00    -0.021 N 
ATOM      6  H5  UNL     1      11.158  50.232  84.468  1.00  0.00     0.203 HD
HETATM    7  C17 UNL     1      11.302  52.238  84.816  1.00  0.00     0.711 A 
HETATM    8  N10 UNL     1      11.304  53.154  85.790  1.00  0.00    -0.021 N 
ATOM      9  H10 UNL     1      11.409  54.136  85.535  1.00  0.00     0.203 HD
ENDROOT
BRANCH   7  10
HETATM   10  N6  UNL     1      11.422  52.629  83.575  1.00  0.00    -0.190 N 
ATOM     11  H6  UNL     1      12.301  53.032  83.249  1.00  0.00     0.184 HD
BRANCH  10  12
HETATM   12  C18 UNL     1      10.343  52.495  82.693  1.00  0.00     0.063 A 
HETATM   13  C19 UNL     1       9.251  53.352  82.743  1.00  0.00     0.031 A 
HETATM   14  C20 UNL     1       8.166  53.222  81.916  1.00  0.00     0.005 A 
HETATM   15  C21 UNL     1       8.157  52.199  80.998  1.00  0.00     0.032 A 
HETATM   16  C22 UNL     1       9.211  51.327  80.910  1.00  0.00     0.062 A 
HETATM   17  N7  UNL     1       9.442  50.247  80.116  1.00  0.00    -0.300 N 
HETATM   18  C30 UNL     1      10.306  51.464  81.748  1.00  0.00     0.043 A 
HETATM   19  N8  UNL     1      10.599  49.739  80.424  1.00  0.00    -0.303 N 
ATOM     20  H7  UNL     1       8.811  49.894  79.397  1.00  0.00     0.187 HD
HETATM   21  C23 UNL     1      11.188  50.467  81.444  1.00  0.00     0.044 A 
ATOM     22  H8  UNL     1      11.013  48.921  79.978  1.00  0.00     0.186 HD
BRANCH  21  23
HETATM   23  C24 UNL     1      12.539  50.176  81.941  1.00  0.00     0.099 C 
BRANCH  23  24
HETATM   24  C25 UNL     1      13.633  50.836  81.202  1.00  0.00    -0.037 A 
HETATM   25  C26 UNL     1      14.414  51.821  81.804  1.00  0.00     0.010 A 
HETATM   26  C27 UNL     1      15.385  52.432  81.060  1.00  0.00     0.018 A 
HETATM   27  C28 UNL     1      15.620  52.114  79.744  1.00  0.00     0.087 A 
HETATM   28  N9  UNL     1      14.856  51.164  79.180  1.00  0.00    -0.375 N 
HETATM   29  C29 UNL     1      13.895  50.550  79.901  1.00  0.00     0.095 A 
ATOM     30  H9  UNL     1      15.005  50.904  78.205  1.00  0.00     0.164 HD
ENDBRANCH  23  24
ENDBRANCH  21  23
ENDBRANCH  10  12
ENDBRANCH   7  10
BRANCH   4  31
HETATM   31  N3  UNL     1      10.897  49.345  86.764  1.00  0.00    -0.225 N 
ATOM     32  H3  UNL     1      10.772  49.088  87.744  1.00  0.00     0.177 HD
BRANCH  31  33
HETATM   33  C12 UNL     1      10.916  48.299  85.790  1.00  0.00     0.140 C 
BRANCH  33  34
HETATM   34  C13 UNL     1      11.913  47.248  86.261  1.00  0.00     0.050 C 
BRANCH  34  35
HETATM   35  C14 UNL     1      13.297  47.672  85.822  1.00  0.00     0.273 C 
BRANCH  35  36
HETATM   36  N4  UNL     1      14.225  47.764  86.900  1.00  0.00     0.080 N 
HETATM   37  C15 UNL     1      15.557  47.364  86.565  1.00  0.00     0.309 C 
HETATM   38  C16 UNL     1      13.765  47.198  88.128  1.00  0.00     0.309 C 
ENDBRANCH  35  36
ENDBRANCH  34  35
ENDBRANCH  33  34
ENDBRANCH  31  33
ENDBRANCH   4  31
BRANCH   1  39
HETATM   39  N1  UNL     1      11.212  53.797  87.932  1.00  0.00    -0.189 N 
ATOM     40  H1  UNL     1      10.418  54.435  87.888  1.00  0.00     0.184 HD
BRANCH  39  41
HETATM   41  C9  UNL     1      12.180  54.117  88.883  1.00  0.00     0.070 A 
HETATM   42  C4  UNL     1      11.970  53.947  90.221  1.00  0.00     0.086 A 
HETATM   43  C5  UNL     1      13.008  54.368  91.080  1.00  0.00     0.026 A 
HETATM   44  C6  UNL     1      14.175  54.919  90.639  1.00  0.00     0.002 A 
HETATM   45  C7  UNL     1      14.343  55.070  89.285  1.00  0.00     0.002 A 
HETATM   46  C8  UNL     1      13.378  54.685  88.403  1.00  0.00     0.031 A 
BRANCH  42  47
HETATM   47  S1  UNL     1      10.582  53.257  90.984  1.00  0.00     0.181 S 
HETATM   48  O1  UNL     1      10.437  51.843  90.408  1.00  0.00    -0.222 OA
HETATM   49  O2  UNL     1       9.328  54.018  90.567  1.00  0.00    -0.222 OA
BRANCH  47  50
HETATM   50  C2  UNL     1      10.586  53.208  92.732  1.00  0.00     0.105 C 
HETATM   51  C1  UNL     1       9.923  54.567  93.210  1.00  0.00     0.026 C 
HETATM   52  C3  UNL     1       9.677  52.182  93.294  1.00  0.00     0.026 C 
ENDBRANCH  47  50
ENDBRANCH  42  47
ENDBRANCH  39  41
ENDBRANCH   1  39
TORSDOF 13
ENDMDL
MODEL 4
REMARK VINA RESULT: -7.593679755      1.570      2.482
REMARK  13 active torsions:
REMARK  status: ('A' for Active; 'I' for Inactive)
REMARK    1  A    between atoms: C2_2  and  S1_4 
REMARK    2  A    between atoms: S1_4  and  C4_7 
REMARK    3  A    between atoms: C9_12  and  N1_13 
REMARK    4  A    between atoms: N1_13  and  C10_15 
REMARK    5  A    between atoms: C11_18  and  N3_19 
REMARK    6  A    between atoms: N3_19  and  C12_21 
REMARK    7  A    between atoms: C12_21  and  C13_22 
REMARK    8  A    between atoms: C13_22  and  C14_23 
REMARK    9  A    between atoms: C14_23  and  N4_24 
REMARK   10  A    between atoms: C17_29  and  N6_30 
REMARK   11  A    between atoms: N6_30  and  C18_32 
REMARK   12  A    between atoms: C23_41  and  C24_42 
REMARK   13  A    between atoms: C24_42  and  C25_43 
ROOT
HETATM    1  C10 UNL     1      11.328  52.758  86.898  1.00  0.00     0.711 A 
HETATM    2  N2  UNL     1      11.144  51.484  87.243  1.00  0.00    -0.021 N 
ATOM      3  H2  UNL     1      10.975  51.233  88.217  1.00  0.00     0.203 HD
HETATM    4  C11 UNL     1      11.183  50.522  86.281  1.00  0.00     0.707 A 
HETATM    5  N5  UNL     1      11.404  50.847  84.999  1.00  0.00    -0.021 N 
ATOM      6  H5  UNL     1      11.431  50.109  84.296  1.00  0.00     0.203 HD
HETATM    7  C17 UNL     1      11.591  52.117  84.621  1.00  0.00     0.711 A 
HETATM    8  N10 UNL     1      11.550  53.051  85.579  1.00  0.00    -0.021 N 
ATOM      9  H10 UNL     1      11.690  54.026  85.314  1.00  0.00     0.203 HD
ENDROOT
BRANCH   7  10
HETATM   10  N6  UNL     1      11.798  52.485  83.384  1.00  0.00    -0.190 N 
ATOM     11  H6  UNL     1      11.018  52.806  82.809  1.00  0.00     0.184 HD
BRANCH  10  12
HETATM   12  C18 UNL     1      13.091  52.437  82.848  1.00  0.00     0.063 A 
HETATM   13  C19 UNL     1      14.110  53.246  83.334  1.00  0.00     0.031 A 
HETATM   14  C20 UNL     1      15.375  53.246  82.806  1.00  0.00     0.005 A 
HETATM   15  C21 UNL     1      15.645  52.410  81.748  1.00  0.00     0.032 A 
HETATM   16  C22 UNL     1      14.673  51.593  81.234  1.00  0.00     0.062 A 
HETATM   17  N7  UNL     1      14.676  50.700  80.207  1.00  0.00    -0.300 N 
HETATM   18  C30 UNL     1      13.397  51.596  81.773  1.00  0.00     0.043 A 
HETATM   19  N8  UNL     1      13.491  50.174  80.105  1.00  0.00    -0.303 N 
ATOM     20  H7  UNL     1      15.476  50.480  79.614  1.00  0.00     0.187 HD
HETATM   21  C23 UNL     1      12.646  50.700  81.068  1.00  0.00     0.044 A 
ATOM     22  H8  UNL     1      13.222  49.473  79.414  1.00  0.00     0.186 HD
BRANCH  21  23
HETATM   23  C24 UNL     1      11.267  50.230  81.247  1.00  0.00     0.099 C 
BRANCH  23  24
HETATM   24  C25 UNL     1      10.284  50.799  80.302  1.00  0.00    -0.037 A 
HETATM   25  C26 UNL     1      10.224  50.364  78.980  1.00  0.00     0.010 A 
HETATM   26  C27 UNL     1       9.326  50.958  78.136  1.00  0.00     0.018 A 
HETATM   27  C28 UNL     1       8.482  51.964  78.541  1.00  0.00     0.087 A 
HETATM   28  N9  UNL     1       8.555  52.370  79.820  1.00  0.00    -0.375 N 
HETATM   29  C29 UNL     1       9.435  51.795  80.665  1.00  0.00     0.095 A 
ATOM     30  H9  UNL     1       7.943  53.115  80.152  1.00  0.00     0.164 HD
ENDBRANCH  23  24
ENDBRANCH  21  23
ENDBRANCH  10  12
ENDBRANCH   7  10
BRANCH   4  31
HETATM   31  N3  UNL     1      11.007  49.267  86.585  1.00  0.00    -0.225 N 
ATOM     32  H3  UNL     1      11.805  48.636  86.509  1.00  0.00     0.177 HD
BRANCH  31  33
HETATM   33  C12 UNL     1       9.757  48.724  87.019  1.00  0.00     0.140 C 
BRANCH  33  34
HETATM   34  C13 UNL     1       8.806  48.748  85.829  1.00  0.00     0.050 C 
BRANCH  34  35
HETATM   35  C14 UNL     1       7.684  49.714  86.134  1.00  0.00     0.273 C 
BRANCH  35  36
HETATM   36  N4  UNL     1       7.514  50.713  85.131  1.00  0.00     0.080 N 
HETATM   37  C15 UNL     1       8.055  50.362  83.854  1.00  0.00     0.309 C 
HETATM   38  C16 UNL     1       7.870  52.033  85.543  1.00  0.00     0.309 C 
ENDBRANCH  35  36
ENDBRANCH  34  35
ENDBRANCH  33  34
ENDBRANCH  31  33
ENDBRANCH   4  31
BRANCH   1  39
HETATM   39  N1  UNL     1      11.334  53.731  87.699  1.00  0.00    -0.189 N 
ATOM     40  H1  UNL     1      10.528  54.353  87.633  1.00  0.00     0.184 HD
BRANCH  39  41
HETATM   41  C9  UNL     1      12.279  54.086  88.661  1.00  0.00     0.070 A 
HETATM   42  C4  UNL     1      12.043  53.950  89.998  1.00  0.00     0.086 A 
HETATM   43  C5  UNL     1      13.060  54.403  90.867  1.00  0.00     0.026 A 
HETATM   44  C6  UNL     1      14.231  54.953  90.435  1.00  0.00     0.002 A 
HETATM   45  C7  UNL     1      14.425  55.069  89.081  1.00  0.00     0.002 A 
HETATM   46  C8  UNL     1      13.482  54.652  88.190  1.00  0.00     0.031 A 
BRANCH  42  47
HETATM   47  S1  UNL     1      10.645  53.268  90.751  1.00  0.00     0.181 S 
HETATM   48  O1  UNL     1      10.524  51.838  90.209  1.00  0.00    -0.222 OA
HETATM   49  O2  UNL     1       9.394  54.006  90.289  1.00  0.00    -0.222 OA
BRANCH  47  50
HETATM   50  C2  UNL     1      10.614  53.264  92.500  1.00  0.00     0.105 C 
HETATM   51  C1  UNL     1       9.537  54.349  92.921  1.00  0.00     0.026 C 
HETATM   52  C3  UNL     1      10.066  52.014  93.076  1.00  0.00     0.026 C 
ENDBRANCH  47  50
ENDBRANCH  42  47
ENDBRANCH  39  41
ENDBRANCH   1  39
TORSDOF 13
ENDMDL
MODEL 5
REMARK VINA RESULT: -7.577656103      1.892      4.757
REMARK  13 active torsions:
REMARK  status: ('A' for Active; 'I' for Inactive)
REMARK    1  A    between atoms: C2_2  and  S1_4 
REMARK    2  A    between atoms: S1_4  and  C4_7 
REMARK    3  A    between atoms: C9_12  and  N1_13 
REMARK    4  A    between atoms: N1_13  and  C10_15 
REMARK    5  A    between atoms: C11_18  and  N3_19 
REMARK    6  A    between atoms: N3_19  and  C12_21 
REMARK    7  A    between atoms: C12_21  and  C13_22 
REMARK    8  A    between atoms: C13_22  and  C14_23 
REMARK    9  A    between atoms: C14_23  and  N4_24 
REMARK   10  A    between atoms: C17_29  and  N6_30 
REMARK   11  A    between atoms: N6_30  and  C18_32 
REMARK   12  A    between atoms: C23_41  and  C24_42 
REMARK   13  A    between atoms: C24_42  and  C25_43 
ROOT
HETATM    1  C10 UNL     1      11.286  50.234  85.767  1.00  0.00     0.711 A 
HETATM    2  N2  UNL     1      10.902  51.206  86.592  1.00  0.00    -0.021 N 
ATOM      3  H2  UNL     1      10.689  51.000  87.568  1.00  0.00     0.203 HD
HETATM    4  C11 UNL     1      10.798  52.478  86.119  1.00  0.00     0.707 A 
HETATM    5  N5  UNL     1      11.077  52.754  84.837  1.00  0.00    -0.021 N 
ATOM      6  H5  UNL     1      10.991  53.714  84.504  1.00  0.00     0.203 HD
HETATM    7  C17 UNL     1      11.467  51.799  83.984  1.00  0.00     0.711 A 
HETATM    8  N10 UNL     1      11.565  50.555  84.465  1.00  0.00    -0.021 N 
ATOM      9  H10 UNL     1      11.859  49.811  83.833  1.00  0.00     0.203 HD
ENDROOT
BRANCH   7  10
HETATM   10  N6  UNL     1      11.762  52.021  82.730  1.00  0.00    -0.190 N 
ATOM     11  H6  UNL     1      11.017  52.143  82.044  1.00  0.00     0.184 HD
BRANCH  10  12
HETATM   12  C18 UNL     1      13.103  52.090  82.329  1.00  0.00     0.063 A 
HETATM   13  C19 UNL     1      14.032  52.853  83.025  1.00  0.00     0.031 A 
HETATM   14  C20 UNL     1      15.341  52.968  82.635  1.00  0.00     0.005 A 
HETATM   15  C21 UNL     1      15.751  52.299  81.507  1.00  0.00     0.032 A 
HETATM   16  C22 UNL     1      14.873  51.533  80.787  1.00  0.00     0.062 A 
HETATM   17  N7  UNL     1      15.016  50.795  79.653  1.00  0.00    -0.300 N 
HETATM   18  C30 UNL     1      13.551  51.420  81.187  1.00  0.00     0.043 A 
HETATM   19  N8  UNL     1      13.872  50.251  79.357  1.00  0.00    -0.303 N 
ATOM     20  H7  UNL     1      15.880  50.686  79.122  1.00  0.00     0.187 HD
HETATM   21  C23 UNL     1      12.914  50.609  80.291  1.00  0.00     0.044 A 
ATOM     22  H8  UNL     1      13.705  49.647  78.553  1.00  0.00     0.186 HD
BRANCH  21  23
HETATM   23  C24 UNL     1      11.547  50.075  80.260  1.00  0.00     0.099 C 
BRANCH  23  24
HETATM   24  C25 UNL     1      10.665  50.672  79.236  1.00  0.00    -0.037 A 
HETATM   25  C26 UNL     1       9.907  49.870  78.386  1.00  0.00     0.010 A 
HETATM   26  C27 UNL     1       9.142  50.474  77.425  1.00  0.00     0.018 A 
HETATM   27  C28 UNL     1       9.094  51.838  77.267  1.00  0.00     0.087 A 
HETATM   28  N9  UNL     1       9.832  52.595  78.096  1.00  0.00    -0.375 N 
HETATM   29  C29 UNL     1      10.591  52.015  79.048  1.00  0.00     0.095 A 
ATOM     30  H9  UNL     1       9.819  53.611  78.005  1.00  0.00     0.164 HD
ENDBRANCH  23  24
ENDBRANCH  21  23
ENDBRANCH  10  12
ENDBRANCH   7  10
BRANCH   4  31
HETATM   31  N3  UNL     1      10.424  53.452  86.900  1.00  0.00    -0.225 N 
ATOM     32  H3  UNL     1       9.927  54.240  86.485  1.00  0.00     0.177 HD
BRANCH  31  33
HETATM   33  C12 UNL     1      10.672  53.479  88.308  1.00  0.00     0.140 C 
BRANCH  33  34
HETATM   34  C13 UNL     1      12.136  53.850  88.511  1.00  0.00     0.050 C 
BRANCH  34  35
HETATM   35  C14 UNL     1      12.202  55.046  89.434  1.00  0.00     0.273 C 
BRANCH  35  36
HETATM   36  N4  UNL     1      13.431  55.137  90.150  1.00  0.00     0.080 N 
HETATM   37  C15 UNL     1      14.579  55.351  89.323  1.00  0.00     0.309 C 
HETATM   38  C16 UNL     1      13.629  54.108  91.121  1.00  0.00     0.309 C 
ENDBRANCH  35  36
ENDBRANCH  34  35
ENDBRANCH  33  34
ENDBRANCH  31  33
ENDBRANCH   4  31
BRANCH   1  39
HETATM   39  N1  UNL     1      11.399  49.018  86.083  1.00  0.00    -0.189 N 
ATOM     40  H1  UNL     1      10.531  48.483  86.064  1.00  0.00     0.184 HD
BRANCH  39  41
HETATM   41  C9  UNL     1      12.534  48.297  86.454  1.00  0.00     0.070 A 
HETATM   42  C4  UNL     1      12.948  48.206  87.751  1.00  0.00     0.086 A 
HETATM   43  C5  UNL     1      14.145  47.496  87.982  1.00  0.00     0.026 A 
HETATM   44  C6  UNL     1      14.882  46.916  86.991  1.00  0.00     0.002 A 
HETATM   45  C7  UNL     1      14.427  47.033  85.701  1.00  0.00     0.002 A 
HETATM   46  C8  UNL     1      13.279  47.706  85.411  1.00  0.00     0.031 A 
BRANCH  42  47
HETATM   47  S1  UNL     1      12.159  48.847  89.148  1.00  0.00     0.181 S 
HETATM   48  O1  UNL     1      10.684  48.445  89.029  1.00  0.00    -0.222 OA
HETATM   49  O2  UNL     1      12.190  50.371  89.109  1.00  0.00    -0.222 OA
BRANCH  47  50
HETATM   50  C2  UNL     1      12.799  48.368  90.704  1.00  0.00     0.105 C 
HETATM   51  C1  UNL     1      12.996  49.709  91.528  1.00  0.00     0.026 C 
HETATM   52  C3  UNL     1      11.830  47.612  91.531  1.00  0.00     0.026 C 
ENDBRANCH  47  50
ENDBRANCH  42  47
ENDBRANCH  39  41
ENDBRANCH   1  39
TORSDOF 13
ENDMDL
