MODEL 1
REMARK VINA RESULT: -5.716841792      0.000      0.000
REMARK  12 active torsions:
REMARK  status: ('A' for Active; 'I' for Inactive)
REMARK    1  A    between atoms: C2_2  and  C3_3 
REMARK    2  A    between atoms: C3_3  and  C4_4 
REMARK    3  A    between atoms: C4_4  and  N1_5 
REMARK       I    between atoms: N1_5  and  C5_7 
REMARK       I    between atoms: C5_7  and  N2_9 
REMARK    4  A    between atoms: N2_9  and  C6_10 
REMARK    5  A    between atoms: C7_11  and  O2_12 
REMARK    6  A    between atoms: C8_15  and  C9_16 
REMARK    7  A    between atoms: C9_16  and  C10_17 
REMARK    8  A    between atoms: C15_22  and  O4_23 
REMARK    9  A    between atoms: C17_27  and  C18_28 
REMARK   10  A    between atoms: C22_35  and  C23_36 
REMARK   11  A    between atoms: C23_36  and  C24_37 
REMARK   12  A    between atoms: C28_44  and  C29_45 
ROOT
HETATM    1  C6  UNL     1      10.975  51.346  86.548  1.00  0.00     0.294 C 
HETATM    2  C7  UNL     1      11.301  52.724  87.109  1.00  0.00     0.300 C 
HETATM    3  O3  UNL     1      11.384  53.167  88.310  1.00  0.00    -0.352 OA
HETATM    4  C8  UNL     1      11.289  53.221  89.640  1.00  0.00     0.136 C 
HETATM    5  C13 UNL     1      10.005  53.816  90.247  1.00  0.00     0.085 C 
HETATM    6  C14 UNL     1       9.671  53.014  91.435  1.00  0.00     0.021 C 
HETATM    7  C15 UNL     1       9.021  54.150  89.243  1.00  0.00     0.120 C 
HETATM    8  N3  UNL     1       7.742  53.854  88.830  1.00  0.00    -0.356 N 
HETATM    9  C16 UNL     1       7.631  53.736  87.322  1.00  0.00     0.152 C 
HETATM   10  C17 UNL     1       6.478  53.672  89.480  1.00  0.00     0.181 C 
HETATM   11  C21 UNL     1       6.231  52.536  90.323  1.00  0.00     0.241 C 
HETATM   12  O5  UNL     1       6.133  52.778  91.594  1.00  0.00    -0.271 OA
HETATM   13  N4  UNL     1       6.066  51.163  90.024  1.00  0.00    -0.346 N 
ATOM     14  H4  UNL     1       5.329  50.691  90.548  1.00  0.00     0.163 HD
HETATM   15  C22 UNL     1       6.769  50.341  89.107  1.00  0.00     0.177 C 
HETATM   16  C27 UNL     1       7.967  49.693  89.716  1.00  0.00     0.241 C 
HETATM   17  O6  UNL     1       7.705  49.020  90.774  1.00  0.00    -0.271 OA
HETATM   18  N5  UNL     1       9.283  49.737  89.278  1.00  0.00    -0.347 N 
ATOM     19  H5  UNL     1       9.968  50.001  89.986  1.00  0.00     0.163 HD
HETATM   20  C28 UNL     1       9.818  49.468  87.982  1.00  0.00     0.161 C 
HETATM   21  C32 UNL     1      11.007  50.286  87.603  1.00  0.00     0.190 C 
HETATM   22  O7  UNL     1      12.069  50.092  88.173  1.00  0.00    -0.292 OA
ENDROOT
BRANCH   1  23
HETATM   23  N2  UNL     1      11.756  51.060  85.436  1.00  0.00    -0.378 NA
HETATM   24  C5  UNL     1      12.512  50.785  84.357  1.00  0.00     0.389 C 
HETATM   25  N1  UNL     1      13.146  51.892  83.660  1.00  0.00    -0.331 N 
HETATM   26  O1  UNL     1      12.763  49.682  83.847  1.00  0.00    -0.231 OA
ATOM     27  H1  UNL     1      13.004  52.835  84.021  1.00  0.00     0.165 HD
BRANCH  25  28
HETATM   28  C4  UNL     1      13.956  51.729  82.495  1.00  0.00     0.125 C 
BRANCH  28  29
HETATM   29  C3  UNL     1      15.175  52.588  82.421  1.00  0.00     0.019 C 
BRANCH  29  30
HETATM   30  C2  UNL     1      16.078  51.957  81.349  1.00  0.00    -0.003 C 
HETATM   31  C1  UNL     1      15.670  52.381  79.973  1.00  0.00     0.005 C 
ENDBRANCH  29  30
ENDBRANCH  28  29
ENDBRANCH  25  28
ENDBRANCH   1  23
BRANCH   2  32
HETATM   32  O2  UNL     1      11.527  53.552  86.124  1.00  0.00    -0.368 OA
ATOM     33  H2  UNL     1      11.104  54.383  86.305  1.00  0.00     0.212 HD
ENDBRANCH   2  32
BRANCH  20  34
HETATM   34  C29 UNL     1      10.199  47.975  88.008  1.00  0.00     0.008 C 
HETATM   35  C30 UNL     1       9.174  47.111  87.341  1.00  0.00     0.012 C 
HETATM   36  C31 UNL     1      10.545  47.520  89.397  1.00  0.00     0.012 C 
ENDBRANCH  20  34
BRANCH   4  37
HETATM   37  C9  UNL     1      12.544  53.487  90.392  1.00  0.00     0.037 C 
BRANCH  37  38
HETATM   38  C10 UNL     1      12.888  54.841  90.846  1.00  0.00    -0.020 C 
HETATM   39  C11 UNL     1      12.873  55.050  92.329  1.00  0.00     0.009 C 
HETATM   40  C12 UNL     1      14.333  55.122  90.393  1.00  0.00     0.009 C 
ENDBRANCH  37  38
ENDBRANCH   4  37
BRANCH   7  41
HETATM   41  O4  UNL     1       9.598  55.069  88.466  1.00  0.00    -0.349 OA
ATOM     42  H4  UNL     1       8.966  55.261  87.783  1.00  0.00     0.219 HD
ENDBRANCH   7  41
BRANCH  15  43
HETATM   43  C23 UNL     1       5.947  49.211  88.553  1.00  0.00     0.038 C 
BRANCH  43  44
HETATM   44  C24 UNL     1       5.997  48.989  87.087  1.00  0.00    -0.020 C 
HETATM   45  C25 UNL     1       6.552  50.094  86.256  1.00  0.00     0.009 C 
HETATM   46  C26 UNL     1       4.578  48.634  86.647  1.00  0.00     0.009 C 
ENDBRANCH  43  44
ENDBRANCH  15  43
BRANCH  10  47
HETATM   47  C18 UNL     1       5.990  54.966  90.158  1.00  0.00     0.009 C 
HETATM   48  C19 UNL     1       6.350  56.174  89.336  1.00  0.00     0.012 C 
HETATM   49  C20 UNL     1       4.464  54.895  90.122  1.00  0.00     0.012 C 
ENDBRANCH  10  47
TORSDOF 12
ENDMDL
MODEL 2
REMARK VINA RESULT: -5.649714443      3.503      7.624
REMARK  12 active torsions:
REMARK  status: ('A' for Active; 'I' for Inactive)
REMARK    1  A    between atoms: C2_2  and  C3_3 
REMARK    2  A    between atoms: C3_3  and  C4_4 
REMARK    3  A    between atoms: C4_4  and  N1_5 
REMARK       I    between atoms: N1_5  and  C5_7 
REMARK       I    between atoms: C5_7  and  N2_9 
REMARK    4  A    between atoms: N2_9  and  C6_10 
REMARK    5  A    between atoms: C7_11  and  O2_12 
REMARK    6  A    between atoms: C8_15  and  C9_16 
REMARK    7  A    between atoms: C9_16  and  C10_17 
REMARK    8  A    between atoms: C15_22  and  O4_23 
REMARK    9  A    between atoms: C17_27  and  C18_28 
REMARK   10  A    between atoms: C22_35  and  C23_36 
REMARK   11  A    between atoms: C23_36  and  C24_37 
REMARK   12  A    between atoms: C28_44  and  C29_45 
ROOT
HETATM    1  C6  UNL     1      10.289  51.930  86.388  1.00  0.00     0.294 C 
HETATM    2  C7  UNL     1       8.881  52.512  86.332  1.00  0.00     0.300 C 
HETATM    3  O3  UNL     1       7.747  51.992  86.037  1.00  0.00    -0.352 OA
HETATM    4  C8  UNL     1       6.840  51.115  85.603  1.00  0.00     0.136 C 
HETATM    5  C13 UNL     1       6.406  51.199  84.127  1.00  0.00     0.085 C 
HETATM    6  C14 UNL     1       6.244  49.819  83.640  1.00  0.00     0.021 C 
HETATM    7  C15 UNL     1       7.147  52.194  83.387  1.00  0.00     0.120 C 
HETATM    8  N3  UNL     1       8.003  52.344  82.320  1.00  0.00    -0.356 N 
HETATM    9  C16 UNL     1       9.133  53.312  82.613  1.00  0.00     0.152 C 
HETATM   10  C17 UNL     1       8.058  51.839  80.980  1.00  0.00     0.181 C 
HETATM   11  C21 UNL     1       8.330  50.453  80.717  1.00  0.00     0.241 C 
HETATM   12  O5  UNL     1       7.337  49.752  80.264  1.00  0.00    -0.271 OA
HETATM   13  N4  UNL     1       9.510  49.684  80.860  1.00  0.00    -0.346 N 
ATOM     14  H4  UNL     1       9.691  49.026  80.101  1.00  0.00     0.163 HD
HETATM   15  C22 UNL     1      10.478  49.688  81.895  1.00  0.00     0.177 C 
HETATM   16  C27 UNL     1      10.153  48.728  82.991  1.00  0.00     0.241 C 
HETATM   17  O6  UNL     1       9.970  47.527  82.584  1.00  0.00    -0.271 OA
HETATM   18  N5  UNL     1      10.031  48.984  84.349  1.00  0.00    -0.347 N 
ATOM     19  H5  UNL     1       9.173  48.642  84.781  1.00  0.00     0.163 HD
HETATM   20  C28 UNL     1      10.931  49.657  85.229  1.00  0.00     0.161 C 
HETATM   21  C32 UNL     1      10.283  50.436  86.325  1.00  0.00     0.190 C 
HETATM   22  O7  UNL     1       9.718  49.837  87.227  1.00  0.00    -0.292 OA
ENDROOT
BRANCH   1  23
HETATM   23  N2  UNL     1      11.003  52.449  87.460  1.00  0.00    -0.378 NA
HETATM   24  C5  UNL     1      11.696  52.954  88.497  1.00  0.00     0.389 C 
HETATM   25  N1  UNL     1      11.588  54.377  88.770  1.00  0.00    -0.331 N 
HETATM   26  O1  UNL     1      12.443  52.363  89.292  1.00  0.00    -0.231 OA
ATOM     27  H1  UNL     1      10.981  54.939  88.173  1.00  0.00     0.165 HD
BRANCH  25  28
HETATM   28  C4  UNL     1      12.286  55.032  89.831  1.00  0.00     0.125 C 
BRANCH  28  29
HETATM   29  C3  UNL     1      13.499  55.806  89.436  1.00  0.00     0.019 C 
BRANCH  29  30
HETATM   30  C2  UNL     1      14.676  55.175  90.195  1.00  0.00    -0.003 C 
HETATM   31  C1  UNL     1      14.212  54.472  91.434  1.00  0.00     0.005 C 
ENDBRANCH  29  30
ENDBRANCH  28  29
ENDBRANCH  25  28
ENDBRANCH   1  23
BRANCH   2  32
HETATM   32  O2  UNL     1       8.921  53.776  86.661  1.00  0.00    -0.368 OA
ATOM     33  H2  UNL     1       8.679  54.306  85.911  1.00  0.00     0.212 HD
ENDBRANCH   2  32
BRANCH  20  34
HETATM   34  C29 UNL     1      11.811  48.544  85.831  1.00  0.00     0.008 C 
HETATM   35  C30 UNL     1      13.156  48.463  85.178  1.00  0.00     0.012 C 
HETATM   36  C31 UNL     1      11.088  47.228  85.863  1.00  0.00     0.012 C 
ENDBRANCH  20  34
BRANCH   4  37
HETATM   37  C9  UNL     1       5.783  50.709  86.566  1.00  0.00     0.037 C 
BRANCH  37  38
HETATM   38  C10 UNL     1       6.082  49.812  87.691  1.00  0.00    -0.020 C 
HETATM   39  C11 UNL     1       4.939  49.535  88.620  1.00  0.00     0.009 C 
HETATM   40  C12 UNL     1       6.484  48.451  87.096  1.00  0.00     0.009 C 
ENDBRANCH  37  38
ENDBRANCH   4  37
BRANCH   7  41
HETATM   41  O4  UNL     1       6.881  53.358  83.983  1.00  0.00    -0.349 OA
ATOM     42  H4  UNL     1       7.724  53.721  84.224  1.00  0.00     0.219 HD
ENDBRANCH   7  41
BRANCH  15  43
HETATM   43  C23 UNL     1      11.858  49.309  81.436  1.00  0.00     0.038 C 
BRANCH  43  44
HETATM   44  C24 UNL     1      12.900  50.365  81.472  1.00  0.00    -0.020 C 
HETATM   45  C25 UNL     1      12.779  51.395  82.542  1.00  0.00     0.009 C 
HETATM   46  C26 UNL     1      12.918  51.013  80.089  1.00  0.00     0.009 C 
ENDBRANCH  43  44
ENDBRANCH  15  43
BRANCH  10  47
HETATM   47  C18 UNL     1       6.870  52.327  80.132  1.00  0.00     0.009 C 
HETATM   48  C19 UNL     1       6.422  53.697  80.569  1.00  0.00     0.012 C 
HETATM   49  C20 UNL     1       7.424  52.517  78.721  1.00  0.00     0.012 C 
ENDBRANCH  10  47
TORSDOF 12
ENDMDL
MODEL 3
REMARK VINA RESULT: -5.627440757      4.424      8.589
REMARK  12 active torsions:
REMARK  status: ('A' for Active; 'I' for Inactive)
REMARK    1  A    between atoms: C2_2  and  C3_3 
REMARK    2  A    between atoms: C3_3  and  C4_4 
REMARK    3  A    between atoms: C4_4  and  N1_5 
REMARK       I    between atoms: N1_5  and  C5_7 
REMARK       I    between atoms: C5_7  and  N2_9 
REMARK    4  A    between atoms: N2_9  and  C6_10 
REMARK    5  A    between atoms: C7_11  and  O2_12 
REMARK    6  A    between atoms: C8_15  and  C9_16 
REMARK    7  A    between atoms: C9_16  and  C10_17 
REMARK    8  A    between atoms: C15_22  and  O4_23 
REMARK    9  A    between atoms: C17_27  and  C18_28 
REMARK   10  A    between atoms: C22_35  and  C23_36 
REMARK   11  A    between atoms: C23_36  and  C24_37 
REMARK   12  A    between atoms: C28_44  and  C29_45 
ROOT
HETATM    1  C6  UNL     1      11.491  49.079  83.736  1.00  0.00     0.294 C 
HETATM    2  C7  UNL     1      11.864  48.602  82.337  1.00  0.00     0.300 C 
HETATM    3  O3  UNL     1      12.113  49.235  81.250  1.00  0.00    -0.352 OA
HETATM    4  C8  UNL     1      12.213  50.234  80.371  1.00  0.00     0.136 C 
HETATM    5  C13 UNL     1      11.018  50.490  79.433  1.00  0.00     0.085 C 
HETATM    6  C14 UNL     1      10.879  51.948  79.290  1.00  0.00     0.021 C 
HETATM    7  C15 UNL     1       9.890  49.635  79.727  1.00  0.00     0.120 C 
HETATM    8  N3  UNL     1       8.572  49.668  80.119  1.00  0.00    -0.356 N 
HETATM    9  C16 UNL     1       8.243  48.599  81.143  1.00  0.00     0.152 C 
HETATM   10  C17 UNL     1       7.421  50.443  79.760  1.00  0.00     0.181 C 
HETATM   11  C21 UNL     1       7.326  51.835  80.098  1.00  0.00     0.241 C 
HETATM   12  O5  UNL     1       7.410  52.672  79.110  1.00  0.00    -0.271 OA
HETATM   13  N4  UNL     1       7.149  52.489  81.341  1.00  0.00    -0.346 N 
ATOM     14  H4  UNL     1       6.507  53.283  81.325  1.00  0.00     0.163 HD
HETATM   15  C22 UNL     1       7.728  52.212  82.605  1.00  0.00     0.177 C 
HETATM   16  C27 UNL     1       9.017  52.933  82.819  1.00  0.00     0.241 C 
HETATM   17  O6  UNL     1       8.928  54.202  82.662  1.00  0.00    -0.271 OA
HETATM   18  N5  UNL     1      10.253  52.401  83.156  1.00  0.00    -0.347 N 
ATOM     19  H5  UNL     1      11.028  52.691  82.560  1.00  0.00     0.163 HD
HETATM   20  C28 UNL     1      10.598  51.508  84.214  1.00  0.00     0.161 C 
HETATM   21  C32 UNL     1      11.700  50.550  83.903  1.00  0.00     0.190 C 
HETATM   22  O7  UNL     1      12.839  50.974  83.778  1.00  0.00    -0.292 OA
ENDROOT
BRANCH   1  23
HETATM   23  N2  UNL     1      12.106  48.305  84.710  1.00  0.00    -0.378 NA
HETATM   24  C5  UNL     1      12.705  47.556  85.654  1.00  0.00     0.389 C 
HETATM   25  N1  UNL     1      13.680  48.193  86.524  1.00  0.00    -0.331 N 
HETATM   26  O1  UNL     1      12.542  46.352  85.907  1.00  0.00    -0.231 OA
ATOM     27  H1  UNL     1      13.865  49.187  86.394  1.00  0.00     0.165 HD
BRANCH  25  28
HETATM   28  C4  UNL     1      14.392  47.501  87.550  1.00  0.00     0.125 C 
BRANCH  28  29
HETATM   29  C3  UNL     1      15.880  47.515  87.438  1.00  0.00     0.019 C 
BRANCH  29  30
HETATM   30  C2  UNL     1      16.413  47.826  88.845  1.00  0.00    -0.003 C 
HETATM   31  C1  UNL     1      15.303  48.201  89.778  1.00  0.00     0.005 C 
ENDBRANCH  29  30
ENDBRANCH  28  29
ENDBRANCH  25  28
ENDBRANCH   1  23
BRANCH   2  32
HETATM   32  O2  UNL     1      11.925  47.297  82.326  1.00  0.00    -0.368 OA
ATOM     33  H2  UNL     1      12.777  47.023  82.004  1.00  0.00     0.212 HD
ENDBRANCH   2  32
BRANCH  20  34
HETATM   34  C29 UNL     1      11.013  52.417  85.388  1.00  0.00     0.008 C 
HETATM   35  C30 UNL     1      12.014  53.453  84.983  1.00  0.00     0.012 C 
HETATM   36  C31 UNL     1      11.441  51.612  86.581  1.00  0.00     0.012 C 
ENDBRANCH  20  34
BRANCH   4  37
HETATM   37  C9  UNL     1      13.557  50.484  79.789  1.00  0.00     0.037 C 
BRANCH  37  38
HETATM   38  C10 UNL     1      14.368  51.634  80.210  1.00  0.00    -0.020 C 
HETATM   39  C11 UNL     1      14.898  51.574  81.610  1.00  0.00     0.009 C 
HETATM   40  C12 UNL     1      15.603  51.685  79.292  1.00  0.00     0.009 C 
ENDBRANCH  37  38
ENDBRANCH   4  37
BRANCH   7  41
HETATM   41  O4  UNL     1      10.326  48.388  79.540  1.00  0.00    -0.349 OA
ATOM     42  H4  UNL     1      10.368  47.999  80.405  1.00  0.00     0.219 HD
ENDBRANCH   7  41
BRANCH  15  43
HETATM   43  C23 UNL     1       6.860  52.602  83.768  1.00  0.00     0.038 C 
BRANCH  43  44
HETATM   44  C24 UNL     1       7.140  51.953  85.073  1.00  0.00    -0.020 C 
HETATM   45  C25 UNL     1       6.115  51.000  85.585  1.00  0.00     0.009 C 
HETATM   46  C26 UNL     1       7.391  53.076  86.078  1.00  0.00     0.009 C 
ENDBRANCH  43  44
ENDBRANCH  15  43
BRANCH  10  47
HETATM   47  C18 UNL     1       7.008  50.213  78.294  1.00  0.00     0.009 C 
HETATM   48  C19 UNL     1       7.346  48.814  77.852  1.00  0.00     0.012 C 
HETATM   49  C20 UNL     1       5.482  50.281  78.283  1.00  0.00     0.012 C 
ENDBRANCH  10  47
TORSDOF 12
ENDMDL
MODEL 4
REMARK VINA RESULT: -5.558113662      3.162      7.982
REMARK  12 active torsions:
REMARK  status: ('A' for Active; 'I' for Inactive)
REMARK    1  A    between atoms: C2_2  and  C3_3 
REMARK    2  A    between atoms: C3_3  and  C4_4 
REMARK    3  A    between atoms: C4_4  and  N1_5 
REMARK       I    between atoms: N1_5  and  C5_7 
REMARK       I    between atoms: C5_7  and  N2_9 
REMARK    4  A    between atoms: N2_9  and  C6_10 
REMARK    5  A    between atoms: C7_11  and  O2_12 
REMARK    6  A    between atoms: C8_15  and  C9_16 
REMARK    7  A    between atoms: C9_16  and  C10_17 
REMARK    8  A    between atoms: C15_22  and  O4_23 
REMARK    9  A    between atoms: C17_27  and  C18_28 
REMARK   10  A    between atoms: C22_35  and  C23_36 
REMARK   11  A    between atoms: C23_36  and  C24_37 
REMARK   12  A    between atoms: C28_44  and  C29_45 
ROOT
HETATM    1  C6  UNL     1      11.405  52.136  86.401  1.00  0.00     0.294 C 
HETATM    2  C7  UNL     1      10.733  52.837  85.227  1.00  0.00     0.300 C 
HETATM    3  O3  UNL     1       9.727  52.521  84.497  1.00  0.00    -0.352 OA
HETATM    4  C8  UNL     1       8.739  51.802  83.961  1.00  0.00     0.136 C 
HETATM    5  C13 UNL     1       9.042  51.005  82.678  1.00  0.00     0.085 C 
HETATM    6  C14 UNL     1       8.331  49.720  82.784  1.00  0.00     0.021 C 
HETATM    7  C15 UNL     1      10.432  51.086  82.291  1.00  0.00     0.120 C 
HETATM    8  N3  UNL     1      11.552  50.313  82.088  1.00  0.00    -0.356 N 
HETATM    9  C16 UNL     1      12.809  50.956  82.642  1.00  0.00     0.152 C 
HETATM   10  C17 UNL     1      11.825  49.066  81.439  1.00  0.00     0.181 C 
HETATM   11  C21 UNL     1      11.339  47.825  81.975  1.00  0.00     0.241 C 
HETATM   12  O5  UNL     1      10.395  47.242  81.304  1.00  0.00    -0.271 OA
HETATM   13  N4  UNL     1      11.707  47.094  83.130  1.00  0.00    -0.346 N 
ATOM     14  H4  UNL     1      11.760  46.083  83.003  1.00  0.00     0.163 HD
HETATM   15  C22 UNL     1      12.012  47.551  84.437  1.00  0.00     0.177 C 
HETATM   16  C27 UNL     1      10.807  47.633  85.314  1.00  0.00     0.241 C 
HETATM   17  O6  UNL     1      10.152  46.535  85.391  1.00  0.00    -0.271 OA
HETATM   18  N5  UNL     1      10.338  48.726  86.028  1.00  0.00    -0.347 N 
ATOM     19  H5  UNL     1       9.353  48.948  85.887  1.00  0.00     0.163 HD
HETATM   20  C28 UNL     1      11.033  49.586  86.931  1.00  0.00     0.161 C 
HETATM   21  C32 UNL     1      10.579  51.008  86.931  1.00  0.00     0.190 C 
HETATM   22  O7  UNL     1       9.479  51.281  87.386  1.00  0.00    -0.292 OA
ENDROOT
BRANCH   1  23
HETATM   23  N2  UNL     1      11.804  53.049  87.368  1.00  0.00    -0.378 NA
HETATM   24  C5  UNL     1      12.192  53.933  88.306  1.00  0.00     0.389 C 
HETATM   25  N1  UNL     1      13.498  54.555  88.168  1.00  0.00    -0.331 N 
HETATM   26  O1  UNL     1      11.576  54.316  89.313  1.00  0.00    -0.231 OA
ATOM     27  H1  UNL     1      14.067  54.308  87.358  1.00  0.00     0.165 HD
BRANCH  25  28
HETATM   28  C4  UNL     1      14.028  55.494  89.104  1.00  0.00     0.125 C 
BRANCH  28  29
HETATM   29  C3  UNL     1      14.917  54.932  90.163  1.00  0.00     0.019 C 
BRANCH  29  30
HETATM   30  C2  UNL     1      14.092  54.932  91.459  1.00  0.00    -0.003 C 
HETATM   31  C1  UNL     1      13.799  53.538  91.920  1.00  0.00     0.005 C 
ENDBRANCH  29  30
ENDBRANCH  28  29
ENDBRANCH  25  28
ENDBRANCH   1  23
BRANCH   2  32
HETATM   32  O2  UNL     1      11.350  53.963  84.982  1.00  0.00    -0.368 OA
ATOM     33  H2  UNL     1      11.142  54.592  85.664  1.00  0.00     0.212 HD
ENDBRANCH   2  32
BRANCH  20  34
HETATM   34  C29 UNL     1      10.810  48.968  88.326  1.00  0.00     0.008 C 
HETATM   35  C30 UNL     1       9.383  48.582  88.558  1.00  0.00     0.012 C 
HETATM   36  C31 UNL     1      11.373  49.841  89.410  1.00  0.00     0.012 C 
ENDBRANCH  20  34
BRANCH   4  37
HETATM   37  C9  UNL     1       7.367  52.366  84.064  1.00  0.00     0.037 C 
BRANCH  37  38
HETATM   38  C10 UNL     1       6.722  52.566  85.368  1.00  0.00    -0.020 C 
HETATM   39  C11 UNL     1       5.490  53.419  85.357  1.00  0.00     0.009 C 
HETATM   40  C12 UNL     1       6.275  51.183  85.875  1.00  0.00     0.009 C 
ENDBRANCH  37  38
ENDBRANCH   4  37
BRANCH   7  41
HETATM   41  O4  UNL     1      10.666  52.379  82.061  1.00  0.00    -0.349 OA
ATOM     42  H4  UNL     1      11.572  52.429  81.780  1.00  0.00     0.219 HD
ENDBRANCH   7  41
BRANCH  15  43
HETATM   43  C23 UNL     1      12.979  46.670  85.177  1.00  0.00     0.038 C 
BRANCH  43  44
HETATM   44  C24 UNL     1      13.607  47.227  86.400  1.00  0.00    -0.020 C 
HETATM   45  C25 UNL     1      15.077  47.467  86.353  1.00  0.00     0.009 C 
HETATM   46  C26 UNL     1      13.244  46.287  87.549  1.00  0.00     0.009 C 
ENDBRANCH  43  44
ENDBRANCH  15  43
BRANCH  10  47
HETATM   47  C18 UNL     1      11.566  49.137  79.923  1.00  0.00     0.009 C 
HETATM   48  C19 UNL     1      11.916  50.497  79.379  1.00  0.00     0.012 C 
HETATM   49  C20 UNL     1      12.573  48.179  79.289  1.00  0.00     0.012 C 
ENDBRANCH  10  47
TORSDOF 12
ENDMDL
MODEL 5
REMARK VINA RESULT: -5.544721094      2.837      7.651
REMARK  12 active torsions:
REMARK  status: ('A' for Active; 'I' for Inactive)
REMARK    1  A    between atoms: C2_2  and  C3_3 
REMARK    2  A    between atoms: C3_3  and  C4_4 
REMARK    3  A    between atoms: C4_4  and  N1_5 
REMARK       I    between atoms: N1_5  and  C5_7 
REMARK       I    between atoms: C5_7  and  N2_9 
REMARK    4  A    between atoms: N2_9  and  C6_10 
REMARK    5  A    between atoms: C7_11  and  O2_12 
REMARK    6  A    between atoms: C8_15  and  C9_16 
REMARK    7  A    between atoms: C9_16  and  C10_17 
REMARK    8  A    between atoms: C15_22  and  O4_23 
REMARK    9  A    between atoms: C17_27  and  C18_28 
REMARK   10  A    between atoms: C22_35  and  C23_36 
REMARK   11  A    between atoms: C23_36  and  C24_37 
REMARK   12  A    between atoms: C28_44  and  C29_45 
ROOT
HETATM    1  C6  UNL     1      11.791  52.913  89.866  1.00  0.00     0.294 C 
HETATM    2  C7  UNL     1      10.817  53.750  89.045  1.00  0.00     0.300 C 
HETATM    3  O3  UNL     1       9.685  53.474  88.509  1.00  0.00    -0.352 OA
HETATM    4  C8  UNL     1       8.640  52.771  88.069  1.00  0.00     0.136 C 
HETATM    5  C13 UNL     1       8.671  52.268  86.613  1.00  0.00     0.085 C 
HETATM    6  C14 UNL     1       8.082  50.919  86.604  1.00  0.00     0.021 C 
HETATM    7  C15 UNL     1       9.920  52.567  85.951  1.00  0.00     0.120 C 
HETATM    8  N3  UNL     1      11.002  51.969  85.345  1.00  0.00    -0.356 N 
HETATM    9  C16 UNL     1      12.316  52.623  85.726  1.00  0.00     0.152 C 
HETATM   10  C17 UNL     1      11.182  50.903  84.405  1.00  0.00     0.181 C 
HETATM   11  C21 UNL     1      10.911  49.539  84.764  1.00  0.00     0.241 C 
HETATM   12  O5  UNL     1       9.868  48.998  84.214  1.00  0.00    -0.271 OA
HETATM   13  N4  UNL     1      11.587  48.644  85.629  1.00  0.00    -0.346 N 
ATOM     14  H4  UNL     1      11.666  47.687  85.284  1.00  0.00     0.163 HD
HETATM   15  C22 UNL     1      12.171  48.874  86.900  1.00  0.00     0.177 C 
HETATM   16  C27 UNL     1      11.209  48.661  88.022  1.00  0.00     0.241 C 
HETATM   17  O6  UNL     1      10.655  47.506  88.011  1.00  0.00    -0.271 OA
HETATM   18  N5  UNL     1      10.863  49.543  89.035  1.00  0.00    -0.347 N 
ATOM     19  H5  UNL     1       9.862  49.683  89.167  1.00  0.00     0.163 HD
HETATM   20  C28 UNL     1      11.704  50.284  89.920  1.00  0.00     0.161 C 
HETATM   21  C32 UNL     1      11.182  51.624  90.319  1.00  0.00     0.190 C 
HETATM   22  O7  UNL     1      10.210  51.689  91.055  1.00  0.00    -0.292 OA
ENDROOT
BRANCH   1  23
HETATM   23  N2  UNL     1      12.357  53.662  90.888  1.00  0.00    -0.378 NA
HETATM   24  C5  UNL     1      12.904  54.388  91.880  1.00  0.00     0.389 C 
HETATM   25  N1  UNL     1      12.102  54.654  93.063  1.00  0.00    -0.331 N 
HETATM   26  O1  UNL     1      14.039  54.887  91.942  1.00  0.00    -0.231 OA
ATOM     27  H1  UNL     1      11.158  54.268  93.103  1.00  0.00     0.165 HD
BRANCH  25  28
HETATM   28  C4  UNL     1      12.564  55.425  94.173  1.00  0.00     0.125 C 
BRANCH  28  29
HETATM   29  C3  UNL     1      11.509  55.971  95.076  1.00  0.00     0.019 C 
BRANCH  29  30
HETATM   30  C2  UNL     1      11.670  57.498  95.048  1.00  0.00    -0.003 C 
HETATM   31  C1  UNL     1      10.407  58.188  95.464  1.00  0.00     0.005 C 
ENDBRANCH  29  30
ENDBRANCH  28  29
ENDBRANCH  25  28
ENDBRANCH   1  23
BRANCH   2  32
HETATM   32  O2  UNL     1      11.291  54.960  88.910  1.00  0.00    -0.368 OA
ATOM     33  H2  UNL     1      10.603  55.536  88.597  1.00  0.00     0.212 HD
ENDBRANCH   2  32
BRANCH  20  34
HETATM   34  C29 UNL     1      11.858  49.392  91.167  1.00  0.00     0.008 C 
HETATM   35  C30 UNL     1      13.154  48.643  91.178  1.00  0.00     0.012 C 
HETATM   36  C31 UNL     1      10.660  48.507  91.362  1.00  0.00     0.012 C 
ENDBRANCH  20  34
BRANCH   4  37
HETATM   37  C9  UNL     1       7.303  53.157  88.591  1.00  0.00     0.037 C 
BRANCH  37  38
HETATM   38  C10 UNL     1       6.762  54.506  88.377  1.00  0.00    -0.020 C 
HETATM   39  C11 UNL     1       5.714  54.622  87.312  1.00  0.00     0.009 C 
HETATM   40  C12 UNL     1       6.082  54.940  89.689  1.00  0.00     0.009 C 
ENDBRANCH  37  38
ENDBRANCH   4  37
BRANCH   7  41
HETATM   41  O4  UNL     1      10.018  53.898  85.950  1.00  0.00    -0.349 OA
ATOM     42  H4  UNL     1      10.345  54.130  85.090  1.00  0.00     0.219 HD
ENDBRANCH   7  41
BRANCH  15  43
HETATM   43  C23 UNL     1      13.336  47.975  87.204  1.00  0.00     0.038 C 
BRANCH  43  44
HETATM   44  C24 UNL     1      14.101  47.441  86.050  1.00  0.00    -0.020 C 
HETATM   45  C25 UNL     1      13.718  46.088  85.556  1.00  0.00     0.009 C 
HETATM   46  C26 UNL     1      15.576  47.480  86.444  1.00  0.00     0.009 C 
ENDBRANCH  43  44
ENDBRANCH  15  43
BRANCH  10  47
HETATM   47  C18 UNL     1      10.562  51.234  83.035  1.00  0.00     0.009 C 
HETATM   48  C19 UNL     1      10.388  52.720  82.867  1.00  0.00     0.012 C 
HETATM   49  C20 UNL     1      11.615  50.834  82.002  1.00  0.00     0.012 C 
ENDBRANCH  10  47
TORSDOF 12
ENDMDL
