MODEL 1
REMARK VINA RESULT: -7.809008036      0.000      0.000
REMARK  13 active torsions:
REMARK  status: ('A' for Active; 'I' for Inactive)
REMARK    1  A    between atoms: C2_2  and  C3_3 
REMARK    2  A    between atoms: C3_3  and  C4_4 
REMARK    3  A    between atoms: C8_10  and  C9_11 
REMARK    4  A    between atoms: C9_11  and  C10_12 
REMARK    5  A    between atoms: C10_12  and  N2_13 
REMARK    6  A    between atoms: C10_12  and  C23_36 
REMARK       I    between atoms: N2_13  and  C11_15 
REMARK    7  A    between atoms: C11_15  and  C12_17 
REMARK    8  A    between atoms: C12_17  and  N3_18 
REMARK    9  A    between atoms: C12_17  and  C19_32 
REMARK       I    between atoms: N3_18  and  C13_20 
REMARK   10  A    between atoms: C13_20  and  O3_22 
REMARK   11  A    between atoms: O3_22  and  C14_23 
REMARK   12  A    between atoms: C23_36  and  O6_37 
REMARK   13  A    between atoms: C23_36  and  N5_39 
ROOT
HETATM    1  C14 UNL     1      10.985   2.680  16.257  1.00  0.00     0.166 C 
HETATM    2  C15 UNL     1       9.773   1.888  15.968  1.00  0.00     0.050 C 
HETATM    3  C16 UNL     1       9.709   1.629  14.478  1.00  0.00     0.144 C 
HETATM    4  S1  UNL     1      11.415   1.216  14.154  1.00  0.00     0.164 S 
HETATM    5  O4  UNL     1      11.628  -0.264  14.324  1.00  0.00    -0.226 OA
HETATM    6  O5  UNL     1      11.878   1.721  12.842  1.00  0.00    -0.226 OA
HETATM    7  C17 UNL     1      12.163   2.093  15.522  1.00  0.00     0.244 C 
HETATM    8  C18 UNL     1      12.921   1.171  16.364  1.00  0.00     0.082 C 
HETATM    9  N4  UNL     1      13.524   0.452  17.016  1.00  0.00    -0.196 NA
ENDROOT
BRANCH   1  10
HETATM   10  O3  UNL     1      10.793   4.055  15.994  1.00  0.00    -0.296 OA
BRANCH  10  11
HETATM   11  C13 UNL     1      11.706   5.018  16.461  1.00  0.00     0.361 C 
HETATM   12  N3  UNL     1      13.024   5.078  15.964  1.00  0.00    -0.323 N 
ATOM     13  H3  UNL     1      13.308   4.407  15.251  1.00  0.00     0.165 HD
HETATM   14  O2  UNL     1      11.259   5.806  17.338  1.00  0.00    -0.238 OA
BRANCH  12  15
HETATM   15  C12 UNL     1      13.998   6.062  16.429  1.00  0.00     0.186 C 
BRANCH  15  16
HETATM   16  C11 UNL     1      13.970   7.207  15.493  1.00  0.00     0.242 C 
HETATM   17  N2  UNL     1      13.322   7.282  14.268  1.00  0.00    -0.344 N 
ATOM     18  H2  UNL     1      12.781   6.496  13.907  1.00  0.00     0.163 HD
HETATM   19  O1  UNL     1      14.627   8.246  15.864  1.00  0.00    -0.271 OA
BRANCH  17  20
HETATM   20  C10 UNL     1      13.446   8.590  13.477  1.00  0.00     0.183 C 
BRANCH  20  21
HETATM   21  C9  UNL     1      12.177   9.251  13.605  1.00  0.00     0.020 C 
BRANCH  21  22
HETATM   22  C8  UNL     1      11.325   9.330  14.768  1.00  0.00    -0.015 A 
HETATM   23  C4  UNL     1      11.487  10.095  15.899  1.00  0.00     0.019 A 
HETATM   24  N1  UNL     1      10.605  10.030  16.964  1.00  0.00    -0.368 N 
HETATM   25  C5  UNL     1       9.548   9.226  16.968  1.00  0.00     0.088 A 
ATOM     26  H1  UNL     1      10.773  10.623  17.777  1.00  0.00     0.165 HD
HETATM   27  C6  UNL     1       9.328   8.431  15.868  1.00  0.00     0.018 A 
HETATM   28  C7  UNL     1      10.189   8.487  14.811  1.00  0.00     0.014 A 
BRANCH  23  29
HETATM   29  C3  UNL     1      12.663  10.980  16.051  1.00  0.00     0.057 C 
BRANCH  29  30
HETATM   30  C2  UNL     1      12.793  11.422  17.483  1.00  0.00     0.002 C 
HETATM   31  C1  UNL     1      14.243  11.124  17.886  1.00  0.00     0.005 C 
ENDBRANCH  29  30
ENDBRANCH  23  29
ENDBRANCH  21  22
ENDBRANCH  20  21
BRANCH  20  32
HETATM   32  C23 UNL     1      14.247   8.234  12.360  1.00  0.00     0.140 C 
BRANCH  32  33
HETATM   33  O6  UNL     1      14.890   9.356  11.913  1.00  0.00    -0.348 OA
ATOM     34  H6  UNL     1      14.393  10.118  12.187  1.00  0.00     0.219 HD
ENDBRANCH  32  33
BRANCH  32  35
HETATM   35  N5  UNL     1      14.601   7.170  11.578  1.00  0.00    -0.363 N 
HETATM   36  C24 UNL     1      16.028   6.984  11.203  1.00  0.00     0.130 C 
HETATM   37  C25 UNL     1      16.493   5.736  11.904  1.00  0.00     0.099 C 
HETATM   38  C26 UNL     1      15.642   4.576  11.469  1.00  0.00     0.246 C 
HETATM   39  F1  UNL     1      16.471   3.658  10.818  1.00  0.00    -0.206 F 
HETATM   40  F2  UNL     1      15.022   3.966  12.561  1.00  0.00    -0.206 F 
HETATM   41  C27 UNL     1      14.621   5.049  10.467  1.00  0.00     0.099 C 
HETATM   42  C28 UNL     1      13.744   6.150  11.071  1.00  0.00     0.130 C 
ENDBRANCH  32  35
ENDBRANCH  20  32
ENDBRANCH  17  20
ENDBRANCH  15  16
BRANCH  15  43
HETATM   43  C19 UNL     1      15.366   5.424  16.540  1.00  0.00    -0.022 C 
HETATM   44  C20 UNL     1      15.269   3.912  16.397  1.00  0.00     0.017 C 
HETATM   45  C21 UNL     1      15.966   5.698  17.889  1.00  0.00     0.017 C 
HETATM   46  C22 UNL     1      16.320   5.915  15.478  1.00  0.00     0.017 C 
ENDBRANCH  15  43
ENDBRANCH  12  15
ENDBRANCH  10  11
ENDBRANCH   1  10
TORSDOF 13
ENDMDL
MODEL 2
REMARK VINA RESULT: -7.781501003      2.758      3.608
REMARK  13 active torsions:
REMARK  status: ('A' for Active; 'I' for Inactive)
REMARK    1  A    between atoms: C2_2  and  C3_3 
REMARK    2  A    between atoms: C3_3  and  C4_4 
REMARK    3  A    between atoms: C8_10  and  C9_11 
REMARK    4  A    between atoms: C9_11  and  C10_12 
REMARK    5  A    between atoms: C10_12  and  N2_13 
REMARK    6  A    between atoms: C10_12  and  C23_36 
REMARK       I    between atoms: N2_13  and  C11_15 
REMARK    7  A    between atoms: C11_15  and  C12_17 
REMARK    8  A    between atoms: C12_17  and  N3_18 
REMARK    9  A    between atoms: C12_17  and  C19_32 
REMARK       I    between atoms: N3_18  and  C13_20 
REMARK   10  A    between atoms: C13_20  and  O3_22 
REMARK   11  A    between atoms: O3_22  and  C14_23 
REMARK   12  A    between atoms: C23_36  and  O6_37 
REMARK   13  A    between atoms: C23_36  and  N5_39 
ROOT
HETATM    1  C14 UNL     1      16.205   2.443  17.386  1.00  0.00     0.166 C 
HETATM    2  C15 UNL     1      15.221   1.703  18.202  1.00  0.00     0.050 C 
HETATM    3  C16 UNL     1      15.370   0.224  17.915  1.00  0.00     0.144 C 
HETATM    4  S1  UNL     1      17.148   0.079  17.911  1.00  0.00     0.164 S 
HETATM    5  O4  UNL     1      17.644  -0.219  19.300  1.00  0.00    -0.226 OA
HETATM    6  O5  UNL     1      17.633  -0.890  16.902  1.00  0.00    -0.226 OA
HETATM    7  C17 UNL     1      17.550   1.768  17.478  1.00  0.00     0.244 C 
HETATM    8  C18 UNL     1      18.389   2.373  18.509  1.00  0.00     0.082 C 
HETATM    9  N4  UNL     1      19.056   2.842  19.310  1.00  0.00    -0.196 NA
ENDROOT
BRANCH   1  10
HETATM   10  O3  UNL     1      15.761   2.622  16.057  1.00  0.00    -0.296 OA
BRANCH  10  11
HETATM   11  C13 UNL     1      14.517   3.223  15.782  1.00  0.00     0.361 C 
HETATM   12  N3  UNL     1      14.227   4.533  16.215  1.00  0.00    -0.323 N 
ATOM     13  H3  UNL     1      14.940   5.046  16.734  1.00  0.00     0.165 HD
HETATM   14  O2  UNL     1      13.706   2.511  15.132  1.00  0.00    -0.238 OA
BRANCH  12  15
HETATM   15  C12 UNL     1      12.948   5.185  15.950  1.00  0.00     0.186 C 
BRANCH  15  16
HETATM   16  C11 UNL     1      13.196   6.316  15.029  1.00  0.00     0.242 C 
HETATM   17  N2  UNL     1      12.287   6.925  14.174  1.00  0.00    -0.344 N 
ATOM     18  H2  UNL     1      11.319   6.609  14.120  1.00  0.00     0.163 HD
HETATM   19  O1  UNL     1      14.392   6.781  15.027  1.00  0.00    -0.271 OA
BRANCH  17  20
HETATM   20  C10 UNL     1      12.791   8.088  13.313  1.00  0.00     0.183 C 
BRANCH  20  21
HETATM   21  C9  UNL     1      12.022   9.235  13.708  1.00  0.00     0.020 C 
BRANCH  21  22
HETATM   22  C8  UNL     1      11.276   9.432  14.929  1.00  0.00    -0.015 A 
HETATM   23  C4  UNL     1      11.721   9.916  16.137  1.00  0.00     0.019 A 
HETATM   24  N1  UNL     1      10.895  10.004  17.244  1.00  0.00    -0.368 N 
HETATM   25  C5  UNL     1       9.622   9.626  17.216  1.00  0.00     0.088 A 
ATOM     26  H1  UNL     1      11.278  10.373  18.113  1.00  0.00     0.165 HD
HETATM   27  C6  UNL     1       9.113   9.130  16.040  1.00  0.00     0.018 A 
HETATM   28  C7  UNL     1       9.917   9.039  14.941  1.00  0.00     0.014 A 
BRANCH  23  29
HETATM   29  C3  UNL     1      13.137  10.303  16.320  1.00  0.00     0.057 C 
BRANCH  29  30
HETATM   30  C2  UNL     1      13.220  11.642  17.001  1.00  0.00     0.002 C 
HETATM   31  C1  UNL     1      14.260  11.484  18.118  1.00  0.00     0.005 C 
ENDBRANCH  29  30
ENDBRANCH  23  29
ENDBRANCH  21  22
ENDBRANCH  20  21
BRANCH  20  32
HETATM   32  C23 UNL     1      13.060   7.486  12.056  1.00  0.00     0.140 C 
BRANCH  32  33
HETATM   33  O6  UNL     1      12.122   7.919  11.157  1.00  0.00    -0.348 OA
ATOM     34  H6  UNL     1      12.427   7.715  10.282  1.00  0.00     0.219 HD
ENDBRANCH  32  33
BRANCH  32  35
HETATM   35  N5  UNL     1      13.922   6.629  11.429  1.00  0.00    -0.363 N 
HETATM   36  C24 UNL     1      15.356   7.001  11.302  1.00  0.00     0.130 C 
HETATM   37  C25 UNL     1      16.123   6.037  12.168  1.00  0.00     0.099 C 
HETATM   38  C26 UNL     1      15.864   4.634  11.698  1.00  0.00     0.246 C 
HETATM   39  F1  UNL     1      17.078   4.096  11.264  1.00  0.00    -0.206 F 
HETATM   40  F2  UNL     1      15.334   3.847  12.723  1.00  0.00    -0.206 F 
HETATM   41  C27 UNL     1      14.935   4.664  10.511  1.00  0.00     0.099 C 
HETATM   42  C28 UNL     1      13.617   5.351  10.876  1.00  0.00     0.130 C 
ENDBRANCH  32  35
ENDBRANCH  20  32
ENDBRANCH  17  20
ENDBRANCH  15  16
BRANCH  15  43
HETATM   43  C19 UNL     1      12.306   5.614  17.251  1.00  0.00    -0.022 C 
HETATM   44  C20 UNL     1      13.015   6.831  17.828  1.00  0.00     0.017 C 
HETATM   45  C21 UNL     1      12.412   4.521  18.276  1.00  0.00     0.017 C 
HETATM   46  C22 UNL     1      10.850   5.980  17.084  1.00  0.00     0.017 C 
ENDBRANCH  15  43
ENDBRANCH  12  15
ENDBRANCH  10  11
ENDBRANCH   1  10
TORSDOF 13
ENDMDL
MODEL 3
REMARK VINA RESULT: -7.746775427      2.918      5.023
REMARK  13 active torsions:
REMARK  status: ('A' for Active; 'I' for Inactive)
REMARK    1  A    between atoms: C2_2  and  C3_3 
REMARK    2  A    between atoms: C3_3  and  C4_4 
REMARK    3  A    between atoms: C8_10  and  C9_11 
REMARK    4  A    between atoms: C9_11  and  C10_12 
REMARK    5  A    between atoms: C10_12  and  N2_13 
REMARK    6  A    between atoms: C10_12  and  C23_36 
REMARK       I    between atoms: N2_13  and  C11_15 
REMARK    7  A    between atoms: C11_15  and  C12_17 
REMARK    8  A    between atoms: C12_17  and  N3_18 
REMARK    9  A    between atoms: C12_17  and  C19_32 
REMARK       I    between atoms: N3_18  and  C13_20 
REMARK   10  A    between atoms: C13_20  and  O3_22 
REMARK   11  A    between atoms: O3_22  and  C14_23 
REMARK   12  A    between atoms: C23_36  and  O6_37 
REMARK   13  A    between atoms: C23_36  and  N5_39 
ROOT
HETATM    1  C14 UNL     1      10.930   1.003  13.883  1.00  0.00     0.166 C 
HETATM    2  C15 UNL     1       9.471   1.203  13.992  1.00  0.00     0.050 C 
HETATM    3  C16 UNL     1       8.815   0.664  12.739  1.00  0.00     0.144 C 
HETATM    4  S1  UNL     1       9.720  -0.861  12.536  1.00  0.00     0.164 S 
HETATM    5  O4  UNL     1       9.030  -1.972  13.282  1.00  0.00    -0.226 OA
HETATM    6  O5  UNL     1       9.968  -1.185  11.114  1.00  0.00    -0.226 OA
HETATM    7  C17 UNL     1      11.216  -0.395  13.399  1.00  0.00     0.244 C 
HETATM    8  C18 UNL     1      11.470  -1.310  14.509  1.00  0.00     0.082 C 
HETATM    9  N4  UNL     1      11.675  -2.034  15.370  1.00  0.00    -0.196 NA
ENDROOT
BRANCH   1  10
HETATM   10  O3  UNL     1      11.542   2.003  13.094  1.00  0.00    -0.296 OA
BRANCH  10  11
HETATM   11  C13 UNL     1      12.848   2.449  13.373  1.00  0.00     0.361 C 
HETATM   12  N3  UNL     1      13.416   3.531  12.670  1.00  0.00    -0.323 N 
ATOM     13  H3  UNL     1      12.860   3.992  11.950  1.00  0.00     0.165 HD
HETATM   14  O2  UNL     1      13.451   1.819  14.283  1.00  0.00    -0.238 OA
BRANCH  12  15
HETATM   15  C12 UNL     1      14.767   4.018  12.932  1.00  0.00     0.186 C 
BRANCH  15  16
HETATM   16  C11 UNL     1      14.729   4.821  14.173  1.00  0.00     0.242 C 
HETATM   17  N2  UNL     1      13.681   5.599  14.645  1.00  0.00    -0.344 N 
ATOM     18  H2  UNL     1      12.804   5.673  14.130  1.00  0.00     0.163 HD
HETATM   19  O1  UNL     1      15.795   4.791  14.889  1.00  0.00    -0.271 OA
BRANCH  17  20
HETATM   20  C10 UNL     1      13.889   6.343  15.970  1.00  0.00     0.183 C 
BRANCH  20  21
HETATM   21  C9  UNL     1      12.917   5.808  16.881  1.00  0.00     0.020 C 
BRANCH  21  22
HETATM   22  C8  UNL     1      11.649   6.380  17.271  1.00  0.00    -0.015 A 
HETATM   23  C4  UNL     1      10.382   5.959  16.944  1.00  0.00     0.019 A 
HETATM   24  N1  UNL     1       9.250   6.641  17.356  1.00  0.00    -0.368 N 
HETATM   25  C5  UNL     1       9.311   7.747  18.090  1.00  0.00     0.088 A 
ATOM     26  H1  UNL     1       8.335   6.282  17.086  1.00  0.00     0.165 HD
HETATM   27  C6  UNL     1      10.549   8.224  18.450  1.00  0.00     0.018 A 
HETATM   28  C7  UNL     1      11.672   7.559  18.052  1.00  0.00     0.014 A 
BRANCH  23  29
HETATM   29  C3  UNL     1      10.178   4.781  16.071  1.00  0.00     0.057 C 
BRANCH  29  30
HETATM   30  C2  UNL     1       9.380   3.733  16.798  1.00  0.00     0.002 C 
HETATM   31  C1  UNL     1      10.396   2.694  17.289  1.00  0.00     0.005 C 
ENDBRANCH  29  30
ENDBRANCH  23  29
ENDBRANCH  21  22
ENDBRANCH  20  21
BRANCH  20  32
HETATM   32  C23 UNL     1      14.216   7.665  15.566  1.00  0.00     0.140 C 
BRANCH  32  33
HETATM   33  O6  UNL     1      15.580   7.785  15.538  1.00  0.00    -0.348 OA
ATOM     34  H6  UNL     1      15.799   8.681  15.314  1.00  0.00     0.219 HD
ENDBRANCH  32  33
BRANCH  32  35
HETATM   35  N5  UNL     1      13.653   8.854  15.197  1.00  0.00    -0.363 N 
HETATM   36  C24 UNL     1      13.364   9.110  13.760  1.00  0.00     0.130 C 
HETATM   37  C25 UNL     1      11.865   9.152  13.628  1.00  0.00     0.099 C 
HETATM   38  C26 UNL     1      11.319  10.237  14.512  1.00  0.00     0.246 C 
HETATM   39  F1  UNL     1      10.702  11.186  13.693  1.00  0.00    -0.206 F 
HETATM   40  F2  UNL     1      10.398   9.728  15.430  1.00  0.00    -0.206 F 
HETATM   41  C27 UNL     1      12.456  10.928  15.221  1.00  0.00     0.099 C 
HETATM   42  C28 UNL     1      13.260   9.925  16.052  1.00  0.00     0.130 C 
ENDBRANCH  32  35
ENDBRANCH  20  32
ENDBRANCH  17  20
ENDBRANCH  15  16
BRANCH  15  43
HETATM   43  C19 UNL     1      15.276   4.799  11.739  1.00  0.00    -0.022 C 
HETATM   44  C20 UNL     1      14.494   6.094  11.569  1.00  0.00     0.017 C 
HETATM   45  C21 UNL     1      15.092   4.009  10.475  1.00  0.00     0.017 C 
HETATM   46  C22 UNL     1      16.734   5.170  11.871  1.00  0.00     0.017 C 
ENDBRANCH  15  43
ENDBRANCH  12  15
ENDBRANCH  10  11
ENDBRANCH   1  10
TORSDOF 13
ENDMDL
MODEL 4
REMARK VINA RESULT: -7.721338950      2.957      5.592
REMARK  13 active torsions:
REMARK  status: ('A' for Active; 'I' for Inactive)
REMARK    1  A    between atoms: C2_2  and  C3_3 
REMARK    2  A    between atoms: C3_3  and  C4_4 
REMARK    3  A    between atoms: C8_10  and  C9_11 
REMARK    4  A    between atoms: C9_11  and  C10_12 
REMARK    5  A    between atoms: C10_12  and  N2_13 
REMARK    6  A    between atoms: C10_12  and  C23_36 
REMARK       I    between atoms: N2_13  and  C11_15 
REMARK    7  A    between atoms: C11_15  and  C12_17 
REMARK    8  A    between atoms: C12_17  and  N3_18 
REMARK    9  A    between atoms: C12_17  and  C19_32 
REMARK       I    between atoms: N3_18  and  C13_20 
REMARK   10  A    between atoms: C13_20  and  O3_22 
REMARK   11  A    between atoms: O3_22  and  C14_23 
REMARK   12  A    between atoms: C23_36  and  O6_37 
REMARK   13  A    between atoms: C23_36  and  N5_39 
ROOT
HETATM    1  C14 UNL     1       9.898   9.272  17.865  1.00  0.00     0.166 C 
HETATM    2  C15 UNL     1       8.752   9.482  16.958  1.00  0.00     0.050 C 
HETATM    3  C16 UNL     1       9.210   9.238  15.536  1.00  0.00     0.144 C 
HETATM    4  S1  UNL     1      10.195   7.768  15.767  1.00  0.00     0.164 S 
HETATM    5  O4  UNL     1       9.333   6.543  15.617  1.00  0.00    -0.226 OA
HETATM    6  O5  UNL     1      11.390   7.746  14.894  1.00  0.00    -0.226 OA
HETATM    7  C17 UNL     1      10.616   8.001  17.490  1.00  0.00     0.244 C 
HETATM    8  C18 UNL     1      10.156   6.865  18.285  1.00  0.00     0.082 C 
HETATM    9  N4  UNL     1       9.807   5.971  18.905  1.00  0.00    -0.196 NA
ENDROOT
BRANCH   1  10
HETATM   10  O3  UNL     1      10.748  10.400  17.911  1.00  0.00    -0.296 OA
BRANCH  10  11
HETATM   11  C13 UNL     1      12.043  10.356  17.361  1.00  0.00     0.361 C 
HETATM   12  N3  UNL     1      13.118   9.778  18.067  1.00  0.00    -0.323 N 
ATOM     13  H3  UNL     1      12.941   9.386  18.992  1.00  0.00     0.165 HD
HETATM   14  O2  UNL     1      12.160  10.861  16.212  1.00  0.00    -0.238 OA
BRANCH  12  15
HETATM   15  C12 UNL     1      14.473   9.718  17.529  1.00  0.00     0.186 C 
BRANCH  15  16
HETATM   16  C11 UNL     1      14.598   8.469  16.746  1.00  0.00     0.242 C 
HETATM   17  N2  UNL     1      15.302   8.279  15.565  1.00  0.00    -0.344 N 
ATOM     18  H2  UNL     1      15.818   9.043  15.128  1.00  0.00     0.163 HD
HETATM   19  O1  UNL     1      13.977   7.450  17.220  1.00  0.00    -0.271 OA
BRANCH  17  20
HETATM   20  C10 UNL     1      15.277   6.879  14.941  1.00  0.00     0.183 C 
BRANCH  20  21
HETATM   21  C9  UNL     1      16.181   6.081  15.722  1.00  0.00     0.020 C 
BRANCH  21  22
HETATM   22  C8  UNL     1      15.991   4.734  16.207  1.00  0.00    -0.015 A 
HETATM   23  C4  UNL     1      16.353   4.201  17.421  1.00  0.00     0.019 A 
HETATM   24  N1  UNL     1      16.147   2.867  17.730  1.00  0.00    -0.368 N 
HETATM   25  C5  UNL     1      15.591   2.014  16.878  1.00  0.00     0.088 A 
ATOM     26  H1  UNL     1      16.434   2.527  18.648  1.00  0.00     0.165 HD
HETATM   27  C6  UNL     1      15.207   2.482  15.643  1.00  0.00     0.018 A 
HETATM   28  C7  UNL     1      15.403   3.794  15.327  1.00  0.00     0.014 A 
BRANCH  23  29
HETATM   29  C3  UNL     1      17.047   5.028  18.433  1.00  0.00     0.057 C 
BRANCH  29  30
HETATM   30  C2  UNL     1      16.056   5.554  19.435  1.00  0.00     0.002 C 
HETATM   31  C1  UNL     1      16.886   6.064  20.621  1.00  0.00     0.005 C 
ENDBRANCH  29  30
ENDBRANCH  23  29
ENDBRANCH  21  22
ENDBRANCH  20  21
BRANCH  20  32
HETATM   32  C23 UNL     1      15.161   7.132  13.548  1.00  0.00     0.140 C 
BRANCH  32  33
HETATM   33  O6  UNL     1      15.119   8.487  13.356  1.00  0.00    -0.348 OA
ATOM     34  H6  UNL     1      16.010   8.814  13.322  1.00  0.00     0.219 HD
ENDBRANCH  32  33
BRANCH  32  35
HETATM   35  N5  UNL     1      15.078   6.503  12.338  1.00  0.00    -0.363 N 
HETATM   36  C24 UNL     1      16.280   5.826  11.784  1.00  0.00     0.130 C 
HETATM   37  C25 UNL     1      15.979   4.351  11.791  1.00  0.00     0.099 C 
HETATM   38  C26 UNL     1      14.755   4.090  10.960  1.00  0.00     0.246 C 
HETATM   39  F1  UNL     1      15.131   3.279   9.886  1.00  0.00    -0.206 F 
HETATM   40  F2  UNL     1      13.760   3.457  11.708  1.00  0.00    -0.206 F 
HETATM   41  C27 UNL     1      14.249   5.389  10.387  1.00  0.00     0.099 C 
HETATM   42  C28 UNL     1      13.926   6.381  11.507  1.00  0.00     0.130 C 
ENDBRANCH  32  35
ENDBRANCH  20  32
ENDBRANCH  17  20
ENDBRANCH  15  16
BRANCH  15  43
HETATM   43  C19 UNL     1      15.482   9.812  18.653  1.00  0.00    -0.022 C 
HETATM   44  C20 UNL     1      14.919   9.214  19.934  1.00  0.00     0.017 C 
HETATM   45  C21 UNL     1      15.810  11.247  18.948  1.00  0.00     0.017 C 
HETATM   46  C22 UNL     1      16.764   9.077  18.341  1.00  0.00     0.017 C 
ENDBRANCH  15  43
ENDBRANCH  12  15
ENDBRANCH  10  11
ENDBRANCH   1  10
TORSDOF 13
ENDMDL
MODEL 5
REMARK VINA RESULT: -7.716345202      2.907      5.558
REMARK  13 active torsions:
REMARK  status: ('A' for Active; 'I' for Inactive)
REMARK    1  A    between atoms: C2_2  and  C3_3 
REMARK    2  A    between atoms: C3_3  and  C4_4 
REMARK    3  A    between atoms: C8_10  and  C9_11 
REMARK    4  A    between atoms: C9_11  and  C10_12 
REMARK    5  A    between atoms: C10_12  and  N2_13 
REMARK    6  A    between atoms: C10_12  and  C23_36 
REMARK       I    between atoms: N2_13  and  C11_15 
REMARK    7  A    between atoms: C11_15  and  C12_17 
REMARK    8  A    between atoms: C12_17  and  N3_18 
REMARK    9  A    between atoms: C12_17  and  C19_32 
REMARK       I    between atoms: N3_18  and  C13_20 
REMARK   10  A    between atoms: C13_20  and  O3_22 
REMARK   11  A    between atoms: O3_22  and  C14_23 
REMARK   12  A    between atoms: C23_36  and  O6_37 
REMARK   13  A    between atoms: C23_36  and  N5_39 
ROOT
HETATM    1  C14 UNL     1      10.938   0.961  13.841  1.00  0.00     0.166 C 
HETATM    2  C15 UNL     1       9.480   1.173  13.947  1.00  0.00     0.050 C 
HETATM    3  C16 UNL     1       8.819   0.608  12.708  1.00  0.00     0.144 C 
HETATM    4  S1  UNL     1       9.714  -0.927  12.541  1.00  0.00     0.164 S 
HETATM    5  O4  UNL     1       9.018  -2.015  13.314  1.00  0.00    -0.226 OA
HETATM    6  O5  UNL     1       9.958  -1.287  11.126  1.00  0.00    -0.226 OA
HETATM    7  C17 UNL     1      11.215  -0.450  13.390  1.00  0.00     0.244 C 
HETATM    8  C18 UNL     1      11.464  -1.340  14.522  1.00  0.00     0.082 C 
HETATM    9  N4  UNL     1      11.667  -2.043  15.399  1.00  0.00    -0.196 NA
ENDROOT
BRANCH   1  10
HETATM   10  O3  UNL     1      11.555   1.938  13.028  1.00  0.00    -0.296 OA
BRANCH  10  11
HETATM   11  C13 UNL     1      12.842   2.424  13.326  1.00  0.00     0.361 C 
HETATM   12  N3  UNL     1      13.443   3.430  12.544  1.00  0.00    -0.323 N 
ATOM     13  H3  UNL     1      12.926   3.806  11.750  1.00  0.00     0.165 HD
HETATM   14  O2  UNL     1      13.398   1.899  14.329  1.00  0.00    -0.238 OA
BRANCH  12  15
HETATM   15  C12 UNL     1      14.777   3.954  12.823  1.00  0.00     0.186 C 
BRANCH  15  16
HETATM   16  C11 UNL     1      14.706   4.735  14.078  1.00  0.00     0.242 C 
HETATM   17  N2  UNL     1      13.698   5.601  14.478  1.00  0.00    -0.344 N 
ATOM     18  H2  UNL     1      12.880   5.768  13.892  1.00  0.00     0.163 HD
HETATM   19  O1  UNL     1      15.696   4.589  14.882  1.00  0.00    -0.271 OA
BRANCH  17  20
HETATM   20  C10 UNL     1      13.857   6.297  15.835  1.00  0.00     0.183 C 
BRANCH  20  21
HETATM   21  C9  UNL     1      12.858   5.725  16.693  1.00  0.00     0.020 C 
BRANCH  21  22
HETATM   22  C8  UNL     1      12.604   4.328  16.959  1.00  0.00    -0.015 A 
HETATM   23  C4  UNL     1      11.469   3.597  16.695  1.00  0.00     0.019 A 
HETATM   24  N1  UNL     1      11.352   2.266  17.053  1.00  0.00    -0.368 N 
HETATM   25  C5  UNL     1      12.322   1.605  17.676  1.00  0.00     0.088 A 
ATOM     26  H1  UNL     1      10.488   1.772  16.830  1.00  0.00     0.165 HD
HETATM   27  C6  UNL     1      13.483   2.278  17.973  1.00  0.00     0.018 A 
HETATM   28  C7  UNL     1      13.612   3.591  17.624  1.00  0.00     0.014 A 
BRANCH  23  29
HETATM   29  C3  UNL     1      10.289   4.233  16.069  1.00  0.00     0.057 C 
BRANCH  29  30
HETATM   30  C2  UNL     1       9.192   4.397  17.086  1.00  0.00     0.002 C 
HETATM   31  C1  UNL     1       7.978   3.649  16.520  1.00  0.00     0.005 C 
ENDBRANCH  29  30
ENDBRANCH  23  29
ENDBRANCH  21  22
ENDBRANCH  20  21
BRANCH  20  32
HETATM   32  C23 UNL     1      14.191   7.634  15.491  1.00  0.00     0.140 C 
BRANCH  32  33
HETATM   33  O6  UNL     1      15.555   7.747  15.466  1.00  0.00    -0.348 OA
ATOM     34  H6  UNL     1      15.843   7.726  14.562  1.00  0.00     0.219 HD
ENDBRANCH  32  33
BRANCH  32  35
HETATM   35  N5  UNL     1      13.633   8.842  15.177  1.00  0.00    -0.363 N 
HETATM   36  C24 UNL     1      13.400   9.188  13.750  1.00  0.00     0.130 C 
HETATM   37  C25 UNL     1      11.908   9.231  13.560  1.00  0.00     0.099 C 
HETATM   38  C26 UNL     1      11.319  10.254  14.490  1.00  0.00     0.246 C 
HETATM   39  F1  UNL     1      10.727  11.250  13.709  1.00  0.00    -0.206 F 
HETATM   40  F2  UNL     1      10.365   9.682  15.335  1.00  0.00    -0.206 F 
HETATM   41  C27 UNL     1      12.421  10.903  15.287  1.00  0.00     0.099 C 
HETATM   42  C28 UNL     1      13.199   9.853  16.083  1.00  0.00     0.130 C 
ENDBRANCH  32  35
ENDBRANCH  20  32
ENDBRANCH  17  20
ENDBRANCH  15  16
BRANCH  15  43
HETATM   43  C19 UNL     1      15.269   4.772  11.648  1.00  0.00    -0.022 C 
HETATM   44  C20 UNL     1      15.152   3.980  10.354  1.00  0.00     0.017 C 
HETATM   45  C21 UNL     1      16.720   5.118  11.818  1.00  0.00     0.017 C 
HETATM   46  C22 UNL     1      14.485   6.049  11.464  1.00  0.00     0.017 C 
ENDBRANCH  15  43
ENDBRANCH  12  15
ENDBRANCH  10  11
ENDBRANCH   1  10
TORSDOF 13
ENDMDL
