MODEL 1
REMARK VINA RESULT: -7.809943992      0.000      0.000
REMARK  15 active torsions:
REMARK  status: ('A' for Active; 'I' for Inactive)
REMARK    1  A    between atoms: C2_2  and  O1_3 
REMARK    2  A    between atoms: O1_3  and  C3_4 
REMARK       I    between atoms: C3_4  and  N1_6 
REMARK    3  A    between atoms: N2_9  and  C6_10 
REMARK    4  A    between atoms: C6_10  and  O3_11 
REMARK    5  A    between atoms: C6_10  and  C7_13 
REMARK    6  A    between atoms: C7_13  and  N3_14 
REMARK    7  A    between atoms: C7_13  and  C19_33 
REMARK       I    between atoms: N3_14  and  C8_16 
REMARK    8  A    between atoms: C8_16  and  C9_18 
REMARK    9  A    between atoms: C10_21  and  C11_22 
REMARK   10  A    between atoms: C17_29  and  C18_30 
REMARK   11  A    between atoms: C22_36  and  N6_37 
REMARK   12  A    between atoms: N6_37  and  C24_39 
REMARK   13  A    between atoms: C24_39  and  C25_40 
REMARK   14  A    between atoms: C25_40  and  N7_41 
REMARK   15  A    between atoms: C25_40  and  O5_45 
ROOT
HETATM    1  C7  UNL     1      14.310   8.520  18.077  1.00  0.00     0.067 C 
ENDROOT
BRANCH   1   2
HETATM    2  C6  UNL     1      15.119   7.502  18.709  1.00  0.00     0.161 C 
BRANCH   2   3
HETATM    3  N2  UNL     1      16.482   7.196  18.686  1.00  0.00    -0.357 N 
HETATM    4  C5  UNL     1      17.036   6.022  19.266  1.00  0.00     0.145 C 
HETATM    5  C4  UNL     1      18.378   5.600  18.701  1.00  0.00     0.148 C 
HETATM    6  N1  UNL     1      19.085   6.608  17.999  1.00  0.00    -0.325 N 
HETATM    7  C3  UNL     1      20.388   7.072  18.242  1.00  0.00     0.362 C 
HETATM    8  C29 UNL     1      18.229   7.320  16.999  1.00  0.00     0.148 C 
HETATM    9  O2  UNL     1      20.891   7.836  17.348  1.00  0.00    -0.238 OA
HETATM   10  C28 UNL     1      17.358   8.150  17.959  1.00  0.00     0.145 C 
BRANCH   7  11
HETATM   11  O1  UNL     1      21.165   6.809  19.327  1.00  0.00    -0.304 OA
BRANCH  11  12
HETATM   12  C2  UNL     1      22.359   6.082  19.317  1.00  0.00     0.176 C 
HETATM   13  C1  UNL     1      22.380   4.917  18.338  1.00  0.00     0.034 C 
ENDBRANCH  11  12
ENDBRANCH   7  11
ENDBRANCH   2   3
BRANCH   2  14
HETATM   14  O3  UNL     1      14.449   6.679  19.501  1.00  0.00    -0.345 OA
ATOM     15  H3  UNL     1      14.022   5.990  19.007  1.00  0.00     0.219 HD
ENDBRANCH   2  14
ENDBRANCH   1   2
BRANCH   1  16
HETATM   16  N3  UNL     1      14.106   8.228  16.671  1.00  0.00    -0.321 N 
HETATM   17  C8  UNL     1      13.475   7.227  16.017  1.00  0.00     0.274 C 
HETATM   18  O4  UNL     1      12.918   6.281  16.628  1.00  0.00    -0.266 OA
ATOM     19  H3  UNL     1      14.523   8.920  16.049  1.00  0.00     0.169 HD
BRANCH  17  20
HETATM   20  C9  UNL     1      13.416   7.189  14.531  1.00  0.00     0.131 A 
HETATM   21  N4  UNL     1      14.301   6.601  13.712  1.00  0.00    -0.339 N 
HETATM   22  C10 UNL     1      13.967   6.791  12.453  1.00  0.00     0.088 A 
ATOM     23  H4  UNL     1      15.120   6.077  14.022  1.00  0.00     0.167 HD
HETATM   24  N5  UNL     1      12.842   7.513  12.461  1.00  0.00    -0.338 N 
HETATM   25  C16 UNL     1      12.047   7.986  11.312  1.00  0.00     0.157 C 
HETATM   26  C17 UNL     1      12.455   7.786  13.754  1.00  0.00     0.110 A 
BRANCH  22  27
HETATM   27  C11 UNL     1      14.626   6.366  11.168  1.00  0.00     0.053 C 
HETATM   28  C12 UNL     1      14.148   4.963  10.805  1.00  0.00     0.012 C 
HETATM   29  C13 UNL     1      15.363   4.100  10.758  1.00  0.00     0.001 C 
HETATM   30  C14 UNL     1      16.371   4.799  11.613  1.00  0.00     0.001 C 
HETATM   31  C15 UNL     1      16.094   6.273  11.323  1.00  0.00     0.012 C 
ENDBRANCH  22  27
BRANCH  26  32
HETATM   32  C18 UNL     1      11.189   8.487  14.099  1.00  0.00     0.405 C 
HETATM   33  F1  UNL     1      10.636   7.968  15.286  1.00  0.00    -0.207 F 
HETATM   34  F2  UNL     1      11.424   9.819  14.384  1.00  0.00    -0.207 F 
ENDBRANCH  26  32
ENDBRANCH  17  20
ENDBRANCH   1  16
BRANCH   1  35
HETATM   35  C19 UNL     1      13.192   9.275  18.570  1.00  0.00     0.040 C 
HETATM   36  C20 UNL     1      13.067   9.913  19.878  1.00  0.00     0.013 C 
HETATM   37  C21 UNL     1      11.537  10.074  20.130  1.00  0.00     0.036 C 
HETATM   38  C22 UNL     1      10.967  11.017  19.130  1.00  0.00     0.222 C 
HETATM   39  C26 UNL     1      11.231  10.467  17.698  1.00  0.00     0.036 C 
HETATM   40  C27 UNL     1      12.738  10.393  17.562  1.00  0.00     0.013 C 
BRANCH  38  41
HETATM   41  N6  UNL     1       9.522  11.101  19.240  1.00  0.00     0.093 N 
HETATM   42  C23 UNL     1       9.121  11.723  20.452  1.00  0.00     0.310 C 
BRANCH  41  43
HETATM   43  C24 UNL     1       8.988   9.799  19.068  1.00  0.00     0.332 C 
BRANCH  43  44
HETATM   44  C25 UNL     1       7.784   9.616  18.265  1.00  0.00     0.344 C 
BRANCH  44  45
HETATM   45  N7  UNL     1       6.813   8.616  18.276  1.00  0.00    -0.051 N 
ATOM     46  H73 UNL     1       7.000   8.067  17.437  1.00  0.00     0.277 HD
ATOM     47  H72 UNL     1       7.083   8.003  19.045  1.00  0.00     0.277 HD
ATOM     48  H71 UNL     1       5.796   8.665  18.330  1.00  0.00     0.277 HD
ENDBRANCH  44  45
BRANCH  44  49
HETATM   49  O5  UNL     1       7.554  10.561  17.368  1.00  0.00    -0.369 OA
ATOM     50  H5  UNL     1       6.662  10.607  17.047  1.00  0.00     0.212 HD
ENDBRANCH  44  49
ENDBRANCH  43  44
ENDBRANCH  41  43
ENDBRANCH  38  41
ENDBRANCH   1  35
TORSDOF 15
ENDMDL
MODEL 2
REMARK VINA RESULT: -7.697222830      1.579      2.067
REMARK  15 active torsions:
REMARK  status: ('A' for Active; 'I' for Inactive)
REMARK    1  A    between atoms: C2_2  and  O1_3 
REMARK    2  A    between atoms: O1_3  and  C3_4 
REMARK       I    between atoms: C3_4  and  N1_6 
REMARK    3  A    between atoms: N2_9  and  C6_10 
REMARK    4  A    between atoms: C6_10  and  O3_11 
REMARK    5  A    between atoms: C6_10  and  C7_13 
REMARK    6  A    between atoms: C7_13  and  N3_14 
REMARK    7  A    between atoms: C7_13  and  C19_33 
REMARK       I    between atoms: N3_14  and  C8_16 
REMARK    8  A    between atoms: C8_16  and  C9_18 
REMARK    9  A    between atoms: C10_21  and  C11_22 
REMARK   10  A    between atoms: C17_29  and  C18_30 
REMARK   11  A    between atoms: C22_36  and  N6_37 
REMARK   12  A    between atoms: N6_37  and  C24_39 
REMARK   13  A    between atoms: C24_39  and  C25_40 
REMARK   14  A    between atoms: C25_40  and  N7_41 
REMARK   15  A    between atoms: C25_40  and  O5_45 
ROOT
HETATM    1  C7  UNL     1      14.453   9.871  17.635  1.00  0.00     0.067 C 
ENDROOT
BRANCH   1   2
HETATM    2  C6  UNL     1      15.840   9.813  18.041  1.00  0.00     0.161 C 
BRANCH   2   3
HETATM    3  N2  UNL     1      16.748   8.769  18.236  1.00  0.00    -0.357 N 
HETATM    4  C5  UNL     1      17.379   8.065  17.174  1.00  0.00     0.145 C 
HETATM    5  C4  UNL     1      18.677   7.375  17.545  1.00  0.00     0.148 C 
HETATM    6  N1  UNL     1      18.880   7.168  18.932  1.00  0.00    -0.325 N 
HETATM    7  C3  UNL     1      19.138   5.955  19.591  1.00  0.00     0.362 C 
HETATM    8  C29 UNL     1      18.622   8.400  19.741  1.00  0.00     0.148 C 
HETATM    9  O2  UNL     1      19.496   6.043  20.815  1.00  0.00    -0.238 OA
HETATM   10  C28 UNL     1      17.087   8.447  19.646  1.00  0.00     0.145 C 
BRANCH   7  11
HETATM   11  O1  UNL     1      19.036   4.700  19.074  1.00  0.00    -0.304 OA
BRANCH  11  12
HETATM   12  C2  UNL     1      17.907   3.880  19.143  1.00  0.00     0.176 C 
HETATM   13  C1  UNL     1      16.810   4.233  18.149  1.00  0.00     0.034 C 
ENDBRANCH  11  12
ENDBRANCH   7  11
ENDBRANCH   2   3
BRANCH   2  14
HETATM   14  O3  UNL     1      16.399  10.992  18.263  1.00  0.00    -0.345 OA
ATOM     15  H3  UNL     1      15.752  11.687  18.279  1.00  0.00     0.219 HD
ENDBRANCH   2  14
ENDBRANCH   1   2
BRANCH   1  16
HETATM   16  N3  UNL     1      14.269   9.299  16.316  1.00  0.00    -0.321 N 
HETATM   17  C8  UNL     1      13.998   8.048  15.879  1.00  0.00     0.274 C 
HETATM   18  O4  UNL     1      13.865   7.082  16.671  1.00  0.00    -0.266 OA
ATOM     19  H3  UNL     1      14.364   9.980  15.562  1.00  0.00     0.169 HD
BRANCH  17  20
HETATM   20  C9  UNL     1      13.853   7.748  14.429  1.00  0.00     0.131 A 
HETATM   21  N4  UNL     1      14.752   7.132  13.648  1.00  0.00    -0.339 N 
HETATM   22  C10 UNL     1      14.319   7.064  12.407  1.00  0.00     0.088 A 
ATOM     23  H4  UNL     1      15.648   6.767  13.971  1.00  0.00     0.167 HD
HETATM   24  N5  UNL     1      13.115   7.642  12.389  1.00  0.00    -0.338 N 
HETATM   25  C16 UNL     1      12.196   7.816  11.248  1.00  0.00     0.157 C 
HETATM   26  C17 UNL     1      12.777   8.088  13.647  1.00  0.00     0.110 A 
BRANCH  22  27
HETATM   27  C11 UNL     1      14.946   6.501  11.158  1.00  0.00     0.053 C 
HETATM   28  C12 UNL     1      14.253   5.189  10.803  1.00  0.00     0.012 C 
HETATM   29  C13 UNL     1      15.306   4.134  10.822  1.00  0.00     0.001 C 
HETATM   30  C14 UNL     1      16.384   4.676  11.706  1.00  0.00     0.001 C 
HETATM   31  C15 UNL     1      16.370   6.168  11.376  1.00  0.00     0.012 C 
ENDBRANCH  22  27
BRANCH  26  32
HETATM   32  C18 UNL     1      11.456   8.689  13.976  1.00  0.00     0.405 C 
HETATM   33  F1  UNL     1      10.818   7.965  15.003  1.00  0.00    -0.207 F 
HETATM   34  F2  UNL     1      11.608   9.960  14.497  1.00  0.00    -0.207 F 
ENDBRANCH  26  32
ENDBRANCH  17  20
ENDBRANCH   1  16
BRANCH   1  35
HETATM   35  C19 UNL     1      13.244   9.710  18.393  1.00  0.00     0.040 C 
HETATM   36  C20 UNL     1      13.039   8.849  19.555  1.00  0.00     0.013 C 
HETATM   37  C21 UNL     1      11.502   8.593  19.631  1.00  0.00     0.036 C 
HETATM   38  C22 UNL     1      10.799   9.875  19.908  1.00  0.00     0.222 C 
HETATM   39  C26 UNL     1      11.128  10.895  18.780  1.00  0.00     0.036 C 
HETATM   40  C27 UNL     1      12.630  11.089  18.833  1.00  0.00     0.013 C 
BRANCH  38  41
HETATM   41  N6  UNL     1       9.357   9.712  19.859  1.00  0.00     0.093 N 
HETATM   42  C23 UNL     1       8.814   9.430  21.140  1.00  0.00     0.310 C 
BRANCH  41  43
HETATM   43  C24 UNL     1       9.055   8.726  18.886  1.00  0.00     0.332 C 
BRANCH  43  44
HETATM   44  C25 UNL     1       8.137   9.047  17.799  1.00  0.00     0.344 C 
BRANCH  44  45
HETATM   45  N7  UNL     1       8.371   9.418  16.475  1.00  0.00    -0.051 N 
ATOM     46  H73 UNL     1       9.242   8.950  16.226  1.00  0.00     0.277 HD
ATOM     47  H72 UNL     1       7.657   8.925  15.939  1.00  0.00     0.277 HD
ATOM     48  H71 UNL     1       8.436  10.335  16.034  1.00  0.00     0.277 HD
ENDBRANCH  44  45
BRANCH  44  49
HETATM   49  O5  UNL     1       6.852   8.969  18.103  1.00  0.00    -0.369 OA
ATOM     50  H5  UNL     1       6.635   9.186  19.001  1.00  0.00     0.212 HD
ENDBRANCH  44  49
ENDBRANCH  43  44
ENDBRANCH  41  43
ENDBRANCH  38  41
ENDBRANCH   1  35
TORSDOF 15
ENDMDL
MODEL 3
REMARK VINA RESULT: -7.639800524      1.624      7.856
REMARK  15 active torsions:
REMARK  status: ('A' for Active; 'I' for Inactive)
REMARK    1  A    between atoms: C2_2  and  O1_3 
REMARK    2  A    between atoms: O1_3  and  C3_4 
REMARK       I    between atoms: C3_4  and  N1_6 
REMARK    3  A    between atoms: N2_9  and  C6_10 
REMARK    4  A    between atoms: C6_10  and  O3_11 
REMARK    5  A    between atoms: C6_10  and  C7_13 
REMARK    6  A    between atoms: C7_13  and  N3_14 
REMARK    7  A    between atoms: C7_13  and  C19_33 
REMARK       I    between atoms: N3_14  and  C8_16 
REMARK    8  A    between atoms: C8_16  and  C9_18 
REMARK    9  A    between atoms: C10_21  and  C11_22 
REMARK   10  A    between atoms: C17_29  and  C18_30 
REMARK   11  A    between atoms: C22_36  and  N6_37 
REMARK   12  A    between atoms: N6_37  and  C24_39 
REMARK   13  A    between atoms: C24_39  and  C25_40 
REMARK   14  A    between atoms: C25_40  and  N7_41 
REMARK   15  A    between atoms: C25_40  and  O5_45 
ROOT
HETATM    1  C7  UNL     1      14.757   8.709  17.755  1.00  0.00     0.067 C 
ENDROOT
BRANCH   1   2
HETATM    2  C6  UNL     1      14.074   9.932  18.115  1.00  0.00     0.161 C 
BRANCH   2   3
HETATM    3  N2  UNL     1      12.891  10.214  18.803  1.00  0.00    -0.357 N 
HETATM    4  C5  UNL     1      12.328   9.355  19.787  1.00  0.00     0.145 C 
HETATM    5  C4  UNL     1      11.397  10.032  20.772  1.00  0.00     0.148 C 
HETATM    6  N1  UNL     1      10.889  11.290  20.361  1.00  0.00    -0.325 N 
HETATM    7  C3  UNL     1       9.545  11.682  20.257  1.00  0.00     0.362 C 
HETATM    8  C29 UNL     1      11.959  12.202  19.849  1.00  0.00     0.148 C 
HETATM    9  O2  UNL     1       9.334  12.930  20.070  1.00  0.00    -0.238 OA
HETATM   10  C28 UNL     1      12.248  11.518  18.501  1.00  0.00     0.145 C 
BRANCH   7  11
HETATM   11  O1  UNL     1       8.447  10.881  20.320  1.00  0.00    -0.304 OA
BRANCH  11  12
HETATM   12  C2  UNL     1       8.106   9.892  19.393  1.00  0.00     0.176 C 
HETATM   13  C1  UNL     1       8.146  10.349  17.941  1.00  0.00     0.034 C 
ENDBRANCH  11  12
ENDBRANCH   7  11
ENDBRANCH   2   3
BRANCH   2  14
HETATM   14  O3  UNL     1      14.693  11.040  17.738  1.00  0.00    -0.345 OA
ATOM     15  H3  UNL     1      15.204  10.903  16.949  1.00  0.00     0.219 HD
ENDBRANCH   2  14
ENDBRANCH   1   2
BRANCH   1  16
HETATM   16  N3  UNL     1      14.508   8.359  16.371  1.00  0.00    -0.321 N 
HETATM   17  C8  UNL     1      13.493   7.721  15.746  1.00  0.00     0.274 C 
HETATM   18  O4  UNL     1      12.501   7.275  16.375  1.00  0.00    -0.266 OA
ATOM     19  H3  UNL     1      15.251   8.654  15.738  1.00  0.00     0.169 HD
BRANCH  17  20
HETATM   20  C9  UNL     1      13.502   7.504  14.274  1.00  0.00     0.131 A 
HETATM   21  N4  UNL     1      14.465   6.897  13.563  1.00  0.00    -0.339 N 
HETATM   22  C10 UNL     1      14.173   6.911  12.280  1.00  0.00     0.088 A 
ATOM     23  H4  UNL     1      15.308   6.483  13.962  1.00  0.00     0.167 HD
HETATM   24  N5  UNL     1      12.997   7.533  12.162  1.00  0.00    -0.338 N 
HETATM   25  C16 UNL     1      12.218   7.801  10.938  1.00  0.00     0.157 C 
HETATM   26  C17 UNL     1      12.533   7.924  13.398  1.00  0.00     0.110 A 
BRANCH  22  27
HETATM   27  C11 UNL     1      14.919   6.393  11.079  1.00  0.00     0.053 C 
HETATM   28  C12 UNL     1      14.299   5.069  10.642  1.00  0.00     0.012 C 
HETATM   29  C13 UNL     1      15.378   4.045  10.731  1.00  0.00     0.001 C 
HETATM   30  C14 UNL     1      16.361   4.600  11.712  1.00  0.00     0.001 C 
HETATM   31  C15 UNL     1      16.330   6.096  11.410  1.00  0.00     0.012 C 
ENDBRANCH  22  27
BRANCH  26  32
HETATM   32  C18 UNL     1      11.202   8.554  13.613  1.00  0.00     0.405 C 
HETATM   33  F1  UNL     1      10.318   7.656  14.243  1.00  0.00    -0.207 F 
HETATM   34  F2  UNL     1      11.295   9.617  14.491  1.00  0.00    -0.207 F 
ENDBRANCH  26  32
ENDBRANCH  17  20
ENDBRANCH   1  16
BRANCH   1  35
HETATM   35  C19 UNL     1      16.038   8.195  18.150  1.00  0.00     0.040 C 
HETATM   36  C20 UNL     1      16.845   8.620  19.292  1.00  0.00     0.013 C 
HETATM   37  C21 UNL     1      18.311   8.210  18.954  1.00  0.00     0.036 C 
HETATM   38  C22 UNL     1      18.407   6.727  18.880  1.00  0.00     0.222 C 
HETATM   39  C26 UNL     1      17.428   6.204  17.789  1.00  0.00     0.036 C 
HETATM   40  C27 UNL     1      16.047   6.626  18.246  1.00  0.00     0.013 C 
BRANCH  38  41
HETATM   41  N6  UNL     1      19.723   6.299  18.440  1.00  0.00     0.093 N 
HETATM   42  C23 UNL     1      20.156   5.134  19.127  1.00  0.00     0.310 C 
BRANCH  41  43
HETATM   43  C24 UNL     1      20.611   7.396  18.570  1.00  0.00     0.332 C 
BRANCH  43  44
HETATM   44  C25 UNL     1      21.844   7.419  17.790  1.00  0.00     0.344 C 
BRANCH  44  45
HETATM   45  N7  UNL     1      23.101   6.870  18.037  1.00  0.00    -0.051 N 
ATOM     46  H73 UNL     1      23.204   6.138  17.335  1.00  0.00     0.277 HD
ATOM     47  H72 UNL     1      23.759   7.593  17.748  1.00  0.00     0.277 HD
ATOM     48  H71 UNL     1      23.509   6.473  18.884  1.00  0.00     0.277 HD
ENDBRANCH  44  45
BRANCH  44  49
HETATM   49  O5  UNL     1      21.771   8.067  16.639  1.00  0.00    -0.369 OA
ATOM     50  H5  UNL     1      22.159   8.934  16.636  1.00  0.00     0.212 HD
ENDBRANCH  44  49
ENDBRANCH  43  44
ENDBRANCH  41  43
ENDBRANCH  38  41
ENDBRANCH   1  35
TORSDOF 15
ENDMDL
MODEL 4
REMARK VINA RESULT: -7.632778704      1.696      2.487
REMARK  15 active torsions:
REMARK  status: ('A' for Active; 'I' for Inactive)
REMARK    1  A    between atoms: C2_2  and  O1_3 
REMARK    2  A    between atoms: O1_3  and  C3_4 
REMARK       I    between atoms: C3_4  and  N1_6 
REMARK    3  A    between atoms: N2_9  and  C6_10 
REMARK    4  A    between atoms: C6_10  and  O3_11 
REMARK    5  A    between atoms: C6_10  and  C7_13 
REMARK    6  A    between atoms: C7_13  and  N3_14 
REMARK    7  A    between atoms: C7_13  and  C19_33 
REMARK       I    between atoms: N3_14  and  C8_16 
REMARK    8  A    between atoms: C8_16  and  C9_18 
REMARK    9  A    between atoms: C10_21  and  C11_22 
REMARK   10  A    between atoms: C17_29  and  C18_30 
REMARK   11  A    between atoms: C22_36  and  N6_37 
REMARK   12  A    between atoms: N6_37  and  C24_39 
REMARK   13  A    between atoms: C24_39  and  C25_40 
REMARK   14  A    between atoms: C25_40  and  N7_41 
REMARK   15  A    between atoms: C25_40  and  O5_45 
ROOT
HETATM    1  C7  UNL     1      14.899   9.545  17.595  1.00  0.00     0.067 C 
ENDROOT
BRANCH   1   2
HETATM    2  C6  UNL     1      16.078   8.942  18.174  1.00  0.00     0.161 C 
BRANCH   2   3
HETATM    3  N2  UNL     1      16.532   7.626  18.296  1.00  0.00    -0.357 N 
HETATM    4  C5  UNL     1      17.713   7.139  17.670  1.00  0.00     0.145 C 
HETATM    5  C4  UNL     1      18.321   5.911  18.318  1.00  0.00     0.148 C 
HETATM    6  N1  UNL     1      17.453   5.179  19.166  1.00  0.00    -0.325 N 
HETATM    7  C3  UNL     1      17.117   3.818  19.085  1.00  0.00     0.362 C 
HETATM    8  C29 UNL     1      16.729   6.054  20.141  1.00  0.00     0.148 C 
HETATM    9  O2  UNL     1      16.484   3.332  20.084  1.00  0.00    -0.238 OA
HETATM   10  C28 UNL     1      15.738   6.735  19.180  1.00  0.00     0.145 C 
BRANCH   7  11
HETATM   11  O1  UNL     1      17.381   2.966  18.057  1.00  0.00    -0.304 OA
BRANCH  11  12
HETATM   12  C2  UNL     1      16.466   2.558  17.082  1.00  0.00     0.176 C 
HETATM   13  C1  UNL     1      15.757   3.700  16.366  1.00  0.00     0.034 C 
ENDBRANCH  11  12
ENDBRANCH   7  11
ENDBRANCH   2   3
BRANCH   2  14
HETATM   14  O3  UNL     1      16.940   9.803  18.693  1.00  0.00    -0.345 OA
ATOM     15  H3  UNL     1      16.960   9.749  19.641  1.00  0.00     0.219 HD
ENDBRANCH   2  14
ENDBRANCH   1   2
BRANCH   1  16
HETATM   16  N3  UNL     1      14.645   9.026  16.266  1.00  0.00    -0.321 N 
HETATM   17  C8  UNL     1      13.936   7.971  15.804  1.00  0.00     0.274 C 
HETATM   18  O4  UNL     1      13.333   7.186  16.579  1.00  0.00    -0.266 OA
ATOM     19  H3  UNL     1      15.093   9.568  15.526  1.00  0.00     0.169 HD
BRANCH  17  20
HETATM   20  C9  UNL     1      13.842   7.676  14.349  1.00  0.00     0.131 A 
HETATM   21  N4  UNL     1      14.761   7.046  13.602  1.00  0.00    -0.339 N 
HETATM   22  C10 UNL     1      14.376   6.988  12.345  1.00  0.00     0.088 A 
ATOM     23  H4  UNL     1      15.637   6.665  13.959  1.00  0.00     0.167 HD
HETATM   24  N5  UNL     1      13.183   7.587  12.282  1.00  0.00    -0.338 N 
HETATM   25  C16 UNL     1      12.313   7.780  11.106  1.00  0.00     0.157 C 
HETATM   26  C17 UNL     1      12.804   8.036  13.527  1.00  0.00     0.110 A 
BRANCH  22  27
HETATM   27  C11 UNL     1      15.041   6.417  11.120  1.00  0.00     0.053 C 
HETATM   28  C12 UNL     1      14.298   5.155  10.694  1.00  0.00     0.012 C 
HETATM   29  C13 UNL     1      15.288   4.041  10.747  1.00  0.00     0.001 C 
HETATM   30  C14 UNL     1      16.342   4.503  11.703  1.00  0.00     0.001 C 
HETATM   31  C15 UNL     1      16.430   5.999  11.410  1.00  0.00     0.012 C 
ENDBRANCH  22  27
BRANCH  26  32
HETATM   32  C18 UNL     1      11.482   8.659  13.806  1.00  0.00     0.405 C 
HETATM   33  F1  UNL     1      10.824   7.988  14.856  1.00  0.00    -0.207 F 
HETATM   34  F2  UNL     1      11.634   9.953  14.267  1.00  0.00    -0.207 F 
ENDBRANCH  26  32
ENDBRANCH  17  20
ENDBRANCH   1  16
BRANCH   1  35
HETATM   35  C19 UNL     1      13.655   9.944  18.192  1.00  0.00     0.040 C 
HETATM   36  C20 UNL     1      13.426  10.318  19.585  1.00  0.00     0.013 C 
HETATM   37  C21 UNL     1      11.904  10.093  19.843  1.00  0.00     0.036 C 
HETATM   38  C22 UNL     1      11.115  11.034  19.003  1.00  0.00     0.222 C 
HETATM   39  C26 UNL     1      11.457  10.794  17.504  1.00  0.00     0.036 C 
HETATM   40  C27 UNL     1      12.939  11.080  17.375  1.00  0.00     0.013 C 
BRANCH  38  41
HETATM   41  N6  UNL     1       9.690  10.776  19.110  1.00  0.00     0.093 N 
HETATM   42  C23 UNL     1       9.218  10.961  20.436  1.00  0.00     0.310 C 
BRANCH  41  43
HETATM   43  C24 UNL     1       9.435   9.481  18.593  1.00  0.00     0.332 C 
BRANCH  43  44
HETATM   44  C25 UNL     1       8.216   9.240  17.829  1.00  0.00     0.344 C 
BRANCH  44  45
HETATM   45  N7  UNL     1       6.924   8.909  18.236  1.00  0.00    -0.051 N 
ATOM     46  H73 UNL     1       6.914   9.093  19.239  1.00  0.00     0.277 HD
ATOM     47  H72 UNL     1       6.334   9.640  17.839  1.00  0.00     0.277 HD
ATOM     48  H71 UNL     1       6.381   8.052  18.126  1.00  0.00     0.277 HD
ENDBRANCH  44  45
BRANCH  44  49
HETATM   49  O5  UNL     1       8.339   9.358  16.517  1.00  0.00    -0.369 OA
ATOM     50  H5  UNL     1       8.029  10.179  16.154  1.00  0.00     0.212 HD
ENDBRANCH  44  49
ENDBRANCH  43  44
ENDBRANCH  41  43
ENDBRANCH  38  41
ENDBRANCH   1  35
TORSDOF 15
ENDMDL
MODEL 5
REMARK VINA RESULT: -7.610684331      1.094      1.434
REMARK  15 active torsions:
REMARK  status: ('A' for Active; 'I' for Inactive)
REMARK    1  A    between atoms: C2_2  and  O1_3 
REMARK    2  A    between atoms: O1_3  and  C3_4 
REMARK       I    between atoms: C3_4  and  N1_6 
REMARK    3  A    between atoms: N2_9  and  C6_10 
REMARK    4  A    between atoms: C6_10  and  O3_11 
REMARK    5  A    between atoms: C6_10  and  C7_13 
REMARK    6  A    between atoms: C7_13  and  N3_14 
REMARK    7  A    between atoms: C7_13  and  C19_33 
REMARK       I    between atoms: N3_14  and  C8_16 
REMARK    8  A    between atoms: C8_16  and  C9_18 
REMARK    9  A    between atoms: C10_21  and  C11_22 
REMARK   10  A    between atoms: C17_29  and  C18_30 
REMARK   11  A    between atoms: C22_36  and  N6_37 
REMARK   12  A    between atoms: N6_37  and  C24_39 
REMARK   13  A    between atoms: C24_39  and  C25_40 
REMARK   14  A    between atoms: C25_40  and  N7_41 
REMARK   15  A    between atoms: C25_40  and  O5_45 
ROOT
HETATM    1  C7  UNL     1      14.579   8.682  17.913  1.00  0.00     0.067 C 
ENDROOT
BRANCH   1   2
HETATM    2  C6  UNL     1      15.515   7.779  18.545  1.00  0.00     0.161 C 
BRANCH   2   3
HETATM    3  N2  UNL     1      16.861   7.879  18.909  1.00  0.00    -0.357 N 
HETATM    4  C5  UNL     1      17.470   9.085  19.351  1.00  0.00     0.145 C 
HETATM    5  C4  UNL     1      18.724   8.902  20.183  1.00  0.00     0.148 C 
HETATM    6  N1  UNL     1      19.348   7.634  20.070  1.00  0.00    -0.325 N 
HETATM    7  C3  UNL     1      20.677   7.359  19.708  1.00  0.00     0.362 C 
HETATM    8  C29 UNL     1      18.380   6.502  20.216  1.00  0.00     0.148 C 
HETATM    9  O2  UNL     1      21.070   6.154  19.880  1.00  0.00    -0.238 OA
HETATM   10  C28 UNL     1      17.649   6.620  18.868  1.00  0.00     0.145 C 
BRANCH   7  11
HETATM   11  O1  UNL     1      21.583   8.228  19.184  1.00  0.00    -0.304 OA
BRANCH  11  12
HETATM   12  C2  UNL     1      22.658   7.886  18.359  1.00  0.00     0.176 C 
HETATM   13  C1  UNL     1      22.421   8.141  16.877  1.00  0.00     0.034 C 
ENDBRANCH  11  12
ENDBRANCH   7  11
ENDBRANCH   2   3
BRANCH   2  14
HETATM   14  O3  UNL     1      15.007   6.603  18.880  1.00  0.00    -0.345 OA
ATOM     15  H3  UNL     1      14.168   6.697  19.314  1.00  0.00     0.219 HD
ENDBRANCH   2  14
ENDBRANCH   1   2
BRANCH   1  16
HETATM   16  N3  UNL     1      14.375   8.333  16.521  1.00  0.00    -0.321 N 
HETATM   17  C8  UNL     1      13.561   7.451  15.898  1.00  0.00     0.274 C 
HETATM   18  O4  UNL     1      12.776   6.706  16.537  1.00  0.00    -0.266 OA
ATOM     19  H3  UNL     1      14.966   8.862  15.880  1.00  0.00     0.169 HD
BRANCH  17  20
HETATM   20  C9  UNL     1      13.560   7.309  14.417  1.00  0.00     0.131 A 
HETATM   21  N4  UNL     1      14.528   6.763  13.667  1.00  0.00    -0.339 N 
HETATM   22  C10 UNL     1      14.223   6.834  12.389  1.00  0.00     0.088 A 
ATOM     23  H4  UNL     1      15.384   6.348  14.036  1.00  0.00     0.167 HD
HETATM   24  N5  UNL     1      13.031   7.434  12.315  1.00  0.00    -0.338 N 
HETATM   25  C16 UNL     1      12.233   7.746  11.113  1.00  0.00     0.157 C 
HETATM   26  C17 UNL     1      12.571   7.750  13.574  1.00  0.00     0.110 A 
BRANCH  22  27
HETATM   27  C11 UNL     1      14.967   6.396  11.156  1.00  0.00     0.053 C 
HETATM   28  C12 UNL     1      14.375   5.080  10.660  1.00  0.00     0.012 C 
HETATM   29  C13 UNL     1      15.481   4.081  10.687  1.00  0.00     0.001 C 
HETATM   30  C14 UNL     1      16.461   4.611  11.684  1.00  0.00     0.001 C 
HETATM   31  C15 UNL     1      16.388   6.120  11.457  1.00  0.00     0.012 C 
ENDBRANCH  22  27
BRANCH  26  32
HETATM   32  C18 UNL     1      11.229   8.338  13.833  1.00  0.00     0.405 C 
HETATM   33  F1  UNL     1      10.417   7.436  14.548  1.00  0.00    -0.207 F 
HETATM   34  F2  UNL     1      11.325   9.442  14.659  1.00  0.00    -0.207 F 
ENDBRANCH  26  32
ENDBRANCH  17  20
ENDBRANCH   1  16
BRANCH   1  35
HETATM   35  C19 UNL     1      13.395   9.317  18.421  1.00  0.00     0.040 C 
HETATM   36  C20 UNL     1      13.075   9.599  19.817  1.00  0.00     0.013 C 
HETATM   37  C21 UNL     1      11.523   9.735  19.881  1.00  0.00     0.036 C 
HETATM   38  C22 UNL     1      11.096  10.919  19.088  1.00  0.00     0.222 C 
HETATM   39  C26 UNL     1      11.570  10.749  17.616  1.00  0.00     0.036 C 
HETATM   40  C27 UNL     1      13.082  10.669  17.682  1.00  0.00     0.013 C 
BRANCH  38  41
HETATM   41  N6  UNL     1       9.649  11.014  19.009  1.00  0.00     0.093 N 
HETATM   42  C23 UNL     1       9.106  11.717  20.116  1.00  0.00     0.310 C 
BRANCH  41  43
HETATM   43  C24 UNL     1       9.128   9.705  18.857  1.00  0.00     0.332 C 
BRANCH  43  44
HETATM   44  C25 UNL     1       8.237   9.411  17.739  1.00  0.00     0.344 C 
BRANCH  44  45
HETATM   45  N7  UNL     1       8.476   9.324  16.368  1.00  0.00    -0.051 N 
ATOM     46  H73 UNL     1       9.479   9.154  16.292  1.00  0.00     0.277 HD
ATOM     47  H72 UNL     1       8.048   8.442  16.088  1.00  0.00     0.277 HD
ATOM     48  H71 UNL     1       8.266   9.967  15.605  1.00  0.00     0.277 HD
ENDBRANCH  44  45
BRANCH  44  49
HETATM   49  O5  UNL     1       6.978   9.176  18.068  1.00  0.00    -0.369 OA
ATOM     50  H5  UNL     1       6.410   8.928  17.348  1.00  0.00     0.212 HD
ENDBRANCH  44  49
ENDBRANCH  43  44
ENDBRANCH  41  43
ENDBRANCH  38  41
ENDBRANCH   1  35
TORSDOF 15
ENDMDL
