MODEL 1
REMARK VINA RESULT: -8.585855246      0.000      0.000
REMARK  10 active torsions:
REMARK  status: ('A' for Active; 'I' for Inactive)
REMARK    1  A    between atoms: C2_2  and  N1_3 
REMARK       I    between atoms: N1_3  and  C3_4 
REMARK    2  A    between atoms: N1_3  and  C15_20 
REMARK    3  A    between atoms: C3_4  and  C4_6 
REMARK    4  A    between atoms: C4_6  and  C5_7 
REMARK    5  A    between atoms: C5_7  and  C6_8 
REMARK    6  A    between atoms: C6_8  and  N2_9 
REMARK    7  A    between atoms: N4_23  and  C17_24 
REMARK    8  A    between atoms: C17_24  and  C18_25 
REMARK    9  A    between atoms: N6_35  and  C25_37 
REMARK   10  A    between atoms: C25_37  and  C26_38 
ROOT
HETATM    1  C15 UNL     1      23.849   3.638 -17.199  1.00  0.00     0.134 A 
HETATM    2  C16 UNL     1      23.098   2.954 -18.122  1.00  0.00     0.164 A 
HETATM    3  N3  UNL     1      23.436   3.138 -19.485  1.00  0.00    -0.079 NA
HETATM    4  N4  UNL     1      22.092   2.157 -17.739  1.00  0.00    -0.271 N 
HETATM    5  N5  UNL     1      21.832   2.038 -16.465  1.00  0.00    -0.278 N 
ATOM      6  H5  UNL     1      21.063   1.427 -16.189  1.00  0.00     0.189 HD
HETATM    7  C24 UNL     1      22.528   2.682 -15.474  1.00  0.00     0.173 A 
HETATM    8  N6  UNL     1      22.175   2.487 -14.266  1.00  0.00    -0.347 N 
ATOM      9  H6  UNL     1      21.390   1.857 -14.106  1.00  0.00     0.167 HD
HETATM   10  C32 UNL     1      23.561   3.502 -15.855  1.00  0.00     0.247 A 
HETATM   11  O4  UNL     1      24.255   4.135 -14.995  1.00  0.00    -0.282 OA
ENDROOT
BRANCH   1  12
HETATM   12  N1  UNL     1      24.929   4.480 -17.569  1.00  0.00    -0.312 N 
HETATM   13  C3  UNL     1      24.652   5.882 -17.685  1.00  0.00     0.224 C 
HETATM   14  O1  UNL     1      23.500   6.352 -17.477  1.00  0.00    -0.273 OA
BRANCH  12  15
HETATM   15  C2  UNL     1      26.240   3.975 -17.827  1.00  0.00     0.128 C 
HETATM   16  C1  UNL     1      27.121   3.861 -16.621  1.00  0.00     0.027 C 
ENDBRANCH  12  15
BRANCH  13  17
HETATM   17  C4  UNL     1      25.722   6.862 -18.062  1.00  0.00     0.105 C 
BRANCH  17  18
HETATM   18  C5  UNL     1      25.086   8.233 -18.151  1.00  0.00     0.029 C 
BRANCH  18  19
HETATM   19  C6  UNL     1      25.699   9.178 -17.148  1.00  0.00     0.136 C 
BRANCH  19  20
HETATM   20  N2  UNL     1      24.964   9.055 -15.876  1.00  0.00    -0.280 N 
HETATM   21  C7  UNL     1      23.637   9.435 -15.564  1.00  0.00     0.261 A 
HETATM   22  O2  UNL     1      22.834   9.966 -16.354  1.00  0.00    -0.267 OA
HETATM   23  C8  UNL     1      23.358   9.104 -14.157  1.00  0.00     0.048 A 
HETATM   24  C9  UNL     1      22.256   9.247 -13.332  1.00  0.00     0.018 A 
HETATM   25  C13 UNL     1      24.500   8.531 -13.624  1.00  0.00     0.048 A 
HETATM   26  C10 UNL     1      22.242   8.845 -12.009  1.00  0.00     0.001 A 
HETATM   27  C11 UNL     1      23.395   8.274 -11.499  1.00  0.00     0.001 A 
HETATM   28  C12 UNL     1      24.511   8.116 -12.287  1.00  0.00     0.018 A 
HETATM   29  C14 UNL     1      25.505   8.493 -14.680  1.00  0.00     0.261 A 
HETATM   30  O3  UNL     1      26.672   8.029 -14.531  1.00  0.00    -0.267 OA
ENDBRANCH  19  20
ENDBRANCH  18  19
ENDBRANCH  17  18
ENDBRANCH  13  17
ENDBRANCH   1  12
BRANCH   4  31
HETATM   31  C17 UNL     1      21.306   1.435 -18.682  1.00  0.00     0.189 C 
BRANCH  31  32
HETATM   32  C18 UNL     1      19.994   0.957 -18.172  1.00  0.00    -0.038 A 
HETATM   33  C19 UNL     1      18.937   1.781 -17.862  1.00  0.00     0.012 A 
HETATM   34  C20 UNL     1      17.714   1.294 -17.383  1.00  0.00     0.043 A 
HETATM   35  C21 UNL     1      17.529  -0.057 -17.203  1.00  0.00     0.116 A 
HETATM   36  F1  UNL     1      16.359  -0.551 -16.743  1.00  0.00    -0.206 F 
HETATM   37  C22 UNL     1      18.578  -0.893 -17.511  1.00  0.00     0.043 A 
HETATM   38  C23 UNL     1      19.778  -0.418 -17.981  1.00  0.00     0.012 A 
ENDBRANCH  31  32
ENDBRANCH   4  31
BRANCH   8  39
HETATM   39  C25 UNL     1      22.778   3.067 -13.133  1.00  0.00     0.101 C 
BRANCH  39  40
HETATM   40  C26 UNL     1      21.891   4.168 -12.584  1.00  0.00    -0.021 A 
HETATM   41  C27 UNL     1      21.926   4.453 -11.258  1.00  0.00     0.016 A 
HETATM   42  C28 UNL     1      21.125   5.448 -10.750  1.00  0.00     0.043 A 
HETATM   43  C29 UNL     1      20.284   6.163 -11.567  1.00  0.00     0.116 A 
HETATM   44  F2  UNL     1      19.481   7.157 -11.074  1.00  0.00    -0.206 F 
HETATM   45  C30 UNL     1      20.248   5.874 -12.921  1.00  0.00     0.043 A 
HETATM   46  C31 UNL     1      21.061   4.868 -13.418  1.00  0.00     0.016 A 
ENDBRANCH  39  40
ENDBRANCH   8  39
TORSDOF 10
ENDMDL
MODEL 2
REMARK VINA RESULT: -8.579501256      0.047      1.319
REMARK  10 active torsions:
REMARK  status: ('A' for Active; 'I' for Inactive)
REMARK    1  A    between atoms: C2_2  and  N1_3 
REMARK       I    between atoms: N1_3  and  C3_4 
REMARK    2  A    between atoms: N1_3  and  C15_20 
REMARK    3  A    between atoms: C3_4  and  C4_6 
REMARK    4  A    between atoms: C4_6  and  C5_7 
REMARK    5  A    between atoms: C5_7  and  C6_8 
REMARK    6  A    between atoms: C6_8  and  N2_9 
REMARK    7  A    between atoms: N4_23  and  C17_24 
REMARK    8  A    between atoms: C17_24  and  C18_25 
REMARK    9  A    between atoms: N6_35  and  C25_37 
REMARK   10  A    between atoms: C25_37  and  C26_38 
ROOT
HETATM    1  C15 UNL     1      23.850   3.650 -17.219  1.00  0.00     0.134 A 
HETATM    2  C16 UNL     1      23.102   2.954 -18.137  1.00  0.00     0.164 A 
HETATM    3  N3  UNL     1      23.430   3.137 -19.501  1.00  0.00    -0.079 NA
HETATM    4  N4  UNL     1      22.108   2.146 -17.745  1.00  0.00    -0.271 N 
HETATM    5  N5  UNL     1      21.856   2.029 -16.469  1.00  0.00    -0.278 N 
ATOM      6  H5  UNL     1      21.096   1.410 -16.187  1.00  0.00     0.189 HD
HETATM    7  C24 UNL     1      22.549   2.685 -15.484  1.00  0.00     0.173 A 
HETATM    8  N6  UNL     1      22.206   2.490 -14.274  1.00  0.00    -0.347 N 
ATOM      9  H6  UNL     1      21.429   1.851 -14.107  1.00  0.00     0.167 HD
HETATM   10  C32 UNL     1      23.571   3.515 -15.874  1.00  0.00     0.247 A 
HETATM   11  O4  UNL     1      24.262   4.160 -15.020  1.00  0.00    -0.282 OA
ENDROOT
BRANCH   1  12
HETATM   12  N1  UNL     1      24.918   4.504 -17.599  1.00  0.00    -0.312 N 
HETATM   13  C3  UNL     1      24.629   5.905 -17.700  1.00  0.00     0.224 C 
HETATM   14  O1  UNL     1      23.476   6.364 -17.471  1.00  0.00    -0.273 OA
BRANCH  12  15
HETATM   15  C2  UNL     1      26.229   4.011 -17.880  1.00  0.00     0.128 C 
HETATM   16  C1  UNL     1      27.130   3.898 -16.688  1.00  0.00     0.027 C 
ENDBRANCH  12  15
BRANCH  13  17
HETATM   17  C4  UNL     1      25.685   6.896 -18.084  1.00  0.00     0.105 C 
BRANCH  17  18
HETATM   18  C5  UNL     1      25.031   8.258 -18.180  1.00  0.00     0.029 C 
BRANCH  18  19
HETATM   19  C6  UNL     1      25.657   9.226 -17.208  1.00  0.00     0.136 C 
BRANCH  19  20
HETATM   20  N2  UNL     1      25.033   9.035 -15.887  1.00  0.00    -0.280 N 
HETATM   21  C7  UNL     1      25.578   8.471 -14.709  1.00  0.00     0.261 A 
HETATM   22  O2  UNL     1      26.733   8.018 -14.593  1.00  0.00    -0.267 OA
HETATM   23  C8  UNL     1      24.563   8.505 -13.643  1.00  0.00     0.048 A 
HETATM   24  C9  UNL     1      24.539   8.100 -12.320  1.00  0.00     0.018 A 
HETATM   25  C13 UNL     1      23.420   9.081 -14.168  1.00  0.00     0.048 A 
HETATM   26  C10 UNL     1      23.434   8.245 -11.502  1.00  0.00     0.001 A 
HETATM   27  C11 UNL     1      22.303   8.825 -12.049  1.00  0.00     0.001 A 
HETATM   28  C12 UNL     1      22.286   9.239 -13.361  1.00  0.00     0.018 A 
HETATM   29  C14 UNL     1      23.696   9.416 -15.559  1.00  0.00     0.261 A 
HETATM   30  O3  UNL     1      22.861   9.961 -16.338  1.00  0.00    -0.267 OA
ENDBRANCH  19  20
ENDBRANCH  18  19
ENDBRANCH  17  18
ENDBRANCH  13  17
ENDBRANCH   1  12
BRANCH   4  31
HETATM   31  C17 UNL     1      21.325   1.412 -18.681  1.00  0.00     0.189 C 
BRANCH  31  32
HETATM   32  C18 UNL     1      20.012   0.939 -18.170  1.00  0.00    -0.038 A 
HETATM   33  C19 UNL     1      18.950   1.766 -17.884  1.00  0.00     0.012 A 
HETATM   34  C20 UNL     1      17.726   1.284 -17.403  1.00  0.00     0.043 A 
HETATM   35  C21 UNL     1      17.545  -0.063 -17.195  1.00  0.00     0.116 A 
HETATM   36  F1  UNL     1      16.374  -0.551 -16.732  1.00  0.00    -0.206 F 
HETATM   37  C22 UNL     1      18.599  -0.902 -17.477  1.00  0.00     0.043 A 
HETATM   38  C23 UNL     1      19.800  -0.431 -17.949  1.00  0.00     0.012 A 
ENDBRANCH  31  32
ENDBRANCH   4  31
BRANCH   8  39
HETATM   39  C25 UNL     1      22.807   3.082 -13.146  1.00  0.00     0.101 C 
BRANCH  39  40
HETATM   40  C26 UNL     1      21.911   4.174 -12.596  1.00  0.00    -0.021 A 
HETATM   41  C27 UNL     1      21.968   4.481 -11.276  1.00  0.00     0.016 A 
HETATM   42  C28 UNL     1      21.157   5.469 -10.767  1.00  0.00     0.043 A 
HETATM   43  C29 UNL     1      20.286   6.153 -11.578  1.00  0.00     0.116 A 
HETATM   44  F2  UNL     1      19.473   7.139 -11.083  1.00  0.00    -0.206 F 
HETATM   45  C30 UNL     1      20.227   5.841 -12.925  1.00  0.00     0.043 A 
HETATM   46  C31 UNL     1      21.049   4.843 -13.423  1.00  0.00     0.016 A 
ENDBRANCH  39  40
ENDBRANCH   8  39
TORSDOF 10
ENDMDL
MODEL 3
REMARK VINA RESULT: -8.459740093      3.076      4.901
REMARK  10 active torsions:
REMARK  status: ('A' for Active; 'I' for Inactive)
REMARK    1  A    between atoms: C2_2  and  N1_3 
REMARK       I    between atoms: N1_3  and  C3_4 
REMARK    2  A    between atoms: N1_3  and  C15_20 
REMARK    3  A    between atoms: C3_4  and  C4_6 
REMARK    4  A    between atoms: C4_6  and  C5_7 
REMARK    5  A    between atoms: C5_7  and  C6_8 
REMARK    6  A    between atoms: C6_8  and  N2_9 
REMARK    7  A    between atoms: N4_23  and  C17_24 
REMARK    8  A    between atoms: C17_24  and  C18_25 
REMARK    9  A    between atoms: N6_35  and  C25_37 
REMARK   10  A    between atoms: C25_37  and  C26_38 
ROOT
HETATM    1  C15 UNL     1      25.356   3.069 -16.498  1.00  0.00     0.134 A 
HETATM    2  C16 UNL     1      26.227   2.070 -16.138  1.00  0.00     0.164 A 
HETATM    3  N3  UNL     1      27.481   2.047 -16.793  1.00  0.00    -0.079 NA
HETATM    4  N4  UNL     1      25.890   1.163 -15.211  1.00  0.00    -0.271 N 
HETATM    5  N5  UNL     1      24.713   1.242 -14.651  1.00  0.00    -0.278 N 
ATOM      6  H5  UNL     1      24.472   0.544 -13.947  1.00  0.00     0.189 HD
HETATM    7  C24 UNL     1      23.781   2.203 -14.949  1.00  0.00     0.173 A 
HETATM    8  N6  UNL     1      22.666   2.170 -14.335  1.00  0.00    -0.347 N 
ATOM      9  H6  UNL     1      22.531   1.426 -13.652  1.00  0.00     0.167 HD
HETATM   10  C32 UNL     1      24.116   3.138 -15.897  1.00  0.00     0.247 A 
HETATM   11  O4  UNL     1      23.305   4.062 -16.229  1.00  0.00    -0.282 OA
ENDROOT
BRANCH   1  12
HETATM   12  N1  UNL     1      25.686   4.053 -17.466  1.00  0.00    -0.312 N 
HETATM   13  C3  UNL     1      26.178   5.308 -16.977  1.00  0.00     0.224 C 
HETATM   14  O1  UNL     1      26.308   5.537 -15.744  1.00  0.00    -0.273 OA
BRANCH  12  15
HETATM   15  C2  UNL     1      25.535   3.828 -18.868  1.00  0.00     0.128 C 
HETATM   16  C1  UNL     1      24.162   4.096 -19.406  1.00  0.00     0.027 C 
ENDBRANCH  12  15
BRANCH  13  17
HETATM   17  C4  UNL     1      26.565   6.414 -17.913  1.00  0.00     0.105 C 
BRANCH  17  18
HETATM   18  C5  UNL     1      25.401   7.379 -17.996  1.00  0.00     0.029 C 
BRANCH  18  19
HETATM   19  C6  UNL     1      25.708   8.658 -17.258  1.00  0.00     0.136 C 
BRANCH  19  20
HETATM   20  N2  UNL     1      24.976   8.651 -15.980  1.00  0.00    -0.280 N 
HETATM   21  C7  UNL     1      23.595   8.840 -15.734  1.00  0.00     0.261 A 
HETATM   22  O2  UNL     1      22.730   9.056 -16.604  1.00  0.00    -0.267 OA
HETATM   23  C8  UNL     1      23.344   8.740 -14.287  1.00  0.00     0.048 A 
HETATM   24  C9  UNL     1      22.214   8.837 -13.494  1.00  0.00     0.018 A 
HETATM   25  C13 UNL     1      24.556   8.494 -13.665  1.00  0.00     0.048 A 
HETATM   26  C10 UNL     1      22.238   8.701 -12.118  1.00  0.00     0.001 A 
HETATM   27  C11 UNL     1      23.461   8.455 -11.519  1.00  0.00     0.001 A 
HETATM   28  C12 UNL     1      24.608   8.352 -12.272  1.00  0.00     0.018 A 
HETATM   29  C14 UNL     1      25.578   8.436 -14.703  1.00  0.00     0.261 A 
HETATM   30  O3  UNL     1      26.805   8.227 -14.479  1.00  0.00    -0.267 OA
ENDBRANCH  19  20
ENDBRANCH  18  19
ENDBRANCH  17  18
ENDBRANCH  13  17
ENDBRANCH   1  12
BRANCH   4  31
HETATM   31  C17 UNL     1      26.782   0.124 -14.820  1.00  0.00     0.189 C 
BRANCH  31  32
HETATM   32  C18 UNL     1      27.149   0.118 -13.380  1.00  0.00    -0.038 A 
HETATM   33  C19 UNL     1      28.025   1.008 -12.801  1.00  0.00     0.012 A 
HETATM   34  C20 UNL     1      28.348   0.972 -11.439  1.00  0.00     0.043 A 
HETATM   35  C21 UNL     1      27.786   0.022 -10.618  1.00  0.00     0.116 A 
HETATM   36  F1  UNL     1      28.081  -0.032  -9.302  1.00  0.00    -0.206 F 
HETATM   37  C22 UNL     1      26.907  -0.873 -11.184  1.00  0.00     0.043 A 
HETATM   38  C23 UNL     1      26.589  -0.840 -12.520  1.00  0.00     0.012 A 
ENDBRANCH  31  32
ENDBRANCH   4  31
BRANCH   8  39
HETATM   39  C25 UNL     1      21.603   3.076 -14.520  1.00  0.00     0.101 C 
BRANCH  39  40
HETATM   40  C26 UNL     1      21.462   3.961 -13.297  1.00  0.00    -0.021 A 
HETATM   41  C27 UNL     1      20.428   4.837 -13.225  1.00  0.00     0.016 A 
HETATM   42  C28 UNL     1      20.292   5.646 -12.121  1.00  0.00     0.043 A 
HETATM   43  C29 UNL     1      21.190   5.582 -11.084  1.00  0.00     0.116 A 
HETATM   44  F2  UNL     1      21.066   6.382  -9.980  1.00  0.00    -0.206 F 
HETATM   45  C30 UNL     1      22.245   4.689 -11.157  1.00  0.00     0.043 A 
HETATM   46  C31 UNL     1      22.370   3.881 -12.276  1.00  0.00     0.016 A 
ENDBRANCH  39  40
ENDBRANCH   8  39
TORSDOF 10
ENDMDL
MODEL 4
REMARK VINA RESULT: -8.426540841      3.067      5.068
REMARK  10 active torsions:
REMARK  status: ('A' for Active; 'I' for Inactive)
REMARK    1  A    between atoms: C2_2  and  N1_3 
REMARK       I    between atoms: N1_3  and  C3_4 
REMARK    2  A    between atoms: N1_3  and  C15_20 
REMARK    3  A    between atoms: C3_4  and  C4_6 
REMARK    4  A    between atoms: C4_6  and  C5_7 
REMARK    5  A    between atoms: C5_7  and  C6_8 
REMARK    6  A    between atoms: C6_8  and  N2_9 
REMARK    7  A    between atoms: N4_23  and  C17_24 
REMARK    8  A    between atoms: C17_24  and  C18_25 
REMARK    9  A    between atoms: N6_35  and  C25_37 
REMARK   10  A    between atoms: C25_37  and  C26_38 
ROOT
HETATM    1  C15 UNL     1      25.320   3.068 -16.531  1.00  0.00     0.134 A 
HETATM    2  C16 UNL     1      26.192   2.064 -16.187  1.00  0.00     0.164 A 
HETATM    3  N3  UNL     1      27.438   2.041 -16.857  1.00  0.00    -0.079 NA
HETATM    4  N4  UNL     1      25.863   1.152 -15.263  1.00  0.00    -0.271 N 
HETATM    5  N5  UNL     1      24.692   1.231 -14.689  1.00  0.00    -0.278 N 
ATOM      6  H5  UNL     1      24.457   0.528 -13.987  1.00  0.00     0.189 HD
HETATM    7  C24 UNL     1      23.760   2.196 -14.969  1.00  0.00     0.173 A 
HETATM    8  N6  UNL     1      22.652   2.164 -14.343  1.00  0.00    -0.347 N 
ATOM      9  H6  UNL     1      22.522   1.415 -13.663  1.00  0.00     0.167 HD
HETATM   10  C32 UNL     1      24.087   3.137 -15.915  1.00  0.00     0.247 A 
HETATM   11  O4  UNL     1      23.276   4.066 -16.231  1.00  0.00    -0.282 OA
ENDROOT
BRANCH   1  12
HETATM   12  N1  UNL     1      25.642   4.057 -17.496  1.00  0.00    -0.312 N 
HETATM   13  C3  UNL     1      26.140   5.309 -17.004  1.00  0.00     0.224 C 
HETATM   14  O1  UNL     1      26.281   5.531 -15.771  1.00  0.00    -0.273 OA
BRANCH  12  15
HETATM   15  C2  UNL     1      25.478   3.842 -18.898  1.00  0.00     0.128 C 
HETATM   16  C1  UNL     1      24.096   4.097 -19.418  1.00  0.00     0.027 C 
ENDBRANCH  12  15
BRANCH  13  17
HETATM   17  C4  UNL     1      26.519   6.420 -17.937  1.00  0.00     0.105 C 
BRANCH  17  18
HETATM   18  C5  UNL     1      25.345   7.372 -18.025  1.00  0.00     0.029 C 
BRANCH  18  19
HETATM   19  C6  UNL     1      25.648   8.670 -17.320  1.00  0.00     0.136 C 
BRANCH  19  20
HETATM   20  N2  UNL     1      25.025   8.636 -15.985  1.00  0.00    -0.280 N 
HETATM   21  C7  UNL     1      25.624   8.433 -14.719  1.00  0.00     0.261 A 
HETATM   22  O2  UNL     1      26.838   8.236 -14.518  1.00  0.00    -0.267 OA
HETATM   23  C8  UNL     1      24.585   8.490 -13.678  1.00  0.00     0.048 A 
HETATM   24  C9  UNL     1      24.590   8.363 -12.300  1.00  0.00     0.018 A 
HETATM   25  C13 UNL     1      23.373   8.725 -14.305  1.00  0.00     0.048 A 
HETATM   26  C10 UNL     1      23.450   8.461 -11.525  1.00  0.00     0.001 A 
HETATM   27  C11 UNL     1      22.250   8.696 -12.174  1.00  0.00     0.001 A 
HETATM   28  C12 UNL     1      22.203   8.827 -13.542  1.00  0.00     0.018 A 
HETATM   29  C14 UNL     1      23.631   8.818 -15.737  1.00  0.00     0.261 A 
HETATM   30  O3  UNL     1      22.737   9.029 -16.606  1.00  0.00    -0.267 OA
ENDBRANCH  19  20
ENDBRANCH  18  19
ENDBRANCH  17  18
ENDBRANCH  13  17
ENDBRANCH   1  12
BRANCH   4  31
HETATM   31  C17 UNL     1      26.755   0.107 -14.890  1.00  0.00     0.189 C 
BRANCH  31  32
HETATM   32  C18 UNL     1      27.077   0.043 -13.440  1.00  0.00    -0.038 A 
HETATM   33  C19 UNL     1      26.577  -0.904 -12.576  1.00  0.00     0.012 A 
HETATM   34  C20 UNL     1      26.903  -0.933 -11.215  1.00  0.00     0.043 A 
HETATM   35  C21 UNL     1      27.755   0.009 -10.686  1.00  0.00     0.116 A 
HETATM   36  F1  UNL     1      28.084   0.001  -9.377  1.00  0.00    -0.206 F 
HETATM   37  C22 UNL     1      28.264   0.962 -11.539  1.00  0.00     0.043 A 
HETATM   38  C23 UNL     1      27.945   0.992 -12.875  1.00  0.00     0.012 A 
ENDBRANCH  31  32
ENDBRANCH   4  31
BRANCH   8  39
HETATM   39  C25 UNL     1      21.590   3.074 -14.509  1.00  0.00     0.101 C 
BRANCH  39  40
HETATM   40  C26 UNL     1      21.470   3.956 -13.282  1.00  0.00    -0.021 A 
HETATM   41  C27 UNL     1      20.419   4.807 -13.173  1.00  0.00     0.016 A 
HETATM   42  C28 UNL     1      20.301   5.612 -12.064  1.00  0.00     0.043 A 
HETATM   43  C29 UNL     1      21.236   5.570 -11.060  1.00  0.00     0.116 A 
HETATM   44  F2  UNL     1      21.130   6.367  -9.950  1.00  0.00    -0.206 F 
HETATM   45  C30 UNL     1      22.309   4.702 -11.169  1.00  0.00     0.043 A 
HETATM   46  C31 UNL     1      22.414   3.897 -12.292  1.00  0.00     0.016 A 
ENDBRANCH  39  40
ENDBRANCH   8  39
TORSDOF 10
ENDMDL
MODEL 5
REMARK VINA RESULT: -8.414495801      0.860      1.702
REMARK  10 active torsions:
REMARK  status: ('A' for Active; 'I' for Inactive)
REMARK    1  A    between atoms: C2_2  and  N1_3 
REMARK       I    between atoms: N1_3  and  C3_4 
REMARK    2  A    between atoms: N1_3  and  C15_20 
REMARK    3  A    between atoms: C3_4  and  C4_6 
REMARK    4  A    between atoms: C4_6  and  C5_7 
REMARK    5  A    between atoms: C5_7  and  C6_8 
REMARK    6  A    between atoms: C6_8  and  N2_9 
REMARK    7  A    between atoms: N4_23  and  C17_24 
REMARK    8  A    between atoms: C17_24  and  C18_25 
REMARK    9  A    between atoms: N6_35  and  C25_37 
REMARK   10  A    between atoms: C25_37  and  C26_38 
ROOT
HETATM    1  C15 UNL     1      23.650   3.714 -17.194  1.00  0.00     0.134 A 
HETATM    2  C16 UNL     1      22.828   3.069 -18.083  1.00  0.00     0.164 A 
HETATM    3  N3  UNL     1      23.108   3.245 -19.459  1.00  0.00    -0.079 NA
HETATM    4  N4  UNL     1      21.806   2.315 -17.656  1.00  0.00    -0.271 N 
HETATM    5  N5  UNL     1      21.602   2.200 -16.371  1.00  0.00    -0.278 N 
ATOM      6  H5  UNL     1      20.820   1.622 -16.062  1.00  0.00     0.189 HD
HETATM    7  C24 UNL     1      22.371   2.808 -15.412  1.00  0.00     0.173 A 
HETATM    8  N6  UNL     1      22.067   2.621 -14.190  1.00  0.00    -0.347 N 
ATOM      9  H6  UNL     1      21.263   2.025 -13.995  1.00  0.00     0.167 HD
HETATM   10  C32 UNL     1      23.421   3.583 -15.839  1.00  0.00     0.247 A 
HETATM   11  O4  UNL     1      24.182   4.180 -15.010  1.00  0.00    -0.282 OA
ENDROOT
BRANCH   1  12
HETATM   12  N1  UNL     1      24.749   4.510 -17.612  1.00  0.00    -0.312 N 
HETATM   13  C3  UNL     1      24.530   5.924 -17.704  1.00  0.00     0.224 C 
HETATM   14  O1  UNL     1      23.412   6.444 -17.436  1.00  0.00    -0.273 OA
BRANCH  12  15
HETATM   15  C2  UNL     1      26.021   3.948 -17.938  1.00  0.00     0.128 C 
HETATM   16  C1  UNL     1      26.946   3.764 -16.774  1.00  0.00     0.027 C 
ENDBRANCH  12  15
BRANCH  13  17
HETATM   17  C4  UNL     1      25.624   6.858 -18.127  1.00  0.00     0.105 C 
BRANCH  17  18
HETATM   18  C5  UNL     1      25.038   8.252 -18.208  1.00  0.00     0.029 C 
BRANCH  18  19
HETATM   19  C6  UNL     1      25.736   9.186 -17.252  1.00  0.00     0.136 C 
BRANCH  19  20
HETATM   20  N2  UNL     1      25.133   9.028 -15.917  1.00  0.00    -0.280 N 
HETATM   21  C7  UNL     1      25.681   8.449 -14.747  1.00  0.00     0.261 A 
HETATM   22  O2  UNL     1      26.819   7.950 -14.653  1.00  0.00    -0.267 OA
HETATM   23  C8  UNL     1      24.692   8.529 -13.660  1.00  0.00     0.048 A 
HETATM   24  C9  UNL     1      24.680   8.133 -12.334  1.00  0.00     0.018 A 
HETATM   25  C13 UNL     1      23.561   9.148 -14.164  1.00  0.00     0.048 A 
HETATM   26  C10 UNL     1      23.599   8.327 -11.494  1.00  0.00     0.001 A 
HETATM   27  C11 UNL     1      22.480   8.948 -12.020  1.00  0.00     0.001 A 
HETATM   28  C12 UNL     1      22.452   9.356 -13.334  1.00  0.00     0.018 A 
HETATM   29  C14 UNL     1      23.821   9.464 -15.563  1.00  0.00     0.261 A 
HETATM   30  O3  UNL     1      22.991  10.037 -16.327  1.00  0.00    -0.267 OA
ENDBRANCH  19  20
ENDBRANCH  18  19
ENDBRANCH  17  18
ENDBRANCH  13  17
ENDBRANCH   1  12
BRANCH   4  31
HETATM   31  C17 UNL     1      20.946   1.634 -18.563  1.00  0.00     0.189 C 
BRANCH  31  32
HETATM   32  C18 UNL     1      19.516   2.035 -18.496  1.00  0.00    -0.038 A 
HETATM   33  C19 UNL     1      19.027   3.238 -18.951  1.00  0.00     0.012 A 
HETATM   34  C20 UNL     1      17.672   3.583 -18.870  1.00  0.00     0.043 A 
HETATM   35  C21 UNL     1      16.766   2.707 -18.318  1.00  0.00     0.116 A 
HETATM   36  F1  UNL     1      15.455   3.016 -18.230  1.00  0.00    -0.206 F 
HETATM   37  C22 UNL     1      17.241   1.499 -17.860  1.00  0.00     0.043 A 
HETATM   38  C23 UNL     1      18.570   1.160 -17.938  1.00  0.00     0.012 A 
ENDBRANCH  31  32
ENDBRANCH   4  31
BRANCH   8  39
HETATM   39  C25 UNL     1      22.747   3.168 -13.084  1.00  0.00     0.101 C 
BRANCH  39  40
HETATM   40  C26 UNL     1      21.933   4.297 -12.484  1.00  0.00    -0.021 A 
HETATM   41  C27 UNL     1      22.073   4.593 -11.168  1.00  0.00     0.016 A 
HETATM   42  C28 UNL     1      21.337   5.615 -10.613  1.00  0.00     0.043 A 
HETATM   43  C29 UNL     1      20.458   6.344 -11.375  1.00  0.00     0.116 A 
HETATM   44  F2  UNL     1      19.720   7.364 -10.835  1.00  0.00    -0.206 F 
HETATM   45  C30 UNL     1      20.314   6.043 -12.719  1.00  0.00     0.043 A 
HETATM   46  C31 UNL     1      21.062   5.011 -13.263  1.00  0.00     0.016 A 
ENDBRANCH  39  40
ENDBRANCH   8  39
TORSDOF 10
ENDMDL
