MODEL 1
REMARK VINA RESULT: -8.068959956      0.000      0.000
REMARK  10 active torsions:
REMARK  status: ('A' for Active; 'I' for Inactive)
REMARK    1  A    between atoms: C6_9  and  C7_10 
REMARK       I    between atoms: C7_10  and  N3_12 
REMARK    2  A    between atoms: N3_12  and  C8_14 
REMARK    3  A    between atoms: C8_14  and  C9_15 
REMARK    4  A    between atoms: C9_15  and  N4_16 
REMARK    5  A    between atoms: N4_16  and  C10_18 
REMARK    6  A    between atoms: C10_18  and  C11_19 
REMARK    7  A    between atoms: C11_19  and  C12_20 
REMARK    8  A    between atoms: C12_20  and  C13_21 
REMARK    9  A    between atoms: C13_21  and  N5_22 
REMARK   10  A    between atoms: C18_28  and  C19_29 
ROOT
HETATM    1  N4  UNL     1      23.661   2.910 -13.047  1.00  0.00    -0.420 N 
ATOM      2  H4  UNL     1      24.441   2.960 -12.391  1.00  0.00     0.153 HD
ENDROOT
BRANCH   1   3
HETATM    3  C9  UNL     1      23.723   2.101 -14.239  1.00  0.00     0.133 C 
BRANCH   3   4
HETATM    4  C8  UNL     1      25.069   1.463 -14.312  1.00  0.00     0.142 C 
BRANCH   4   5
HETATM    5  N3  UNL     1      25.583   0.988 -13.034  1.00  0.00    -0.354 N 
HETATM    6  C7  UNL     1      25.989  -0.337 -12.815  1.00  0.00     0.270 C 
HETATM    7  O1  UNL     1      25.922  -1.165 -13.792  1.00  0.00    -0.266 OA
ATOM      8  H3  UNL     1      25.651   1.651 -12.262  1.00  0.00     0.162 HD
BRANCH   6   9
HETATM    9  C6  UNL     1      26.487  -0.854 -11.576  1.00  0.00     0.132 A 
HETATM   10  C5  UNL     1      27.615  -0.511 -10.887  1.00  0.00     0.068 A 
HETATM   11  C2  UNL     1      28.726   0.309 -10.754  1.00  0.00     0.038 A 
HETATM   12  C4  UNL     1      27.683  -1.365  -9.793  1.00  0.00     0.153 A 
HETATM   13  C1  UNL     1      29.068   1.430 -11.665  1.00  0.00     0.071 C 
HETATM   14  N1  UNL     1      29.408  -0.058  -9.636  1.00  0.00    -0.301 N 
HETATM   15  N2  UNL     1      28.782  -1.048  -9.077  1.00  0.00    -0.279 N 
ATOM     16  H1  UNL     1      30.267   0.374  -9.293  1.00  0.00     0.187 HD
HETATM   17  C3  UNL     1      29.242  -1.688  -7.851  1.00  0.00     0.179 C 
HETATM   18  N7  UNL     1      26.638  -2.186  -9.821  1.00  0.00    -0.279 N 
HETATM   19  N6  UNL     1      25.929  -1.893 -10.864  1.00  0.00    -0.291 N 
HETATM   20  C23 UNL     1      26.402  -3.222  -8.802  1.00  0.00     0.179 C 
ATOM     21  H6  UNL     1      25.066  -2.371 -11.125  1.00  0.00     0.187 HD
ENDBRANCH   6   9
ENDBRANCH   4   5
ENDBRANCH   3   4
ENDBRANCH   1   3
BRANCH   1  22
HETATM   22  C10 UNL     1      22.459   3.632 -12.836  1.00  0.00     0.113 C 
BRANCH  22  23
HETATM   23  C11 UNL     1      22.256   4.158 -11.452  1.00  0.00     0.021 C 
BRANCH  23  24
HETATM   24  C12 UNL     1      20.998   4.907 -11.270  1.00  0.00     0.022 C 
BRANCH  24  25
HETATM   25  C13 UNL     1      21.078   6.329 -10.845  1.00  0.00     0.135 C 
BRANCH  25  26
HETATM   26  N5  UNL     1      21.913   7.025 -11.853  1.00  0.00    -0.280 N 
HETATM   27  C14 UNL     1      23.225   7.525 -11.679  1.00  0.00     0.261 A 
HETATM   28  O2  UNL     1      23.941   7.469 -10.641  1.00  0.00    -0.267 OA
HETATM   29  C15 UNL     1      23.698   8.156 -12.918  1.00  0.00     0.049 A 
HETATM   30  C16 UNL     1      24.859   8.789 -13.305  1.00  0.00     0.019 A 
HETATM   31  C21 UNL     1      22.648   8.022 -13.821  1.00  0.00     0.066 A 
HETATM   32  C17 UNL     1      24.982   9.290 -14.588  1.00  0.00     0.010 A 
HETATM   33  C18 UNL     1      23.941   9.157 -15.483  1.00  0.00    -0.030 A 
HETATM   34  C20 UNL     1      22.772   8.525 -15.109  1.00  0.00     0.034 A 
HETATM   35 BR2  UNL     1      21.323   8.342 -16.356  1.00  0.00    -0.049 Br
HETATM   36  C22 UNL     1      21.537   7.327 -13.186  1.00  0.00     0.263 A 
HETATM   37  O3  UNL     1      20.408   7.022 -13.692  1.00  0.00    -0.267 OA
BRANCH  33  38
HETATM   38  C19 UNL     1      24.102   9.708 -16.854  1.00  0.00     0.125 C 
HETATM   39 BR1  UNL     1      23.648  11.607 -16.796  1.00  0.00    -0.091 Br
ENDBRANCH  33  38
ENDBRANCH  25  26
ENDBRANCH  24  25
ENDBRANCH  23  24
ENDBRANCH  22  23
ENDBRANCH   1  22
TORSDOF 10
ENDMDL
MODEL 2
REMARK VINA RESULT: -7.966476458      4.597      7.572
REMARK  10 active torsions:
REMARK  status: ('A' for Active; 'I' for Inactive)
REMARK    1  A    between atoms: C6_9  and  C7_10 
REMARK       I    between atoms: C7_10  and  N3_12 
REMARK    2  A    between atoms: N3_12  and  C8_14 
REMARK    3  A    between atoms: C8_14  and  C9_15 
REMARK    4  A    between atoms: C9_15  and  N4_16 
REMARK    5  A    between atoms: N4_16  and  C10_18 
REMARK    6  A    between atoms: C10_18  and  C11_19 
REMARK    7  A    between atoms: C11_19  and  C12_20 
REMARK    8  A    between atoms: C12_20  and  C13_21 
REMARK    9  A    between atoms: C13_21  and  N5_22 
REMARK   10  A    between atoms: C18_28  and  C19_29 
ROOT
HETATM    1  N4  UNL     1      22.533   3.965 -12.836  1.00  0.00    -0.420 N 
ATOM      2  H4  UNL     1      22.176   4.701 -13.445  1.00  0.00     0.153 HD
ENDROOT
BRANCH   1   3
HETATM    3  C9  UNL     1      23.223   2.814 -13.362  1.00  0.00     0.133 C 
BRANCH   3   4
HETATM    4  C8  UNL     1      23.312   2.949 -14.845  1.00  0.00     0.142 C 
BRANCH   4   5
HETATM    5  N3  UNL     1      22.232   2.301 -15.577  1.00  0.00    -0.354 N 
HETATM    6  C7  UNL     1      21.017   2.937 -15.874  1.00  0.00     0.270 C 
HETATM    7  O1  UNL     1      20.859   4.153 -15.500  1.00  0.00    -0.266 OA
ATOM      8  H3  UNL     1      22.365   1.338 -15.888  1.00  0.00     0.162 HD
BRANCH   6   9
HETATM    9  C6  UNL     1      19.923   2.339 -16.576  1.00  0.00     0.132 A 
HETATM   10  C5  UNL     1      19.211   2.818 -17.639  1.00  0.00     0.068 A 
HETATM   11  C2  UNL     1      19.031   3.795 -18.609  1.00  0.00     0.038 A 
HETATM   12  C4  UNL     1      18.204   1.895 -17.888  1.00  0.00     0.153 A 
HETATM   13  C1  UNL     1      19.901   4.983 -18.788  1.00  0.00     0.071 C 
HETATM   14  N1  UNL     1      17.964   3.452 -19.380  1.00  0.00    -0.301 N 
HETATM   15  N2  UNL     1      17.484   2.328 -18.943  1.00  0.00    -0.279 N 
ATOM     16  H1  UNL     1      17.603   3.988 -20.168  1.00  0.00     0.187 HD
HETATM   17  C3  UNL     1      16.332   1.669 -19.547  1.00  0.00     0.179 C 
HETATM   18  N7  UNL     1      18.306   0.898 -17.013  1.00  0.00    -0.279 N 
HETATM   19  N6  UNL     1      19.313   1.150 -16.240  1.00  0.00    -0.291 N 
HETATM   20  C23 UNL     1      17.392  -0.255 -16.997  1.00  0.00     0.179 C 
ATOM     21  H6  UNL     1      19.617   0.544 -15.477  1.00  0.00     0.187 HD
ENDBRANCH   6   9
ENDBRANCH   4   5
ENDBRANCH   3   4
ENDBRANCH   1   3
BRANCH   1  22
HETATM   22  C10 UNL     1      22.379   4.020 -11.428  1.00  0.00     0.113 C 
BRANCH  22  23
HETATM   23  C11 UNL     1      21.065   4.537 -10.940  1.00  0.00     0.021 C 
BRANCH  23  24
HETATM   24  C12 UNL     1      20.331   5.348 -11.929  1.00  0.00     0.022 C 
BRANCH  24  25
HETATM   25  C13 UNL     1      20.314   6.825 -11.760  1.00  0.00     0.135 C 
BRANCH  25  26
HETATM   26  N5  UNL     1      21.474   7.349 -12.518  1.00  0.00    -0.280 N 
HETATM   27  C14 UNL     1      22.781   7.583 -12.029  1.00  0.00     0.261 A 
HETATM   28  O2  UNL     1      23.215   7.384 -10.860  1.00  0.00    -0.267 OA
HETATM   29  C15 UNL     1      23.638   8.116 -13.097  1.00  0.00     0.049 A 
HETATM   30  C16 UNL     1      24.955   8.513 -13.180  1.00  0.00     0.019 A 
HETATM   31  C21 UNL     1      22.818   8.194 -14.218  1.00  0.00     0.066 A 
HETATM   32  C17 UNL     1      25.462   8.987 -14.376  1.00  0.00     0.010 A 
HETATM   33  C18 UNL     1      24.649   9.064 -15.488  1.00  0.00    -0.030 A 
HETATM   34  C20 UNL     1      23.327   8.670 -15.419  1.00  0.00     0.034 A 
HETATM   35 BR2  UNL     1      22.197   8.780 -16.968  1.00  0.00    -0.049 Br
HETATM   36  C22 UNL     1      21.480   7.726 -13.885  1.00  0.00     0.263 A 
HETATM   37  O3  UNL     1      20.461   7.649 -14.647  1.00  0.00    -0.267 OA
BRANCH  33  38
HETATM   38  C19 UNL     1      25.223   9.580 -16.758  1.00  0.00     0.125 C 
HETATM   39 BR1  UNL     1      27.147   9.791 -16.507  1.00  0.00    -0.091 Br
ENDBRANCH  33  38
ENDBRANCH  25  26
ENDBRANCH  24  25
ENDBRANCH  23  24
ENDBRANCH  22  23
ENDBRANCH   1  22
TORSDOF 10
ENDMDL
MODEL 3
REMARK VINA RESULT: -7.963619669      1.013      1.883
REMARK  10 active torsions:
REMARK  status: ('A' for Active; 'I' for Inactive)
REMARK    1  A    between atoms: C6_9  and  C7_10 
REMARK       I    between atoms: C7_10  and  N3_12 
REMARK    2  A    between atoms: N3_12  and  C8_14 
REMARK    3  A    between atoms: C8_14  and  C9_15 
REMARK    4  A    between atoms: C9_15  and  N4_16 
REMARK    5  A    between atoms: N4_16  and  C10_18 
REMARK    6  A    between atoms: C10_18  and  C11_19 
REMARK    7  A    between atoms: C11_19  and  C12_20 
REMARK    8  A    between atoms: C12_20  and  C13_21 
REMARK    9  A    between atoms: C13_21  and  N5_22 
REMARK   10  A    between atoms: C18_28  and  C19_29 
ROOT
HETATM    1  N4  UNL     1      23.711   2.900 -13.086  1.00  0.00    -0.420 N 
ATOM      2  H4  UNL     1      24.550   3.013 -12.517  1.00  0.00     0.153 HD
ENDROOT
BRANCH   1   3
HETATM    3  C9  UNL     1      23.707   2.092 -14.280  1.00  0.00     0.133 C 
BRANCH   3   4
HETATM    4  C8  UNL     1      24.989   1.333 -14.346  1.00  0.00     0.142 C 
BRANCH   4   5
HETATM    5  N3  UNL     1      25.492   0.883 -13.055  1.00  0.00    -0.354 N 
HETATM    6  C7  UNL     1      25.969  -0.418 -12.829  1.00  0.00     0.270 C 
HETATM    7  O1  UNL     1      25.979  -1.243 -13.810  1.00  0.00    -0.266 OA
ATOM      8  H3  UNL     1      25.499   1.544 -12.279  1.00  0.00     0.162 HD
BRANCH   6   9
HETATM    9  C6  UNL     1      26.459  -0.911 -11.578  1.00  0.00     0.132 A 
HETATM   10  C5  UNL     1      27.571  -0.539 -10.877  1.00  0.00     0.068 A 
HETATM   11  C2  UNL     1      28.665   0.303 -10.738  1.00  0.00     0.038 A 
HETATM   12  C4  UNL     1      27.641  -1.379  -9.773  1.00  0.00     0.153 A 
HETATM   13  C1  UNL     1      28.997   1.420 -11.657  1.00  0.00     0.071 C 
HETATM   14  N1  UNL     1      29.338  -0.038  -9.607  1.00  0.00    -0.301 N 
HETATM   15  N2  UNL     1      28.723  -1.034  -9.046  1.00  0.00    -0.279 N 
ATOM     16  H1  UNL     1      30.183   0.413  -9.258  1.00  0.00     0.187 HD
HETATM   17  C3  UNL     1      29.178  -1.652  -7.806  1.00  0.00     0.179 C 
HETATM   18  N7  UNL     1      26.611  -2.221  -9.806  1.00  0.00    -0.279 N 
HETATM   19  N6  UNL     1      25.911  -1.953 -10.861  1.00  0.00    -0.291 N 
HETATM   20  C23 UNL     1      26.381  -3.249  -8.778  1.00  0.00     0.179 C 
ATOM     21  H6  UNL     1      25.061  -2.450 -11.128  1.00  0.00     0.187 HD
ENDBRANCH   6   9
ENDBRANCH   4   5
ENDBRANCH   3   4
ENDBRANCH   1   3
BRANCH   1  22
HETATM   22  C10 UNL     1      22.487   3.528 -12.744  1.00  0.00     0.113 C 
BRANCH  22  23
HETATM   23  C11 UNL     1      22.392   4.043 -11.345  1.00  0.00     0.021 C 
BRANCH  23  24
HETATM   24  C12 UNL     1      21.122   4.726 -11.037  1.00  0.00     0.022 C 
BRANCH  24  25
HETATM   25  C13 UNL     1      21.133   6.204 -10.883  1.00  0.00     0.135 C 
BRANCH  25  26
HETATM   26  N5  UNL     1      21.479   6.764 -12.211  1.00  0.00    -0.280 N 
HETATM   27  C14 UNL     1      20.630   6.881 -13.337  1.00  0.00     0.261 A 
HETATM   28  O2  UNL     1      19.417   6.542 -13.428  1.00  0.00    -0.267 OA
HETATM   29  C15 UNL     1      21.357   7.479 -14.464  1.00  0.00     0.049 A 
HETATM   30  C16 UNL     1      21.036   7.812 -15.762  1.00  0.00     0.019 A 
HETATM   31  C21 UNL     1      22.643   7.711 -13.987  1.00  0.00     0.066 A 
HETATM   32  C17 UNL     1      21.990   8.375 -16.590  1.00  0.00     0.010 A 
HETATM   33  C18 UNL     1      23.266   8.605 -16.117  1.00  0.00    -0.030 A 
HETATM   34  C20 UNL     1      23.601   8.277 -14.818  1.00  0.00     0.034 A 
HETATM   35 BR2  UNL     1      25.377   8.597 -14.162  1.00  0.00    -0.049 Br
HETATM   36  C22 UNL     1      22.741   7.278 -12.601  1.00  0.00     0.263 A 
HETATM   37  O3  UNL     1      23.755   7.329 -11.830  1.00  0.00    -0.267 OA
BRANCH  33  38
HETATM   38  C19 UNL     1      24.269   9.210 -17.031  1.00  0.00     0.125 C 
HETATM   39 BR1  UNL     1      24.092  11.151 -16.918  1.00  0.00    -0.091 Br
ENDBRANCH  33  38
ENDBRANCH  25  26
ENDBRANCH  24  25
ENDBRANCH  23  24
ENDBRANCH  22  23
ENDBRANCH   1  22
TORSDOF 10
ENDMDL
MODEL 4
REMARK VINA RESULT: -7.923463734      1.858      2.067
REMARK  10 active torsions:
REMARK  status: ('A' for Active; 'I' for Inactive)
REMARK    1  A    between atoms: C6_9  and  C7_10 
REMARK       I    between atoms: C7_10  and  N3_12 
REMARK    2  A    between atoms: N3_12  and  C8_14 
REMARK    3  A    between atoms: C8_14  and  C9_15 
REMARK    4  A    between atoms: C9_15  and  N4_16 
REMARK    5  A    between atoms: N4_16  and  C10_18 
REMARK    6  A    between atoms: C10_18  and  C11_19 
REMARK    7  A    between atoms: C11_19  and  C12_20 
REMARK    8  A    between atoms: C12_20  and  C13_21 
REMARK    9  A    between atoms: C13_21  and  N5_22 
REMARK   10  A    between atoms: C18_28  and  C19_29 
ROOT
HETATM    1  N4  UNL     1      23.166   3.552 -12.624  1.00  0.00    -0.420 N 
ATOM      2  H4  UNL     1      24.116   3.806 -12.355  1.00  0.00     0.153 HD
ENDROOT
BRANCH   1   3
HETATM    3  C9  UNL     1      22.898   2.734 -13.780  1.00  0.00     0.133 C 
BRANCH   3   4
HETATM    4  C8  UNL     1      24.189   2.180 -14.281  1.00  0.00     0.142 C 
BRANCH   4   5
HETATM    5  N3  UNL     1      24.881   1.312 -13.338  1.00  0.00    -0.354 N 
HETATM    6  C7  UNL     1      25.061  -0.063 -13.551  1.00  0.00     0.270 C 
HETATM    7  O1  UNL     1      24.610  -0.576 -14.637  1.00  0.00    -0.266 OA
ATOM      8  H3  UNL     1      25.253   1.724 -12.482  1.00  0.00     0.162 HD
BRANCH   6   9
HETATM    9  C6  UNL     1      25.720  -0.959 -12.650  1.00  0.00     0.132 A 
HETATM   10  C5  UNL     1      26.912  -0.811 -12.000  1.00  0.00     0.068 A 
HETATM   11  C2  UNL     1      28.007  -0.017 -11.686  1.00  0.00     0.038 A 
HETATM   12  C4  UNL     1      27.138  -1.997 -11.315  1.00  0.00     0.153 A 
HETATM   13  C1  UNL     1      28.201   1.380 -12.146  1.00  0.00     0.071 C 
HETATM   14  N1  UNL     1      28.829  -0.716 -10.860  1.00  0.00    -0.301 N 
HETATM   15  N2  UNL     1      28.305  -1.885 -10.648  1.00  0.00    -0.279 N 
ATOM     16  H1  UNL     1      29.710  -0.379 -10.471  1.00  0.00     0.187 HD
HETATM   17  C3  UNL     1      28.930  -2.894  -9.800  1.00  0.00     0.179 C 
HETATM   18  N7  UNL     1      26.122  -2.826 -11.539  1.00  0.00    -0.279 N 
HETATM   19  N6  UNL     1      25.283  -2.224 -12.321  1.00  0.00    -0.291 N 
HETATM   20  C23 UNL     1      26.042  -4.175 -10.959  1.00  0.00     0.179 C 
ATOM     21  H6  UNL     1      24.410  -2.635 -12.652  1.00  0.00     0.187 HD
ENDBRANCH   6   9
ENDBRANCH   4   5
ENDBRANCH   3   4
ENDBRANCH   1   3
BRANCH   1  22
HETATM   22  C10 UNL     1      22.038   3.984 -11.881  1.00  0.00     0.113 C 
BRANCH  22  23
HETATM   23  C11 UNL     1      22.260   5.169 -10.999  1.00  0.00     0.021 C 
BRANCH  23  24
HETATM   24  C12 UNL     1      21.448   6.348 -11.356  1.00  0.00     0.022 C 
BRANCH  24  25
HETATM   25  C13 UNL     1      21.135   6.582 -12.790  1.00  0.00     0.135 C 
BRANCH  25  26
HETATM   26  N5  UNL     1      22.217   7.445 -13.322  1.00  0.00    -0.280 N 
HETATM   27  C14 UNL     1      22.394   8.831 -13.099  1.00  0.00     0.261 A 
HETATM   28  O2  UNL     1      21.674   9.598 -12.401  1.00  0.00    -0.267 OA
HETATM   29  C15 UNL     1      23.583   9.315 -13.812  1.00  0.00     0.049 A 
HETATM   30  C16 UNL     1      24.206  10.536 -13.948  1.00  0.00     0.019 A 
HETATM   31  C21 UNL     1      24.102   8.196 -14.457  1.00  0.00     0.066 A 
HETATM   32  C17 UNL     1      25.345  10.652 -14.723  1.00  0.00     0.010 A 
HETATM   33  C18 UNL     1      25.860   9.543 -15.363  1.00  0.00    -0.030 A 
HETATM   34  C20 UNL     1      25.246   8.312 -15.235  1.00  0.00     0.034 A 
HETATM   35 BR2  UNL     1      25.963   6.771 -16.128  1.00  0.00    -0.049 Br
HETATM   36  C22 UNL     1      23.277   7.033 -14.169  1.00  0.00     0.263 A 
HETATM   37  O3  UNL     1      23.433   5.836 -14.579  1.00  0.00    -0.267 OA
BRANCH  33  38
HETATM   38  C19 UNL     1      27.084   9.699 -16.191  1.00  0.00     0.125 C 
HETATM   39 BR1  UNL     1      26.535  10.282 -17.972  1.00  0.00    -0.091 Br
ENDBRANCH  33  38
ENDBRANCH  25  26
ENDBRANCH  24  25
ENDBRANCH  23  24
ENDBRANCH  22  23
ENDBRANCH   1  22
TORSDOF 10
ENDMDL
MODEL 5
REMARK VINA RESULT: -7.891901431      1.878      3.050
REMARK  10 active torsions:
REMARK  status: ('A' for Active; 'I' for Inactive)
REMARK    1  A    between atoms: C6_9  and  C7_10 
REMARK       I    between atoms: C7_10  and  N3_12 
REMARK    2  A    between atoms: N3_12  and  C8_14 
REMARK    3  A    between atoms: C8_14  and  C9_15 
REMARK    4  A    between atoms: C9_15  and  N4_16 
REMARK    5  A    between atoms: N4_16  and  C10_18 
REMARK    6  A    between atoms: C10_18  and  C11_19 
REMARK    7  A    between atoms: C11_19  and  C12_20 
REMARK    8  A    between atoms: C12_20  and  C13_21 
REMARK    9  A    between atoms: C13_21  and  N5_22 
REMARK   10  A    between atoms: C18_28  and  C19_29 
ROOT
HETATM    1  N4  UNL     1      22.515   4.395 -12.873  1.00  0.00    -0.420 N 
ATOM      2  H4  UNL     1      23.209   5.119 -13.062  1.00  0.00     0.153 HD
ENDROOT
BRANCH   1   3
HETATM    3  C9  UNL     1      21.777   3.756 -13.933  1.00  0.00     0.133 C 
BRANCH   3   4
HETATM    4  C8  UNL     1      22.742   3.059 -14.832  1.00  0.00     0.142 C 
BRANCH   4   5
HETATM    5  N3  UNL     1      23.386   1.894 -14.241  1.00  0.00    -0.354 N 
HETATM    6  C7  UNL     1      24.777   1.772 -14.106  1.00  0.00     0.270 C 
HETATM    7  O1  UNL     1      25.516   2.741 -14.505  1.00  0.00    -0.266 OA
ATOM      8  H3  UNL     1      22.797   1.130 -13.910  1.00  0.00     0.162 HD
BRANCH   6   9
HETATM    9  C6  UNL     1      25.456   0.643 -13.546  1.00  0.00     0.132 A 
HETATM   10  C5  UNL     1      25.530  -0.640 -14.009  1.00  0.00     0.068 A 
HETATM   11  C2  UNL     1      25.242  -1.566 -15.002  1.00  0.00     0.038 A 
HETATM   12  C4  UNL     1      26.236  -1.363 -13.057  1.00  0.00     0.153 A 
HETATM   13  C1  UNL     1      24.533  -1.259 -16.269  1.00  0.00     0.071 C 
HETATM   14  N1  UNL     1      25.757  -2.770 -14.637  1.00  0.00    -0.301 N 
HETATM   15  N2  UNL     1      26.341  -2.638 -13.486  1.00  0.00    -0.279 N 
ATOM     16  H1  UNL     1      25.694  -3.633 -15.178  1.00  0.00     0.187 HD
HETATM   17  C3  UNL     1      27.004  -3.741 -12.800  1.00  0.00     0.179 C 
HETATM   18  N7  UNL     1      26.578  -0.549 -12.062  1.00  0.00    -0.279 N 
HETATM   19  N6  UNL     1      26.126   0.632 -12.342  1.00  0.00    -0.291 N 
HETATM   20  C23 UNL     1      27.341  -0.994 -10.885  1.00  0.00     0.179 C 
ATOM     21  H6  UNL     1      26.249   1.450 -11.745  1.00  0.00     0.187 HD
ENDBRANCH   6   9
ENDBRANCH   4   5
ENDBRANCH   3   4
ENDBRANCH   1   3
BRANCH   1  22
HETATM   22  C10 UNL     1      22.226   3.964 -11.553  1.00  0.00     0.113 C 
BRANCH  22  23
HETATM   23  C11 UNL     1      21.529   4.961 -10.685  1.00  0.00     0.021 C 
BRANCH  23  24
HETATM   24  C12 UNL     1      20.548   5.800 -11.397  1.00  0.00     0.022 C 
BRANCH  24  25
HETATM   25  C13 UNL     1      20.694   7.278 -11.321  1.00  0.00     0.135 C 
BRANCH  25  26
HETATM   26  N5  UNL     1      21.780   7.643 -12.260  1.00  0.00    -0.280 N 
HETATM   27  C14 UNL     1      23.145   7.854 -11.949  1.00  0.00     0.261 A 
HETATM   28  O2  UNL     1      23.702   7.764 -10.820  1.00  0.00    -0.267 OA
HETATM   29  C15 UNL     1      23.894   8.210 -13.161  1.00  0.00     0.049 A 
HETATM   30  C16 UNL     1      25.209   8.516 -13.436  1.00  0.00     0.019 A 
HETATM   31  C21 UNL     1      22.954   8.207 -14.186  1.00  0.00     0.066 A 
HETATM   32  C17 UNL     1      25.595   8.820 -14.729  1.00  0.00     0.010 A 
HETATM   33  C18 UNL     1      24.662   8.818 -15.746  1.00  0.00    -0.030 A 
HETATM   34  C20 UNL     1      23.341   8.512 -15.484  1.00  0.00     0.034 A 
HETATM   35 BR2  UNL     1      22.045   8.511 -16.901  1.00  0.00    -0.049 Br
HETATM   36  C22 UNL     1      21.644   7.860 -13.654  1.00  0.00     0.263 A 
HETATM   37  O3  UNL     1      20.541   7.757 -14.284  1.00  0.00    -0.267 OA
BRANCH  33  38
HETATM   38  C19 UNL     1      25.107   9.151 -17.124  1.00  0.00     0.125 C 
HETATM   39 BR1  UNL     1      26.878   9.965 -17.004  1.00  0.00    -0.091 Br
ENDBRANCH  33  38
ENDBRANCH  25  26
ENDBRANCH  24  25
ENDBRANCH  23  24
ENDBRANCH  22  23
ENDBRANCH   1  22
TORSDOF 10
ENDMDL
