MODEL 1
REMARK VINA RESULT: -6.595498648      0.000      0.000
REMARK  7 active torsions:
REMARK  status: ('A' for Active; 'I' for Inactive)
REMARK    1  A    between atoms: C2_2  and  C3_3 
REMARK    2  A    between atoms: C3_3  and  C4_4 
REMARK    3  A    between atoms: C4_4  and  C5_5 
REMARK    4  A    between atoms: C5_5  and  N1_6 
REMARK    5  A    between atoms: N3_15  and  C11_16 
REMARK    6  A    between atoms: C11_16  and  C12_17 
REMARK    7  A    between atoms: C15_23  and  N5_24 
ROOT
HETATM    1  N1  UNL     1      18.639 -25.464 -22.987  1.00  0.00    -0.226 N 
ATOM      2  H1  UNL     1      17.979 -25.080 -22.312  1.00  0.00     0.177 HD
HETATM    3  C6  UNL     1      19.751 -25.859 -22.533  1.00  0.00     0.675 C 
HETATM    4  N2  UNL     1      20.678 -26.398 -23.464  1.00  0.00    -0.226 N 
ATOM      5  H2  UNL     1      20.320 -26.892 -24.282  1.00  0.00     0.177 HD
HETATM    6  C7  UNL     1      22.141 -26.273 -23.296  1.00  0.00     0.138 C 
HETATM    7  C8  UNL     1      22.633 -27.107 -22.174  1.00  0.00     0.022 C 
HETATM    8  C9  UNL     1      21.703 -27.324 -21.040  1.00  0.00     0.022 C 
HETATM    9  C10 UNL     1      21.119 -26.125 -20.397  1.00  0.00     0.147 C 
HETATM   10  N3  UNL     1      19.928 -25.698 -21.087  1.00  0.00    -0.193 N 
ENDROOT
BRANCH  10  11
HETATM   11  C11 UNL     1      18.839 -25.099 -20.424  1.00  0.00     0.126 C 
BRANCH  11  12
HETATM   12  C12 UNL     1      18.895 -23.678 -20.131  1.00  0.00     0.057 A 
HETATM   13  C13 UNL     1      19.323 -23.184 -18.877  1.00  0.00     0.088 A 
HETATM   14  C14 UNL     1      19.732 -24.030 -17.700  1.00  0.00     0.080 C 
HETATM   15  O1  UNL     1      19.289 -21.905 -18.949  1.00  0.00    -0.240 OA
HETATM   16  N4  UNL     1      18.895 -21.488 -20.092  1.00  0.00    -0.244 N 
HETATM   17  C15 UNL     1      18.631 -22.576 -20.885  1.00  0.00     0.133 A 
ATOM     18  H4  UNL     1      18.793 -20.512 -20.367  1.00  0.00     0.196 HD
BRANCH  17  19
HETATM   19  N5  UNL     1      18.260 -22.387 -22.092  1.00  0.00    -0.383 N 
ATOM     20  H52 UNL     1      18.926 -21.994 -22.759  1.00  0.00     0.157 HD
ATOM     21  H51 UNL     1      17.404 -22.573 -22.613  1.00  0.00     0.157 HD
ENDBRANCH  17  19
ENDBRANCH  11  12
ENDBRANCH  10  11
BRANCH   1  22
HETATM   22  C5  UNL     1      18.220 -25.502 -24.334  1.00  0.00     0.138 C 
BRANCH  22  23
HETATM   23  C4  UNL     1      16.719 -25.732 -24.411  1.00  0.00     0.024 C 
BRANCH  23  24
HETATM   24  C3  UNL     1      16.210 -26.519 -23.233  1.00  0.00     0.028 C 
BRANCH  24  25
HETATM   25  C2  UNL     1      15.093 -25.781 -22.610  1.00  0.00    -0.037 C 
HETATM   26  C1  UNL     1      15.305 -24.906 -21.666  1.00  0.00     0.007 C 
ENDBRANCH  24  25
ENDBRANCH  23  24
ENDBRANCH  22  23
ENDBRANCH   1  22
TORSDOF 7
ENDMDL
MODEL 2
REMARK VINA RESULT: -6.287446769      2.180      4.256
REMARK  7 active torsions:
REMARK  status: ('A' for Active; 'I' for Inactive)
REMARK    1  A    between atoms: C2_2  and  C3_3 
REMARK    2  A    between atoms: C3_3  and  C4_4 
REMARK    3  A    between atoms: C4_4  and  C5_5 
REMARK    4  A    between atoms: C5_5  and  N1_6 
REMARK    5  A    between atoms: N3_15  and  C11_16 
REMARK    6  A    between atoms: C11_16  and  C12_17 
REMARK    7  A    between atoms: C15_23  and  N5_24 
ROOT
HETATM    1  N1  UNL     1      20.049 -25.062 -20.975  1.00  0.00    -0.226 N 
ATOM      2  H1  UNL     1      19.152 -25.389 -21.332  1.00  0.00     0.177 HD
HETATM    3  C6  UNL     1      20.013 -24.233 -20.021  1.00  0.00     0.675 C 
HETATM    4  N2  UNL     1      21.257 -23.772 -19.513  1.00  0.00    -0.226 N 
ATOM      5  H2  UNL     1      22.059 -24.402 -19.538  1.00  0.00     0.177 HD
HETATM    6  C7  UNL     1      21.436 -22.418 -18.951  1.00  0.00     0.138 C 
HETATM    7  C8  UNL     1      20.740 -22.271 -17.651  1.00  0.00     0.022 C 
HETATM    8  C9  UNL     1      19.509 -23.073 -17.454  1.00  0.00     0.022 C 
HETATM    9  C10 UNL     1      18.443 -22.949 -18.475  1.00  0.00     0.147 C 
HETATM   10  N3  UNL     1      18.670 -23.857 -19.571  1.00  0.00    -0.193 N 
ENDROOT
BRANCH  10  11
HETATM   11  C11 UNL     1      17.618 -24.457 -20.291  1.00  0.00     0.126 C 
BRANCH  11  12
HETATM   12  C12 UNL     1      16.732 -23.609 -21.069  1.00  0.00     0.057 A 
HETATM   13  C13 UNL     1      15.424 -23.291 -20.638  1.00  0.00     0.088 A 
HETATM   14  C14 UNL     1      14.775 -23.793 -19.375  1.00  0.00     0.080 C 
HETATM   15  O1  UNL     1      14.920 -22.510 -21.520  1.00  0.00    -0.240 OA
HETATM   16  N4  UNL     1      15.729 -22.269 -22.482  1.00  0.00    -0.244 N 
HETATM   17  C15 UNL     1      16.900 -22.943 -22.245  1.00  0.00     0.133 A 
ATOM     18  H4  UNL     1      15.536 -21.675 -23.288  1.00  0.00     0.196 HD
BRANCH  17  19
HETATM   19  N5  UNL     1      17.869 -22.810 -23.067  1.00  0.00    -0.383 N 
ATOM     20  H52 UNL     1      17.833 -23.306 -23.958  1.00  0.00     0.157 HD
ATOM     21  H51 UNL     1      18.728 -22.262 -23.074  1.00  0.00     0.157 HD
ENDBRANCH  17  19
ENDBRANCH  11  12
ENDBRANCH  10  11
BRANCH   1  22
HETATM   22  C5  UNL     1      21.206 -25.581 -21.593  1.00  0.00     0.138 C 
BRANCH  22  23
HETATM   23  C4  UNL     1      20.820 -26.498 -22.744  1.00  0.00     0.024 C 
BRANCH  23  24
HETATM   24  C3  UNL     1      19.428 -26.217 -23.244  1.00  0.00     0.028 C 
BRANCH  24  25
HETATM   25  C2  UNL     1      19.472 -26.039 -24.709  1.00  0.00    -0.037 C 
HETATM   26  C1  UNL     1      18.509 -25.429 -25.344  1.00  0.00     0.007 C 
ENDBRANCH  24  25
ENDBRANCH  23  24
ENDBRANCH  22  23
ENDBRANCH   1  22
TORSDOF 7
ENDMDL
MODEL 3
REMARK VINA RESULT: -6.270102470      2.410      4.541
REMARK  7 active torsions:
REMARK  status: ('A' for Active; 'I' for Inactive)
REMARK    1  A    between atoms: C2_2  and  C3_3 
REMARK    2  A    between atoms: C3_3  and  C4_4 
REMARK    3  A    between atoms: C4_4  and  C5_5 
REMARK    4  A    between atoms: C5_5  and  N1_6 
REMARK    5  A    between atoms: N3_15  and  C11_16 
REMARK    6  A    between atoms: C11_16  and  C12_17 
REMARK    7  A    between atoms: C15_23  and  N5_24 
ROOT
HETATM    1  N1  UNL     1      18.078 -24.027 -21.459  1.00  0.00    -0.226 N 
ATOM      2  H1  UNL     1      17.851 -24.970 -21.774  1.00  0.00     0.177 HD
HETATM    3  C6  UNL     1      18.957 -23.925 -20.557  1.00  0.00     0.675 C 
HETATM    4  N2  UNL     1      19.283 -22.616 -20.113  1.00  0.00    -0.226 N 
ATOM      5  H2  UNL     1      19.220 -21.844 -20.776  1.00  0.00     0.177 HD
HETATM    6  C7  UNL     1      19.708 -22.328 -18.727  1.00  0.00     0.138 C 
HETATM    7  C8  UNL     1      21.062 -22.864 -18.451  1.00  0.00     0.022 C 
HETATM    8  C9  UNL     1      21.461 -24.090 -19.181  1.00  0.00     0.022 C 
HETATM    9  C10 UNL     1      20.560 -25.262 -19.091  1.00  0.00     0.147 C 
HETATM   10  N3  UNL     1      19.524 -25.194 -20.090  1.00  0.00    -0.193 N 
ENDROOT
BRANCH  10  11
HETATM   11  C11 UNL     1      18.978 -26.341 -20.699  1.00  0.00     0.126 C 
BRANCH  11  12
HETATM   12  C12 UNL     1      19.828 -27.147 -21.558  1.00  0.00     0.057 A 
HETATM   13  C13 UNL     1      19.593 -28.524 -21.772  1.00  0.00     0.088 A 
HETATM   14  C14 UNL     1      18.490 -29.330 -21.136  1.00  0.00     0.080 C 
HETATM   15  O1  UNL     1      20.487 -28.933 -22.594  1.00  0.00    -0.240 OA
HETATM   16  N4  UNL     1      21.285 -28.000 -22.954  1.00  0.00    -0.244 N 
HETATM   17  C15 UNL     1      20.910 -26.840 -22.324  1.00  0.00     0.133 A 
ATOM     18  H4  UNL     1      22.068 -28.102 -23.599  1.00  0.00     0.196 HD
BRANCH  17  19
HETATM   19  N5  UNL     1      21.553 -25.765 -22.575  1.00  0.00    -0.383 N 
ATOM     20  H52 UNL     1      22.243 -25.433 -21.901  1.00  0.00     0.157 HD
ATOM     21  H51 UNL     1      21.577 -25.113 -23.359  1.00  0.00     0.157 HD
ENDBRANCH  17  19
ENDBRANCH  11  12
ENDBRANCH  10  11
BRANCH   1  22
HETATM   22  C5  UNL     1      17.377 -22.968 -22.074  1.00  0.00     0.138 C 
BRANCH  22  23
HETATM   23  C4  UNL     1      15.931 -23.368 -22.322  1.00  0.00     0.024 C 
BRANCH  23  24
HETATM   24  C3  UNL     1      15.637 -24.756 -21.818  1.00  0.00     0.028 C 
BRANCH  24  25
HETATM   25  C2  UNL     1      15.336 -25.630 -22.968  1.00  0.00    -0.037 C 
HETATM   26  C1  UNL     1      15.852 -26.825 -23.063  1.00  0.00     0.007 C 
ENDBRANCH  24  25
ENDBRANCH  23  24
ENDBRANCH  22  23
ENDBRANCH   1  22
TORSDOF 7
ENDMDL
MODEL 4
REMARK VINA RESULT: -6.130521161      2.123      5.193
REMARK  7 active torsions:
REMARK  status: ('A' for Active; 'I' for Inactive)
REMARK    1  A    between atoms: C2_2  and  C3_3 
REMARK    2  A    between atoms: C3_3  and  C4_4 
REMARK    3  A    between atoms: C4_4  and  C5_5 
REMARK    4  A    between atoms: C5_5  and  N1_6 
REMARK    5  A    between atoms: N3_15  and  C11_16 
REMARK    6  A    between atoms: C11_16  and  C12_17 
REMARK    7  A    between atoms: C15_23  and  N5_24 
ROOT
HETATM    1  N1  UNL     1      18.491 -24.202 -21.149  1.00  0.00    -0.226 N 
ATOM      2  H1  UNL     1      19.290 -24.489 -20.585  1.00  0.00     0.177 HD
HETATM    3  C6  UNL     1      17.845 -25.120 -21.730  1.00  0.00     0.675 C 
HETATM    4  N2  UNL     1      16.728 -24.731 -22.517  1.00  0.00    -0.226 N 
ATOM      5  H2  UNL     1      16.195 -23.908 -22.237  1.00  0.00     0.177 HD
HETATM    6  C7  UNL     1      16.308 -25.472 -23.725  1.00  0.00     0.138 C 
HETATM    7  C8  UNL     1      15.730 -26.793 -23.379  1.00  0.00     0.022 C 
HETATM    8  C9  UNL     1      16.253 -27.458 -22.163  1.00  0.00     0.022 C 
HETATM    9  C10 UNL     1      17.718 -27.646 -22.064  1.00  0.00     0.147 C 
HETATM   10  N3  UNL     1      18.352 -26.477 -21.506  1.00  0.00    -0.193 N 
ENDROOT
BRANCH  10  11
HETATM   11  C11 UNL     1      19.503 -26.550 -20.698  1.00  0.00     0.126 C 
BRANCH  11  12
HETATM   12  C12 UNL     1      20.800 -26.677 -21.339  1.00  0.00     0.057 A 
HETATM   13  C13 UNL     1      21.957 -27.066 -20.627  1.00  0.00     0.088 A 
HETATM   14  C14 UNL     1      22.016 -27.359 -19.151  1.00  0.00     0.080 C 
HETATM   15  O1  UNL     1      22.918 -27.114 -21.474  1.00  0.00    -0.240 OA
HETATM   16  N4  UNL     1      22.544 -26.808 -22.658  1.00  0.00    -0.244 N 
HETATM   17  C15 UNL     1      21.202 -26.522 -22.630  1.00  0.00     0.133 A 
ATOM     18  H4  UNL     1      23.142 -26.781 -23.483  1.00  0.00     0.196 HD
BRANCH  17  19
HETATM   19  N5  UNL     1      20.609 -26.228 -23.723  1.00  0.00    -0.383 N 
ATOM     20  H52 UNL     1      19.630 -26.490 -23.840  1.00  0.00     0.157 HD
ATOM     21  H51 UNL     1      20.879 -25.728 -24.569  1.00  0.00     0.157 HD
ENDBRANCH  17  19
ENDBRANCH  11  12
ENDBRANCH  10  11
BRANCH   1  22
HETATM   22  C5  UNL     1      18.217 -22.818 -21.203  1.00  0.00     0.138 C 
BRANCH  22  23
HETATM   23  C4  UNL     1      18.896 -22.103 -20.046  1.00  0.00     0.024 C 
BRANCH  23  24
HETATM   24  C3  UNL     1      19.291 -23.056 -18.949  1.00  0.00     0.028 C 
BRANCH  24  25
HETATM   25  C2  UNL     1      20.706 -22.822 -18.597  1.00  0.00    -0.037 C 
HETATM   26  C1  UNL     1      21.655 -23.579 -19.075  1.00  0.00     0.007 C 
ENDBRANCH  24  25
ENDBRANCH  23  24
ENDBRANCH  22  23
ENDBRANCH   1  22
TORSDOF 7
ENDMDL
MODEL 5
REMARK VINA RESULT: -6.112097833      2.194      4.899
REMARK  7 active torsions:
REMARK  status: ('A' for Active; 'I' for Inactive)
REMARK    1  A    between atoms: C2_2  and  C3_3 
REMARK    2  A    between atoms: C3_3  and  C4_4 
REMARK    3  A    between atoms: C4_4  and  C5_5 
REMARK    4  A    between atoms: C5_5  and  N1_6 
REMARK    5  A    between atoms: N3_15  and  C11_16 
REMARK    6  A    between atoms: C11_16  and  C12_17 
REMARK    7  A    between atoms: C15_23  and  N5_24 
ROOT
HETATM    1  N1  UNL     1      20.008 -26.277 -19.991  1.00  0.00    -0.226 N 
ATOM      2  H1  UNL     1      19.121 -26.551 -20.415  1.00  0.00     0.177 HD
HETATM    3  C6  UNL     1      20.081 -25.100 -19.536  1.00  0.00     0.675 C 
HETATM    4  N2  UNL     1      21.310 -24.709 -18.941  1.00  0.00    -0.226 N 
ATOM      5  H2  UNL     1      21.870 -25.416 -18.465  1.00  0.00     0.177 HD
HETATM    6  C7  UNL     1      21.809 -23.319 -18.984  1.00  0.00     0.138 C 
HETATM    7  C8  UNL     1      20.997 -22.422 -18.129  1.00  0.00     0.022 C 
HETATM    8  C9  UNL     1      19.563 -22.762 -17.970  1.00  0.00     0.022 C 
HETATM    9  C10 UNL     1      18.763 -22.941 -19.204  1.00  0.00     0.147 C 
HETATM   10  N3  UNL     1      18.867 -24.293 -19.693  1.00  0.00    -0.193 N 
ENDROOT
BRANCH  10  11
HETATM   11  C11 UNL     1      17.809 -24.945 -20.356  1.00  0.00     0.126 C 
BRANCH  11  12
HETATM   12  C12 UNL     1      17.774 -24.921 -21.808  1.00  0.00     0.057 A 
HETATM   13  C13 UNL     1      17.433 -26.061 -22.571  1.00  0.00     0.088 A 
HETATM   14  C14 UNL     1      17.103 -27.420 -22.010  1.00  0.00     0.080 C 
HETATM   15  O1  UNL     1      17.462 -25.709 -23.802  1.00  0.00    -0.240 OA
HETATM   16  N4  UNL     1      17.779 -24.478 -23.953  1.00  0.00    -0.244 N 
HETATM   17  C15 UNL     1      17.987 -23.928 -22.713  1.00  0.00     0.133 A 
ATOM     18  H4  UNL     1      17.862 -23.989 -24.843  1.00  0.00     0.196 HD
BRANCH  17  19
HETATM   19  N5  UNL     1      18.275 -22.687 -22.628  1.00  0.00    -0.383 N 
ATOM     20  H52 UNL     1      17.534 -21.997 -22.751  1.00  0.00     0.157 HD
ATOM     21  H51 UNL     1      19.125 -22.164 -22.419  1.00  0.00     0.157 HD
ENDBRANCH  17  19
ENDBRANCH  11  12
ENDBRANCH  10  11
BRANCH   1  22
HETATM   22  C5  UNL     1      21.029 -27.251 -19.971  1.00  0.00     0.138 C 
BRANCH  22  23
HETATM   23  C4  UNL     1      21.258 -27.801 -21.370  1.00  0.00     0.024 C 
BRANCH  23  24
HETATM   24  C3  UNL     1      22.473 -27.194 -22.021  1.00  0.00     0.028 C 
BRANCH  24  25
HETATM   25  C2  UNL     1      22.036 -26.285 -23.100  1.00  0.00    -0.037 C 
HETATM   26  C1  UNL     1      20.907 -26.474 -23.726  1.00  0.00     0.007 C 
ENDBRANCH  24  25
ENDBRANCH  23  24
ENDBRANCH  22  23
ENDBRANCH   1  22
TORSDOF 7
ENDMDL
