MODEL 1
REMARK VINA RESULT: -6.802514358      0.000      0.000
REMARK  6 active torsions:
REMARK  status: ('A' for Active; 'I' for Inactive)
REMARK    1  A    between atoms: C2_2  and  C4_4 
REMARK    2  A    between atoms: C11_11  and  O1_12 
REMARK    3  A    between atoms: C12_14  and  O2_16 
REMARK    4  A    between atoms: C14_18  and  O3_19 
REMARK    5  A    between atoms: O3_19  and  C15_20 
REMARK    6  A    between atoms: C15_20  and  C16_22 
ROOT
HETATM    1  C4  UNL     1      15.802  -7.106  -5.390  1.00  0.00     0.022 C 
HETATM    2  C5  UNL     1      16.458  -5.845  -4.835  1.00  0.00     0.010 C 
HETATM    3  C6  UNL     1      16.638  -4.704  -5.719  1.00  0.00     0.001 C 
HETATM    4  C7  UNL     1      16.269  -4.789  -7.150  1.00  0.00     0.010 C 
HETATM    5  C8  UNL     1      15.870  -6.146  -7.595  1.00  0.00    -0.029 C 
HETATM    6  C9  UNL     1      17.203  -6.928  -7.619  1.00  0.00     0.016 C 
HETATM    7  C10 UNL     1      15.295  -6.343  -8.906  1.00  0.00     0.037 C 
HETATM    8  C11 UNL     1      14.516  -5.358  -9.642  1.00  0.00     0.160 C 
HETATM    9  C12 UNL     1      13.719  -6.324 -10.568  1.00  0.00     0.107 C 
HETATM   10  C13 UNL     1      12.718  -5.461 -11.247  1.00  0.00     0.051 C 
HETATM   11  C14 UNL     1      13.193  -7.218  -9.512  1.00  0.00     0.177 C 
HETATM   12  C18 UNL     1      14.454  -7.593  -8.730  1.00  0.00    -0.007 C 
HETATM   13  C19 UNL     1      15.087  -8.843  -9.256  1.00  0.00     0.018 C 
HETATM   14  C20 UNL     1      14.213  -7.756  -7.263  1.00  0.00     0.023 C 
HETATM   15  C21 UNL     1      14.938  -6.680  -6.513  1.00  0.00    -0.028 C 
HETATM   16  C22 UNL     1      13.967  -5.697  -5.984  1.00  0.00     0.016 C 
ENDROOT
BRANCH  11  17
HETATM   17  O3  UNL     1      12.394  -8.271  -9.836  1.00  0.00    -0.312 OA
BRANCH  17  18
HETATM   18  C15 UNL     1      11.936  -8.714 -11.027  1.00  0.00     0.258 C 
HETATM   19  O4  UNL     1      12.550  -9.687 -11.496  1.00  0.00    -0.265 OA
BRANCH  18  20
HETATM   20  C16 UNL     1      10.802  -8.155 -11.789  1.00  0.00     0.106 C 
HETATM   21  C17 UNL     1      10.538  -8.970 -13.053  1.00  0.00     0.015 C 
ENDBRANCH  18  20
ENDBRANCH  17  18
ENDBRANCH  11  17
BRANCH   9  22
HETATM   22  O2  UNL     1      14.686  -6.856 -11.378  1.00  0.00    -0.385 OA
ATOM     23  H2  UNL     1      14.195  -7.411 -11.972  1.00  0.00     0.210 HD
ENDBRANCH   9  22
BRANCH   8  24
HETATM   24  O1  UNL     1      13.606  -4.558  -9.091  1.00  0.00    -0.392 OA
ATOM     25  H1  UNL     1      12.759  -4.367  -9.476  1.00  0.00     0.210 HD
ENDBRANCH   8  24
BRANCH   1  26
HETATM   26  C2  UNL     1      15.167  -7.881  -4.294  1.00  0.00    -0.088 C 
HETATM   27  C1  UNL     1      14.422  -7.457  -3.314  1.00  0.00     0.014 C 
HETATM   28  C3  UNL     1      15.386  -9.396  -4.291  1.00  0.00     0.043 C 
ENDBRANCH   1  26
TORSDOF 6
ENDMDL
MODEL 2
REMARK VINA RESULT: -6.482331332      3.466      6.526
REMARK  6 active torsions:
REMARK  status: ('A' for Active; 'I' for Inactive)
REMARK    1  A    between atoms: C2_2  and  C4_4 
REMARK    2  A    between atoms: C11_11  and  O1_12 
REMARK    3  A    between atoms: C12_14  and  O2_16 
REMARK    4  A    between atoms: C14_18  and  O3_19 
REMARK    5  A    between atoms: O3_19  and  C15_20 
REMARK    6  A    between atoms: C15_20  and  C16_22 
ROOT
HETATM    1  C4  UNL     1      14.190  -4.352  -8.724  1.00  0.00     0.022 C 
HETATM    2  C5  UNL     1      15.044  -3.500  -9.656  1.00  0.00     0.010 C 
HETATM    3  C6  UNL     1      15.800  -2.391  -9.095  1.00  0.00     0.001 C 
HETATM    4  C7  UNL     1      15.680  -2.041  -7.662  1.00  0.00     0.010 C 
HETATM    5  C8  UNL     1      14.635  -2.804  -6.936  1.00  0.00    -0.029 C 
HETATM    6  C9  UNL     1      13.312  -2.205  -7.466  1.00  0.00     0.016 C 
HETATM    7  C10 UNL     1      14.538  -2.717  -5.497  1.00  0.00     0.037 C 
HETATM    8  C11 UNL     1      15.646  -2.458  -4.591  1.00  0.00     0.160 C 
HETATM    9  C12 UNL     1      15.055  -3.095  -3.298  1.00  0.00     0.107 C 
HETATM   10  C13 UNL     1      16.176  -3.085  -2.322  1.00  0.00     0.051 C 
HETATM   11  C14 UNL     1      14.708  -4.414  -3.872  1.00  0.00     0.177 C 
HETATM   12  C18 UNL     1      13.897  -4.038  -5.114  1.00  0.00    -0.007 C 
HETATM   13  C19 UNL     1      12.432  -3.952  -4.822  1.00  0.00     0.018 C 
HETATM   14  C20 UNL     1      14.106  -4.974  -6.261  1.00  0.00     0.023 C 
HETATM   15  C21 UNL     1      14.798  -4.254  -7.378  1.00  0.00    -0.028 C 
HETATM   16  C22 UNL     1      16.198  -4.721  -7.483  1.00  0.00     0.016 C 
ENDROOT
BRANCH  11  17
HETATM   17  O3  UNL     1      14.138  -5.374  -3.094  1.00  0.00    -0.312 OA
BRANCH  17  18
HETATM   18  C15 UNL     1      14.008  -6.708  -3.269  1.00  0.00     0.258 C 
HETATM   19  O4  UNL     1      12.858  -7.149  -3.107  1.00  0.00    -0.265 OA
BRANCH  18  20
HETATM   20  C16 UNL     1      15.087  -7.650  -3.627  1.00  0.00     0.106 C 
HETATM   21  C17 UNL     1      14.800  -8.325  -4.966  1.00  0.00     0.015 C 
ENDBRANCH  18  20
ENDBRANCH  17  18
ENDBRANCH  11  17
BRANCH   9  22
HETATM   22  O2  UNL     1      14.001  -2.275  -2.995  1.00  0.00    -0.385 OA
ATOM     23  H2  UNL     1      13.330  -2.880  -2.702  1.00  0.00     0.210 HD
ENDBRANCH   9  22
BRANCH   8  24
HETATM   24  O1  UNL     1      16.862  -2.982  -4.724  1.00  0.00    -0.392 OA
ATOM     25  H1  UNL     1      17.509  -2.679  -5.351  1.00  0.00     0.210 HD
ENDBRANCH   8  24
BRANCH   1  26
HETATM   26  C2  UNL     1      14.004  -5.710  -9.292  1.00  0.00    -0.088 C 
HETATM   27  C1  UNL     1      14.094  -6.867  -8.701  1.00  0.00     0.014 C 
HETATM   28  C3  UNL     1      13.640  -5.804 -10.777  1.00  0.00     0.043 C 
ENDBRANCH   1  26
TORSDOF 6
ENDMDL
MODEL 3
REMARK VINA RESULT: -6.278245387      3.408      6.242
REMARK  6 active torsions:
REMARK  status: ('A' for Active; 'I' for Inactive)
REMARK    1  A    between atoms: C2_2  and  C4_4 
REMARK    2  A    between atoms: C11_11  and  O1_12 
REMARK    3  A    between atoms: C12_14  and  O2_16 
REMARK    4  A    between atoms: C14_18  and  O3_19 
REMARK    5  A    between atoms: O3_19  and  C15_20 
REMARK    6  A    between atoms: C15_20  and  C16_22 
ROOT
HETATM    1  C4  UNL     1      14.180  -5.696  -8.160  1.00  0.00     0.022 C 
HETATM    2  C5  UNL     1      14.555  -4.416  -8.899  1.00  0.00     0.010 C 
HETATM    3  C6  UNL     1      15.300  -3.390  -8.188  1.00  0.00     0.001 C 
HETATM    4  C7  UNL     1      15.618  -3.545  -6.750  1.00  0.00     0.010 C 
HETATM    5  C8  UNL     1      14.985  -4.724  -6.111  1.00  0.00    -0.029 C 
HETATM    6  C9  UNL     1      13.494  -4.327  -6.012  1.00  0.00     0.016 C 
HETATM    7  C10 UNL     1      15.360  -5.116  -4.772  1.00  0.00     0.037 C 
HETATM    8  C11 UNL     1      16.662  -4.893  -4.162  1.00  0.00     0.160 C 
HETATM    9  C12 UNL     1      16.624  -6.024  -3.092  1.00  0.00     0.107 C 
HETATM   10  C13 UNL     1      17.993  -6.049  -2.515  1.00  0.00     0.051 C 
HETATM   11  C14 UNL     1      16.284  -7.141  -4.001  1.00  0.00     0.177 C 
HETATM   12  C18 UNL     1      15.063  -6.604  -4.753  1.00  0.00    -0.007 C 
HETATM   13  C19 UNL     1      13.782  -6.970  -4.074  1.00  0.00     0.018 C 
HETATM   14  C20 UNL     1      15.002  -7.056  -6.177  1.00  0.00     0.023 C 
HETATM   15  C21 UNL     1      15.182  -5.879  -7.086  1.00  0.00    -0.028 C 
HETATM   16  C22 UNL     1      16.517  -5.938  -7.723  1.00  0.00     0.016 C 
ENDROOT
BRANCH  11  17
HETATM   17  O3  UNL     1      16.137  -8.404  -3.515  1.00  0.00    -0.312 OA
BRANCH  17  18
HETATM   18  C15 UNL     1      16.577  -9.597  -3.972  1.00  0.00     0.258 C 
HETATM   19  O4  UNL     1      16.125 -10.587  -3.376  1.00  0.00    -0.265 OA
BRANCH  18  20
HETATM   20  C16 UNL     1      17.522  -9.808  -5.088  1.00  0.00     0.106 C 
HETATM   21  C17 UNL     1      16.784 -10.244  -6.352  1.00  0.00     0.015 C 
ENDBRANCH  18  20
ENDBRANCH  17  18
ENDBRANCH  11  17
BRANCH   9  22
HETATM   22  O2  UNL     1      15.631  -5.620  -2.239  1.00  0.00    -0.385 OA
ATOM     23  H2  UNL     1      16.079  -5.029  -1.645  1.00  0.00     0.210 HD
ENDBRANCH   9  22
BRANCH   8  24
HETATM   24  O1  UNL     1      17.823  -5.039  -4.797  1.00  0.00    -0.392 OA
ATOM     25  H1  UNL     1      18.279  -4.337  -5.246  1.00  0.00     0.210 HD
ENDBRANCH   8  24
BRANCH   1  26
HETATM   26  C2  UNL     1      13.997  -6.812  -9.122  1.00  0.00    -0.088 C 
HETATM   27  C1  UNL     1      13.766  -8.072  -8.883  1.00  0.00     0.014 C 
HETATM   28  C3  UNL     1      14.071  -6.471 -10.612  1.00  0.00     0.043 C 
ENDBRANCH   1  26
TORSDOF 6
ENDMDL
MODEL 4
REMARK VINA RESULT: -6.235825492      3.306      6.246
REMARK  6 active torsions:
REMARK  status: ('A' for Active; 'I' for Inactive)
REMARK    1  A    between atoms: C2_2  and  C4_4 
REMARK    2  A    between atoms: C11_11  and  O1_12 
REMARK    3  A    between atoms: C12_14  and  O2_16 
REMARK    4  A    between atoms: C14_18  and  O3_19 
REMARK    5  A    between atoms: O3_19  and  C15_20 
REMARK    6  A    between atoms: C15_20  and  C16_22 
ROOT
HETATM    1  C4  UNL     1      14.310  -5.985  -8.085  1.00  0.00     0.022 C 
HETATM    2  C5  UNL     1      14.821  -4.662  -8.643  1.00  0.00     0.010 C 
HETATM    3  C6  UNL     1      15.691  -3.842  -7.815  1.00  0.00     0.001 C 
HETATM    4  C7  UNL     1      16.010  -4.242  -6.425  1.00  0.00     0.010 C 
HETATM    5  C8  UNL     1      15.252  -5.422  -5.944  1.00  0.00    -0.029 C 
HETATM    6  C9  UNL     1      13.819  -4.878  -5.741  1.00  0.00     0.016 C 
HETATM    7  C10 UNL     1      15.598  -6.047  -4.688  1.00  0.00     0.037 C 
HETATM    8  C11 UNL     1      16.926  -6.065  -4.093  1.00  0.00     0.160 C 
HETATM    9  C12 UNL     1      16.772  -7.330  -3.196  1.00  0.00     0.107 C 
HETATM   10  C13 UNL     1      18.137  -7.594  -2.673  1.00  0.00     0.051 C 
HETATM   11  C14 UNL     1      16.290  -8.255  -4.246  1.00  0.00     0.177 C 
HETATM   12  C18 UNL     1      15.130  -7.478  -4.874  1.00  0.00    -0.007 C 
HETATM   13  C19 UNL     1      13.825  -7.792  -4.215  1.00  0.00     0.018 C 
HETATM   14  C20 UNL     1      14.996  -7.707  -6.345  1.00  0.00     0.023 C 
HETATM   15  C21 UNL     1      15.299  -6.437  -7.080  1.00  0.00    -0.028 C 
HETATM   16  C22 UNL     1      16.608  -6.552  -7.761  1.00  0.00     0.016 C 
ENDROOT
BRANCH  11  17
HETATM   17  O3  UNL     1      16.004  -9.551  -3.942  1.00  0.00    -0.312 OA
BRANCH  17  18
HETATM   18  C15 UNL     1      16.437 -10.713  -4.479  1.00  0.00     0.258 C 
HETATM   19  O4  UNL     1      16.183 -11.727  -3.809  1.00  0.00    -0.265 OA
BRANCH  18  20
HETATM   20  C16 UNL     1      17.161 -10.867  -5.757  1.00  0.00     0.106 C 
HETATM   21  C17 UNL     1      17.962 -12.167  -5.776  1.00  0.00     0.015 C 
ENDBRANCH  18  20
ENDBRANCH  17  18
ENDBRANCH  11  17
BRANCH   9  22
HETATM   22  O2  UNL     1      15.846  -6.945  -2.264  1.00  0.00    -0.385 OA
ATOM     23  H2  UNL     1      15.018  -7.175  -2.668  1.00  0.00     0.210 HD
ENDBRANCH   9  22
BRANCH   8  24
HETATM   24  O1  UNL     1      18.053  -6.247  -4.778  1.00  0.00    -0.392 OA
ATOM     25  H1  UNL     1      18.416  -5.616  -5.388  1.00  0.00     0.210 HD
ENDBRANCH   8  24
BRANCH   1  26
HETATM   26  C2  UNL     1      13.984  -6.920  -9.191  1.00  0.00    -0.088 C 
HETATM   27  C1  UNL     1      13.597  -8.162  -9.130  1.00  0.00     0.014 C 
HETATM   28  C3  UNL     1      14.094  -6.379 -10.619  1.00  0.00     0.043 C 
ENDBRANCH   1  26
TORSDOF 6
ENDMDL
MODEL 5
REMARK VINA RESULT: -6.162740414      2.071      4.044
REMARK  6 active torsions:
REMARK  status: ('A' for Active; 'I' for Inactive)
REMARK    1  A    between atoms: C2_2  and  C4_4 
REMARK    2  A    between atoms: C11_11  and  O1_12 
REMARK    3  A    between atoms: C12_14  and  O2_16 
REMARK    4  A    between atoms: C14_18  and  O3_19 
REMARK    5  A    between atoms: O3_19  and  C15_20 
REMARK    6  A    between atoms: C15_20  and  C16_22 
ROOT
HETATM    1  C4  UNL     1      16.915  -9.980  -4.436  1.00  0.00     0.022 C 
HETATM    2  C5  UNL     1      16.718 -10.017  -2.924  1.00  0.00     0.010 C 
HETATM    3  C6  UNL     1      16.309  -8.800  -2.241  1.00  0.00     0.001 C 
HETATM    4  C7  UNL     1      16.165  -7.527  -2.984  1.00  0.00     0.010 C 
HETATM    5  C8  UNL     1      16.619  -7.592  -4.394  1.00  0.00    -0.029 C 
HETATM    6  C9  UNL     1      18.159  -7.658  -4.279  1.00  0.00     0.016 C 
HETATM    7  C10 UNL     1      16.356  -6.494  -5.296  1.00  0.00     0.037 C 
HETATM    8  C11 UNL     1      15.225  -5.582  -5.207  1.00  0.00     0.160 C 
HETATM    9  C12 UNL     1      15.172  -5.118  -6.693  1.00  0.00     0.107 C 
HETATM   10  C13 UNL     1      13.919  -4.326  -6.799  1.00  0.00     0.051 C 
HETATM   11  C14 UNL     1      15.143  -6.460  -7.315  1.00  0.00     0.177 C 
HETATM   12  C18 UNL     1      16.334  -7.162  -6.657  1.00  0.00    -0.007 C 
HETATM   13  C19 UNL     1      17.591  -6.991  -7.450  1.00  0.00     0.018 C 
HETATM   14  C20 UNL     1      16.105  -8.621  -6.425  1.00  0.00     0.023 C 
HETATM   15  C21 UNL     1      16.053  -8.893  -4.952  1.00  0.00    -0.028 C 
HETATM   16  C22 UNL     1      14.661  -9.193  -4.548  1.00  0.00     0.016 C 
ENDROOT
BRANCH  11  17
HETATM   17  O3  UNL     1      15.087  -6.591  -8.668  1.00  0.00    -0.312 OA
BRANCH  17  18
HETATM   18  C15 UNL     1      14.068  -6.910  -9.496  1.00  0.00     0.258 C 
HETATM   19  O4  UNL     1      13.545  -5.946 -10.080  1.00  0.00    -0.265 OA
BRANCH  18  20
HETATM   20  C16 UNL     1      13.545  -8.266  -9.754  1.00  0.00     0.106 C 
HETATM   21  C17 UNL     1      14.665  -9.210 -10.186  1.00  0.00     0.015 C 
ENDBRANCH  18  20
ENDBRANCH  17  18
ENDBRANCH  11  17
BRANCH   9  22
HETATM   22  O2  UNL     1      16.333  -4.410  -6.845  1.00  0.00    -0.385 OA
ATOM     23  H2  UNL     1      16.335  -4.187  -7.769  1.00  0.00     0.210 HD
ENDBRANCH   9  22
BRANCH   8  24
HETATM   24  O1  UNL     1      13.984  -5.954  -4.902  1.00  0.00    -0.392 OA
ATOM     25  H1  UNL     1      13.350  -6.272  -5.535  1.00  0.00     0.210 HD
ENDBRANCH   8  24
BRANCH   1  26
HETATM   26  C2  UNL     1      16.727 -11.334  -5.013  1.00  0.00    -0.088 C 
HETATM   27  C1  UNL     1      15.696 -12.127  -4.931  1.00  0.00     0.014 C 
HETATM   28  C3  UNL     1      17.881 -11.908  -5.840  1.00  0.00     0.043 C 
ENDBRANCH   1  26
TORSDOF 6
ENDMDL
