MODEL 1
REMARK VINA RESULT: -7.337331099      0.000      0.000
REMARK  4 active torsions:
REMARK  status: ('A' for Active; 'I' for Inactive)
REMARK       I    between atoms: C2_2  and  N1_4 
REMARK    1  A    between atoms: C6_8  and  C7_9 
REMARK       I    between atoms: C7_9  and  N2_11 
REMARK    2  A    between atoms: N2_11  and  N3_13 
REMARK       I    between atoms: N3_13  and  C8_15 
REMARK       I    between atoms: C8_15  and  N5_19 
REMARK    3  A    between atoms: N5_19  and  N6_21 
REMARK    4  A    between atoms: C9_23  and  C10_24 
ROOT
HETATM    1  N3  UNL     1       9.850  -5.604  17.997  1.00  0.00    -0.129 N 
ATOM      2  H3  UNL     1      10.092  -4.764  17.472  1.00  0.00     0.205 HD
HETATM    3  C8  UNL     1       8.866  -6.481  17.445  1.00  0.00     0.705 C 
HETATM    4  N4  UNL     1       7.707  -6.482  17.984  1.00  0.00    -0.232 N 
ATOM      5  H41 UNL     1       7.005  -7.108  17.590  1.00  0.00     0.174 HD
ATOM      6  H42 UNL     1       7.516  -5.875  18.781  1.00  0.00     0.174 HD
HETATM    7  N5  UNL     1       9.129  -7.322  16.342  1.00  0.00    -0.132 N 
ATOM      8  H5  UNL     1       9.987  -7.194  15.806  1.00  0.00     0.205 HD
ENDROOT
BRANCH   1   9
HETATM    9  N2  UNL     1      10.499  -5.828  19.207  1.00  0.00    -0.254 N 
HETATM   10  C7  UNL     1      11.265  -6.972  19.398  1.00  0.00     0.259 C 
HETATM   11  O2  UNL     1      11.368  -7.811  18.435  1.00  0.00    -0.269 OA
ATOM     12  H2  UNL     1      10.413  -5.146  19.961  1.00  0.00     0.190 HD
BRANCH  10  13
HETATM   13  C6  UNL     1      12.011  -7.367  20.623  1.00  0.00     0.181 C 
HETATM   14  N1  UNL     1      13.306  -7.889  20.415  1.00  0.00    -0.339 N 
HETATM   15  C2  UNL     1      14.389  -7.271  19.687  1.00  0.00     0.216 C 
HETATM   16  C3  UNL     1      13.464  -9.160  21.048  1.00  0.00     0.127 C 
HETATM   17  C1  UNL     1      15.700  -7.946  19.565  1.00  0.00     0.117 C 
HETATM   18  O1  UNL     1      14.204  -6.168  19.168  1.00  0.00    -0.274 OA
HETATM   19  C4  UNL     1      12.085  -9.578  21.429  1.00  0.00     0.022 C 
HETATM   20  C5  UNL     1      11.252  -8.339  21.449  1.00  0.00     0.037 C 
ENDBRANCH  10  13
ENDBRANCH   1   9
BRANCH   7  21
HETATM   21  N6  UNL     1       8.232  -8.325  15.975  1.00  0.00    -0.299 N 
HETATM   22  C9  UNL     1       8.542  -9.345  15.285  1.00  0.00     0.112 C 
ATOM     23  H6  UNL     1       7.263  -8.233  16.281  1.00  0.00     0.186 HD
BRANCH  22  24
HETATM   24  C10 UNL     1       7.508 -10.344  14.955  1.00  0.00     0.163 C 
HETATM   25  C11 UNL     1       8.167 -11.554  14.299  1.00  0.00     0.063 C 
HETATM   26  C12 UNL     1       7.986 -10.652  13.099  1.00  0.00     0.171 C 
HETATM   27  O3  UNL     1       6.866 -10.112  13.741  1.00  0.00    -0.380 OA
ENDBRANCH  22  24
ENDBRANCH   7  21
TORSDOF 4
ENDMDL
MODEL 2
REMARK VINA RESULT: -7.115800775      2.224      8.305
REMARK  4 active torsions:
REMARK  status: ('A' for Active; 'I' for Inactive)
REMARK       I    between atoms: C2_2  and  N1_4 
REMARK    1  A    between atoms: C6_8  and  C7_9 
REMARK       I    between atoms: C7_9  and  N2_11 
REMARK    2  A    between atoms: N2_11  and  N3_13 
REMARK       I    between atoms: N3_13  and  C8_15 
REMARK       I    between atoms: C8_15  and  N5_19 
REMARK    3  A    between atoms: N5_19  and  N6_21 
REMARK    4  A    between atoms: C9_23  and  C10_24 
ROOT
HETATM    1  N3  UNL     1       8.601  -8.574  15.893  1.00  0.00    -0.129 N 
ATOM      2  H3  UNL     1       8.587  -7.763  15.273  1.00  0.00     0.205 HD
HETATM    3  C8  UNL     1       9.289  -8.453  17.140  1.00  0.00     0.705 C 
HETATM    4  N4  UNL     1      10.417  -9.045  17.252  1.00  0.00    -0.232 N 
ATOM      5  H41 UNL     1      10.907  -8.959  18.142  1.00  0.00     0.174 HD
ATOM      6  H42 UNL     1      10.790  -9.580  16.468  1.00  0.00     0.174 HD
HETATM    7  N5  UNL     1       8.773  -7.712  18.225  1.00  0.00    -0.132 N 
ATOM      8  H5  UNL     1       7.970  -7.101  18.080  1.00  0.00     0.205 HD
ENDROOT
BRANCH   1   9
HETATM    9  N2  UNL     1       7.949  -9.728  15.473  1.00  0.00    -0.254 N 
HETATM   10  C7  UNL     1       8.172 -10.244  14.202  1.00  0.00     0.259 C 
HETATM   11  O2  UNL     1       8.997  -9.640  13.429  1.00  0.00    -0.269 OA
ATOM     12  H2  UNL     1       7.301 -10.201  16.103  1.00  0.00     0.190 HD
BRANCH  10  13
HETATM   13  C6  UNL     1       7.555 -11.454  13.596  1.00  0.00     0.181 C 
HETATM   14  N1  UNL     1       6.158 -11.400  13.396  1.00  0.00    -0.339 N 
HETATM   15  C2  UNL     1       5.418 -10.390  12.676  1.00  0.00     0.216 C 
HETATM   16  C3  UNL     1       5.502 -12.518  13.996  1.00  0.00     0.127 C 
HETATM   17  C1  UNL     1       3.947 -10.480  12.547  1.00  0.00     0.117 C 
HETATM   18  O1  UNL     1       6.033  -9.450  12.168  1.00  0.00    -0.274 OA
HETATM   19  C4  UNL     1       6.532 -13.152  14.867  1.00  0.00     0.022 C 
HETATM   20  C5  UNL     1       7.860 -12.683  14.370  1.00  0.00     0.037 C 
ENDBRANCH  10  13
ENDBRANCH   1   9
BRANCH   7  21
HETATM   21  N6  UNL     1       9.348  -7.803  19.493  1.00  0.00    -0.299 N 
HETATM   22  C9  UNL     1      10.473  -7.305  19.807  1.00  0.00     0.112 C 
ATOM     23  H6  UNL     1       8.830  -8.303  20.216  1.00  0.00     0.186 HD
BRANCH  22  24
HETATM   24  C10 UNL     1      10.983  -7.464  21.181  1.00  0.00     0.163 C 
HETATM   25  C11 UNL     1      12.505  -7.576  21.145  1.00  0.00     0.063 C 
HETATM   26  C12 UNL     1      12.116  -9.015  20.892  1.00  0.00     0.171 C 
HETATM   27  O3  UNL     1      10.959  -8.779  21.643  1.00  0.00    -0.380 OA
ENDBRANCH  22  24
ENDBRANCH   7  21
TORSDOF 4
ENDMDL
MODEL 3
REMARK VINA RESULT: -6.932282768      1.372      1.531
REMARK  4 active torsions:
REMARK  status: ('A' for Active; 'I' for Inactive)
REMARK       I    between atoms: C2_2  and  N1_4 
REMARK    1  A    between atoms: C6_8  and  C7_9 
REMARK       I    between atoms: C7_9  and  N2_11 
REMARK    2  A    between atoms: N2_11  and  N3_13 
REMARK       I    between atoms: N3_13  and  C8_15 
REMARK       I    between atoms: C8_15  and  N5_19 
REMARK    3  A    between atoms: N5_19  and  N6_21 
REMARK    4  A    between atoms: C9_23  and  C10_24 
ROOT
HETATM    1  N3  UNL     1      10.582  -7.515  16.794  1.00  0.00    -0.129 N 
ATOM      2  H3  UNL     1      10.985  -6.748  16.255  1.00  0.00     0.205 HD
HETATM    3  C8  UNL     1       9.399  -8.140  16.292  1.00  0.00     0.705 C 
HETATM    4  N4  UNL     1       8.296  -7.881  16.884  1.00  0.00    -0.232 N 
ATOM      5  H41 UNL     1       7.452  -8.327  16.526  1.00  0.00     0.174 HD
ATOM      6  H42 UNL     1       8.287  -7.251  17.687  1.00  0.00     0.174 HD
HETATM    7  N5  UNL     1       9.411  -9.010  15.180  1.00  0.00    -0.132 N 
ATOM      8  H5  UNL     1      10.250  -9.078  14.604  1.00  0.00     0.205 HD
ENDROOT
BRANCH   1   9
HETATM    9  N2  UNL     1      11.218  -7.890  17.973  1.00  0.00    -0.254 N 
HETATM   10  C7  UNL     1      11.200  -7.054  19.083  1.00  0.00     0.259 C 
HETATM   11  O2  UNL     1      10.579  -5.937  19.002  1.00  0.00    -0.269 OA
ATOM     12  H2  UNL     1      11.702  -8.787  18.023  1.00  0.00     0.190 HD
BRANCH  10  13
HETATM   13  C6  UNL     1      11.833  -7.296  20.407  1.00  0.00     0.181 C 
HETATM   14  N1  UNL     1      13.111  -7.898  20.380  1.00  0.00    -0.339 N 
HETATM   15  C2  UNL     1      14.275  -7.442  19.658  1.00  0.00     0.216 C 
HETATM   16  C3  UNL     1      13.154  -9.068  21.199  1.00  0.00     0.127 C 
HETATM   17  C1  UNL     1      15.553  -8.183  19.739  1.00  0.00     0.117 C 
HETATM   18  O1  UNL     1      14.188  -6.420  18.973  1.00  0.00    -0.274 OA
HETATM   19  C4  UNL     1      11.730  -9.366  21.525  1.00  0.00     0.022 C 
HETATM   20  C5  UNL     1      10.966  -8.103  21.301  1.00  0.00     0.037 C 
ENDBRANCH  10  13
ENDBRANCH   1   9
BRANCH   7  21
HETATM   21  N6  UNL     1       8.292  -9.780  14.859  1.00  0.00    -0.299 N 
HETATM   22  C9  UNL     1       7.972 -10.120  13.678  1.00  0.00     0.112 C 
ATOM     23  H6  UNL     1       7.692 -10.089  15.623  1.00  0.00     0.186 HD
BRANCH  22  24
HETATM   24  C10 UNL     1       6.765 -10.936  13.456  1.00  0.00     0.163 C 
HETATM   25  C11 UNL     1       7.134 -12.415  13.534  1.00  0.00     0.063 C 
HETATM   26  C12 UNL     1       7.464 -12.122  12.087  1.00  0.00     0.171 C 
HETATM   27  O3  UNL     1       6.463 -11.144  12.112  1.00  0.00    -0.380 OA
ENDBRANCH  22  24
ENDBRANCH   7  21
TORSDOF 4
ENDMDL
MODEL 4
REMARK VINA RESULT: -6.644555572      2.344      8.371
REMARK  4 active torsions:
REMARK  status: ('A' for Active; 'I' for Inactive)
REMARK       I    between atoms: C2_2  and  N1_4 
REMARK    1  A    between atoms: C6_8  and  C7_9 
REMARK       I    between atoms: C7_9  and  N2_11 
REMARK    2  A    between atoms: N2_11  and  N3_13 
REMARK       I    between atoms: N3_13  and  C8_15 
REMARK       I    between atoms: C8_15  and  N5_19 
REMARK    3  A    between atoms: N5_19  and  N6_21 
REMARK    4  A    between atoms: C9_23  and  C10_24 
ROOT
HETATM    1  N3  UNL     1       9.193  -8.340  14.109  1.00  0.00    -0.129 N 
ATOM      2  H3  UNL     1       8.934  -7.420  13.754  1.00  0.00     0.205 HD
HETATM    3  C8  UNL     1      10.008  -8.403  15.282  1.00  0.00     0.705 C 
HETATM    4  N4  UNL     1      11.235  -8.728  15.132  1.00  0.00    -0.232 N 
ATOM      5  H41 UNL     1      11.816  -8.773  15.968  1.00  0.00     0.174 HD
ATOM      6  H42 UNL     1      11.596  -8.936  14.200  1.00  0.00     0.174 HD
HETATM    7  N5  UNL     1       9.510  -8.116  16.571  1.00  0.00    -0.132 N 
ATOM      8  H5  UNL     1       8.589  -7.689  16.670  1.00  0.00     0.205 HD
ENDROOT
BRANCH   1   9
HETATM    9  N2  UNL     1       8.731  -9.459  13.424  1.00  0.00    -0.254 N 
HETATM   10  C7  UNL     1       7.969 -10.422  14.074  1.00  0.00     0.259 C 
HETATM   11  O2  UNL     1       7.692 -10.255  15.313  1.00  0.00    -0.269 OA
ATOM     12  H2  UNL     1       8.953  -9.573  12.435  1.00  0.00     0.190 HD
BRANCH  10  13
HETATM   13  C6  UNL     1       7.408 -11.673  13.495  1.00  0.00     0.181 C 
HETATM   14  N1  UNL     1       6.010 -11.688  13.296  1.00  0.00    -0.339 N 
HETATM   15  C2  UNL     1       5.224 -10.731  12.554  1.00  0.00     0.216 C 
HETATM   16  C3  UNL     1       5.406 -12.822  13.921  1.00  0.00     0.127 C 
HETATM   17  C1  UNL     1       3.759 -10.891  12.428  1.00  0.00     0.117 C 
HETATM   18  O1  UNL     1       5.795  -9.775  12.024  1.00  0.00    -0.274 OA
HETATM   19  C4  UNL     1       6.465 -13.388  14.806  1.00  0.00     0.022 C 
HETATM   20  C5  UNL     1       7.770 -12.869  14.297  1.00  0.00     0.037 C 
ENDBRANCH  10  13
ENDBRANCH   1   9
BRANCH   7  21
HETATM   21  N6  UNL     1      10.259  -8.407  17.711  1.00  0.00    -0.299 N 
HETATM   22  C9  UNL     1      10.027  -7.925  18.863  1.00  0.00     0.112 C 
ATOM     23  H6  UNL     1      11.045  -9.049  17.612  1.00  0.00     0.186 HD
BRANCH  22  24
HETATM   24  C10 UNL     1      10.888  -8.305  19.998  1.00  0.00     0.163 C 
HETATM   25  C11 UNL     1      10.916  -7.164  21.013  1.00  0.00     0.063 C 
HETATM   26  C12 UNL     1      12.002  -6.715  20.061  1.00  0.00     0.171 C 
HETATM   27  O3  UNL     1      12.244  -8.065  19.784  1.00  0.00    -0.380 OA
ENDBRANCH  22  24
ENDBRANCH   7  21
TORSDOF 4
ENDMDL
MODEL 5
REMARK VINA RESULT: -6.273510732      2.406      4.228
REMARK  4 active torsions:
REMARK  status: ('A' for Active; 'I' for Inactive)
REMARK       I    between atoms: C2_2  and  N1_4 
REMARK    1  A    between atoms: C6_8  and  C7_9 
REMARK       I    between atoms: C7_9  and  N2_11 
REMARK    2  A    between atoms: N2_11  and  N3_13 
REMARK       I    between atoms: N3_13  and  C8_15 
REMARK       I    between atoms: C8_15  and  N5_19 
REMARK    3  A    between atoms: N5_19  and  N6_21 
REMARK    4  A    between atoms: C9_23  and  C10_24 
ROOT
HETATM    1  N3  UNL     1      10.151  -9.003  15.069  1.00  0.00    -0.129 N 
ATOM      2  H3  UNL     1      11.044  -9.495  15.038  1.00  0.00     0.205 HD
HETATM    3  C8  UNL     1       9.031  -9.602  14.412  1.00  0.00     0.705 C 
HETATM    4  N4  UNL     1       8.647  -9.084  13.308  1.00  0.00    -0.232 N 
ATOM      5  H41 UNL     1       7.848  -9.512  12.840  1.00  0.00     0.174 HD
ATOM      6  H42 UNL     1       9.134  -8.271  12.932  1.00  0.00     0.174 HD
HETATM    7  N5  UNL     1       8.358 -10.729  14.932  1.00  0.00    -0.132 N 
ATOM      8  H5  UNL     1       8.768 -11.245  15.710  1.00  0.00     0.205 HD
ENDROOT
BRANCH   1   9
HETATM    9  N2  UNL     1      10.096  -7.791  15.748  1.00  0.00    -0.254 N 
HETATM   10  C7  UNL     1       9.531  -7.715  17.016  1.00  0.00     0.259 C 
HETATM   11  O2  UNL     1       9.071  -8.786  17.549  1.00  0.00    -0.269 OA
ATOM     12  H2  UNL     1      10.473  -6.949  15.312  1.00  0.00     0.190 HD
BRANCH  10  13
HETATM   13  C6  UNL     1       9.384  -6.506  17.870  1.00  0.00     0.181 C 
HETATM   14  N1  UNL     1       9.787  -6.648  19.216  1.00  0.00    -0.339 N 
HETATM   15  C2  UNL     1      11.069  -7.106  19.699  1.00  0.00     0.216 C 
HETATM   16  C3  UNL     1       8.750  -6.256  20.115  1.00  0.00     0.127 C 
HETATM   17  C1  UNL     1      11.343  -7.192  21.150  1.00  0.00     0.117 C 
HETATM   18  O1  UNL     1      11.935  -7.423  18.880  1.00  0.00    -0.274 OA
HETATM   19  C4  UNL     1       7.527  -6.136  19.270  1.00  0.00     0.022 C 
HETATM   20  C5  UNL     1       7.996  -5.982  17.860  1.00  0.00     0.037 C 
ENDBRANCH  10  13
ENDBRANCH   1   9
BRANCH   7  21
HETATM   21  N6  UNL     1       7.139 -11.145  14.396  1.00  0.00    -0.299 N 
HETATM   22  C9  UNL     1       6.704 -12.338  14.448  1.00  0.00     0.112 C 
ATOM     23  H6  UNL     1       6.559 -10.447  13.932  1.00  0.00     0.186 HD
BRANCH  22  24
HETATM   24  C10 UNL     1       5.399 -12.665  13.846  1.00  0.00     0.163 C 
HETATM   25  C11 UNL     1       4.581 -13.494  14.833  1.00  0.00     0.063 C 
HETATM   26  C12 UNL     1       5.401 -14.579  14.173  1.00  0.00     0.171 C 
HETATM   27  O3  UNL     1       5.423 -13.786  13.020  1.00  0.00    -0.380 OA
ENDBRANCH  22  24
ENDBRANCH   7  21
TORSDOF 4
ENDMDL
