MODEL 1
REMARK VINA RESULT: -7.017575679      0.000      0.000
REMARK  4 active torsions:
REMARK  status: ('A' for Active; 'I' for Inactive)
REMARK       I    between atoms: N1_2  and  C2_4 
REMARK       I    between atoms: C2_4  and  N2_6 
REMARK    1  A    between atoms: N2_6  and  N3_8 
REMARK       I    between atoms: N3_8  and  C3_10 
REMARK    2  A    between atoms: C3_10  and  C4_12 
REMARK    3  A    between atoms: C9_17  and  N4_18 
REMARK    4  A    between atoms: N4_18  and  S1_20 
ROOT
HETATM    1  C4  UNL     1       9.103  -7.610  17.990  1.00  0.00     0.060 A 
HETATM    2  C5  UNL     1       8.035  -6.717  17.875  1.00  0.00     0.019 A 
HETATM    3  C6  UNL     1       7.656  -5.886  18.927  1.00  0.00     0.001 A 
HETATM    4  C7  UNL     1       8.323  -5.914  20.125  1.00  0.00     0.002 A 
HETATM    5  C8  UNL     1       9.378  -6.792  20.242  1.00  0.00     0.031 A 
HETATM    6  C9  UNL     1       9.766  -7.632  19.189  1.00  0.00     0.058 A 
ENDROOT
BRANCH   1   7
HETATM    7  C3  UNL     1       9.471  -8.514  16.923  1.00  0.00     0.272 C 
HETATM    8  N3  UNL     1       8.450  -9.158  16.125  1.00  0.00    -0.262 N 
ATOM      9  H3  UNL     1       7.465  -8.972  16.313  1.00  0.00     0.190 HD
HETATM   10  O2  UNL     1      10.655  -8.808  16.605  1.00  0.00    -0.266 OA
BRANCH   8  11
HETATM   11  N2  UNL     1       8.813 -10.042  15.087  1.00  0.00    -0.249 N 
HETATM   12  C2  UNL     1       7.804 -10.518  14.216  1.00  0.00     0.334 C 
HETATM   13  N1  UNL     1       8.180 -11.430  13.161  1.00  0.00    -0.346 N 
HETATM   14  O1  UNL     1       6.634 -10.162  14.356  1.00  0.00    -0.246 OA
HETATM   15  C1  UNL     1       7.146 -11.929  12.254  1.00  0.00     0.151 C 
ATOM     16  H1  UNL     1       9.150 -11.722  13.051  1.00  0.00     0.163 HD
ATOM     17  H2  UNL     1       9.783 -10.333  14.968  1.00  0.00     0.192 HD
ENDBRANCH   8  11
ENDBRANCH   1   7
BRANCH   6  18
HETATM   18  N4  UNL     1      10.891  -8.474  19.375  1.00  0.00    -0.284 N 
ATOM     19  H4  UNL     1      11.215  -9.051  18.599  1.00  0.00     0.178 HD
BRANCH  18  20
HETATM   20  S1  UNL     1      11.721  -8.543  20.879  1.00  0.00     0.227 S 
HETATM   21  C10 UNL     1      13.388  -9.183  20.680  1.00  0.00     0.186 C 
HETATM   22  O3  UNL     1      11.048  -9.388  21.911  1.00  0.00    -0.206 OA
HETATM   23  O4  UNL     1      11.861  -7.114  21.419  1.00  0.00    -0.206 OA
ENDBRANCH  18  20
ENDBRANCH   6  18
TORSDOF 4
ENDMDL
MODEL 2
REMARK VINA RESULT: -6.527664456      2.693      6.405
REMARK  4 active torsions:
REMARK  status: ('A' for Active; 'I' for Inactive)
REMARK       I    between atoms: N1_2  and  C2_4 
REMARK       I    between atoms: C2_4  and  N2_6 
REMARK    1  A    between atoms: N2_6  and  N3_8 
REMARK       I    between atoms: N3_8  and  C3_10 
REMARK    2  A    between atoms: C3_10  and  C4_12 
REMARK    3  A    between atoms: C9_17  and  N4_18 
REMARK    4  A    between atoms: N4_18  and  S1_20 
ROOT
HETATM    1  C4  UNL     1       9.564  -7.168  19.539  1.00  0.00     0.060 A 
HETATM    2  C5  UNL     1       8.645  -6.329  20.175  1.00  0.00     0.019 A 
HETATM    3  C6  UNL     1       7.582  -5.748  19.485  1.00  0.00     0.001 A 
HETATM    4  C7  UNL     1       7.398  -5.981  18.146  1.00  0.00     0.002 A 
HETATM    5  C8  UNL     1       8.301  -6.808  17.517  1.00  0.00     0.031 A 
HETATM    6  C9  UNL     1       9.372  -7.397  18.202  1.00  0.00     0.058 A 
ENDROOT
BRANCH   1   7
HETATM    7  C3  UNL     1      10.699  -7.734  20.233  1.00  0.00     0.272 C 
HETATM    8  N3  UNL     1      11.847  -6.910  20.552  1.00  0.00    -0.262 N 
ATOM      9  H3  UNL     1      11.854  -5.924  20.288  1.00  0.00     0.190 HD
HETATM   10  O2  UNL     1      10.790  -8.935  20.607  1.00  0.00    -0.266 OA
BRANCH   8  11
HETATM   11  N2  UNL     1      12.955  -7.467  21.225  1.00  0.00    -0.249 N 
HETATM   12  C2  UNL     1      14.096  -7.829  20.471  1.00  0.00     0.334 C 
HETATM   13  N1  UNL     1      15.223  -8.407  21.164  1.00  0.00    -0.346 N 
HETATM   14  O1  UNL     1      14.124  -7.657  19.252  1.00  0.00    -0.246 OA
HETATM   15  C1  UNL     1      16.410  -8.787  20.395  1.00  0.00     0.151 C 
ATOM     16  H1  UNL     1      15.193  -8.548  22.173  1.00  0.00     0.163 HD
ATOM     17  H2  UNL     1      12.933  -7.605  22.235  1.00  0.00     0.192 HD
ENDBRANCH   8  11
ENDBRANCH   1   7
BRANCH   6  18
HETATM   18  N4  UNL     1      10.231  -8.274  17.491  1.00  0.00    -0.284 N 
ATOM     19  H4  UNL     1      10.971  -8.763  17.994  1.00  0.00     0.178 HD
BRANCH  18  20
HETATM   20  S1  UNL     1      10.050  -8.530  15.801  1.00  0.00     0.227 S 
HETATM   21  C10 UNL     1       8.810  -9.783  15.456  1.00  0.00     0.186 C 
HETATM   22  O3  UNL     1      11.306  -8.954  15.109  1.00  0.00    -0.206 OA
HETATM   23  O4  UNL     1       9.547  -7.227  15.166  1.00  0.00    -0.206 OA
ENDBRANCH  18  20
ENDBRANCH   6  18
TORSDOF 4
ENDMDL
MODEL 3
REMARK VINA RESULT: -6.322455259      3.598      8.182
REMARK  4 active torsions:
REMARK  status: ('A' for Active; 'I' for Inactive)
REMARK       I    between atoms: N1_2  and  C2_4 
REMARK       I    between atoms: C2_4  and  N2_6 
REMARK    1  A    between atoms: N2_6  and  N3_8 
REMARK       I    between atoms: N3_8  and  C3_10 
REMARK    2  A    between atoms: C3_10  and  C4_12 
REMARK    3  A    between atoms: C9_17  and  N4_18 
REMARK    4  A    between atoms: N4_18  and  S1_20 
ROOT
HETATM    1  C4  UNL     1       7.824 -10.933  14.063  1.00  0.00     0.060 A 
HETATM    2  C5  UNL     1       8.110 -12.107  14.766  1.00  0.00     0.019 A 
HETATM    3  C6  UNL     1       7.458 -13.306  14.487  1.00  0.00     0.001 A 
HETATM    4  C7  UNL     1       6.504 -13.380  13.504  1.00  0.00     0.002 A 
HETATM    5  C8  UNL     1       6.221 -12.226  12.808  1.00  0.00     0.031 A 
HETATM    6  C9  UNL     1       6.872 -11.015  13.082  1.00  0.00     0.058 A 
ENDROOT
BRANCH   1   7
HETATM    7  C3  UNL     1       8.457  -9.672  14.380  1.00  0.00     0.272 C 
HETATM    8  N3  UNL     1       8.466  -9.179  15.741  1.00  0.00    -0.262 N 
ATOM      9  H3  UNL     1       8.027  -9.726  16.482  1.00  0.00     0.190 HD
HETATM   10  O2  UNL     1       9.031  -8.924  13.542  1.00  0.00    -0.266 OA
BRANCH   8  11
HETATM   11  N2  UNL     1       9.080  -7.947  16.045  1.00  0.00    -0.249 N 
HETATM   12  C2  UNL     1       9.144  -7.534  17.398  1.00  0.00     0.334 C 
HETATM   13  N1  UNL     1       9.765  -6.267  17.702  1.00  0.00    -0.346 N 
HETATM   14  O1  UNL     1       8.677  -8.240  18.292  1.00  0.00    -0.246 OA
HETATM   15  C1  UNL     1       9.836  -5.829  19.097  1.00  0.00     0.151 C 
ATOM     16  H1  UNL     1      10.148  -5.686  16.957  1.00  0.00     0.163 HD
ATOM     17  H2  UNL     1       9.471  -7.364  15.305  1.00  0.00     0.192 HD
ENDBRANCH   8  11
ENDBRANCH   1   7
BRANCH   6  18
HETATM   18  N4  UNL     1       6.556  -9.882  12.289  1.00  0.00    -0.284 N 
ATOM     19  H4  UNL     1       7.310  -9.279  11.959  1.00  0.00     0.178 HD
BRANCH  18  20
HETATM   20  S1  UNL     1       4.932  -9.505  11.871  1.00  0.00     0.227 S 
HETATM   21  C10 UNL     1       3.892  -9.375  13.331  1.00  0.00     0.186 C 
HETATM   22  O3  UNL     1       4.287 -10.502  10.962  1.00  0.00    -0.206 OA
HETATM   23  O4  UNL     1       4.914  -8.129  11.195  1.00  0.00    -0.206 OA
ENDBRANCH  18  20
ENDBRANCH   6  18
TORSDOF 4
ENDMDL
MODEL 4
REMARK VINA RESULT: -6.262385948      1.133      1.136
REMARK  4 active torsions:
REMARK  status: ('A' for Active; 'I' for Inactive)
REMARK       I    between atoms: N1_2  and  C2_4 
REMARK       I    between atoms: C2_4  and  N2_6 
REMARK    1  A    between atoms: N2_6  and  N3_8 
REMARK       I    between atoms: N3_8  and  C3_10 
REMARK    2  A    between atoms: C3_10  and  C4_12 
REMARK    3  A    between atoms: C9_17  and  N4_18 
REMARK    4  A    between atoms: N4_18  and  S1_20 
ROOT
HETATM    1  C4  UNL     1       9.417  -7.416  18.311  1.00  0.00     0.060 A 
HETATM    2  C5  UNL     1       8.228  -6.699  18.462  1.00  0.00     0.019 A 
HETATM    3  C6  UNL     1       7.958  -5.956  19.610  1.00  0.00     0.001 A 
HETATM    4  C7  UNL     1       8.859  -5.902  20.643  1.00  0.00     0.002 A 
HETATM    5  C8  UNL     1      10.033  -6.607  20.498  1.00  0.00     0.031 A 
HETATM    6  C9  UNL     1      10.312  -7.356  19.347  1.00  0.00     0.058 A 
ENDROOT
BRANCH   1   7
HETATM    7  C3  UNL     1       9.684  -8.231  17.147  1.00  0.00     0.272 C 
HETATM    8  N3  UNL     1       9.282  -7.781  15.831  1.00  0.00    -0.262 N 
ATOM      9  H3  UNL     1       8.811  -6.882  15.723  1.00  0.00     0.190 HD
HETATM   10  O2  UNL     1      10.262  -9.352  17.169  1.00  0.00    -0.266 OA
BRANCH   8  11
HETATM   11  N2  UNL     1       9.540  -8.580  14.698  1.00  0.00    -0.249 N 
HETATM   12  C2  UNL     1       8.553  -9.505  14.280  1.00  0.00     0.334 C 
HETATM   13  N1  UNL     1       8.826 -10.327  13.126  1.00  0.00    -0.346 N 
HETATM   14  O1  UNL     1       7.489  -9.606  14.890  1.00  0.00    -0.246 OA
HETATM   15  C1  UNL     1       7.815 -11.289  12.684  1.00  0.00     0.151 C 
ATOM     16  H1  UNL     1       9.710 -10.240  12.625  1.00  0.00     0.163 HD
ATOM     17  H2  UNL     1      10.419  -8.493  14.190  1.00  0.00     0.192 HD
ENDBRANCH   8  11
ENDBRANCH   1   7
BRANCH   6  18
HETATM   18  N4  UNL     1      11.564  -8.016  19.256  1.00  0.00    -0.284 N 
ATOM     19  H4  UNL     1      11.827  -8.468  18.381  1.00  0.00     0.178 HD
BRANCH  18  20
HETATM   20  S1  UNL     1      12.648  -8.069  20.589  1.00  0.00     0.227 S 
HETATM   21  C10 UNL     1      14.274  -7.452  20.138  1.00  0.00     0.186 C 
HETATM   22  O3  UNL     1      12.843  -9.435  21.166  1.00  0.00    -0.206 OA
HETATM   23  O4  UNL     1      12.113  -7.138  21.684  1.00  0.00    -0.206 OA
ENDBRANCH  18  20
ENDBRANCH   6  18
TORSDOF 4
ENDMDL
MODEL 5
REMARK VINA RESULT: -5.862149927      6.348      8.289
REMARK  4 active torsions:
REMARK  status: ('A' for Active; 'I' for Inactive)
REMARK       I    between atoms: N1_2  and  C2_4 
REMARK       I    between atoms: C2_4  and  N2_6 
REMARK    1  A    between atoms: N2_6  and  N3_8 
REMARK       I    between atoms: N3_8  and  C3_10 
REMARK    2  A    between atoms: C3_10  and  C4_12 
REMARK    3  A    between atoms: C9_17  and  N4_18 
REMARK    4  A    between atoms: N4_18  and  S1_20 
ROOT
HETATM    1  C4  UNL     1       7.618 -11.874  14.234  1.00  0.00     0.060 A 
HETATM    2  C5  UNL     1       8.211 -11.055  15.199  1.00  0.00     0.019 A 
HETATM    3  C6  UNL     1       8.764  -9.819  14.873  1.00  0.00     0.001 A 
HETATM    4  C7  UNL     1       8.748  -9.356  13.581  1.00  0.00     0.002 A 
HETATM    5  C8  UNL     1       8.163 -10.160  12.628  1.00  0.00     0.031 A 
HETATM    6  C9  UNL     1       7.604 -11.405  12.947  1.00  0.00     0.058 A 
ENDROOT
BRANCH   1   7
HETATM    7  C3  UNL     1       7.087 -13.181  14.553  1.00  0.00     0.272 C 
HETATM    8  N3  UNL     1       5.867 -13.307  15.322  1.00  0.00    -0.262 N 
ATOM      9  H3  UNL     1       5.376 -12.470  15.638  1.00  0.00     0.190 HD
HETATM   10  O2  UNL     1       7.611 -14.275  14.208  1.00  0.00    -0.266 OA
BRANCH   8  11
HETATM   11  N2  UNL     1       5.354 -14.583  15.635  1.00  0.00    -0.249 N 
HETATM   12  C2  UNL     1       3.952 -14.747  15.736  1.00  0.00     0.334 C 
HETATM   13  N1  UNL     1       3.434 -16.053  16.066  1.00  0.00    -0.346 N 
HETATM   14  O1  UNL     1       3.194 -13.795  15.549  1.00  0.00    -0.246 OA
HETATM   15  C1  UNL     1       1.985 -16.235  16.175  1.00  0.00     0.151 C 
ATOM     16  H1  UNL     1       4.067 -16.837  16.221  1.00  0.00     0.163 HD
ATOM     17  H2  UNL     1       5.982 -15.373  15.785  1.00  0.00     0.192 HD
ENDBRANCH   8  11
ENDBRANCH   1   7
BRANCH   6  18
HETATM   18  N4  UNL     1       6.980 -12.151  11.916  1.00  0.00    -0.284 N 
ATOM     19  H4  UNL     1       7.558 -12.686  11.268  1.00  0.00     0.178 HD
BRANCH  18  20
HETATM   20  S1  UNL     1       5.270 -12.173  11.734  1.00  0.00     0.227 S 
HETATM   21  C10 UNL     1       4.518 -10.695  12.425  1.00  0.00     0.186 C 
HETATM   22  O3  UNL     1       4.602 -13.346  12.377  1.00  0.00    -0.206 OA
HETATM   23  O4  UNL     1       4.944 -12.173  10.236  1.00  0.00    -0.206 OA
ENDBRANCH  18  20
ENDBRANCH   6  18
TORSDOF 4
ENDMDL
