MODEL 1
REMARK VINA RESULT: -5.746330499      0.000      0.000
REMARK  6 active torsions:
REMARK  status: ('A' for Active; 'I' for Inactive)
REMARK    1  A    between atoms: C2_2  and  N1_4 
REMARK    2  A    between atoms: C2_2  and  C4_8 
REMARK       I    between atoms: C4_8  and  N2_10 
REMARK    3  A    between atoms: N2_10  and  C5_12 
REMARK    4  A    between atoms: C7_14  and  N3_15 
REMARK    5  A    between atoms: N3_15  and  S1_17 
REMARK    6  A    between atoms: C12_23  and  N4_24 
ROOT
HETATM    1  C5  UNL     1      12.037  45.972 -36.626  1.00  0.00     0.116 C 
HETATM    2  C6  UNL     1      13.526  46.034 -36.891  1.00  0.00     0.052 C 
HETATM    3  C7  UNL     1      13.966  45.128 -38.008  1.00  0.00     0.091 C 
HETATM    4  C10 UNL     1      12.746  44.504 -38.613  1.00  0.00     0.028 C 
HETATM    5  C11 UNL     1      11.961  43.724 -37.578  1.00  0.00     0.037 C 
HETATM    6  C12 UNL     1      11.573  44.549 -36.398  1.00  0.00     0.206 C 
ENDROOT
BRANCH   1   7
HETATM    7  N2  UNL     1      11.781  46.810 -35.486  1.00  0.00    -0.352 N 
HETATM    8  C4  UNL     1      10.629  47.620 -35.391  1.00  0.00     0.253 C 
HETATM    9  O1  UNL     1       9.811  47.590 -36.354  1.00  0.00    -0.271 OA
ATOM     10  H2  UNL     1      12.454  46.819 -34.719  1.00  0.00     0.163 HD
BRANCH   8  11
HETATM   11  C2  UNL     1      10.324  48.491 -34.249  1.00  0.00     0.196 C 
HETATM   12  C1  UNL     1       9.906  47.691 -33.019  1.00  0.00     0.056 C 
HETATM   13  C3  UNL     1      11.499  49.342 -33.827  1.00  0.00     0.056 C 
BRANCH  11  14
HETATM   14  N1  UNL     1       9.233  49.384 -34.561  1.00  0.00    -0.062 N 
ATOM     15  H13 UNL     1       8.804  49.797 -33.733  1.00  0.00     0.275 HD
ATOM     16  H12 UNL     1       9.539  50.255 -34.995  1.00  0.00     0.275 HD
ATOM     17  H11 UNL     1       8.574  48.860 -35.135  1.00  0.00     0.275 HD
ENDBRANCH  11  14
ENDBRANCH   8  11
ENDBRANCH   1   7
BRANCH   6  18
HETATM   18  N4  UNL     1      12.044  44.070 -35.140  1.00  0.00    -0.073 N 
ATOM     19  H43 UNL     1      12.918  44.519 -34.865  1.00  0.00     0.274 HD
ATOM     20  H42 UNL     1      11.460  44.391 -34.368  1.00  0.00     0.274 HD
ATOM     21  H41 UNL     1      12.129  43.054 -35.157  1.00  0.00     0.274 HD
ENDBRANCH   6  18
BRANCH   3  22
HETATM   22  N3  UNL     1      14.937  44.231 -37.511  1.00  0.00    -0.347 N 
ATOM     23  H3  UNL     1      14.718  43.672 -36.686  1.00  0.00     0.169 HD
BRANCH  22  24
HETATM   24  S1  UNL     1      16.560  44.046 -38.292  1.00  0.00     0.013 S 
HETATM   25  C8  UNL     1      16.576  42.178 -37.967  1.00  0.00     0.135 C 
HETATM   26  C9  UNL     1      18.190  44.384 -37.512  1.00  0.00     0.135 C 
HETATM   27  O2  UNL     1      16.593  43.523 -40.174  1.00  0.00    -0.251 OA
ENDBRANCH  22  24
ENDBRANCH   3  22
TORSDOF 6
ENDMDL
MODEL 2
REMARK VINA RESULT: -5.654544721      0.790      1.037
REMARK  6 active torsions:
REMARK  status: ('A' for Active; 'I' for Inactive)
REMARK    1  A    between atoms: C2_2  and  N1_4 
REMARK    2  A    between atoms: C2_2  and  C4_8 
REMARK       I    between atoms: C4_8  and  N2_10 
REMARK    3  A    between atoms: N2_10  and  C5_12 
REMARK    4  A    between atoms: C7_14  and  N3_15 
REMARK    5  A    between atoms: N3_15  and  S1_17 
REMARK    6  A    between atoms: C12_23  and  N4_24 
ROOT
HETATM    1  C5  UNL     1      11.867  46.147 -36.389  1.00  0.00     0.116 C 
HETATM    2  C6  UNL     1      13.258  46.184 -36.986  1.00  0.00     0.052 C 
HETATM    3  C7  UNL     1      13.563  44.990 -37.849  1.00  0.00     0.091 C 
HETATM    4  C10 UNL     1      12.323  44.157 -37.950  1.00  0.00     0.028 C 
HETATM    5  C11 UNL     1      11.850  43.712 -36.582  1.00  0.00     0.037 C 
HETATM    6  C12 UNL     1      11.617  44.851 -35.647  1.00  0.00     0.206 C 
ENDROOT
BRANCH   1   7
HETATM    7  N2  UNL     1      11.754  47.291 -35.525  1.00  0.00    -0.352 N 
HETATM    8  C4  UNL     1      10.546  48.005 -35.377  1.00  0.00     0.253 C 
HETATM    9  O1  UNL     1       9.545  47.605 -36.037  1.00  0.00    -0.271 OA
ATOM     10  H2  UNL     1      12.575  47.596 -35.001  1.00  0.00     0.163 HD
BRANCH   8  11
HETATM   11  C2  UNL     1      10.381  49.177 -34.509  1.00  0.00     0.196 C 
HETATM   12  C1  UNL     1      11.686  49.563 -33.820  1.00  0.00     0.056 C 
HETATM   13  C3  UNL     1       9.914  50.403 -35.257  1.00  0.00     0.056 C 
BRANCH  11  14
HETATM   14  N1  UNL     1       9.417  48.914 -33.467  1.00  0.00    -0.062 N 
ATOM     15  H13 UNL     1       9.499  47.977 -33.072  1.00  0.00     0.275 HD
ATOM     16  H12 UNL     1       9.603  49.432 -32.608  1.00  0.00     0.275 HD
ATOM     17  H11 UNL     1       8.495  49.105 -33.859  1.00  0.00     0.275 HD
ENDBRANCH  11  14
ENDBRANCH   8  11
ENDBRANCH   1   7
BRANCH   6  18
HETATM   18  N4  UNL     1      12.380  44.814 -34.442  1.00  0.00    -0.073 N 
ATOM     19  H43 UNL     1      12.198  43.968 -33.903  1.00  0.00     0.274 HD
ATOM     20  H42 UNL     1      13.373  44.667 -34.625  1.00  0.00     0.274 HD
ATOM     21  H41 UNL     1      12.215  45.657 -33.893  1.00  0.00     0.274 HD
ENDBRANCH   6  18
BRANCH   3  22
HETATM   22  N3  UNL     1      14.706  44.339 -37.337  1.00  0.00    -0.347 N 
ATOM     23  H3  UNL     1      14.686  43.984 -36.380  1.00  0.00     0.169 HD
BRANCH  22  24
HETATM   24  S1  UNL     1      16.205  44.113 -38.326  1.00  0.00     0.013 S 
HETATM   25  C8  UNL     1      16.328  42.284 -37.846  1.00  0.00     0.135 C 
HETATM   26  C9  UNL     1      17.919  44.552 -37.824  1.00  0.00     0.135 C 
HETATM   27  O2  UNL     1      15.986  43.423 -40.140  1.00  0.00    -0.251 OA
ENDBRANCH  22  24
ENDBRANCH   3  22
TORSDOF 6
ENDMDL
MODEL 3
REMARK VINA RESULT: -4.955921678      1.281      1.695
REMARK  6 active torsions:
REMARK  status: ('A' for Active; 'I' for Inactive)
REMARK    1  A    between atoms: C2_2  and  N1_4 
REMARK    2  A    between atoms: C2_2  and  C4_8 
REMARK       I    between atoms: C4_8  and  N2_10 
REMARK    3  A    between atoms: N2_10  and  C5_12 
REMARK    4  A    between atoms: C7_14  and  N3_15 
REMARK    5  A    between atoms: N3_15  and  S1_17 
REMARK    6  A    between atoms: C12_23  and  N4_24 
ROOT
HETATM    1  C5  UNL     1      11.807  46.155 -36.306  1.00  0.00     0.116 C 
HETATM    2  C6  UNL     1      13.199  46.191 -36.900  1.00  0.00     0.052 C 
HETATM    3  C7  UNL     1      13.508  44.993 -37.756  1.00  0.00     0.091 C 
HETATM    4  C10 UNL     1      12.269  44.156 -37.854  1.00  0.00     0.028 C 
HETATM    5  C11 UNL     1      11.794  43.719 -36.484  1.00  0.00     0.037 C 
HETATM    6  C12 UNL     1      11.557  44.862 -35.557  1.00  0.00     0.206 C 
ENDROOT
BRANCH   1   7
HETATM    7  N2  UNL     1      11.689  47.304 -35.449  1.00  0.00    -0.352 N 
HETATM    8  C4  UNL     1      10.502  48.062 -35.367  1.00  0.00     0.253 C 
HETATM    9  O1  UNL     1       9.523  47.698 -36.080  1.00  0.00    -0.271 OA
ATOM     10  H2  UNL     1      12.491  47.580 -34.882  1.00  0.00     0.163 HD
BRANCH   8  11
HETATM   11  C2  UNL     1      10.333  49.241 -34.509  1.00  0.00     0.196 C 
HETATM   12  C1  UNL     1      11.643  49.651 -33.843  1.00  0.00     0.056 C 
HETATM   13  C3  UNL     1       9.839  50.453 -35.263  1.00  0.00     0.056 C 
BRANCH  11  14
HETATM   14  N1  UNL     1       9.388  48.976 -33.450  1.00  0.00    -0.062 N 
ATOM     15  H13 UNL     1       9.701  49.312 -32.540  1.00  0.00     0.275 HD
ATOM     16  H12 UNL     1       8.544  49.545 -33.514  1.00  0.00     0.275 HD
ATOM     17  H11 UNL     1       9.198  47.974 -33.465  1.00  0.00     0.275 HD
ENDBRANCH  11  14
ENDBRANCH   8  11
ENDBRANCH   1   7
BRANCH   6  18
HETATM   18  N4  UNL     1      12.317  44.835 -34.351  1.00  0.00    -0.073 N 
ATOM     19  H43 UNL     1      13.301  44.633 -34.526  1.00  0.00     0.274 HD
ATOM     20  H42 UNL     1      12.423  45.765 -33.946  1.00  0.00     0.274 HD
ATOM     21  H41 UNL     1      11.906  44.176 -33.689  1.00  0.00     0.274 HD
ENDBRANCH   6  18
BRANCH   3  22
HETATM   22  N3  UNL     1      14.651  44.346 -37.237  1.00  0.00    -0.347 N 
ATOM     23  H3  UNL     1      14.870  44.448 -36.245  1.00  0.00     0.169 HD
BRANCH  22  24
HETATM   24  S1  UNL     1      15.739  43.341 -38.278  1.00  0.00     0.013 S 
HETATM   25  C8  UNL     1      16.942  44.784 -38.529  1.00  0.00     0.135 C 
HETATM   26  C9  UNL     1      15.507  42.978 -40.065  1.00  0.00     0.135 C 
HETATM   27  O2  UNL     1      17.261  42.477 -37.410  1.00  0.00    -0.251 OA
ENDBRANCH  22  24
ENDBRANCH   3  22
TORSDOF 6
ENDMDL
MODEL 4
REMARK VINA RESULT: -4.535111281      2.515      7.182
REMARK  6 active torsions:
REMARK  status: ('A' for Active; 'I' for Inactive)
REMARK    1  A    between atoms: C2_2  and  N1_4 
REMARK    2  A    between atoms: C2_2  and  C4_8 
REMARK       I    between atoms: C4_8  and  N2_10 
REMARK    3  A    between atoms: N2_10  and  C5_12 
REMARK    4  A    between atoms: C7_14  and  N3_15 
REMARK    5  A    between atoms: N3_15  and  S1_17 
REMARK    6  A    between atoms: C12_23  and  N4_24 
ROOT
HETATM    1  C5  UNL     1      13.854  44.364 -37.211  1.00  0.00     0.116 C 
HETATM    2  C6  UNL     1      13.639  45.566 -36.315  1.00  0.00     0.052 C 
HETATM    3  C7  UNL     1      12.335  45.519 -35.565  1.00  0.00     0.091 C 
HETATM    4  C10 UNL     1      11.676  44.205 -35.855  1.00  0.00     0.028 C 
HETATM    5  C11 UNL     1      11.438  44.028 -37.340  1.00  0.00     0.037 C 
HETATM    6  C12 UNL     1      12.684  44.156 -38.149  1.00  0.00     0.206 C 
ENDROOT
BRANCH   1   7
HETATM    7  N2  UNL     1      15.082  44.591 -37.924  1.00  0.00    -0.352 N 
HETATM    8  C4  UNL     1      16.071  43.593 -38.052  1.00  0.00     0.253 C 
HETATM    9  O1  UNL     1      15.847  42.472 -37.514  1.00  0.00    -0.271 OA
ATOM     10  H2  UNL     1      15.242  45.503 -38.352  1.00  0.00     0.163 HD
BRANCH   8  11
HETATM   11  C2  UNL     1      17.340  43.776 -38.770  1.00  0.00     0.196 C 
HETATM   12  C1  UNL     1      17.947  45.151 -38.510  1.00  0.00     0.056 C 
HETATM   13  C3  UNL     1      18.390  42.764 -38.376  1.00  0.00     0.056 C 
BRANCH  11  14
HETATM   14  N1  UNL     1      17.145  43.664 -40.196  1.00  0.00    -0.062 N 
ATOM     15  H13 UNL     1      17.955  43.967 -40.736  1.00  0.00     0.275 HD
ATOM     16  H12 UNL     1      17.124  42.699 -40.524  1.00  0.00     0.275 HD
ATOM     17  H11 UNL     1      16.296  44.183 -40.421  1.00  0.00     0.275 HD
ENDBRANCH  11  14
ENDBRANCH   8  11
ENDBRANCH   1   7
BRANCH   6  18
HETATM   18  N4  UNL     1      12.660  45.176 -39.145  1.00  0.00    -0.073 N 
ATOM     19  H43 UNL     1      13.370  45.024 -39.862  1.00  0.00     0.274 HD
ATOM     20  H42 UNL     1      11.832  45.111 -39.737  1.00  0.00     0.274 HD
ATOM     21  H41 UNL     1      12.748  46.095 -38.712  1.00  0.00     0.274 HD
ENDBRANCH   6  18
BRANCH   3  22
HETATM   22  N3  UNL     1      11.584  46.671 -35.886  1.00  0.00    -0.347 N 
ATOM     23  H3  UNL     1      11.432  46.905 -36.868  1.00  0.00     0.169 HD
BRANCH  22  24
HETATM   24  S1  UNL     1      10.883  47.745 -34.608  1.00  0.00     0.013 S 
HETATM   25  C8  UNL     1       9.311  48.041 -35.625  1.00  0.00     0.135 C 
HETATM   26  C9  UNL     1      11.273  49.522 -34.345  1.00  0.00     0.135 C 
HETATM   27  O2  UNL     1       9.664  46.927 -33.321  1.00  0.00    -0.251 OA
ENDBRANCH  22  24
ENDBRANCH   3  22
TORSDOF 6
ENDMDL
MODEL 5
REMARK VINA RESULT: -4.483271038      2.429      7.186
REMARK  6 active torsions:
REMARK  status: ('A' for Active; 'I' for Inactive)
REMARK    1  A    between atoms: C2_2  and  N1_4 
REMARK    2  A    between atoms: C2_2  and  C4_8 
REMARK       I    between atoms: C4_8  and  N2_10 
REMARK    3  A    between atoms: N2_10  and  C5_12 
REMARK    4  A    between atoms: C7_14  and  N3_15 
REMARK    5  A    between atoms: N3_15  and  S1_17 
REMARK    6  A    between atoms: C12_23  and  N4_24 
ROOT
HETATM    1  C5  UNL     1      13.847  44.379 -37.149  1.00  0.00     0.116 C 
HETATM    2  C6  UNL     1      13.596  45.589 -36.273  1.00  0.00     0.052 C 
HETATM    3  C7  UNL     1      12.282  45.528 -35.543  1.00  0.00     0.091 C 
HETATM    4  C10 UNL     1      11.651  44.199 -35.825  1.00  0.00     0.028 C 
HETATM    5  C11 UNL     1      11.440  43.998 -37.311  1.00  0.00     0.037 C 
HETATM    6  C12 UNL     1      12.696  44.137 -38.103  1.00  0.00     0.206 C 
ENDROOT
BRANCH   1   7
HETATM    7  N2  UNL     1      15.082  44.619 -37.846  1.00  0.00    -0.352 N 
HETATM    8  C4  UNL     1      16.048  43.607 -38.032  1.00  0.00     0.253 C 
HETATM    9  O1  UNL     1      15.796  42.462 -37.561  1.00  0.00    -0.271 OA
ATOM     10  H2  UNL     1      15.265  45.550 -38.219  1.00  0.00     0.163 HD
BRANCH   8  11
HETATM   11  C2  UNL     1      17.322  43.802 -38.736  1.00  0.00     0.196 C 
HETATM   12  C1  UNL     1      17.906  45.188 -38.480  1.00  0.00     0.056 C 
HETATM   13  C3  UNL     1      18.381  42.808 -38.322  1.00  0.00     0.056 C 
BRANCH  11  14
HETATM   14  N1  UNL     1      17.146  43.677 -40.163  1.00  0.00    -0.062 N 
ATOM     15  H13 UNL     1      16.911  44.559 -40.617  1.00  0.00     0.275 HD
ATOM     16  H12 UNL     1      18.018  43.503 -40.662  1.00  0.00     0.275 HD
ATOM     17  H11 UNL     1      16.446  42.950 -40.314  1.00  0.00     0.275 HD
ENDBRANCH  11  14
ENDBRANCH   8  11
ENDBRANCH   1   7
BRANCH   6  18
HETATM   18  N4  UNL     1      12.670  45.144 -39.113  1.00  0.00    -0.073 N 
ATOM     19  H43 UNL     1      13.570  45.235 -39.582  1.00  0.00     0.274 HD
ATOM     20  H42 UNL     1      12.108  44.862 -39.916  1.00  0.00     0.274 HD
ATOM     21  H41 UNL     1      12.354  46.031 -38.720  1.00  0.00     0.274 HD
ENDBRANCH   6  18
BRANCH   3  22
HETATM   22  N3  UNL     1      11.516  46.662 -35.891  1.00  0.00    -0.347 N 
ATOM     23  H3  UNL     1      11.722  47.150 -36.763  1.00  0.00     0.169 HD
BRANCH  22  24
HETATM   24  S1  UNL     1      10.177  47.274 -34.837  1.00  0.00     0.013 S 
HETATM   25  C8  UNL     1      11.301  48.589 -34.061  1.00  0.00     0.135 C 
HETATM   26  C9  UNL     1       9.622  46.541 -33.245  1.00  0.00     0.135 C 
HETATM   27  O2  UNL     1       9.156  48.808 -35.486  1.00  0.00    -0.251 OA
ENDBRANCH  22  24
ENDBRANCH   3  22
TORSDOF 6
ENDMDL
