MODEL 1
REMARK VINA RESULT: -6.976707190      0.000      0.000
REMARK  11 active torsions:
REMARK  status: ('A' for Active; 'I' for Inactive)
REMARK    1  A    between atoms: C2_2  and  C3_3 
REMARK    2  A    between atoms: C3_3  and  C5_5 
REMARK    3  A    between atoms: C5_5  and  N1_6 
REMARK    4  A    between atoms: C5_5  and  C15_24 
REMARK       I    between atoms: N1_6  and  C6_8 
REMARK    5  A    between atoms: C6_8  and  C7_10 
REMARK    6  A    between atoms: C7_10  and  N2_11 
REMARK    7  A    between atoms: C7_10  and  C13_19 
REMARK       I    between atoms: N2_11  and  C8_13 
REMARK    8  A    between atoms: C8_13  and  C9_15 
REMARK    9  A    between atoms: C13_19  and  C14_21 
REMARK   10  A    between atoms: C15_24  and  O6_25 
REMARK   11  A    between atoms: N3_27  and  O7_29 
ROOT
HETATM    1  N1  UNL     1     -35.492 -47.011   9.788  1.00  0.00    -0.346 N 
ATOM      2  H1  UNL     1     -35.507 -46.238   9.122  1.00  0.00     0.163 HD
HETATM    3  C6  UNL     1     -35.625 -46.681  11.194  1.00  0.00     0.249 C 
HETATM    4  O1  UNL     1     -35.611 -47.657  11.998  1.00  0.00    -0.271 OA
ENDROOT
BRANCH   3   5
HETATM    5  C7  UNL     1     -35.777 -45.318  11.576  1.00  0.00     0.258 C 
BRANCH   5   6
HETATM    6  N2  UNL     1     -36.380 -45.138  12.919  1.00  0.00    -0.340 N 
HETATM    7  C8  UNL     1     -37.680 -44.625  12.908  1.00  0.00     0.227 C 
HETATM    8  O2  UNL     1     -38.303 -44.341  11.855  1.00  0.00    -0.273 OA
ATOM      9  H2  UNL     1     -35.886 -45.370  13.780  1.00  0.00     0.163 HD
BRANCH   7  10
HETATM   10  C9  UNL     1     -38.388 -44.376  14.203  1.00  0.00     0.037 A 
HETATM   11  C10 UNL     1     -37.659 -44.976  15.389  1.00  0.00     0.025 C 
HETATM   12  C11 UNL     1     -38.633 -42.861  14.456  1.00  0.00     0.020 A 
HETATM   13  C12 UNL     1     -39.731 -43.811  14.272  1.00  0.00     0.020 A 
ENDBRANCH   7  10
ENDBRANCH   5   6
BRANCH   5  14
HETATM   14  C13 UNL     1     -34.534 -44.489  11.661  1.00  0.00     0.256 C 
HETATM   15  O3  UNL     1     -34.651 -43.247  11.611  1.00  0.00    -0.283 OA
BRANCH  14  16
HETATM   16  C14 UNL     1     -33.196 -45.049  11.830  1.00  0.00     0.249 C 
HETATM   17  O4  UNL     1     -32.776 -45.502  12.889  1.00  0.00    -0.642 OA
HETATM   18  O5  UNL     1     -32.338 -45.052  10.698  1.00  0.00    -0.642 OA
ENDBRANCH  14  16
ENDBRANCH   5  14
ENDBRANCH   3   5
BRANCH   1  19
HETATM   19  C5  UNL     1     -35.338 -48.345   9.251  1.00  0.00     0.164 C 
BRANCH  19  20
HETATM   20  C3  UNL     1     -36.656 -48.935   8.928  1.00  0.00     0.012 C 
HETATM   21  C4  UNL     1     -37.096 -48.660   7.531  1.00  0.00     0.012 C 
BRANCH  20  22
HETATM   22  C2  UNL     1     -37.058 -50.236   9.506  1.00  0.00     0.002 C 
HETATM   23  C1  UNL     1     -37.210 -51.418   8.633  1.00  0.00     0.005 C 
ENDBRANCH  20  22
ENDBRANCH  19  20
BRANCH  19  24
HETATM   24  C15 UNL     1     -34.391 -49.175  10.035  1.00  0.00     0.159 C 
HETATM   25  N3  UNL     1     -34.668 -50.081  10.857  1.00  0.00    -0.249 N 
ATOM     26  H3  UNL     1     -35.647 -50.310  11.036  1.00  0.00     0.196 HD
BRANCH  24  27
HETATM   27  O6  UNL     1     -33.001 -48.927   9.857  1.00  0.00    -0.347 OA
ATOM     28  H6  UNL     1     -32.632 -49.102   8.999  1.00  0.00     0.219 HD
ENDBRANCH  24  27
BRANCH  25  29
HETATM   29  O7  UNL     1     -33.692 -50.769  11.516  1.00  0.00    -0.288 OA
ATOM     30  H7  UNL     1     -33.599 -50.717  12.459  1.00  0.00     0.244 HD
ENDBRANCH  25  29
ENDBRANCH  19  24
ENDBRANCH   1  19
TORSDOF 11
ENDMDL
MODEL 2
REMARK VINA RESULT: -6.709141896      1.742      2.692
REMARK  11 active torsions:
REMARK  status: ('A' for Active; 'I' for Inactive)
REMARK    1  A    between atoms: C2_2  and  C3_3 
REMARK    2  A    between atoms: C3_3  and  C5_5 
REMARK    3  A    between atoms: C5_5  and  N1_6 
REMARK    4  A    between atoms: C5_5  and  C15_24 
REMARK       I    between atoms: N1_6  and  C6_8 
REMARK    5  A    between atoms: C6_8  and  C7_10 
REMARK    6  A    between atoms: C7_10  and  N2_11 
REMARK    7  A    between atoms: C7_10  and  C13_19 
REMARK       I    between atoms: N2_11  and  C8_13 
REMARK    8  A    between atoms: C8_13  and  C9_15 
REMARK    9  A    between atoms: C13_19  and  C14_21 
REMARK   10  A    between atoms: C15_24  and  O6_25 
REMARK   11  A    between atoms: N3_27  and  O7_29 
ROOT
HETATM    1  N1  UNL     1     -35.949 -47.101  10.082  1.00  0.00    -0.346 N 
ATOM      2  H1  UNL     1     -35.949 -46.455   9.292  1.00  0.00     0.163 HD
HETATM    3  C6  UNL     1     -35.867 -46.526  11.412  1.00  0.00     0.249 C 
HETATM    4  O1  UNL     1     -35.877 -47.348  12.374  1.00  0.00    -0.271 OA
ENDROOT
BRANCH   3   5
HETATM    5  C7  UNL     1     -35.800 -45.112  11.554  1.00  0.00     0.258 C 
BRANCH   5   6
HETATM    6  N2  UNL     1     -36.273 -44.621  12.871  1.00  0.00    -0.340 N 
HETATM    7  C8  UNL     1     -37.662 -44.633  13.031  1.00  0.00     0.227 C 
HETATM    8  O2  UNL     1     -38.457 -45.031  12.144  1.00  0.00    -0.273 OA
ATOM      9  H2  UNL     1     -35.637 -44.301  13.601  1.00  0.00     0.163 HD
BRANCH   7  10
HETATM   10  C9  UNL     1     -38.264 -44.139  14.309  1.00  0.00     0.037 A 
HETATM   11  C10 UNL     1     -39.724 -43.759  14.155  1.00  0.00     0.025 C 
HETATM   12  C11 UNL     1     -38.116 -45.170  15.464  1.00  0.00     0.020 A 
HETATM   13  C12 UNL     1     -37.470 -43.858  15.499  1.00  0.00     0.020 A 
ENDBRANCH   7  10
ENDBRANCH   5   6
BRANCH   5  14
HETATM   14  C13 UNL     1     -34.452 -44.475  11.432  1.00  0.00     0.256 C 
HETATM   15  O3  UNL     1     -34.397 -43.259  11.154  1.00  0.00    -0.283 OA
BRANCH  14  16
HETATM   16  C14 UNL     1     -33.196 -45.188  11.650  1.00  0.00     0.249 C 
HETATM   17  O4  UNL     1     -32.906 -45.751  12.701  1.00  0.00    -0.642 OA
HETATM   18  O5  UNL     1     -32.261 -45.214  10.581  1.00  0.00    -0.642 OA
ENDBRANCH  14  16
ENDBRANCH   5  14
ENDBRANCH   3   5
BRANCH   1  19
HETATM   19  C5  UNL     1     -36.029 -48.513   9.783  1.00  0.00     0.164 C 
BRANCH  19  20
HETATM   20  C3  UNL     1     -34.705 -49.156   9.930  1.00  0.00     0.012 C 
HETATM   21  C4  UNL     1     -33.575 -48.276   9.517  1.00  0.00     0.012 C 
BRANCH  20  22
HETATM   22  C2  UNL     1     -34.444 -50.089  11.049  1.00  0.00     0.002 C 
HETATM   23  C1  UNL     1     -33.456 -49.737  12.090  1.00  0.00     0.005 C 
ENDBRANCH  20  22
ENDBRANCH  19  20
BRANCH  19  24
HETATM   24  C15 UNL     1     -36.792 -48.795   8.542  1.00  0.00     0.159 C 
HETATM   25  N3  UNL     1     -36.730 -48.181   7.450  1.00  0.00    -0.249 N 
ATOM     26  H3  UNL     1     -36.092 -47.390   7.359  1.00  0.00     0.196 HD
BRANCH  24  27
HETATM   27  O6  UNL     1     -37.714 -49.879   8.573  1.00  0.00    -0.347 OA
ATOM     28  H6  UNL     1     -37.800 -50.402   7.784  1.00  0.00     0.219 HD
ENDBRANCH  24  27
BRANCH  25  29
HETATM   29  O7  UNL     1     -37.495 -48.546   6.382  1.00  0.00    -0.288 OA
ATOM     30  H7  UNL     1     -37.702 -47.933   5.687  1.00  0.00     0.244 HD
ENDBRANCH  25  29
ENDBRANCH  19  24
ENDBRANCH   1  19
TORSDOF 11
ENDMDL
MODEL 3
REMARK VINA RESULT: -6.428461392      6.809      9.479
REMARK  11 active torsions:
REMARK  status: ('A' for Active; 'I' for Inactive)
REMARK    1  A    between atoms: C2_2  and  C3_3 
REMARK    2  A    between atoms: C3_3  and  C5_5 
REMARK    3  A    between atoms: C5_5  and  N1_6 
REMARK    4  A    between atoms: C5_5  and  C15_24 
REMARK       I    between atoms: N1_6  and  C6_8 
REMARK    5  A    between atoms: C6_8  and  C7_10 
REMARK    6  A    between atoms: C7_10  and  N2_11 
REMARK    7  A    between atoms: C7_10  and  C13_19 
REMARK       I    between atoms: N2_11  and  C8_13 
REMARK    8  A    between atoms: C8_13  and  C9_15 
REMARK    9  A    between atoms: C13_19  and  C14_21 
REMARK   10  A    between atoms: C15_24  and  O6_25 
REMARK   11  A    between atoms: N3_27  and  O7_29 
ROOT
HETATM    1  N1  UNL     1     -38.111 -42.748  17.703  1.00  0.00    -0.346 N 
ATOM      2  H1  UNL     1     -38.532 -42.138  17.002  1.00  0.00     0.163 HD
HETATM    3  C6  UNL     1     -37.621 -42.126  18.919  1.00  0.00     0.249 C 
HETATM    4  O1  UNL     1     -37.111 -42.905  19.775  1.00  0.00    -0.271 OA
ENDROOT
BRANCH   3   5
HETATM    5  C7  UNL     1     -37.752 -40.718  19.080  1.00  0.00     0.258 C 
BRANCH   5   6
HETATM    6  N2  UNL     1     -37.125 -39.931  17.990  1.00  0.00    -0.340 N 
HETATM    7  C8  UNL     1     -35.775 -39.629  18.193  1.00  0.00     0.227 C 
HETATM    8  O2  UNL     1     -35.130 -39.994  19.207  1.00  0.00    -0.273 OA
ATOM      9  H2  UNL     1     -37.638 -39.635  17.160  1.00  0.00     0.163 HD
BRANCH   7  10
HETATM   10  C9  UNL     1     -35.037 -38.819  17.175  1.00  0.00     0.037 A 
HETATM   11  C10 UNL     1     -33.576 -38.624  17.535  1.00  0.00     0.025 C 
HETATM   12  C11 UNL     1     -35.141 -39.433  15.749  1.00  0.00     0.020 A 
HETATM   13  C12 UNL     1     -35.706 -38.124  16.082  1.00  0.00     0.020 A 
ENDBRANCH   7  10
ENDBRANCH   5   6
BRANCH   5  14
HETATM   14  C13 UNL     1     -39.140 -40.162  19.129  1.00  0.00     0.256 C 
HETATM   15  O3  UNL     1     -40.090 -40.922  18.848  1.00  0.00    -0.283 OA
BRANCH  14  16
HETATM   16  C14 UNL     1     -39.449 -38.788  19.515  1.00  0.00     0.249 C 
HETATM   17  O4  UNL     1     -38.615 -37.999  19.950  1.00  0.00    -0.642 OA
HETATM   18  O5  UNL     1     -40.796 -38.356  19.388  1.00  0.00    -0.642 OA
ENDBRANCH  14  16
ENDBRANCH   5  14
ENDBRANCH   3   5
BRANCH   1  19
HETATM   19  C5  UNL     1     -38.053 -44.161  17.402  1.00  0.00     0.164 C 
BRANCH  19  20
HETATM   20  C3  UNL     1     -38.613 -44.434  16.060  1.00  0.00     0.012 C 
HETATM   21  C4  UNL     1     -39.770 -43.560  15.717  1.00  0.00     0.012 C 
BRANCH  20  22
HETATM   22  C2  UNL     1     -37.726 -44.829  14.943  1.00  0.00     0.002 C 
HETATM   23  C1  UNL     1     -38.217 -44.765  13.551  1.00  0.00     0.005 C 
ENDBRANCH  20  22
ENDBRANCH  19  20
BRANCH  19  24
HETATM   24  C15 UNL     1     -38.525 -45.008  18.525  1.00  0.00     0.159 C 
HETATM   25  N3  UNL     1     -39.656 -44.996  19.068  1.00  0.00    -0.249 N 
ATOM     26  H3  UNL     1     -40.366 -44.346  18.729  1.00  0.00     0.196 HD
BRANCH  24  27
HETATM   27  O6  UNL     1     -37.603 -45.945  19.071  1.00  0.00    -0.347 OA
ATOM     28  H6  UNL     1     -36.715 -45.644  19.226  1.00  0.00     0.219 HD
ENDBRANCH  24  27
BRANCH  25  29
HETATM   29  O7  UNL     1     -39.958 -45.833  20.102  1.00  0.00    -0.288 OA
ATOM     30  H7  UNL     1     -40.762 -45.737  20.599  1.00  0.00     0.244 HD
ENDBRANCH  25  29
ENDBRANCH  19  24
ENDBRANCH   1  19
TORSDOF 11
ENDMDL
MODEL 4
REMARK VINA RESULT: -6.382484937      7.419     10.632
REMARK  11 active torsions:
REMARK  status: ('A' for Active; 'I' for Inactive)
REMARK    1  A    between atoms: C2_2  and  C3_3 
REMARK    2  A    between atoms: C3_3  and  C5_5 
REMARK    3  A    between atoms: C5_5  and  N1_6 
REMARK    4  A    between atoms: C5_5  and  C15_24 
REMARK       I    between atoms: N1_6  and  C6_8 
REMARK    5  A    between atoms: C6_8  and  C7_10 
REMARK    6  A    between atoms: C7_10  and  N2_11 
REMARK    7  A    between atoms: C7_10  and  C13_19 
REMARK       I    between atoms: N2_11  and  C8_13 
REMARK    8  A    between atoms: C8_13  and  C9_15 
REMARK    9  A    between atoms: C13_19  and  C14_21 
REMARK   10  A    between atoms: C15_24  and  O6_25 
REMARK   11  A    between atoms: N3_27  and  O7_29 
ROOT
HETATM    1  N1  UNL     1     -36.676 -40.034  18.367  1.00  0.00    -0.346 N 
ATOM      2  H1  UNL     1     -36.216 -40.861  17.986  1.00  0.00     0.163 HD
HETATM    3  C6  UNL     1     -38.051 -40.181  18.806  1.00  0.00     0.249 C 
HETATM    4  O1  UNL     1     -38.597 -39.143  19.281  1.00  0.00    -0.271 OA
ENDROOT
BRANCH   3   5
HETATM    5  C7  UNL     1     -38.684 -41.451  18.695  1.00  0.00     0.258 C 
BRANCH   5   6
HETATM    6  N2  UNL     1     -38.335 -42.185  17.454  1.00  0.00    -0.340 N 
HETATM    7  C8  UNL     1     -39.324 -43.064  17.001  1.00  0.00     0.227 C 
HETATM    8  O2  UNL     1     -40.425 -43.224  17.583  1.00  0.00    -0.273 OA
ATOM      9  H2  UNL     1     -37.446 -42.059  16.971  1.00  0.00     0.163 HD
BRANCH   7  10
HETATM   10  C9  UNL     1     -39.081 -43.881  15.771  1.00  0.00     0.037 A 
HETATM   11  C10 UNL     1     -39.992 -43.489  14.624  1.00  0.00     0.025 C 
HETATM   12  C11 UNL     1     -37.599 -43.811  15.303  1.00  0.00     0.020 A 
HETATM   13  C12 UNL     1     -38.217 -45.056  15.761  1.00  0.00     0.020 A 
ENDBRANCH   7  10
ENDBRANCH   5   6
BRANCH   5  14
HETATM   14  C13 UNL     1     -38.392 -42.457  19.763  1.00  0.00     0.256 C 
HETATM   15  O3  UNL     1     -39.267 -42.667  20.629  1.00  0.00    -0.283 OA
BRANCH  14  16
HETATM   16  C14 UNL     1     -37.153 -43.226  19.834  1.00  0.00     0.249 C 
HETATM   17  O4  UNL     1     -37.062 -44.402  19.497  1.00  0.00    -0.642 OA
HETATM   18  O5  UNL     1     -35.998 -42.569  20.337  1.00  0.00    -0.642 OA
ENDBRANCH  14  16
ENDBRANCH   5  14
ENDBRANCH   3   5
BRANCH   1  19
HETATM   19  C5  UNL     1     -35.904 -38.813  18.424  1.00  0.00     0.164 C 
BRANCH  19  20
HETATM   20  C3  UNL     1     -35.180 -38.591  17.152  1.00  0.00     0.012 C 
HETATM   21  C4  UNL     1     -33.759 -39.034  17.200  1.00  0.00     0.012 C 
BRANCH  20  22
HETATM   22  C2  UNL     1     -35.878 -38.741  15.856  1.00  0.00     0.002 C 
HETATM   23  C1  UNL     1     -35.558 -37.834  14.734  1.00  0.00     0.005 C 
ENDBRANCH  20  22
ENDBRANCH  19  20
BRANCH  19  24
HETATM   24  C15 UNL     1     -35.131 -38.680  19.683  1.00  0.00     0.159 C 
HETATM   25  N3  UNL     1     -34.807 -39.592  20.481  1.00  0.00    -0.249 N 
ATOM     26  H3  UNL     1     -35.085 -40.553  20.279  1.00  0.00     0.196 HD
BRANCH  24  27
HETATM   27  O6  UNL     1     -34.703 -37.374  20.053  1.00  0.00    -0.347 OA
ATOM     28  H6  UNL     1     -34.566 -37.205  20.978  1.00  0.00     0.219 HD
ENDBRANCH  24  27
BRANCH  25  29
HETATM   29  O7  UNL     1     -34.092 -39.329  21.612  1.00  0.00    -0.288 OA
ATOM     30  H7  UNL     1     -33.867 -40.015  22.228  1.00  0.00     0.244 HD
ENDBRANCH  25  29
ENDBRANCH  19  24
ENDBRANCH   1  19
TORSDOF 11
ENDMDL
MODEL 5
REMARK VINA RESULT: -6.280418104      7.302     11.321
REMARK  11 active torsions:
REMARK  status: ('A' for Active; 'I' for Inactive)
REMARK    1  A    between atoms: C2_2  and  C3_3 
REMARK    2  A    between atoms: C3_3  and  C5_5 
REMARK    3  A    between atoms: C5_5  and  N1_6 
REMARK    4  A    between atoms: C5_5  and  C15_24 
REMARK       I    between atoms: N1_6  and  C6_8 
REMARK    5  A    between atoms: C6_8  and  C7_10 
REMARK    6  A    between atoms: C7_10  and  N2_11 
REMARK    7  A    between atoms: C7_10  and  C13_19 
REMARK       I    between atoms: N2_11  and  C8_13 
REMARK    8  A    between atoms: C8_13  and  C9_15 
REMARK    9  A    between atoms: C13_19  and  C14_21 
REMARK   10  A    between atoms: C15_24  and  O6_25 
REMARK   11  A    between atoms: N3_27  and  O7_29 
ROOT
HETATM    1  N1  UNL     1     -36.571 -39.534  18.597  1.00  0.00    -0.346 N 
ATOM      2  H1  UNL     1     -37.063 -38.918  17.950  1.00  0.00     0.163 HD
HETATM    3  C6  UNL     1     -37.318 -40.648  19.151  1.00  0.00     0.249 C 
HETATM    4  O1  UNL     1     -36.682 -41.402  19.945  1.00  0.00    -0.271 OA
ENDROOT
BRANCH   3   5
HETATM    5  C7  UNL     1     -38.675 -40.833  18.770  1.00  0.00     0.258 C 
BRANCH   5   6
HETATM    6  N2  UNL     1     -38.955 -42.168  18.186  1.00  0.00    -0.340 N 
HETATM    7  C8  UNL     1     -38.351 -42.397  16.946  1.00  0.00     0.227 C 
HETATM    8  O2  UNL     1     -37.622 -41.555  16.365  1.00  0.00    -0.273 OA
ATOM      9  H2  UNL     1     -39.540 -42.861  18.651  1.00  0.00     0.163 HD
BRANCH   7  10
HETATM   10  C9  UNL     1     -38.576 -43.699  16.243  1.00  0.00     0.037 A 
HETATM   11  C10 UNL     1     -38.697 -44.866  17.204  1.00  0.00     0.025 C 
HETATM   12  C11 UNL     1     -39.825 -43.658  15.318  1.00  0.00     0.020 A 
HETATM   13  C12 UNL     1     -38.471 -43.843  14.796  1.00  0.00     0.020 A 
ENDBRANCH   7  10
ENDBRANCH   5   6
BRANCH   5  14
HETATM   14  C13 UNL     1     -39.710 -40.724  19.845  1.00  0.00     0.256 C 
HETATM   15  O3  UNL     1     -39.922 -39.600  20.346  1.00  0.00    -0.283 OA
BRANCH  14  16
HETATM   16  C14 UNL     1     -40.505 -41.852  20.322  1.00  0.00     0.249 C 
HETATM   17  O4  UNL     1     -41.646 -42.090  19.940  1.00  0.00    -0.642 OA
HETATM   18  O5  UNL     1     -39.919 -42.706  21.293  1.00  0.00    -0.642 OA
ENDBRANCH  14  16
ENDBRANCH   5  14
ENDBRANCH   3   5
BRANCH   1  19
HETATM   19  C5  UNL     1     -35.189 -39.224  18.885  1.00  0.00     0.164 C 
BRANCH  19  20
HETATM   20  C3  UNL     1     -35.086 -38.335  20.063  1.00  0.00     0.012 C 
HETATM   21  C4  UNL     1     -36.301 -37.499  20.276  1.00  0.00     0.012 C 
BRANCH  20  22
HETATM   22  C2  UNL     1     -34.364 -38.777  21.277  1.00  0.00     0.002 C 
HETATM   23  C1  UNL     1     -32.908 -38.555  21.393  1.00  0.00     0.005 C 
ENDBRANCH  20  22
ENDBRANCH  19  20
BRANCH  19  24
HETATM   24  C15 UNL     1     -34.420 -38.847  17.674  1.00  0.00     0.159 C 
HETATM   25  N3  UNL     1     -34.856 -38.306  16.629  1.00  0.00    -0.249 N 
ATOM     26  H3  UNL     1     -35.849 -38.079  16.562  1.00  0.00     0.196 HD
BRANCH  24  27
HETATM   27  O6  UNL     1     -33.025 -39.128  17.670  1.00  0.00    -0.347 OA
ATOM     28  H6  UNL     1     -32.430 -38.388  17.625  1.00  0.00     0.219 HD
ENDBRANCH  24  27
BRANCH  25  29
HETATM   29  O7  UNL     1     -34.034 -38.013  15.582  1.00  0.00    -0.288 OA
ATOM     30  H7  UNL     1     -33.585 -38.696  15.097  1.00  0.00     0.244 HD
ENDBRANCH  25  29
ENDBRANCH  19  24
ENDBRANCH   1  19
TORSDOF 11
ENDMDL
