MODEL 1
REMARK VINA RESULT: -7.840885211      0.000      0.000
REMARK  10 active torsions:
REMARK  status: ('A' for Active; 'I' for Inactive)
REMARK    1  A    between atoms: C10_10  and  O1_11 
REMARK    2  A    between atoms: C18_21  and  O2_22 
REMARK    3  A    between atoms: C19_24  and  C20_25 
REMARK    4  A    between atoms: C20_25  and  C22_27 
REMARK    5  A    between atoms: C20_25  and  C25_37 
REMARK    6  A    between atoms: C22_27  and  N1_28 
REMARK    7  A    between atoms: N1_28  and  C23_31 
REMARK    8  A    between atoms: C23_31  and  C24_32 
REMARK    9  A    between atoms: C24_32  and  N2_33 
REMARK   10  A    between atoms: C28_40  and  O3_41 
ROOT
HETATM    1  C1  UNL     1      -1.913  24.709 -36.885  1.00  0.00     0.020 C 
HETATM    2  C2  UNL     1      -2.557  23.377 -37.211  1.00  0.00    -0.014 C 
HETATM    3  C3  UNL     1      -2.288  23.146 -38.652  1.00  0.00     0.014 C 
HETATM    4  C4  UNL     1      -2.824  24.144 -39.616  1.00  0.00     0.009 C 
HETATM    5  C5  UNL     1      -4.268  23.921 -39.964  1.00  0.00     0.030 C 
HETATM    6  C6  UNL     1      -4.597  24.472 -41.303  1.00  0.00     0.009 C 
HETATM    7  C7  UNL     1      -5.624  25.566 -41.327  1.00  0.00     0.005 C 
HETATM    8  C8  UNL     1      -5.338  26.451 -40.129  1.00  0.00    -0.004 C 
HETATM    9  C9  UNL     1      -6.149  27.743 -40.237  1.00  0.00     0.037 C 
HETATM   10  C10 UNL     1      -6.035  28.545 -38.972  1.00  0.00     0.118 C 
HETATM   11  C11 UNL     1      -5.099  27.857 -38.002  1.00  0.00     0.032 C 
HETATM   12  C12 UNL     1      -5.584  26.455 -37.686  1.00  0.00     0.011 C 
HETATM   13  C13 UNL     1      -5.809  25.663 -38.930  1.00  0.00     0.034 C 
HETATM   14  C14 UNL     1      -5.256  24.257 -38.908  1.00  0.00     0.129 C 
HETATM   15  F1  UNL     1      -6.381  23.483 -39.345  1.00  0.00    -0.238 F 
HETATM   16  C15 UNL     1      -5.007  23.749 -37.569  1.00  0.00     0.020 C 
HETATM   17  C16 UNL     1      -3.994  23.378 -36.821  1.00  0.00    -0.069 C 
HETATM   18  C17 UNL     1      -4.075  22.852 -35.409  1.00  0.00     0.067 C 
HETATM   19  C18 UNL     1      -3.128  21.676 -35.598  1.00  0.00     0.128 C 
HETATM   20  C19 UNL     1      -2.006  22.200 -36.436  1.00  0.00     0.041 C 
ENDROOT
BRANCH  20  21
HETATM   21  C20 UNL     1      -0.667  22.253 -35.860  1.00  0.00     0.014 C 
HETATM   22  C21 UNL     1      -0.027  23.582 -35.652  1.00  0.00     0.023 C 
BRANCH  21  23
HETATM   23  C22 UNL     1      -0.796  21.741 -34.378  1.00  0.00     0.246 C 
BRANCH  23  24
HETATM   24  N1  UNL     1      -0.567  22.836 -33.494  1.00  0.00    -0.072 N 
ATOM     25  H12 UNL     1       0.427  22.923 -33.282  1.00  0.00     0.277 HD
ATOM     26  H11 UNL     1      -0.720  23.723 -33.975  1.00  0.00     0.277 HD
BRANCH  24  27
HETATM   27  C23 UNL     1      -1.322  22.783 -32.305  1.00  0.00     0.259 C 
BRANCH  27  28
HETATM   28  C24 UNL     1      -0.589  22.375 -31.061  1.00  0.00     0.257 C 
BRANCH  28  29
HETATM   29  N2  UNL     1      -1.381  21.897 -29.981  1.00  0.00    -0.078 N 
ATOM     30  H23 UNL     1      -2.317  21.671 -30.317  1.00  0.00     0.274 HD
ATOM     31  H22 UNL     1      -1.055  20.973 -29.700  1.00  0.00     0.274 HD
ATOM     32  H21 UNL     1      -1.448  22.500 -29.160  1.00  0.00     0.274 HD
ENDBRANCH  28  29
ENDBRANCH  27  28
ENDBRANCH  24  27
ENDBRANCH  23  24
ENDBRANCH  21  23
BRANCH  21  33
HETATM   33  C25 UNL     1       0.261  21.208 -36.381  1.00  0.00    -0.048 A 
HETATM   34  C26 UNL     1       1.429  20.823 -35.760  1.00  0.00     0.011 A 
HETATM   35  C27 UNL     1       2.242  19.835 -36.296  1.00  0.00     0.037 A 
HETATM   36  C28 UNL     1       1.926  19.193 -37.469  1.00  0.00     0.065 A 
HETATM   37  C29 UNL     1       0.752  19.590 -38.079  1.00  0.00     0.037 A 
HETATM   38  C30 UNL     1      -0.071  20.569 -37.567  1.00  0.00     0.011 A 
BRANCH  36  39
HETATM   39  O3  UNL     1       2.706  18.199 -38.040  1.00  0.00    -0.361 OA
ATOM     40  H3  UNL     1       3.239  18.325 -38.817  1.00  0.00     0.217 HD
ENDBRANCH  36  39
ENDBRANCH  21  33
ENDBRANCH  20  21
BRANCH  19  41
HETATM   41  O2  UNL     1      -3.895  20.684 -36.288  1.00  0.00    -0.395 OA
ATOM     42  H2  UNL     1      -3.741  20.848 -37.210  1.00  0.00     0.210 HD
ENDBRANCH  19  41
BRANCH  10  43
HETATM   43  O1  UNL     1      -7.277  28.757 -38.381  1.00  0.00    -0.396 OA
ATOM     44  H1  UNL     1      -7.987  28.446 -38.932  1.00  0.00     0.210 HD
ENDBRANCH  10  43
TORSDOF 10
ENDMDL
MODEL 2
REMARK VINA RESULT: -7.526647890      5.365      8.486
REMARK  10 active torsions:
REMARK  status: ('A' for Active; 'I' for Inactive)
REMARK    1  A    between atoms: C10_10  and  O1_11 
REMARK    2  A    between atoms: C18_21  and  O2_22 
REMARK    3  A    between atoms: C19_24  and  C20_25 
REMARK    4  A    between atoms: C20_25  and  C22_27 
REMARK    5  A    between atoms: C20_25  and  C25_37 
REMARK    6  A    between atoms: C22_27  and  N1_28 
REMARK    7  A    between atoms: N1_28  and  C23_31 
REMARK    8  A    between atoms: C23_31  and  C24_32 
REMARK    9  A    between atoms: C24_32  and  N2_33 
REMARK   10  A    between atoms: C28_40  and  O3_41 
ROOT
HETATM    1  C1  UNL     1       2.802  17.576 -37.719  1.00  0.00     0.020 C 
HETATM    2  C2  UNL     1       2.038  16.549 -38.530  1.00  0.00    -0.014 C 
HETATM    3  C3  UNL     1       2.466  16.753 -39.936  1.00  0.00     0.014 C 
HETATM    4  C4  UNL     1       2.200  18.083 -40.546  1.00  0.00     0.009 C 
HETATM    5  C5  UNL     1       0.799  18.232 -41.067  1.00  0.00     0.030 C 
HETATM    6  C6  UNL     1       0.728  19.232 -42.162  1.00  0.00     0.009 C 
HETATM    7  C7  UNL     1      -0.133  20.432 -41.899  1.00  0.00     0.005 C 
HETATM    8  C8  UNL     1       0.103  20.823 -40.452  1.00  0.00    -0.004 C 
HETATM    9  C9  UNL     1      -0.509  22.198 -40.181  1.00  0.00     0.037 C 
HETATM   10  C10 UNL     1      -0.461  22.517 -38.715  1.00  0.00     0.118 C 
HETATM   11  C11 UNL     1       0.237  21.406 -37.962  1.00  0.00     0.032 C 
HETATM   12  C12 UNL     1      -0.466  20.080 -38.182  1.00  0.00     0.011 C 
HETATM   13  C13 UNL     1      -0.625  19.781 -39.634  1.00  0.00     0.034 C 
HETATM   14  C14 UNL     1      -0.269  18.371 -40.045  1.00  0.00     0.129 C 
HETATM   15  F1  UNL     1      -1.416  17.981 -40.810  1.00  0.00    -0.238 F 
HETATM   16  C15 UNL     1      -0.271  17.424 -38.942  1.00  0.00     0.020 C 
HETATM   17  C16 UNL     1       0.575  16.667 -38.283  1.00  0.00    -0.069 C 
HETATM   18  C17 UNL     1       0.237  15.736 -37.145  1.00  0.00     0.067 C 
HETATM   19  C18 UNL     1       1.037  14.541 -37.642  1.00  0.00     0.128 C 
HETATM   20  C19 UNL     1       2.320  15.110 -38.158  1.00  0.00     0.041 C 
ENDROOT
BRANCH  20  21
HETATM   21  C20 UNL     1       3.565  14.747 -37.489  1.00  0.00     0.014 C 
HETATM   22  C21 UNL     1       4.467  15.834 -37.014  1.00  0.00     0.023 C 
BRANCH  21  23
HETATM   23  C22 UNL     1       3.162  14.069 -36.128  1.00  0.00     0.246 C 
BRANCH  23  24
HETATM   24  N1  UNL     1       3.077  15.076 -35.122  1.00  0.00    -0.072 N 
ATOM     25  H12 UNL     1       3.942  15.614 -35.081  1.00  0.00     0.277 HD
ATOM     26  H11 UNL     1       2.429  15.811 -35.405  1.00  0.00     0.277 HD
BRANCH  24  27
HETATM   27  C23 UNL     1       2.741  14.586 -33.844  1.00  0.00     0.259 C 
BRANCH  27  28
HETATM   28  C24 UNL     1       2.939  13.117 -33.614  1.00  0.00     0.257 C 
BRANCH  28  29
HETATM   29  N2  UNL     1       1.780  12.358 -33.293  1.00  0.00    -0.078 N 
ATOM     30  H23 UNL     1       0.976  12.980 -33.211  1.00  0.00     0.274 HD
ATOM     31  H22 UNL     1       1.502  11.800 -34.100  1.00  0.00     0.274 HD
ATOM     32  H21 UNL     1       1.837  11.761 -32.468  1.00  0.00     0.274 HD
ENDBRANCH  28  29
ENDBRANCH  27  28
ENDBRANCH  24  27
ENDBRANCH  23  24
ENDBRANCH  21  23
BRANCH  21  33
HETATM   33  C25 UNL     1       4.278  13.597 -38.114  1.00  0.00    -0.048 A 
HETATM   34  C26 UNL     1       5.097  12.722 -37.432  1.00  0.00     0.011 A 
HETATM   35  C27 UNL     1       5.723  11.665 -38.075  1.00  0.00     0.037 A 
HETATM   36  C28 UNL     1       5.559  11.435 -39.420  1.00  0.00     0.065 A 
HETATM   37  C29 UNL     1       4.736  12.319 -40.089  1.00  0.00     0.037 A 
HETATM   38  C30 UNL     1       4.105  13.377 -39.473  1.00  0.00     0.011 A 
BRANCH  36  39
HETATM   39  O3  UNL     1       6.162  10.390 -40.104  1.00  0.00    -0.361 OA
ATOM     40  H3  UNL     1       5.686   9.754 -40.625  1.00  0.00     0.217 HD
ENDBRANCH  36  39
ENDBRANCH  21  33
ENDBRANCH  20  21
BRANCH  19  41
HETATM   41  O2  UNL     1       0.246  13.969 -38.689  1.00  0.00    -0.395 OA
ATOM     42  H2  UNL     1       0.871  13.585 -39.292  1.00  0.00     0.210 HD
ENDBRANCH  19  41
BRANCH  10  43
HETATM   43  O1  UNL     1      -1.733  22.734 -38.192  1.00  0.00    -0.396 OA
ATOM     44  H1  UNL     1      -1.722  22.772 -37.243  1.00  0.00     0.210 HD
ENDBRANCH  10  43
TORSDOF 10
ENDMDL
MODEL 3
REMARK VINA RESULT: -7.516531892      2.829      4.663
REMARK  10 active torsions:
REMARK  status: ('A' for Active; 'I' for Inactive)
REMARK    1  A    between atoms: C10_10  and  O1_11 
REMARK    2  A    between atoms: C18_21  and  O2_22 
REMARK    3  A    between atoms: C19_24  and  C20_25 
REMARK    4  A    between atoms: C20_25  and  C22_27 
REMARK    5  A    between atoms: C20_25  and  C25_37 
REMARK    6  A    between atoms: C22_27  and  N1_28 
REMARK    7  A    between atoms: N1_28  and  C23_31 
REMARK    8  A    between atoms: C23_31  and  C24_32 
REMARK    9  A    between atoms: C24_32  and  N2_33 
REMARK   10  A    between atoms: C28_40  and  O3_41 
ROOT
HETATM    1  C1  UNL     1      -3.846  23.654 -37.426  1.00  0.00     0.020 C 
HETATM    2  C2  UNL     1      -2.505  24.122 -37.954  1.00  0.00    -0.014 C 
HETATM    3  C3  UNL     1      -2.028  25.141 -36.986  1.00  0.00     0.014 C 
HETATM    4  C4  UNL     1      -2.873  26.349 -36.793  1.00  0.00     0.009 C 
HETATM    5  C5  UNL     1      -2.655  27.404 -37.840  1.00  0.00     0.030 C 
HETATM    6  C6  UNL     1      -2.989  28.757 -37.330  1.00  0.00     0.009 C 
HETATM    7  C7  UNL     1      -4.104  29.468 -38.039  1.00  0.00     0.005 C 
HETATM    8  C8  UNL     1      -5.164  28.422 -38.332  1.00  0.00    -0.004 C 
HETATM    9  C9  UNL     1      -6.452  29.106 -38.791  1.00  0.00     0.037 C 
HETATM   10  C10 UNL     1      -7.446  28.090 -39.274  1.00  0.00     0.118 C 
HETATM   11  C11 UNL     1      -6.891  26.694 -39.098  1.00  0.00     0.032 C 
HETATM   12  C12 UNL     1      -5.581  26.535 -39.846  1.00  0.00     0.011 C 
HETATM   13  C13 UNL     1      -4.604  27.596 -39.466  1.00  0.00     0.034 C 
HETATM   14  C14 UNL     1      -3.200  27.111 -39.190  1.00  0.00     0.129 C 
HETATM   15  F1  UNL     1      -2.410  27.999 -39.991  1.00  0.00    -0.238 F 
HETATM   16  C15 UNL     1      -2.911  25.806 -39.763  1.00  0.00     0.020 C 
HETATM   17  C16 UNL     1      -2.629  24.587 -39.364  1.00  0.00    -0.069 C 
HETATM   18  C17 UNL     1      -2.347  23.402 -40.252  1.00  0.00     0.067 C 
HETATM   19  C18 UNL     1      -1.119  22.902 -39.507  1.00  0.00     0.128 C 
HETATM   20  C19 UNL     1      -1.451  23.042 -38.056  1.00  0.00     0.041 C 
ENDROOT
BRANCH  20  21
HETATM   21  C20 UNL     1      -1.544  21.836 -37.240  1.00  0.00     0.014 C 
HETATM   22  C21 UNL     1      -2.671  20.892 -37.481  1.00  0.00     0.023 C 
BRANCH  21  23
HETATM   23  C22 UNL     1      -0.309  20.939 -37.620  1.00  0.00     0.246 C 
BRANCH  23  24
HETATM   24  N1  UNL     1      -0.764  19.608 -37.854  1.00  0.00    -0.072 N 
ATOM     25  H12 UNL     1      -1.048  19.169 -36.978  1.00  0.00     0.277 HD
ATOM     26  H11 UNL     1      -1.660  19.617 -38.342  1.00  0.00     0.277 HD
BRANCH  24  27
HETATM   27  C23 UNL     1       0.163  18.795 -38.536  1.00  0.00     0.259 C 
BRANCH  27  28
HETATM   28  C24 UNL     1       0.509  17.485 -37.893  1.00  0.00     0.257 C 
BRANCH  28  29
HETATM   29  N2  UNL     1      -0.123  16.326 -38.422  1.00  0.00    -0.078 N 
ATOM     30  H23 UNL     1      -0.732  16.592 -39.196  1.00  0.00     0.274 HD
ATOM     31  H22 UNL     1       0.565  15.755 -38.913  1.00  0.00     0.274 HD
ATOM     32  H21 UNL     1      -0.641  15.745 -37.763  1.00  0.00     0.274 HD
ENDBRANCH  28  29
ENDBRANCH  27  28
ENDBRANCH  24  27
ENDBRANCH  23  24
ENDBRANCH  21  23
BRANCH  21  33
HETATM   33  C25 UNL     1      -1.233  22.052 -35.797  1.00  0.00    -0.048 A 
HETATM   34  C26 UNL     1      -2.168  22.028 -34.785  1.00  0.00     0.011 A 
HETATM   35  C27 UNL     1      -1.806  22.227 -33.461  1.00  0.00     0.037 A 
HETATM   36  C28 UNL     1      -0.503  22.457 -33.091  1.00  0.00     0.065 A 
HETATM   37  C29 UNL     1       0.422  22.477 -34.117  1.00  0.00     0.037 A 
HETATM   38  C30 UNL     1       0.087  22.283 -35.439  1.00  0.00     0.011 A 
BRANCH  36  39
HETATM   39  O3  UNL     1      -0.096  22.658 -31.781  1.00  0.00    -0.361 OA
ATOM     40  H3  UNL     1       0.787  22.910 -31.534  1.00  0.00     0.217 HD
ENDBRANCH  36  39
ENDBRANCH  21  33
ENDBRANCH  20  21
BRANCH  19  41
HETATM   41  O2  UNL     1      -0.058  23.778 -39.901  1.00  0.00    -0.395 OA
ATOM     42  H2  UNL     1       0.552  23.230 -40.380  1.00  0.00     0.210 HD
ENDBRANCH  19  41
BRANCH  10  43
HETATM   43  O1  UNL     1      -7.803  28.307 -40.602  1.00  0.00    -0.396 OA
ATOM     44  H1  UNL     1      -8.725  28.517 -40.689  1.00  0.00     0.210 HD
ENDBRANCH  10  43
TORSDOF 10
ENDMDL
MODEL 4
REMARK VINA RESULT: -7.074615232      0.856      1.161
REMARK  10 active torsions:
REMARK  status: ('A' for Active; 'I' for Inactive)
REMARK    1  A    between atoms: C10_10  and  O1_11 
REMARK    2  A    between atoms: C18_21  and  O2_22 
REMARK    3  A    between atoms: C19_24  and  C20_25 
REMARK    4  A    between atoms: C20_25  and  C22_27 
REMARK    5  A    between atoms: C20_25  and  C25_37 
REMARK    6  A    between atoms: C22_27  and  N1_28 
REMARK    7  A    between atoms: N1_28  and  C23_31 
REMARK    8  A    between atoms: C23_31  and  C24_32 
REMARK    9  A    between atoms: C24_32  and  N2_33 
REMARK   10  A    between atoms: C28_40  and  O3_41 
ROOT
HETATM    1  C1  UNL     1      -2.276  24.911 -36.800  1.00  0.00     0.020 C 
HETATM    2  C2  UNL     1      -2.593  23.692 -37.643  1.00  0.00    -0.014 C 
HETATM    3  C3  UNL     1      -1.993  23.960 -38.973  1.00  0.00     0.014 C 
HETATM    4  C4  UNL     1      -2.481  25.151 -39.717  1.00  0.00     0.009 C 
HETATM    5  C5  UNL     1      -3.759  24.904 -40.468  1.00  0.00     0.030 C 
HETATM    6  C6  UNL     1      -3.892  25.814 -41.633  1.00  0.00     0.009 C 
HETATM    7  C7  UNL     1      -5.067  26.747 -41.604  1.00  0.00     0.005 C 
HETATM    8  C8  UNL     1      -5.198  27.231 -40.172  1.00  0.00    -0.004 C 
HETATM    9  C9  UNL     1      -6.181  28.400 -40.110  1.00  0.00     0.037 C 
HETATM   10  C10 UNL     1      -6.477  28.766 -38.683  1.00  0.00     0.118 C 
HETATM   11  C11 UNL     1      -5.659  27.906 -37.745  1.00  0.00     0.032 C 
HETATM   12  C12 UNL     1      -5.946  26.434 -37.974  1.00  0.00     0.011 C 
HETATM   13  C13 UNL     1      -5.764  26.058 -39.406  1.00  0.00     0.034 C 
HETATM   14  C14 UNL     1      -4.989  24.783 -39.645  1.00  0.00     0.129 C 
HETATM   15  F1  UNL     1      -5.844  24.077 -40.553  1.00  0.00    -0.238 F 
HETATM   16  C15 UNL     1      -4.941  23.905 -38.488  1.00  0.00     0.020 C 
HETATM   17  C16 UNL     1      -4.058  23.422 -37.645  1.00  0.00    -0.069 C 
HETATM   18  C17 UNL     1      -4.338  22.470 -36.509  1.00  0.00     0.067 C 
HETATM   19  C18 UNL     1      -3.182  21.518 -36.778  1.00  0.00     0.128 C 
HETATM   20  C19 UNL     1      -2.019  22.394 -37.122  1.00  0.00     0.041 C 
ENDROOT
BRANCH  20  21
HETATM   21  C20 UNL     1      -0.861  22.398 -36.235  1.00  0.00     0.014 C 
HETATM   22  C21 UNL     1      -0.259  23.704 -35.847  1.00  0.00     0.023 C 
BRANCH  21  23
HETATM   23  C22 UNL     1      -1.360  21.866 -34.841  1.00  0.00     0.246 C 
BRANCH  23  24
HETATM   24  N1  UNL     1      -1.516  22.975 -33.957  1.00  0.00    -0.072 N 
ATOM     25  H12 UNL     1      -0.744  23.632 -34.069  1.00  0.00     0.277 HD
ATOM     26  H11 UNL     1      -2.292  23.565 -34.258  1.00  0.00     0.277 HD
BRANCH  24  27
HETATM   27  C23 UNL     1      -1.665  22.614 -32.603  1.00  0.00     0.259 C 
BRANCH  27  28
HETATM   28  C24 UNL     1      -0.415  22.580 -31.775  1.00  0.00     0.257 C 
BRANCH  28  29
HETATM   29  N2  UNL     1      -0.498  21.917 -30.519  1.00  0.00    -0.078 N 
ATOM     30  H23 UNL     1       0.082  22.404 -29.836  1.00  0.00     0.274 HD
ATOM     31  H22 UNL     1      -1.423  22.064 -30.116  1.00  0.00     0.274 HD
ATOM     32  H21 UNL     1      -0.276  20.922 -30.511  1.00  0.00     0.274 HD
ENDBRANCH  28  29
ENDBRANCH  27  28
ENDBRANCH  24  27
ENDBRANCH  23  24
ENDBRANCH  21  23
BRANCH  21  33
HETATM   33  C25 UNL     1       0.141  21.335 -36.538  1.00  0.00    -0.048 A 
HETATM   34  C26 UNL     1       0.117  20.539 -37.663  1.00  0.00     0.011 A 
HETATM   35  C27 UNL     1       1.088  19.575 -37.888  1.00  0.00     0.037 A 
HETATM   36  C28 UNL     1       2.120  19.365 -37.005  1.00  0.00     0.065 A 
HETATM   37  C29 UNL     1       2.130  20.171 -35.883  1.00  0.00     0.037 A 
HETATM   38  C30 UNL     1       1.177  21.134 -35.638  1.00  0.00     0.011 A 
BRANCH  36  39
HETATM   39  O3  UNL     1       3.114  18.415 -37.190  1.00  0.00    -0.361 OA
ATOM     40  H3  UNL     1       3.896  18.356 -36.653  1.00  0.00     0.217 HD
ENDBRANCH  36  39
ENDBRANCH  21  33
ENDBRANCH  20  21
BRANCH  19  41
HETATM   41  O2  UNL     1      -3.602  20.723 -37.892  1.00  0.00    -0.395 OA
ATOM     42  H2  UNL     1      -3.243  19.859 -37.730  1.00  0.00     0.210 HD
ENDBRANCH  19  41
BRANCH  10  43
HETATM   43  O1  UNL     1      -7.833  28.650 -38.391  1.00  0.00    -0.396 OA
ATOM     44  H1  UNL     1      -7.983  28.118 -37.618  1.00  0.00     0.210 HD
ENDBRANCH  10  43
TORSDOF 10
ENDMDL
MODEL 5
REMARK VINA RESULT: -7.020083988      2.829      3.966
REMARK  10 active torsions:
REMARK  status: ('A' for Active; 'I' for Inactive)
REMARK    1  A    between atoms: C10_10  and  O1_11 
REMARK    2  A    between atoms: C18_21  and  O2_22 
REMARK    3  A    between atoms: C19_24  and  C20_25 
REMARK    4  A    between atoms: C20_25  and  C22_27 
REMARK    5  A    between atoms: C20_25  and  C25_37 
REMARK    6  A    between atoms: C22_27  and  N1_28 
REMARK    7  A    between atoms: N1_28  and  C23_31 
REMARK    8  A    between atoms: C23_31  and  C24_32 
REMARK    9  A    between atoms: C24_32  and  N2_33 
REMARK   10  A    between atoms: C28_40  and  O3_41 
ROOT
HETATM    1  C1  UNL     1      -1.260  23.563 -38.048  1.00  0.00     0.020 C 
HETATM    2  C2  UNL     1      -2.271  22.551 -38.550  1.00  0.00    -0.014 C 
HETATM    3  C3  UNL     1      -2.571  22.949 -39.948  1.00  0.00     0.014 C 
HETATM    4  C4  UNL     1      -3.153  24.300 -40.165  1.00  0.00     0.009 C 
HETATM    5  C5  UNL     1      -4.639  24.352 -39.948  1.00  0.00     0.030 C 
HETATM    6  C6  UNL     1      -5.265  25.449 -40.728  1.00  0.00     0.009 C 
HETATM    7  C7  UNL     1      -5.950  26.515 -39.924  1.00  0.00     0.005 C 
HETATM    8  C8  UNL     1      -5.073  26.773 -38.714  1.00  0.00    -0.004 C 
HETATM    9  C9  UNL     1      -5.543  28.038 -37.995  1.00  0.00     0.037 C 
HETATM   10  C10 UNL     1      -4.820  28.203 -36.690  1.00  0.00     0.118 C 
HETATM   11  C11 UNL     1      -3.800  27.100 -36.517  1.00  0.00     0.032 C 
HETATM   12  C12 UNL     1      -4.463  25.737 -36.573  1.00  0.00     0.011 C 
HETATM   13  C13 UNL     1      -5.279  25.578 -37.812  1.00  0.00     0.034 C 
HETATM   14  C14 UNL     1      -5.098  24.267 -38.540  1.00  0.00     0.129 C 
HETATM   15  F1  UNL     1      -6.453  23.839 -38.731  1.00  0.00    -0.238 F 
HETATM   16  C15 UNL     1      -4.535  23.213 -37.711  1.00  0.00     0.020 C 
HETATM   17  C16 UNL     1      -3.445  22.485 -37.637  1.00  0.00    -0.069 C 
HETATM   18  C17 UNL     1      -3.161  21.407 -36.621  1.00  0.00     0.067 C 
HETATM   19  C18 UNL     1      -2.640  20.365 -37.599  1.00  0.00     0.128 C 
HETATM   20  C19 UNL     1      -1.782  21.120 -38.564  1.00  0.00     0.041 C 
ENDROOT
BRANCH  20  21
HETATM   21  C20 UNL     1      -0.354  20.823 -38.610  1.00  0.00     0.014 C 
HETATM   22  C21 UNL     1       0.521  21.338 -37.519  1.00  0.00     0.023 C 
BRANCH  21  23
HETATM   23  C22 UNL     1      -0.211  19.270 -38.408  1.00  0.00     0.246 C 
BRANCH  23  24
HETATM   24  N1  UNL     1       0.781  19.026 -37.413  1.00  0.00    -0.072 N 
ATOM     25  H12 UNL     1       1.556  19.682 -37.513  1.00  0.00     0.277 HD
ATOM     26  H11 UNL     1       0.439  19.301 -36.492  1.00  0.00     0.277 HD
BRANCH  24  27
HETATM   27  C23 UNL     1       1.257  17.700 -37.388  1.00  0.00     0.259 C 
BRANCH  27  28
HETATM   28  C24 UNL     1       0.774  16.792 -38.480  1.00  0.00     0.257 C 
BRANCH  28  29
HETATM   29  N2  UNL     1      -0.135  15.766 -38.102  1.00  0.00    -0.078 N 
ATOM     30  H23 UNL     1      -0.261  15.117 -38.879  1.00  0.00     0.274 HD
ATOM     31  H22 UNL     1       0.307  15.152 -37.417  1.00  0.00     0.274 HD
ATOM     32  H21 UNL     1      -1.046  16.065 -37.754  1.00  0.00     0.274 HD
ENDBRANCH  28  29
ENDBRANCH  27  28
ENDBRANCH  24  27
ENDBRANCH  23  24
ENDBRANCH  21  23
BRANCH  21  33
HETATM   33  C25 UNL     1       0.246  20.933 -39.970  1.00  0.00    -0.048 A 
HETATM   34  C26 UNL     1       0.825  22.076 -40.478  1.00  0.00     0.011 A 
HETATM   35  C27 UNL     1       1.375  22.104 -41.751  1.00  0.00     0.037 A 
HETATM   36  C28 UNL     1       1.371  21.000 -42.568  1.00  0.00     0.065 A 
HETATM   37  C29 UNL     1       0.788  19.862 -42.045  1.00  0.00     0.037 A 
HETATM   38  C30 UNL     1       0.235  19.809 -40.784  1.00  0.00     0.011 A 
BRANCH  36  39
HETATM   39  O3  UNL     1       1.911  20.981 -43.846  1.00  0.00    -0.361 OA
ATOM     40  H3  UNL     1       1.416  20.760 -44.626  1.00  0.00     0.217 HD
ENDBRANCH  36  39
ENDBRANCH  21  33
ENDBRANCH  20  21
BRANCH  19  41
HETATM   41  O2  UNL     1      -3.807  19.826 -38.228  1.00  0.00    -0.395 OA
ATOM     42  H2  UNL     1      -4.215  20.562 -38.670  1.00  0.00     0.210 HD
ENDBRANCH  19  41
BRANCH  10  43
HETATM   43  O1  UNL     1      -5.699  28.226 -35.611  1.00  0.00    -0.396 OA
ATOM     44  H1  UNL     1      -6.323  27.510 -35.649  1.00  0.00     0.210 HD
ENDBRANCH  10  43
TORSDOF 10
ENDMDL
