MODEL 1
REMARK VINA RESULT: -8.598414872      0.000      0.000
REMARK  14 active torsions:
REMARK  status: ('A' for Active; 'I' for Inactive)
REMARK    1  A    between atoms: O1_2  and  N1_3 
REMARK       I    between atoms: N1_3  and  C2_5 
REMARK    2  A    between atoms: C2_5  and  C3_7 
REMARK    3  A    between atoms: C4_12  and  C5_13 
REMARK    4  A    between atoms: C5_13  and  N4_14 
REMARK    5  A    between atoms: C5_13  and  C14_44 
REMARK    6  A    between atoms: N4_14  and  C6_16 
REMARK    7  A    between atoms: C8_20  and  N6_21 
REMARK    8  A    between atoms: C9_26  and  N8_27 
REMARK    9  A    between atoms: N10_33  and  C11_34 
REMARK   10  A    between atoms: C11_34  and  C12_35 
REMARK   11  A    between atoms: C12_35  and  O3_36 
REMARK   12  A    between atoms: C12_35  and  O4_38 
REMARK   13  A    between atoms: C13_40  and  N11_41 
REMARK   14  A    between atoms: C15_47  and  O7_48 
ROOT
HETATM    1  C6  UNL     1      23.393  34.068 -21.624  1.00  0.00     0.147 A 
HETATM    2  N5  UNL     1      24.164  34.621 -22.607  1.00  0.00    -0.334 N 
ATOM      3  H5  UNL     1      23.716  34.888 -23.484  1.00  0.00     0.168 HD
HETATM    4  C7  UNL     1      25.485  34.831 -22.475  1.00  0.00     0.123 A 
HETATM    5  C8  UNL     1      26.244  35.394 -23.483  1.00  0.00     0.145 A 
HETATM    6  N7  UNL     1      27.565  35.607 -23.355  1.00  0.00    -0.175 N 
ATOM      7  H7  UNL     1      28.104  36.023 -24.115  1.00  0.00     0.186 HD
HETATM    8  C9  UNL     1      28.157  35.258 -22.204  1.00  0.00     0.679 A 
HETATM    9  N9  UNL     1      27.446  34.710 -21.208  1.00  0.00    -0.174 N 
ATOM     10  H9  UNL     1      27.923  34.456 -20.343  1.00  0.00     0.186 HD
HETATM   11  C10 UNL     1      26.117  34.485 -21.311  1.00  0.00     0.155 A 
HETATM   12  N10 UNL     1      25.402  33.941 -20.322  1.00  0.00    -0.309 N 
HETATM   13  C13 UNL     1      24.053  33.733 -20.473  1.00  0.00     0.147 A 
ENDROOT
BRANCH   1  14
HETATM   14  N4  UNL     1      22.031  33.852 -21.782  1.00  0.00    -0.354 N 
ATOM     15  H4  UNL     1      21.732  32.882 -21.680  1.00  0.00     0.162 HD
BRANCH  14  16
HETATM   16  C5  UNL     1      20.978  34.785 -22.069  1.00  0.00     0.241 C 
BRANCH  16  17
HETATM   17  C4  UNL     1      21.188  36.162 -21.581  1.00  0.00     0.110 A 
HETATM   18  N3  UNL     1      20.695  36.501 -20.358  1.00  0.00    -0.296 N 
HETATM   19  N2  UNL     1      20.828  37.666 -19.809  1.00  0.00    -0.281 N 
ATOM     20  H3  UNL     1      20.185  35.787 -19.837  1.00  0.00     0.187 HD
HETATM   21  C3  UNL     1      21.485  38.650 -20.436  1.00  0.00     0.193 A 
ATOM     22  H2  UNL     1      20.427  37.837 -18.887  1.00  0.00     0.188 HD
HETATM   23  N12 UNL     1      21.988  38.365 -21.644  1.00  0.00    -0.316 N 
HETATM   24  C15 UNL     1      21.865  37.150 -22.248  1.00  0.00     0.169 A 
ATOM     25  H12 UNL     1      22.493  39.100 -22.139  1.00  0.00     0.169 HD
BRANCH  21  26
HETATM   26  C2  UNL     1      21.609  39.950 -19.804  1.00  0.00     0.310 C 
HETATM   27  N1  UNL     1      21.401  40.074 -18.412  1.00  0.00    -0.229 N 
ATOM     28  H1  UNL     1      21.167  39.242 -17.870  1.00  0.00     0.198 HD
HETATM   29  O2  UNL     1      21.898  40.980 -20.464  1.00  0.00    -0.262 OA
BRANCH  27  30
HETATM   30  O1  UNL     1      21.502  41.250 -17.785  1.00  0.00    -0.282 OA
HETATM   31  C1  UNL     1      20.221  41.676 -17.449  1.00  0.00     0.237 C 
ENDBRANCH  27  30
ENDBRANCH  21  26
BRANCH  24  32
HETATM   32  O7  UNL     1      22.422  36.954 -23.515  1.00  0.00    -0.344 OA
ATOM     33  H7  UNL     1      23.312  36.646 -23.639  1.00  0.00     0.219 HD
ENDBRANCH  24  32
ENDBRANCH  16  17
BRANCH  16  34
HETATM   34  C14 UNL     1      19.744  34.244 -21.432  1.00  0.00     0.203 C 
HETATM   35  O5  UNL     1      19.739  33.303 -20.634  1.00  0.00    -0.646 OA
HETATM   36  O6  UNL     1      18.516  34.847 -21.767  1.00  0.00    -0.646 OA
ENDBRANCH  16  34
ENDBRANCH  14  16
ENDBRANCH   1  14
BRANCH  13  37
HETATM   37  N11 UNL     1      23.453  33.209 -19.496  1.00  0.00    -0.382 N 
ATOM     38 2H11 UNL     1      22.501  33.534 -19.321  1.00  0.00     0.157 HD
ATOM     39 1H11 UNL     1      23.898  32.502 -18.911  1.00  0.00     0.157 HD
ENDBRANCH  13  37
BRANCH  12  40
HETATM   40  C11 UNL     1      26.046  33.540 -19.091  1.00  0.00     0.192 C 
BRANCH  40  41
HETATM   41  C12 UNL     1      26.266  34.653 -18.114  1.00  0.00     0.272 C 
BRANCH  41  42
HETATM   42  O3  UNL     1      27.363  35.410 -18.433  1.00  0.00    -0.370 OA
ATOM     43  H3  UNL     1      27.583  36.028 -17.746  1.00  0.00     0.212 HD
ENDBRANCH  41  42
BRANCH  41  44
HETATM   44  O4  UNL     1      25.089  35.431 -18.056  1.00  0.00    -0.370 OA
ATOM     45  H4  UNL     1      25.266  36.200 -17.527  1.00  0.00     0.212 HD
ENDBRANCH  41  44
ENDBRANCH  40  41
ENDBRANCH  12  40
BRANCH   5  46
HETATM   46  N6  UNL     1      25.694  35.737 -24.599  1.00  0.00    -0.383 N 
ATOM     47  H62 UNL     1      26.032  35.282 -25.447  1.00  0.00     0.157 HD
ATOM     48  H61 UNL     1      24.952  36.438 -24.614  1.00  0.00     0.157 HD
ENDBRANCH   5  46
BRANCH   8  49
HETATM   49  N8  UNL     1      29.424  35.442 -22.031  1.00  0.00    -0.234 N 
ATOM     50  H82 UNL     1      29.729  36.206 -21.428  1.00  0.00     0.174 HD
ATOM     51  H81 UNL     1      30.105  34.836 -22.489  1.00  0.00     0.174 HD
ENDBRANCH   8  49
TORSDOF 14
ENDMDL
MODEL 2
REMARK VINA RESULT: -8.445535621      2.873      4.234
REMARK  14 active torsions:
REMARK  status: ('A' for Active; 'I' for Inactive)
REMARK    1  A    between atoms: O1_2  and  N1_3 
REMARK       I    between atoms: N1_3  and  C2_5 
REMARK    2  A    between atoms: C2_5  and  C3_7 
REMARK    3  A    between atoms: C4_12  and  C5_13 
REMARK    4  A    between atoms: C5_13  and  N4_14 
REMARK    5  A    between atoms: C5_13  and  C14_44 
REMARK    6  A    between atoms: N4_14  and  C6_16 
REMARK    7  A    between atoms: C8_20  and  N6_21 
REMARK    8  A    between atoms: C9_26  and  N8_27 
REMARK    9  A    between atoms: N10_33  and  C11_34 
REMARK   10  A    between atoms: C11_34  and  C12_35 
REMARK   11  A    between atoms: C12_35  and  O3_36 
REMARK   12  A    between atoms: C12_35  and  O4_38 
REMARK   13  A    between atoms: C13_40  and  N11_41 
REMARK   14  A    between atoms: C15_47  and  O7_48 
ROOT
HETATM    1  C6  UNL     1      23.179  35.085 -21.291  1.00  0.00     0.147 A 
HETATM    2  N5  UNL     1      23.951  35.767 -22.188  1.00  0.00    -0.334 N 
ATOM      3  H5  UNL     1      23.486  36.337 -22.895  1.00  0.00     0.168 HD
HETATM    4  C7  UNL     1      25.294  35.724 -22.184  1.00  0.00     0.123 A 
HETATM    5  C8  UNL     1      26.055  36.423 -23.101  1.00  0.00     0.145 A 
HETATM    6  N7  UNL     1      27.398  36.383 -23.101  1.00  0.00    -0.175 N 
ATOM      7  H7  UNL     1      27.937  36.908 -23.789  1.00  0.00     0.186 HD
HETATM    8  C9  UNL     1      28.012  35.637 -22.172  1.00  0.00     0.679 A 
HETATM    9  N9  UNL     1      27.301  34.947 -21.268  1.00  0.00    -0.174 N 
ATOM     10  H9  UNL     1      27.795  34.388 -20.573  1.00  0.00     0.186 HD
HETATM   11  C10 UNL     1      25.950  34.969 -21.248  1.00  0.00     0.155 A 
HETATM   12  N10 UNL     1      25.233  34.285 -20.350  1.00  0.00    -0.309 N 
HETATM   13  C13 UNL     1      23.862  34.341 -20.368  1.00  0.00     0.147 A 
ENDROOT
BRANCH   1  14
HETATM   14  N4  UNL     1      21.791  35.136 -21.315  1.00  0.00    -0.354 N 
ATOM     15  H4  UNL     1      21.367  35.725 -20.599  1.00  0.00     0.162 HD
BRANCH  14  16
HETATM   16  C5  UNL     1      20.863  34.484 -22.196  1.00  0.00     0.241 C 
BRANCH  16  17
HETATM   17  C4  UNL     1      19.609  35.213 -22.463  1.00  0.00     0.110 A 
HETATM   18  N3  UNL     1      18.937  34.949 -23.618  1.00  0.00    -0.296 N 
HETATM   19  N2  UNL     1      17.818  35.504 -23.960  1.00  0.00    -0.281 N 
ATOM     20  H3  UNL     1      19.343  34.266 -24.258  1.00  0.00     0.187 HD
HETATM   21  C3  UNL     1      17.228  36.408 -23.169  1.00  0.00     0.193 A 
ATOM     22  H2  UNL     1      17.379  35.248 -24.845  1.00  0.00     0.188 HD
HETATM   23  N12 UNL     1      17.852  36.702 -22.021  1.00  0.00    -0.316 N 
HETATM   24  C15 UNL     1      19.030  36.137 -21.632  1.00  0.00     0.169 A 
ATOM     25  H12 UNL     1      17.421  37.389 -21.402  1.00  0.00     0.169 HD
BRANCH  21  26
HETATM   26  C2  UNL     1      15.982  37.023 -23.582  1.00  0.00     0.310 C 
HETATM   27  N1  UNL     1      14.908  36.210 -24.007  1.00  0.00    -0.229 N 
ATOM     28  H1  UNL     1      15.026  35.197 -24.016  1.00  0.00     0.198 HD
HETATM   29  O2  UNL     1      15.826  38.271 -23.574  1.00  0.00    -0.262 OA
BRANCH  27  30
HETATM   30  O1  UNL     1      13.740  36.731 -24.399  1.00  0.00    -0.282 OA
HETATM   31  C1  UNL     1      12.723  35.870 -23.999  1.00  0.00     0.237 C 
ENDBRANCH  27  30
ENDBRANCH  21  26
BRANCH  24  32
HETATM   32  O7  UNL     1      19.605  36.516 -20.416  1.00  0.00    -0.344 OA
ATOM     33  H7  UNL     1      20.537  36.666 -20.317  1.00  0.00     0.219 HD
ENDBRANCH  24  32
ENDBRANCH  16  17
BRANCH  16  34
HETATM   34  C14 UNL     1      20.523  33.178 -21.563  1.00  0.00     0.203 C 
HETATM   35  O5  UNL     1      20.348  33.026 -20.351  1.00  0.00    -0.646 OA
HETATM   36  O6  UNL     1      20.395  32.056 -22.406  1.00  0.00    -0.646 OA
ENDBRANCH  16  34
ENDBRANCH  14  16
ENDBRANCH   1  14
BRANCH  13  37
HETATM   37  N11 UNL     1      23.261  33.662 -19.491  1.00  0.00    -0.382 N 
ATOM     38 2H11 UNL     1      23.723  33.581 -18.585  1.00  0.00     0.157 HD
ATOM     39 1H11 UNL     1      22.364  33.215 -19.681  1.00  0.00     0.157 HD
ENDBRANCH  13  37
BRANCH  12  40
HETATM   40  C11 UNL     1      25.895  33.459 -19.366  1.00  0.00     0.192 C 
BRANCH  40  41
HETATM   41  C12 UNL     1      26.382  34.199 -18.158  1.00  0.00     0.272 C 
BRANCH  41  42
HETATM   42  O3  UNL     1      27.650  34.688 -18.329  1.00  0.00    -0.370 OA
ATOM     43  H3  UNL     1      28.283  34.243 -17.778  1.00  0.00     0.212 HD
ENDBRANCH  41  42
BRANCH  41  44
HETATM   44  O4  UNL     1      25.457  35.226 -17.866  1.00  0.00    -0.370 OA
ATOM     45  H4  UNL     1      24.591  34.840 -17.812  1.00  0.00     0.212 HD
ENDBRANCH  41  44
ENDBRANCH  40  41
ENDBRANCH  12  40
BRANCH   5  46
HETATM   46  N6  UNL     1      25.484  37.148 -24.003  1.00  0.00    -0.383 N 
ATOM     47  H62 UNL     1      24.706  36.733 -24.515  1.00  0.00     0.157 HD
ATOM     48  H61 UNL     1      25.811  38.098 -24.184  1.00  0.00     0.157 HD
ENDBRANCH   5  46
BRANCH   8  49
HETATM   49  N8  UNL     1      29.302  35.565 -22.129  1.00  0.00    -0.234 N 
ATOM     50  H82 UNL     1      29.735  35.004 -21.396  1.00  0.00     0.174 HD
ATOM     51  H81 UNL     1      29.874  36.060 -22.813  1.00  0.00     0.174 HD
ENDBRANCH   8  49
TORSDOF 14
ENDMDL
MODEL 3
REMARK VINA RESULT: -8.327038582      3.655      5.234
REMARK  14 active torsions:
REMARK  status: ('A' for Active; 'I' for Inactive)
REMARK    1  A    between atoms: O1_2  and  N1_3 
REMARK       I    between atoms: N1_3  and  C2_5 
REMARK    2  A    between atoms: C2_5  and  C3_7 
REMARK    3  A    between atoms: C4_12  and  C5_13 
REMARK    4  A    between atoms: C5_13  and  N4_14 
REMARK    5  A    between atoms: C5_13  and  C14_44 
REMARK    6  A    between atoms: N4_14  and  C6_16 
REMARK    7  A    between atoms: C8_20  and  N6_21 
REMARK    8  A    between atoms: C9_26  and  N8_27 
REMARK    9  A    between atoms: N10_33  and  C11_34 
REMARK   10  A    between atoms: C11_34  and  C12_35 
REMARK   11  A    between atoms: C12_35  and  O3_36 
REMARK   12  A    between atoms: C12_35  and  O4_38 
REMARK   13  A    between atoms: C13_40  and  N11_41 
REMARK   14  A    between atoms: C15_47  and  O7_48 
ROOT
HETATM    1  C6  UNL     1      22.265  35.795 -21.480  1.00  0.00     0.147 A 
HETATM    2  N5  UNL     1      23.019  36.690 -22.185  1.00  0.00    -0.334 N 
ATOM      3  H5  UNL     1      22.563  37.243 -22.912  1.00  0.00     0.168 HD
HETATM    4  C7  UNL     1      24.331  36.879 -21.967  1.00  0.00     0.123 A 
HETATM    5  C8  UNL     1      25.072  37.791 -22.692  1.00  0.00     0.145 A 
HETATM    6  N7  UNL     1      26.385  37.985 -22.477  1.00  0.00    -0.175 N 
ATOM      7  H7  UNL     1      26.911  38.664 -23.027  1.00  0.00     0.186 HD
HETATM    8  C9  UNL     1      26.986  37.261 -21.522  1.00  0.00     0.679 A 
HETATM    9  N9  UNL     1      26.292  36.368 -20.801  1.00  0.00    -0.174 N 
ATOM     10  H9  UNL     1      26.776  35.833 -20.081  1.00  0.00     0.186 HD
HETATM   11  C10 UNL     1      24.972  36.155 -20.999  1.00  0.00     0.155 A 
HETATM   12  N10 UNL     1      24.274  35.267 -20.284  1.00  0.00    -0.309 N 
HETATM   13  C13 UNL     1      22.933  35.086 -20.519  1.00  0.00     0.147 A 
ENDROOT
BRANCH   1  14
HETATM   14  N4  UNL     1      20.911  35.608 -21.725  1.00  0.00    -0.354 N 
ATOM     15  H4  UNL     1      20.288  36.225 -21.204  1.00  0.00     0.162 HD
BRANCH  14  16
HETATM   16  C5  UNL     1      20.255  34.678 -22.600  1.00  0.00     0.241 C 
BRANCH  16  17
HETATM   17  C4  UNL     1      18.947  35.106 -23.133  1.00  0.00     0.110 A 
HETATM   18  N3  UNL     1      18.678  34.887 -24.449  1.00  0.00    -0.296 N 
HETATM   19  N2  UNL     1      17.564  35.197 -25.033  1.00  0.00    -0.281 N 
ATOM     20  H3  UNL     1      19.404  34.449 -25.015  1.00  0.00     0.187 HD
HETATM   21  C3  UNL     1      16.568  35.775 -24.350  1.00  0.00     0.193 A 
ATOM     22  H2  UNL     1      17.444  34.997 -26.025  1.00  0.00     0.188 HD
HETATM   23  N12 UNL     1      16.786  36.012 -23.050  1.00  0.00    -0.316 N 
HETATM   24  C15 UNL     1      17.946  35.699 -22.407  1.00  0.00     0.169 A 
ATOM     25  H12 UNL     1      16.040  36.452 -22.511  1.00  0.00     0.169 HD
BRANCH  21  26
HETATM   26  C2  UNL     1      15.335  36.123 -25.031  1.00  0.00     0.310 C 
HETATM   27  N1  UNL     1      14.304  35.163 -25.143  1.00  0.00    -0.229 N 
ATOM     28  H1  UNL     1      14.443  34.237 -24.741  1.00  0.00     0.198 HD
HETATM   29  O2  UNL     1      15.154  37.262 -25.529  1.00  0.00    -0.262 OA
BRANCH  27  30
HETATM   30  O1  UNL     1      13.151  35.436 -25.763  1.00  0.00    -0.282 OA
HETATM   31  C1  UNL     1      12.116  35.272 -24.848  1.00  0.00     0.237 C 
ENDBRANCH  27  30
ENDBRANCH  21  26
BRANCH  24  32
HETATM   32  O7  UNL     1      18.078  35.993 -21.047  1.00  0.00    -0.344 OA
ATOM     33  H7  UNL     1      17.353  36.309 -20.521  1.00  0.00     0.219 HD
ENDBRANCH  24  32
ENDBRANCH  16  17
BRANCH  16  34
HETATM   34  C14 UNL     1      20.056  33.426 -21.817  1.00  0.00     0.203 C 
HETATM   35  O5  UNL     1      19.631  33.399 -20.659  1.00  0.00    -0.646 OA
HETATM   36  O6  UNL     1      20.375  32.204 -22.443  1.00  0.00    -0.646 OA
ENDBRANCH  16  34
ENDBRANCH  14  16
ENDBRANCH   1  14
BRANCH  13  37
HETATM   37  N11 UNL     1      22.349  34.225 -19.806  1.00  0.00    -0.382 N 
ATOM     38 2H11 UNL     1      21.433  33.914 -20.130  1.00  0.00     0.157 HD
ATOM     39 1H11 UNL     1      22.769  33.865 -18.950  1.00  0.00     0.157 HD
ENDBRANCH  13  37
BRANCH  12  40
HETATM   40  C11 UNL     1      24.928  34.468 -19.273  1.00  0.00     0.192 C 
BRANCH  40  41
HETATM   41  C12 UNL     1      25.352  33.107 -19.734  1.00  0.00     0.272 C 
BRANCH  41  42
HETATM   42  O3  UNL     1      26.707  32.927 -19.634  1.00  0.00    -0.370 OA
ATOM     43  H3  UNL     1      27.170  33.273 -20.387  1.00  0.00     0.212 HD
ENDBRANCH  41  42
BRANCH  41  44
HETATM   44  O4  UNL     1      24.638  32.144 -18.987  1.00  0.00    -0.370 OA
ATOM     45  H4  UNL     1      25.215  31.798 -18.317  1.00  0.00     0.212 HD
ENDBRANCH  41  44
ENDBRANCH  40  41
ENDBRANCH  12  40
BRANCH   5  46
HETATM   46  N6  UNL     1      24.513  38.499 -23.616  1.00  0.00    -0.383 N 
ATOM     47  H62 UNL     1      25.090  38.766 -24.413  1.00  0.00     0.157 HD
ATOM     48  H61 UNL     1      23.533  38.771 -23.535  1.00  0.00     0.157 HD
ENDBRANCH   5  46
BRANCH   8  49
HETATM   49  N8  UNL     1      28.246  37.409 -21.276  1.00  0.00    -0.234 N 
ATOM     50  H82 UNL     1      28.578  38.320 -20.958  1.00  0.00     0.174 HD
ATOM     51  H81 UNL     1      28.895  36.632 -21.399  1.00  0.00     0.174 HD
ENDBRANCH   8  49
TORSDOF 14
ENDMDL
MODEL 4
REMARK VINA RESULT: -8.214863368      1.886      2.066
REMARK  14 active torsions:
REMARK  status: ('A' for Active; 'I' for Inactive)
REMARK    1  A    between atoms: O1_2  and  N1_3 
REMARK       I    between atoms: N1_3  and  C2_5 
REMARK    2  A    between atoms: C2_5  and  C3_7 
REMARK    3  A    between atoms: C4_12  and  C5_13 
REMARK    4  A    between atoms: C5_13  and  N4_14 
REMARK    5  A    between atoms: C5_13  and  C14_44 
REMARK    6  A    between atoms: N4_14  and  C6_16 
REMARK    7  A    between atoms: C8_20  and  N6_21 
REMARK    8  A    between atoms: C9_26  and  N8_27 
REMARK    9  A    between atoms: N10_33  and  C11_34 
REMARK   10  A    between atoms: C11_34  and  C12_35 
REMARK   11  A    between atoms: C12_35  and  O3_36 
REMARK   12  A    between atoms: C12_35  and  O4_38 
REMARK   13  A    between atoms: C13_40  and  N11_41 
REMARK   14  A    between atoms: C15_47  and  O7_48 
ROOT
HETATM    1  C6  UNL     1      22.442  35.430 -21.859  1.00  0.00     0.147 A 
HETATM    2  N5  UNL     1      23.239  36.280 -22.572  1.00  0.00    -0.334 N 
ATOM      3  H5  UNL     1      22.857  36.712 -23.414  1.00  0.00     0.168 HD
HETATM    4  C7  UNL     1      24.501  36.575 -22.218  1.00  0.00     0.123 A 
HETATM    5  C8  UNL     1      25.288  37.439 -22.955  1.00  0.00     0.145 A 
HETATM    6  N7  UNL     1      26.551  37.738 -22.605  1.00  0.00    -0.175 N 
ATOM      7  H7  UNL     1      27.112  38.378 -23.166  1.00  0.00     0.186 HD
HETATM    8  C9  UNL     1      27.054  37.172 -21.499  1.00  0.00     0.679 A 
HETATM    9  N9  UNL     1      26.314  36.330 -20.763  1.00  0.00    -0.174 N 
ATOM     10  H9  UNL     1      26.724  35.915 -19.926  1.00  0.00     0.186 HD
HETATM   11  C10 UNL     1      25.043  36.013 -21.094  1.00  0.00     0.155 A 
HETATM   12  N10 UNL     1      24.299  35.174 -20.365  1.00  0.00    -0.309 N 
HETATM   13  C13 UNL     1      23.011  34.883 -20.741  1.00  0.00     0.147 A 
ENDROOT
BRANCH   1  14
HETATM   14  N4  UNL     1      21.142  35.131 -22.245  1.00  0.00    -0.354 N 
ATOM     15  H4  UNL     1      21.030  34.248 -22.743  1.00  0.00     0.162 HD
BRANCH  14  16
HETATM   16  C5  UNL     1      19.930  35.877 -22.049  1.00  0.00     0.241 C 
BRANCH  16  17
HETATM   17  C4  UNL     1      20.053  37.106 -21.243  1.00  0.00     0.110 A 
HETATM   18  N3  UNL     1      19.707  37.059 -19.927  1.00  0.00    -0.296 N 
HETATM   19  N2  UNL     1      19.788  38.060 -19.110  1.00  0.00    -0.281 N 
ATOM     20  H3  UNL     1      19.361  36.173 -19.559  1.00  0.00     0.187 HD
HETATM   21  C3  UNL     1      20.233  39.253 -19.525  1.00  0.00     0.193 A 
ATOM     22  H2  UNL     1      19.508  37.939 -18.137  1.00  0.00     0.188 HD
HETATM   23  N12 UNL     1      20.585  39.349 -20.814  1.00  0.00    -0.316 N 
HETATM   24  C15 UNL     1      20.512  38.315 -21.699  1.00  0.00     0.169 A 
ATOM     25  H12 UNL     1      20.927  40.249 -21.152  1.00  0.00     0.169 HD
BRANCH  21  26
HETATM   26  C2  UNL     1      20.302  40.361 -18.592  1.00  0.00     0.310 C 
HETATM   27  N1  UNL     1      19.311  41.368 -18.629  1.00  0.00    -0.229 N 
ATOM     28  H1  UNL     1      18.558  41.298 -19.313  1.00  0.00     0.198 HD
HETATM   29  O2  UNL     1      21.225  40.455 -17.745  1.00  0.00    -0.262 OA
BRANCH  27  30
HETATM   30  O1  UNL     1      19.332  42.410 -17.791  1.00  0.00    -0.282 OA
HETATM   31  C1  UNL     1      18.952  43.545 -18.499  1.00  0.00     0.237 C 
ENDBRANCH  27  30
ENDBRANCH  21  26
BRANCH  24  32
HETATM   32  O7  UNL     1      20.898  38.520 -23.027  1.00  0.00    -0.344 OA
ATOM     33  H7  UNL     1      21.150  39.373 -23.359  1.00  0.00     0.219 HD
ENDBRANCH  24  32
ENDBRANCH  16  17
BRANCH  16  34
HETATM   34  C14 UNL     1      18.973  34.961 -21.366  1.00  0.00     0.203 C 
HETATM   35  O5  UNL     1      17.766  35.189 -21.251  1.00  0.00    -0.646 OA
HETATM   36  O6  UNL     1      19.485  33.766 -20.821  1.00  0.00    -0.646 OA
ENDBRANCH  16  34
ENDBRANCH  14  16
ENDBRANCH   1  14
BRANCH  13  37
HETATM   37  N11 UNL     1      22.379  34.079 -20.003  1.00  0.00    -0.382 N 
ATOM     38 2H11 UNL     1      22.087  34.433 -19.092  1.00  0.00     0.157 HD
ATOM     39 1H11 UNL     1      22.176  33.125 -20.302  1.00  0.00     0.157 HD
ENDBRANCH  13  37
BRANCH  12  40
HETATM   40  C11 UNL     1      24.852  34.543 -19.188  1.00  0.00     0.192 C 
BRANCH  40  41
HETATM   41  C12 UNL     1      25.572  33.257 -19.452  1.00  0.00     0.272 C 
BRANCH  41  42
HETATM   42  O3  UNL     1      26.821  33.238 -18.887  1.00  0.00    -0.370 OA
ATOM     43  H3  UNL     1      27.475  32.887 -19.478  1.00  0.00     0.212 HD
ENDBRANCH  41  42
BRANCH  41  44
HETATM   44  O4  UNL     1      24.767  32.195 -18.984  1.00  0.00    -0.370 OA
ATOM     45  H4  UNL     1      24.436  32.429 -18.126  1.00  0.00     0.212 HD
ENDBRANCH  41  44
ENDBRANCH  40  41
ENDBRANCH  12  40
BRANCH   5  46
HETATM   46  N6  UNL     1      24.822  37.995 -24.023  1.00  0.00    -0.383 N 
ATOM     47  H62 UNL     1      24.958  37.501 -24.904  1.00  0.00     0.157 HD
ATOM     48  H61 UNL     1      24.340  38.892 -23.968  1.00  0.00     0.157 HD
ENDBRANCH   5  46
BRANCH   8  49
HETATM   49  N8  UNL     1      28.263  37.427 -21.119  1.00  0.00    -0.234 N 
ATOM     50  H82 UNL     1      28.916  37.817 -21.798  1.00  0.00     0.174 HD
ATOM     51  H81 UNL     1      28.558  37.240 -20.161  1.00  0.00     0.174 HD
ENDBRANCH   8  49
TORSDOF 14
ENDMDL
MODEL 5
REMARK VINA RESULT: -8.156834147      1.175      1.378
REMARK  14 active torsions:
REMARK  status: ('A' for Active; 'I' for Inactive)
REMARK    1  A    between atoms: O1_2  and  N1_3 
REMARK       I    between atoms: N1_3  and  C2_5 
REMARK    2  A    between atoms: C2_5  and  C3_7 
REMARK    3  A    between atoms: C4_12  and  C5_13 
REMARK    4  A    between atoms: C5_13  and  N4_14 
REMARK    5  A    between atoms: C5_13  and  C14_44 
REMARK    6  A    between atoms: N4_14  and  C6_16 
REMARK    7  A    between atoms: C8_20  and  N6_21 
REMARK    8  A    between atoms: C9_26  and  N8_27 
REMARK    9  A    between atoms: N10_33  and  C11_34 
REMARK   10  A    between atoms: C11_34  and  C12_35 
REMARK   11  A    between atoms: C12_35  and  O3_36 
REMARK   12  A    between atoms: C12_35  and  O4_38 
REMARK   13  A    between atoms: C13_40  and  N11_41 
REMARK   14  A    between atoms: C15_47  and  O7_48 
ROOT
HETATM    1  C6  UNL     1      23.004  34.795 -21.293  1.00  0.00     0.147 A 
HETATM    2  N5  UNL     1      23.680  35.559 -22.202  1.00  0.00    -0.334 N 
ATOM      3  H5  UNL     1      23.142  36.074 -22.900  1.00  0.00     0.168 HD
HETATM    4  C7  UNL     1      25.019  35.665 -22.221  1.00  0.00     0.123 A 
HETATM    5  C8  UNL     1      25.682  36.445 -23.149  1.00  0.00     0.145 A 
HETATM    6  N7  UNL     1      27.021  36.555 -23.172  1.00  0.00    -0.175 N 
ATOM      7  H7  UNL     1      27.487  37.137 -23.868  1.00  0.00     0.186 HD
HETATM    8  C9  UNL     1      27.730  35.880 -22.255  1.00  0.00     0.679 A 
HETATM    9  N9  UNL     1      27.115  35.116 -21.341  1.00  0.00    -0.174 N 
ATOM     10  H9  UNL     1      27.680  34.615 -20.656  1.00  0.00     0.186 HD
HETATM   11  C10 UNL     1      25.770  34.988 -21.298  1.00  0.00     0.155 A 
HETATM   12  N10 UNL     1      25.150  34.228 -20.390  1.00  0.00    -0.309 N 
HETATM   13  C13 UNL     1      23.781  34.130 -20.384  1.00  0.00     0.147 A 
ENDROOT
BRANCH   1  14
HETATM   14  N4  UNL     1      21.619  34.692 -21.295  1.00  0.00    -0.354 N 
ATOM     15  H4  UNL     1      21.251  33.800 -20.963  1.00  0.00     0.162 HD
BRANCH  14  16
HETATM   16  C5  UNL     1      20.625  35.649 -21.692  1.00  0.00     0.241 C 
BRANCH  16  17
HETATM   17  C4  UNL     1      20.668  36.949 -20.995  1.00  0.00     0.110 A 
HETATM   18  N3  UNL     1      19.962  37.091 -19.839  1.00  0.00    -0.296 N 
HETATM   19  N2  UNL     1      19.933  38.170 -19.124  1.00  0.00    -0.281 N 
ATOM     20  H3  UNL     1      19.419  36.292 -19.514  1.00  0.00     0.187 HD
HETATM   21  C3  UNL     1      20.622  39.257 -19.492  1.00  0.00     0.193 A 
ATOM     22  H2  UNL     1      19.377  38.192 -18.270  1.00  0.00     0.188 HD
HETATM   23  N12 UNL     1      21.332  39.167 -20.624  1.00  0.00    -0.316 N 
HETATM   24  C15 UNL     1      21.383  38.047 -21.398  1.00  0.00     0.169 A 
ATOM     25  H12 UNL     1      21.866  39.983 -20.923  1.00  0.00     0.169 HD
BRANCH  21  26
HETATM   26  C2  UNL     1      20.562  40.457 -18.680  1.00  0.00     0.310 C 
HETATM   27  N1  UNL     1      19.390  41.246 -18.683  1.00  0.00    -0.229 N 
ATOM     28  H1  UNL     1      18.599  40.956 -19.258  1.00  0.00     0.198 HD
HETATM   29  O2  UNL     1      21.531  40.822 -17.966  1.00  0.00    -0.262 OA
BRANCH  27  30
HETATM   30  O1  UNL     1      19.287  42.361 -17.952  1.00  0.00    -0.282 OA
HETATM   31  C1  UNL     1      18.924  43.404 -18.798  1.00  0.00     0.237 C 
ENDBRANCH  27  30
ENDBRANCH  21  26
BRANCH  24  32
HETATM   32  O7  UNL     1      22.151  38.055 -22.567  1.00  0.00    -0.344 OA
ATOM     33  H7  UNL     1      22.105  38.759 -23.202  1.00  0.00     0.219 HD
ENDBRANCH  24  32
ENDBRANCH  16  17
BRANCH  16  34
HETATM   34  C14 UNL     1      19.300  35.020 -21.431  1.00  0.00     0.203 C 
HETATM   35  O5  UNL     1      18.220  35.572 -21.657  1.00  0.00    -0.646 OA
HETATM   36  O6  UNL     1      19.288  33.717 -20.895  1.00  0.00    -0.646 OA
ENDBRANCH  16  34
ENDBRANCH  14  16
ENDBRANCH   1  14
BRANCH  13  37
HETATM   37  N11 UNL     1      23.274  33.388 -19.499  1.00  0.00    -0.382 N 
ATOM     38 2H11 UNL     1      23.320  33.731 -18.539  1.00  0.00     0.157 HD
ATOM     39 1H11 UNL     1      22.847  32.492 -19.732  1.00  0.00     0.157 HD
ENDBRANCH  13  37
BRANCH  12  40
HETATM   40  C11 UNL     1      25.916  33.479 -19.419  1.00  0.00     0.192 C 
BRANCH  40  41
HETATM   41  C12 UNL     1      26.342  34.269 -18.220  1.00  0.00     0.272 C 
BRANCH  41  42
HETATM   42  O3  UNL     1      27.572  34.847 -18.392  1.00  0.00    -0.370 OA
ATOM     43  H3  UNL     1      27.566  35.772 -18.179  1.00  0.00     0.212 HD
ENDBRANCH  41  42
BRANCH  41  44
HETATM   44  O4  UNL     1      25.344  35.230 -17.946  1.00  0.00    -0.370 OA
ATOM     45  H4  UNL     1      25.770  36.057 -17.759  1.00  0.00     0.212 HD
ENDBRANCH  41  44
ENDBRANCH  40  41
ENDBRANCH  12  40
BRANCH   5  46
HETATM   46  N6  UNL     1      25.019  37.103 -24.040  1.00  0.00    -0.383 N 
ATOM     47  H62 UNL     1      24.420  37.861 -23.712  1.00  0.00     0.157 HD
ATOM     48  H61 UNL     1      25.103  36.862 -25.027  1.00  0.00     0.157 HD
ENDBRANCH   5  46
BRANCH   8  49
HETATM   49  N8  UNL     1      29.020  35.953 -22.234  1.00  0.00    -0.234 N 
ATOM     50  H82 UNL     1      29.471  36.759 -22.667  1.00  0.00     0.174 HD
ATOM     51  H81 UNL     1      29.576  35.219 -21.794  1.00  0.00     0.174 HD
ENDBRANCH   8  49
TORSDOF 14
ENDMDL
