MODEL 1
REMARK VINA RESULT: -4.693008541      0.000      0.000
REMARK  4 active torsions:
REMARK  status: ('A' for Active; 'I' for Inactive)
REMARK    1  A    between atoms: N1_1  and  C1_4 
REMARK    2  A    between atoms: C2_7  and  O1_8 
REMARK    3  A    between atoms: O1_8  and  C3_9 
REMARK       I    between atoms: C3_9  and  N3_11 
REMARK    4  A    between atoms: N3_11  and  N4_13 
ROOT
HETATM    1  C1  UNL     1     -20.933 -39.581  24.243  1.00  0.00     0.683 A 
HETATM    2  N2  UNL     1     -20.603 -39.807  25.526  1.00  0.00    -0.154 N 
ATOM      3  H2  UNL     1     -20.044 -40.631  25.751  1.00  0.00     0.188 HD
HETATM    4  C2  UNL     1     -20.982 -38.988  26.527  1.00  0.00     0.251 A 
HETATM    5  N5  UNL     1     -21.718 -37.916  26.171  1.00  0.00    -0.273 N 
ATOM      6  H5  UNL     1     -22.028 -37.265  26.893  1.00  0.00     0.174 HD
HETATM    7  C4  UNL     1     -22.054 -37.682  24.884  1.00  0.00     0.341 A 
HETATM    8  O3  UNL     1     -22.753 -36.657  24.574  1.00  0.00    -0.246 OA
HETATM    9  N6  UNL     1     -21.668 -38.509  23.898  1.00  0.00    -0.141 N 
ATOM     10  H6  UNL     1     -21.923 -38.331  22.926  1.00  0.00     0.189 HD
ENDROOT
BRANCH   4  11
HETATM   11  O1  UNL     1     -20.636 -39.228  27.852  1.00  0.00    -0.226 OA
BRANCH  11  12
HETATM   12  C3  UNL     1     -20.494 -38.254  28.802  1.00  0.00     0.386 C 
HETATM   13  O2  UNL     1     -21.511 -37.874  29.433  1.00  0.00    -0.236 OA
HETATM   14  N3  UNL     1     -19.206 -37.704  29.048  1.00  0.00    -0.252 N 
ATOM     15  H3  UNL     1     -18.389 -38.025  28.527  1.00  0.00     0.191 HD
BRANCH  14  16
HETATM   16  N4  UNL     1     -19.091 -36.707  30.027  1.00  0.00    -0.341 N 
ATOM     17  H42 UNL     1     -19.203 -35.726  29.772  1.00  0.00     0.177 HD
ATOM     18  H41 UNL     1     -18.894 -36.997  30.985  1.00  0.00     0.177 HD
ENDBRANCH  14  16
ENDBRANCH  11  12
ENDBRANCH   4  11
BRANCH   1  19
HETATM   19  N1  UNL     1     -20.564 -40.378  23.276  1.00  0.00    -0.234 N 
ATOM     20  H12 UNL     1     -20.135 -41.262  23.547  1.00  0.00     0.174 HD
ATOM     21  H11 UNL     1     -20.693 -40.138  22.293  1.00  0.00     0.174 HD
ENDBRANCH   1  19
TORSDOF 4
ENDMDL
MODEL 2
REMARK VINA RESULT: -4.611269146      2.190      2.778
REMARK  4 active torsions:
REMARK  status: ('A' for Active; 'I' for Inactive)
REMARK    1  A    between atoms: N1_1  and  C1_4 
REMARK    2  A    between atoms: C2_7  and  O1_8 
REMARK    3  A    between atoms: O1_8  and  C3_9 
REMARK       I    between atoms: C3_9  and  N3_11 
REMARK    4  A    between atoms: N3_11  and  N4_13 
ROOT
HETATM    1  C1  UNL     1     -24.474 -38.806  27.036  1.00  0.00     0.683 A 
HETATM    2  N2  UNL     1     -23.543 -39.044  27.976  1.00  0.00    -0.154 N 
ATOM      3  H2  UNL     1     -23.781 -39.654  28.758  1.00  0.00     0.188 HD
HETATM    4  C2  UNL     1     -22.307 -38.508  27.923  1.00  0.00     0.251 A 
HETATM    5  N5  UNL     1     -22.050 -37.712  26.867  1.00  0.00    -0.273 N 
ATOM      6  H5  UNL     1     -21.127 -37.283  26.781  1.00  0.00     0.174 HD
HETATM    7  C4  UNL     1     -22.980 -37.467  25.918  1.00  0.00     0.341 A 
HETATM    8  O3  UNL     1     -22.709 -36.707  24.926  1.00  0.00    -0.246 OA
HETATM    9  N6  UNL     1     -24.208 -38.009  25.986  1.00  0.00    -0.141 N 
ATOM     10  H6  UNL     1     -24.910 -37.823  25.269  1.00  0.00     0.189 HD
ENDROOT
BRANCH   4  11
HETATM   11  O1  UNL     1     -21.349 -38.760  28.898  1.00  0.00    -0.226 OA
BRANCH  11  12
HETATM   12  C3  UNL     1     -20.691 -37.790  29.603  1.00  0.00     0.386 C 
HETATM   13  O2  UNL     1     -21.305 -37.187  30.517  1.00  0.00    -0.236 OA
HETATM   14  N3  UNL     1     -19.337 -37.494  29.283  1.00  0.00    -0.252 N 
ATOM     15  H3  UNL     1     -18.852 -37.994  28.538  1.00  0.00     0.191 HD
BRANCH  14  16
HETATM   16  N4  UNL     1     -18.689 -36.495  30.022  1.00  0.00    -0.341 N 
ATOM     17  H42 UNL     1     -18.572 -36.600  31.030  1.00  0.00     0.177 HD
ATOM     18  H41 UNL     1     -18.345 -35.676  29.522  1.00  0.00     0.177 HD
ENDBRANCH  14  16
ENDBRANCH  11  12
ENDBRANCH   4  11
BRANCH   1  19
HETATM   19  N1  UNL     1     -25.671 -39.326  27.090  1.00  0.00    -0.234 N 
ATOM     20  H12 UNL     1     -25.814 -40.205  26.592  1.00  0.00     0.174 HD
ATOM     21  H11 UNL     1     -26.436 -38.884  27.602  1.00  0.00     0.174 HD
ENDBRANCH   1  19
TORSDOF 4
ENDMDL
MODEL 3
REMARK VINA RESULT: -4.587631055      2.815      4.222
REMARK  4 active torsions:
REMARK  status: ('A' for Active; 'I' for Inactive)
REMARK    1  A    between atoms: N1_1  and  C1_4 
REMARK    2  A    between atoms: C2_7  and  O1_8 
REMARK    3  A    between atoms: O1_8  and  C3_9 
REMARK       I    between atoms: C3_9  and  N3_11 
REMARK    4  A    between atoms: N3_11  and  N4_13 
ROOT
HETATM    1  C1  UNL     1     -22.086 -37.529  25.168  1.00  0.00     0.683 A 
HETATM    2  N2  UNL     1     -20.967 -38.029  25.721  1.00  0.00    -0.154 N 
ATOM      3  H2  UNL     1     -20.599 -37.590  26.566  1.00  0.00     0.188 HD
HETATM    4  C2  UNL     1     -20.313 -39.087  25.201  1.00  0.00     0.251 A 
HETATM    5  N5  UNL     1     -20.845 -39.626  24.087  1.00  0.00    -0.273 N 
ATOM      6  H5  UNL     1     -20.387 -40.429  23.656  1.00  0.00     0.174 HD
HETATM    7  C4  UNL     1     -21.968 -39.129  23.525  1.00  0.00     0.341 A 
HETATM    8  O3  UNL     1     -22.452 -39.659  22.467  1.00  0.00    -0.246 OA
HETATM    9  N6  UNL     1     -22.608 -38.073  24.055  1.00  0.00    -0.141 N 
ATOM     10  H6  UNL     1     -23.457 -37.699  23.630  1.00  0.00     0.189 HD
ENDROOT
BRANCH   4  11
HETATM   11  O1  UNL     1     -19.157 -39.599  25.779  1.00  0.00    -0.226 OA
BRANCH  11  12
HETATM   12  C3  UNL     1     -18.256 -40.397  25.129  1.00  0.00     0.386 C 
HETATM   13  O2  UNL     1     -17.812 -40.022  24.016  1.00  0.00    -0.236 OA
HETATM   14  N3  UNL     1     -17.850 -41.621  25.728  1.00  0.00    -0.252 N 
ATOM     15  H3  UNL     1     -18.220 -41.910  26.634  1.00  0.00     0.191 HD
BRANCH  14  16
HETATM   16  N4  UNL     1     -16.926 -42.418  25.039  1.00  0.00    -0.341 N 
ATOM     17  H42 UNL     1     -16.014 -42.039  24.785  1.00  0.00     0.177 HD
ATOM     18  H41 UNL     1     -17.198 -43.373  24.805  1.00  0.00     0.177 HD
ENDBRANCH  14  16
ENDBRANCH  11  12
ENDBRANCH   4  11
BRANCH   1  19
HETATM   19  N1  UNL     1     -22.717 -36.503  25.674  1.00  0.00    -0.234 N 
ATOM     20  H12 UNL     1     -22.310 -36.079  26.507  1.00  0.00     0.174 HD
ATOM     21  H11 UNL     1     -23.576 -36.135  25.265  1.00  0.00     0.174 HD
ENDBRANCH   1  19
TORSDOF 4
ENDMDL
MODEL 4
REMARK VINA RESULT: -4.574518341      1.485      2.226
REMARK  4 active torsions:
REMARK  status: ('A' for Active; 'I' for Inactive)
REMARK    1  A    between atoms: N1_1  and  C1_4 
REMARK    2  A    between atoms: C2_7  and  O1_8 
REMARK    3  A    between atoms: O1_8  and  C3_9 
REMARK       I    between atoms: C3_9  and  N3_11 
REMARK    4  A    between atoms: N3_11  and  N4_13 
ROOT
HETATM    1  C1  UNL     1     -22.079 -37.750  24.507  1.00  0.00     0.683 A 
HETATM    2  N2  UNL     1     -21.677 -38.027  25.759  1.00  0.00    -0.154 N 
ATOM      3  H2  UNL     1     -21.920 -37.378  26.508  1.00  0.00     0.188 HD
HETATM    4  C2  UNL     1     -20.965 -39.131  26.063  1.00  0.00     0.251 A 
HETATM    5  N5  UNL     1     -20.673 -39.952  25.036  1.00  0.00    -0.273 N 
ATOM      6  H5  UNL     1     -20.137 -40.801  25.215  1.00  0.00     0.174 HD
HETATM    7  C4  UNL     1     -21.073 -39.680  23.774  1.00  0.00     0.341 A 
HETATM    8  O3  UNL     1     -20.783 -40.476  22.817  1.00  0.00    -0.246 OA
HETATM    9  N6  UNL     1     -21.783 -38.575  23.488  1.00  0.00    -0.141 N 
ATOM     10  H6  UNL     1     -22.084 -38.371  22.534  1.00  0.00     0.189 HD
ENDROOT
BRANCH   4  11
HETATM   11  O1  UNL     1     -20.553 -39.411  27.361  1.00  0.00    -0.226 OA
BRANCH  11  12
HETATM   12  C3  UNL     1     -20.524 -38.495  28.378  1.00  0.00     0.386 C 
HETATM   13  O2  UNL     1     -21.603 -38.177  28.933  1.00  0.00    -0.236 OA
HETATM   14  N3  UNL     1     -19.278 -37.935  28.774  1.00  0.00    -0.252 N 
ATOM     15  H3  UNL     1     -18.409 -38.206  28.312  1.00  0.00     0.191 HD
BRANCH  14  16
HETATM   16  N4  UNL     1     -19.279 -36.999  29.817  1.00  0.00    -0.341 N 
ATOM     17  H42 UNL     1     -20.083 -36.387  29.953  1.00  0.00     0.177 HD
ATOM     18  H41 UNL     1     -18.459 -36.956  30.422  1.00  0.00     0.177 HD
ENDBRANCH  14  16
ENDBRANCH  11  12
ENDBRANCH   4  11
BRANCH   1  19
HETATM   19  N1  UNL     1     -22.769 -36.680  24.215  1.00  0.00    -0.234 N 
ATOM     20  H12 UNL     1     -22.936 -36.020  24.975  1.00  0.00     0.174 HD
ATOM     21  H11 UNL     1     -23.129 -36.501  23.278  1.00  0.00     0.174 HD
ENDBRANCH   1  19
TORSDOF 4
ENDMDL
MODEL 5
REMARK VINA RESULT: -4.533942019      2.258      5.485
REMARK  4 active torsions:
REMARK  status: ('A' for Active; 'I' for Inactive)
REMARK    1  A    between atoms: N1_1  and  C1_4 
REMARK    2  A    between atoms: C2_7  and  O1_8 
REMARK    3  A    between atoms: O1_8  and  C3_9 
REMARK       I    between atoms: C3_9  and  N3_11 
REMARK    4  A    between atoms: N3_11  and  N4_13 
ROOT
HETATM    1  C1  UNL     1     -17.219 -38.700  30.051  1.00  0.00     0.683 A 
HETATM    2  N2  UNL     1     -17.911 -39.239  29.032  1.00  0.00    -0.154 N 
ATOM      3  H2  UNL     1     -17.531 -40.061  28.562  1.00  0.00     0.188 HD
HETATM    4  C2  UNL     1     -19.087 -38.734  28.608  1.00  0.00     0.251 A 
HETATM    5  N5  UNL     1     -19.539 -37.649  29.265  1.00  0.00    -0.273 N 
ATOM      6  H5  UNL     1     -20.426 -37.230  28.982  1.00  0.00     0.174 HD
HETATM    7  C4  UNL     1     -18.851 -37.100  30.289  1.00  0.00     0.341 A 
HETATM    8  O3  UNL     1     -19.303 -36.070  30.897  1.00  0.00    -0.246 OA
HETATM    9  N6  UNL     1     -17.679 -37.616  30.700  1.00  0.00    -0.141 N 
ATOM     10  H6  UNL     1     -17.159 -37.200  31.474  1.00  0.00     0.189 HD
ENDROOT
BRANCH   4  11
HETATM   11  O1  UNL     1     -19.797 -39.298  27.554  1.00  0.00    -0.226 OA
BRANCH  11  12
HETATM   12  C3  UNL     1     -20.065 -38.659  26.373  1.00  0.00     0.386 C 
HETATM   13  O2  UNL     1     -19.233 -38.750  25.437  1.00  0.00    -0.236 OA
HETATM   14  N3  UNL     1     -21.270 -37.916  26.242  1.00  0.00    -0.252 N 
ATOM     15  H3  UNL     1     -21.936 -37.854  27.012  1.00  0.00     0.191 HD
BRANCH  14  16
HETATM   16  N4  UNL     1     -21.517 -37.273  25.021  1.00  0.00    -0.341 N 
ATOM     17  H42 UNL     1     -21.033 -37.577  24.177  1.00  0.00     0.177 HD
ATOM     18  H41 UNL     1     -22.187 -36.504  25.012  1.00  0.00     0.177 HD
ENDBRANCH  14  16
ENDBRANCH  11  12
ENDBRANCH   4  11
BRANCH   1  19
HETATM   19  N1  UNL     1     -16.080 -39.191  30.459  1.00  0.00    -0.234 N 
ATOM     20  H12 UNL     1     -15.275 -38.564  30.438  1.00  0.00     0.174 HD
ATOM     21  H11 UNL     1     -15.985 -40.153  30.784  1.00  0.00     0.174 HD
ENDBRANCH   1  19
TORSDOF 4
ENDMDL
