MODEL 1
REMARK VINA RESULT: -5.928319964      0.000      0.000
REMARK  7 active torsions:
REMARK  status: ('A' for Active; 'I' for Inactive)
REMARK    1  A    between atoms: C4_5  and  C5_6 
REMARK    2  A    between atoms: C5_6  and  N1_7 
REMARK    3  A    between atoms: C8_11  and  C9_12 
REMARK    4  A    between atoms: C9_12  and  O1_13 
REMARK    5  A    between atoms: C9_12  and  N2_15 
REMARK    6  A    between atoms: C14_20  and  C15_21 
REMARK    7  A    between atoms: C15_21  and  C16_22 
ROOT
HETATM    1  N1  UNL     1     -14.013   2.655  -6.986  1.00  0.00    -0.306 N 
HETATM    2  S2  UNL     1     -14.659   4.137  -7.289  1.00  0.00    -0.014 SA
HETATM    3  C6  UNL     1     -15.112   3.783  -5.674  1.00  0.00     0.027 A 
HETATM    4  C7  UNL     1     -15.943   4.637  -4.772  1.00  0.00     0.060 C 
HETATM    5  C8  UNL     1     -14.483   2.575  -5.686  1.00  0.00     0.106 A 
ENDROOT
BRANCH   5   6
HETATM    6  C9  UNL     1     -14.319   1.448  -4.804  1.00  0.00     0.167 C 
BRANCH   6   7
HETATM    7  O1  UNL     1     -15.409   0.803  -4.416  1.00  0.00    -0.344 OA
ATOM      8  H1  UNL     1     -15.767   1.011  -3.562  1.00  0.00     0.219 HD
ENDBRANCH   6   7
BRANCH   6   9
HETATM    9  N2  UNL     1     -13.182   0.853  -4.232  1.00  0.00    -0.355 N 
HETATM   10  C10 UNL     1     -11.909   1.489  -4.162  1.00  0.00     0.125 C 
HETATM   11  C11 UNL     1     -10.783   0.468  -3.919  1.00  0.00     0.020 C 
HETATM   12  C12 UNL     1     -11.132  -0.784  -4.733  1.00  0.00     0.004 C 
HETATM   13  C13 UNL     1     -12.231  -1.440  -3.931  1.00  0.00     0.026 C 
HETATM   14  C14 UNL     1     -13.314  -0.480  -3.634  1.00  0.00     0.096 C 
BRANCH  14  15
HETATM   15  C15 UNL     1     -13.540  -0.366  -2.141  1.00  0.00     0.138 C 
BRANCH  15  16
HETATM   16  C16 UNL     1     -14.580  -1.317  -1.699  1.00  0.00     0.174 C 
HETATM   17  O2  UNL     1     -14.557  -1.815  -0.545  1.00  0.00    -0.648 OA
HETATM   18  O3  UNL     1     -15.629  -1.692  -2.558  1.00  0.00    -0.648 OA
ENDBRANCH  15  16
ENDBRANCH  14  15
ENDBRANCH   6   9
ENDBRANCH   5   6
BRANCH   1  19
HETATM   19  C5  UNL     1     -13.209   1.806  -7.888  1.00  0.00     0.202 C 
BRANCH  19  20
HETATM   20  C4  UNL     1     -14.116   0.677  -8.325  1.00  0.00     0.070 A 
HETATM   21  S1  UNL     1     -15.814   0.672  -8.593  1.00  0.00    -0.085 SA
HETATM   22  C3  UNL     1     -15.994  -0.966  -9.053  1.00  0.00     0.076 A 
HETATM   23  C2  UNL     1     -14.701  -1.416  -8.967  1.00  0.00     0.012 A 
HETATM   24  C1  UNL     1     -14.384  -2.864  -9.297  1.00  0.00     0.068 C 
HETATM   25  N3  UNL     1     -13.792  -0.572  -8.603  1.00  0.00    -0.356 N 
ATOM     26  H3  UNL     1     -12.821  -0.873  -8.530  1.00  0.00     0.166 HD
ENDBRANCH  19  20
ENDBRANCH   1  19
TORSDOF 7
ENDMDL
MODEL 2
REMARK VINA RESULT: -5.798361893      1.910      2.489
REMARK  7 active torsions:
REMARK  status: ('A' for Active; 'I' for Inactive)
REMARK    1  A    between atoms: C4_5  and  C5_6 
REMARK    2  A    between atoms: C5_6  and  N1_7 
REMARK    3  A    between atoms: C8_11  and  C9_12 
REMARK    4  A    between atoms: C9_12  and  O1_13 
REMARK    5  A    between atoms: C9_12  and  N2_15 
REMARK    6  A    between atoms: C14_20  and  C15_21 
REMARK    7  A    between atoms: C15_21  and  C16_22 
ROOT
HETATM    1  N1  UNL     1     -14.993   2.211  -7.179  1.00  0.00    -0.306 N 
HETATM    2  S2  UNL     1     -15.041   3.807  -7.569  1.00  0.00    -0.014 SA
HETATM    3  C6  UNL     1     -14.529   3.772  -5.933  1.00  0.00     0.027 A 
HETATM    4  C7  UNL     1     -14.233   4.952  -5.065  1.00  0.00     0.060 C 
HETATM    5  C8  UNL     1     -14.574   2.412  -5.874  1.00  0.00     0.106 A 
ENDROOT
BRANCH   5   6
HETATM    6  C9  UNL     1     -14.374   1.380  -4.890  1.00  0.00     0.167 C 
BRANCH   6   7
HETATM    7  O1  UNL     1     -15.448   0.802  -4.374  1.00  0.00    -0.344 OA
ATOM      8  H1  UNL     1     -16.147   0.555  -4.968  1.00  0.00     0.219 HD
ENDBRANCH   6   7
BRANCH   6   9
HETATM    9  N2  UNL     1     -13.214   0.823  -4.327  1.00  0.00    -0.355 N 
HETATM   10  C10 UNL     1     -11.952   1.484  -4.304  1.00  0.00     0.125 C 
HETATM   11  C11 UNL     1     -10.801   0.491  -4.056  1.00  0.00     0.020 C 
HETATM   12  C12 UNL     1     -11.144  -0.791  -4.825  1.00  0.00     0.004 C 
HETATM   13  C13 UNL     1     -12.213  -1.443  -3.979  1.00  0.00     0.026 C 
HETATM   14  C14 UNL     1     -13.308  -0.494  -3.687  1.00  0.00     0.096 C 
BRANCH  14  15
HETATM   15  C15 UNL     1     -13.503  -0.340  -2.193  1.00  0.00     0.138 C 
BRANCH  15  16
HETATM   16  C16 UNL     1     -14.502  -1.308  -1.698  1.00  0.00     0.174 C 
HETATM   17  O2  UNL     1     -14.407  -1.810  -0.549  1.00  0.00    -0.648 OA
HETATM   18  O3  UNL     1     -15.592  -1.697  -2.498  1.00  0.00    -0.648 OA
ENDBRANCH  15  16
ENDBRANCH  14  15
ENDBRANCH   6   9
ENDBRANCH   5   6
BRANCH   1  19
HETATM   19  C5  UNL     1     -15.306   1.050  -8.035  1.00  0.00     0.202 C 
BRANCH  19  20
HETATM   20  C4  UNL     1     -16.805   0.864  -7.963  1.00  0.00     0.070 A 
HETATM   21  S1  UNL     1     -17.803  -0.321  -8.708  1.00  0.00    -0.085 SA
HETATM   22  C3  UNL     1     -19.315   0.202  -8.101  1.00  0.00     0.076 A 
HETATM   23  C2  UNL     1     -18.945   1.284  -7.344  1.00  0.00     0.012 A 
HETATM   24  C1  UNL     1     -20.002   2.079  -6.599  1.00  0.00     0.068 C 
HETATM   25  N3  UNL     1     -17.689   1.584  -7.297  1.00  0.00    -0.356 N 
ATOM     26  H3  UNL     1     -17.378   2.382  -6.744  1.00  0.00     0.166 HD
ENDBRANCH  19  20
ENDBRANCH   1  19
TORSDOF 7
ENDMDL
MODEL 3
REMARK VINA RESULT: -5.796735267      2.124      4.516
REMARK  7 active torsions:
REMARK  status: ('A' for Active; 'I' for Inactive)
REMARK    1  A    between atoms: C4_5  and  C5_6 
REMARK    2  A    between atoms: C5_6  and  N1_7 
REMARK    3  A    between atoms: C8_11  and  C9_12 
REMARK    4  A    between atoms: C9_12  and  O1_13 
REMARK    5  A    between atoms: C9_12  and  N2_15 
REMARK    6  A    between atoms: C14_20  and  C15_21 
REMARK    7  A    between atoms: C15_21  and  C16_22 
ROOT
HETATM    1  N1  UNL     1     -15.041   3.413  -6.155  1.00  0.00    -0.306 N 
HETATM    2  S2  UNL     1     -15.485   3.470  -7.738  1.00  0.00    -0.014 SA
HETATM    3  C6  UNL     1     -15.083   1.828  -7.454  1.00  0.00     0.027 A 
HETATM    4  C7  UNL     1     -15.106   0.718  -8.454  1.00  0.00     0.060 C 
HETATM    5  C8  UNL     1     -14.771   2.055  -6.148  1.00  0.00     0.106 A 
ENDROOT
BRANCH   5   6
HETATM    6  C9  UNL     1     -14.256   1.309  -5.029  1.00  0.00     0.167 C 
BRANCH   6   7
HETATM    7  O1  UNL     1     -15.125   0.843  -4.144  1.00  0.00    -0.344 OA
ATOM      8  H1  UNL     1     -14.967   1.032  -3.227  1.00  0.00     0.219 HD
ENDBRANCH   6   7
BRANCH   6   9
HETATM    9  N2  UNL     1     -12.951   0.948  -4.654  1.00  0.00    -0.355 N 
HETATM   10  C10 UNL     1     -11.819   1.795  -4.824  1.00  0.00     0.125 C 
HETATM   11  C11 UNL     1     -10.504   0.996  -4.760  1.00  0.00     0.020 C 
HETATM   12  C12 UNL     1     -10.758  -0.340  -5.471  1.00  0.00     0.004 C 
HETATM   13  C13 UNL     1     -11.571  -1.129  -4.472  1.00  0.00     0.026 C 
HETATM   14  C14 UNL     1     -12.741  -0.354  -4.011  1.00  0.00     0.096 C 
BRANCH  14  15
HETATM   15  C15 UNL     1     -12.727  -0.201  -2.505  1.00  0.00     0.138 C 
BRANCH  15  16
HETATM   16  C16 UNL     1     -13.586  -1.220  -1.870  1.00  0.00     0.174 C 
HETATM   17  O2  UNL     1     -13.239  -1.793  -0.807  1.00  0.00    -0.648 OA
HETATM   18  O3  UNL     1     -14.822  -1.580  -2.439  1.00  0.00    -0.648 OA
ENDBRANCH  15  16
ENDBRANCH  14  15
ENDBRANCH   6   9
ENDBRANCH   5   6
BRANCH   1  19
HETATM   19  C5  UNL     1     -15.001   4.517  -5.176  1.00  0.00     0.202 C 
BRANCH  19  20
HETATM   20  C4  UNL     1     -13.573   5.016  -5.160  1.00  0.00     0.070 A 
HETATM   21  S1  UNL     1     -12.467   5.224  -6.459  1.00  0.00    -0.085 SA
HETATM   22  C3  UNL     1     -11.132   5.813  -5.566  1.00  0.00     0.076 A 
HETATM   23  C2  UNL     1     -11.637   5.812  -4.290  1.00  0.00     0.012 A 
HETATM   24  C1  UNL     1     -10.767   6.274  -3.136  1.00  0.00     0.068 C 
HETATM   25  N3  UNL     1     -12.854   5.410  -4.125  1.00  0.00    -0.356 N 
ATOM     26  H3  UNL     1     -13.262   5.397  -3.191  1.00  0.00     0.166 HD
ENDBRANCH  19  20
ENDBRANCH   1  19
TORSDOF 7
ENDMDL
MODEL 4
REMARK VINA RESULT: -5.776089768      1.768      2.753
REMARK  7 active torsions:
REMARK  status: ('A' for Active; 'I' for Inactive)
REMARK    1  A    between atoms: C4_5  and  C5_6 
REMARK    2  A    between atoms: C5_6  and  N1_7 
REMARK    3  A    between atoms: C8_11  and  C9_12 
REMARK    4  A    between atoms: C9_12  and  O1_13 
REMARK    5  A    between atoms: C9_12  and  N2_15 
REMARK    6  A    between atoms: C14_20  and  C15_21 
REMARK    7  A    between atoms: C15_21  and  C16_22 
ROOT
HETATM    1  N1  UNL     1     -14.164   2.556  -7.055  1.00  0.00    -0.306 N 
HETATM    2  S2  UNL     1     -14.755   4.062  -7.347  1.00  0.00    -0.014 SA
HETATM    3  C6  UNL     1     -15.086   3.775  -5.689  1.00  0.00     0.027 A 
HETATM    4  C7  UNL     1     -15.792   4.696  -4.747  1.00  0.00     0.060 C 
HETATM    5  C8  UNL     1     -14.524   2.534  -5.718  1.00  0.00     0.106 A 
ENDROOT
BRANCH   5   6
HETATM    6  C9  UNL     1     -14.344   1.424  -4.818  1.00  0.00     0.167 C 
BRANCH   6   7
HETATM    7  O1  UNL     1     -15.424   0.766  -4.425  1.00  0.00    -0.344 OA
ATOM      8  H1  UNL     1     -15.660   0.812  -3.506  1.00  0.00     0.219 HD
ENDBRANCH   6   7
BRANCH   6   9
HETATM    9  N2  UNL     1     -13.199   0.855  -4.236  1.00  0.00    -0.355 N 
HETATM   10  C10 UNL     1     -11.939   1.515  -4.167  1.00  0.00     0.125 C 
HETATM   11  C11 UNL     1     -10.795   0.518  -3.908  1.00  0.00     0.020 C 
HETATM   12  C12 UNL     1     -11.117  -0.749  -4.709  1.00  0.00     0.004 C 
HETATM   13  C13 UNL     1     -12.208  -1.416  -3.905  1.00  0.00     0.026 C 
HETATM   14  C14 UNL     1     -13.310  -0.473  -3.623  1.00  0.00     0.096 C 
BRANCH  14  15
HETATM   15  C15 UNL     1     -13.544  -0.347  -2.133  1.00  0.00     0.138 C 
BRANCH  15  16
HETATM   16  C16 UNL     1     -14.573  -1.308  -1.686  1.00  0.00     0.174 C 
HETATM   17  O2  UNL     1     -14.535  -1.812  -0.535  1.00  0.00    -0.648 OA
HETATM   18  O3  UNL     1     -15.627  -1.686  -2.537  1.00  0.00    -0.648 OA
ENDBRANCH  15  16
ENDBRANCH  14  15
ENDBRANCH   6   9
ENDBRANCH   5   6
BRANCH   1  19
HETATM   19  C5  UNL     1     -13.485   1.641  -7.994  1.00  0.00     0.202 C 
BRANCH  19  20
HETATM   20  C4  UNL     1     -12.001   1.825  -7.764  1.00  0.00     0.070 A 
HETATM   21  S1  UNL     1     -11.102   3.263  -7.484  1.00  0.00    -0.085 SA
HETATM   22  C3  UNL     1      -9.547   2.565  -7.334  1.00  0.00     0.076 A 
HETATM   23  C2  UNL     1      -9.827   1.235  -7.515  1.00  0.00     0.012 A 
HETATM   24  C1  UNL     1      -8.704   0.215  -7.462  1.00  0.00     0.068 C 
HETATM   25  N3  UNL     1     -11.058   0.902  -7.726  1.00  0.00    -0.356 N 
ATOM     26  H3  UNL     1     -11.302  -0.078  -7.864  1.00  0.00     0.166 HD
ENDBRANCH  19  20
ENDBRANCH   1  19
TORSDOF 7
ENDMDL
MODEL 5
REMARK VINA RESULT: -5.696929464      1.449      2.211
REMARK  7 active torsions:
REMARK  status: ('A' for Active; 'I' for Inactive)
REMARK    1  A    between atoms: C4_5  and  C5_6 
REMARK    2  A    between atoms: C5_6  and  N1_7 
REMARK    3  A    between atoms: C8_11  and  C9_12 
REMARK    4  A    between atoms: C9_12  and  O1_13 
REMARK    5  A    between atoms: C9_12  and  N2_15 
REMARK    6  A    between atoms: C14_20  and  C15_21 
REMARK    7  A    between atoms: C15_21  and  C16_22 
ROOT
HETATM    1  N1  UNL     1     -15.117   1.950  -6.994  1.00  0.00    -0.306 N 
HETATM    2  S2  UNL     1     -15.609   3.479  -7.346  1.00  0.00    -0.014 SA
HETATM    3  C6  UNL     1     -15.247   3.510  -5.670  1.00  0.00     0.027 A 
HETATM    4  C7  UNL     1     -15.390   4.677  -4.747  1.00  0.00     0.060 C 
HETATM    5  C8  UNL     1     -14.887   2.197  -5.651  1.00  0.00     0.106 A 
ENDROOT
BRANCH   5   6
HETATM    6  C9  UNL     1     -14.469   1.219  -4.679  1.00  0.00     0.167 C 
BRANCH   6   7
HETATM    7  O1  UNL     1     -15.410   0.584  -3.998  1.00  0.00    -0.344 OA
ATOM      8  H1  UNL     1     -15.443   0.716  -3.058  1.00  0.00     0.219 HD
ENDBRANCH   6   7
BRANCH   6   9
HETATM    9  N2  UNL     1     -13.201   0.770  -4.275  1.00  0.00    -0.355 N 
HETATM   10  C10 UNL     1     -12.000   1.508  -4.479  1.00  0.00     0.125 C 
HETATM   11  C11 UNL     1     -10.758   0.606  -4.364  1.00  0.00     0.020 C 
HETATM   12  C12 UNL     1     -11.121  -0.738  -5.008  1.00  0.00     0.004 C 
HETATM   13  C13 UNL     1     -12.001  -1.404  -3.977  1.00  0.00     0.026 C 
HETATM   14  C14 UNL     1     -13.104  -0.511  -3.565  1.00  0.00     0.096 C 
BRANCH  14  15
HETATM   15  C15 UNL     1     -13.082  -0.282  -2.069  1.00  0.00     0.138 C 
BRANCH  15  16
HETATM   16  C16 UNL     1     -13.905  -1.295  -1.377  1.00  0.00     0.174 C 
HETATM   17  O2  UNL     1     -13.504  -1.847  -0.321  1.00  0.00    -0.648 OA
HETATM   18  O3  UNL     1     -15.164  -1.670  -1.880  1.00  0.00    -0.648 OA
ENDBRANCH  15  16
ENDBRANCH  14  15
ENDBRANCH   6   9
ENDBRANCH   5   6
BRANCH   1  19
HETATM   19  C5  UNL     1     -14.996   0.796  -7.906  1.00  0.00     0.202 C 
BRANCH  19  20
HETATM   20  C4  UNL     1     -13.514   0.586  -8.126  1.00  0.00     0.070 A 
HETATM   21  S1  UNL     1     -12.663  -0.830  -8.602  1.00  0.00    -0.085 SA
HETATM   22  C3  UNL     1     -11.078  -0.185  -8.606  1.00  0.00     0.076 A 
HETATM   23  C2  UNL     1     -11.312   1.113  -8.229  1.00  0.00     0.012 A 
HETATM   24  C1  UNL     1     -10.149   2.080  -8.098  1.00  0.00     0.068 C 
HETATM   25  N3  UNL     1     -12.535   1.462  -7.999  1.00  0.00    -0.356 N 
ATOM     26  H3  UNL     1     -12.745   2.420  -7.719  1.00  0.00     0.166 HD
ENDBRANCH  19  20
ENDBRANCH   1  19
TORSDOF 7
ENDMDL
