MODEL 1
REMARK VINA RESULT: -5.950640227      0.000      0.000
REMARK  7 active torsions:
REMARK  status: ('A' for Active; 'I' for Inactive)
REMARK    1  A    between atoms: C2_2  and  O1_3 
REMARK    2  A    between atoms: O1_3  and  C3_4 
REMARK    3  A    between atoms: C3_4  and  C4_6 
REMARK    4  A    between atoms: C5_7  and  N1_8 
REMARK       I    between atoms: N1_8  and  C6_10 
REMARK    5  A    between atoms: C6_10  and  C7_12 
REMARK    6  A    between atoms: C8_13  and  C9_14 
REMARK    7  A    between atoms: C9_14  and  C10_16 
ROOT
HETATM    1  N1  UNL     1     -13.853   2.391  -3.528  1.00  0.00    -0.303 N 
ATOM      2  H1  UNL     1     -13.688   2.477  -2.525  1.00  0.00     0.171 HD
HETATM    3  C6  UNL     1     -13.998   1.108  -4.129  1.00  0.00     0.247 C 
HETATM    4  O3  UNL     1     -14.204   1.019  -5.379  1.00  0.00    -0.268 OA
ENDROOT
BRANCH   1   5
HETATM    5  C5  UNL     1     -13.941   3.557  -4.349  1.00  0.00     0.167 A 
HETATM    6  C4  UNL     1     -12.881   4.259  -4.867  1.00  0.00     0.099 A 
HETATM    7  C16 UNL     1     -13.488   5.299  -5.588  1.00  0.00    -0.012 A 
HETATM    8  C14 UNL     1     -14.847   5.182  -5.476  1.00  0.00     0.058 A 
HETATM    9  C17 UNL     1     -12.758   6.338  -6.337  1.00  0.00     0.052 C 
HETATM   10  O5  UNL     1     -15.074   4.131  -4.730  1.00  0.00    -0.297 OA
HETATM   11  C15 UNL     1     -15.914   6.062  -6.074  1.00  0.00     0.077 C 
BRANCH   6  12
HETATM   12  C3  UNL     1     -11.447   4.050  -4.751  1.00  0.00     0.298 C 
HETATM   13  O2  UNL     1     -10.735   4.828  -4.081  1.00  0.00    -0.259 OA
BRANCH  12  14
HETATM   14  O1  UNL     1     -10.791   2.996  -5.363  1.00  0.00    -0.318 OA
BRANCH  14  15
HETATM   15  C2  UNL     1      -9.823   2.199  -4.711  1.00  0.00     0.174 C 
HETATM   16  C1  UNL     1     -10.397   1.056  -3.946  1.00  0.00     0.034 C 
ENDBRANCH  14  15
ENDBRANCH  12  14
ENDBRANCH   6  12
ENDBRANCH   1   5
BRANCH   3  17
HETATM   17  C7  UNL     1     -13.909  -0.073  -3.298  1.00  0.00     0.078 C 
HETATM   18  C8  UNL     1     -13.449   0.045  -2.069  1.00  0.00     0.061 C 
BRANCH  18  19
HETATM   19  C9  UNL     1     -13.354  -1.134  -1.223  1.00  0.00     0.191 C 
HETATM   20  O4  UNL     1     -12.363  -1.865  -1.275  1.00  0.00    -0.287 OA
BRANCH  19  21
HETATM   21  C10 UNL     1     -14.437  -1.480  -0.289  1.00  0.00     0.078 A 
HETATM   22  S1  UNL     1     -14.506  -1.344   1.415  1.00  0.00    -0.079 SA
HETATM   23  C11 UNL     1     -16.082  -1.956   1.658  1.00  0.00     0.139 A 
HETATM   24  N2  UNL     1     -16.468  -2.229   0.420  1.00  0.00    -0.362 N 
HETATM   25  C12 UNL     1     -15.672  -2.004  -0.574  1.00  0.00     0.026 A 
ATOM     26  H2  UNL     1     -17.396  -2.618   0.251  1.00  0.00     0.165 HD
HETATM   27  C13 UNL     1     -16.060  -2.298  -2.012  1.00  0.00     0.070 C 
ENDBRANCH  19  21
ENDBRANCH  18  19
ENDBRANCH   3  17
TORSDOF 7
ENDMDL
MODEL 2
REMARK VINA RESULT: -5.767752563      1.865      3.772
REMARK  7 active torsions:
REMARK  status: ('A' for Active; 'I' for Inactive)
REMARK    1  A    between atoms: C2_2  and  O1_3 
REMARK    2  A    between atoms: O1_3  and  C3_4 
REMARK    3  A    between atoms: C3_4  and  C4_6 
REMARK    4  A    between atoms: C5_7  and  N1_8 
REMARK       I    between atoms: N1_8  and  C6_10 
REMARK    5  A    between atoms: C6_10  and  C7_12 
REMARK    6  A    between atoms: C8_13  and  C9_14 
REMARK    7  A    between atoms: C9_14  and  C10_16 
ROOT
HETATM    1  N1  UNL     1     -13.738   0.616  -3.334  1.00  0.00    -0.303 N 
ATOM      2  H1  UNL     1     -14.710   0.671  -3.636  1.00  0.00     0.171 HD
HETATM    3  C6  UNL     1     -13.331  -0.369  -2.388  1.00  0.00     0.247 C 
HETATM    4  O3  UNL     1     -12.117  -0.425  -2.023  1.00  0.00    -0.268 OA
ENDROOT
BRANCH   1   5
HETATM    5  C5  UNL     1     -12.765   1.524  -3.853  1.00  0.00     0.167 A 
HETATM    6  C4  UNL     1     -13.024   2.762  -4.388  1.00  0.00     0.099 A 
HETATM    7  C16 UNL     1     -11.756   3.244  -4.745  1.00  0.00    -0.012 A 
HETATM    8  C14 UNL     1     -10.816   2.304  -4.420  1.00  0.00     0.058 A 
HETATM    9  C17 UNL     1     -11.503   4.555  -5.370  1.00  0.00     0.052 C 
HETATM   10  O5  UNL     1     -11.460   1.295  -3.891  1.00  0.00    -0.297 OA
HETATM   11  C15 UNL     1      -9.323   2.369  -4.612  1.00  0.00     0.077 C 
BRANCH   6  12
HETATM   12  C3  UNL     1     -14.274   3.479  -4.578  1.00  0.00     0.298 C 
HETATM   13  O2  UNL     1     -14.986   3.803  -3.603  1.00  0.00    -0.259 OA
BRANCH  12  14
HETATM   14  O1  UNL     1     -14.749   3.842  -5.827  1.00  0.00    -0.318 OA
BRANCH  14  15
HETATM   15  C2  UNL     1     -15.134   2.908  -6.815  1.00  0.00     0.174 C 
HETATM   16  C1  UNL     1     -16.108   1.887  -6.335  1.00  0.00     0.034 C 
ENDBRANCH  14  15
ENDBRANCH  12  14
ENDBRANCH   6  12
ENDBRANCH   1   5
BRANCH   3  17
HETATM   17  C7  UNL     1     -14.316  -1.289  -1.862  1.00  0.00     0.078 C 
HETATM   18  C8  UNL     1     -14.694  -1.169  -0.605  1.00  0.00     0.061 C 
BRANCH  18  19
HETATM   19  C9  UNL     1     -15.684  -2.088  -0.064  1.00  0.00     0.191 C 
HETATM   20  O4  UNL     1     -16.380  -2.773  -0.816  1.00  0.00    -0.287 OA
BRANCH  19  21
HETATM   21  C10 UNL     1     -15.874  -2.220   1.389  1.00  0.00     0.078 A 
HETATM   22  S1  UNL     1     -14.790  -2.763   2.596  1.00  0.00    -0.079 SA
HETATM   23  C11 UNL     1     -15.813  -2.592   3.954  1.00  0.00     0.139 A 
HETATM   24  N2  UNL     1     -16.926  -2.128   3.406  1.00  0.00    -0.362 N 
HETATM   25  C12 UNL     1     -16.991  -1.931   2.131  1.00  0.00     0.026 A 
ATOM     26  H2  UNL     1     -17.735  -1.926   3.994  1.00  0.00     0.165 HD
HETATM   27  C13 UNL     1     -18.241  -1.402   1.449  1.00  0.00     0.070 C 
ENDBRANCH  19  21
ENDBRANCH  18  19
ENDBRANCH   3  17
TORSDOF 7
ENDMDL
MODEL 3
REMARK VINA RESULT: -5.757835680      1.567      2.667
REMARK  7 active torsions:
REMARK  status: ('A' for Active; 'I' for Inactive)
REMARK    1  A    between atoms: C2_2  and  O1_3 
REMARK    2  A    between atoms: O1_3  and  C3_4 
REMARK    3  A    between atoms: C3_4  and  C4_6 
REMARK    4  A    between atoms: C5_7  and  N1_8 
REMARK       I    between atoms: N1_8  and  C6_10 
REMARK    5  A    between atoms: C6_10  and  C7_12 
REMARK    6  A    between atoms: C8_13  and  C9_14 
REMARK    7  A    between atoms: C9_14  and  C10_16 
ROOT
HETATM    1  N1  UNL     1     -13.627   2.108  -3.689  1.00  0.00    -0.303 N 
ATOM      2  H1  UNL     1     -14.368   1.922  -3.013  1.00  0.00     0.171 HD
HETATM    3  C6  UNL     1     -12.490   1.254  -3.767  1.00  0.00     0.247 C 
HETATM    4  O3  UNL     1     -11.578   1.499  -4.616  1.00  0.00    -0.268 OA
ENDROOT
BRANCH   1   5
HETATM    5  C5  UNL     1     -13.717   3.229  -4.570  1.00  0.00     0.167 A 
HETATM    6  C4  UNL     1     -14.484   3.300  -5.707  1.00  0.00     0.099 A 
HETATM    7  C16 UNL     1     -14.225   4.586  -6.205  1.00  0.00    -0.012 A 
HETATM    8  C14 UNL     1     -13.338   5.214  -5.373  1.00  0.00     0.058 A 
HETATM    9  C17 UNL     1     -14.823   5.147  -7.430  1.00  0.00     0.052 C 
HETATM   10  O5  UNL     1     -13.061   4.371  -4.412  1.00  0.00    -0.297 OA
HETATM   11  C15 UNL     1     -12.764   6.602  -5.495  1.00  0.00     0.077 C 
BRANCH   6  12
HETATM   12  C3  UNL     1     -15.378   2.332  -6.319  1.00  0.00     0.298 C 
HETATM   13  O2  UNL     1     -16.558   2.633  -6.602  1.00  0.00    -0.259 OA
BRANCH  12  14
HETATM   14  O1  UNL     1     -14.989   1.038  -6.623  1.00  0.00    -0.318 OA
BRANCH  14  15
HETATM   15  C2  UNL     1     -13.919   0.732  -7.493  1.00  0.00     0.174 C 
HETATM   16  C1  UNL     1     -13.114  -0.449  -7.071  1.00  0.00     0.034 C 
ENDBRANCH  14  15
ENDBRANCH  12  14
ENDBRANCH   6  12
ENDBRANCH   1   5
BRANCH   3  17
HETATM   17  C7  UNL     1     -12.399   0.119  -2.875  1.00  0.00     0.078 C 
HETATM   18  C8  UNL     1     -13.396  -0.126  -2.049  1.00  0.00     0.061 C 
BRANCH  18  19
HETATM   19  C9  UNL     1     -13.317  -1.264  -1.147  1.00  0.00     0.191 C 
HETATM   20  O4  UNL     1     -12.317  -1.984  -1.134  1.00  0.00    -0.287 OA
BRANCH  19  21
HETATM   21  C10 UNL     1     -14.426  -1.579  -0.233  1.00  0.00     0.078 A 
HETATM   22  S1  UNL     1     -14.498  -1.512   1.475  1.00  0.00    -0.079 SA
HETATM   23  C11 UNL     1     -16.111  -2.031   1.684  1.00  0.00     0.139 A 
HETATM   24  N2  UNL     1     -16.505  -2.226   0.434  1.00  0.00    -0.362 N 
HETATM   25  C12 UNL     1     -15.690  -2.011  -0.545  1.00  0.00     0.026 A 
ATOM     26  H2  UNL     1     -17.454  -2.547   0.245  1.00  0.00     0.165 HD
HETATM   27  C13 UNL     1     -16.086  -2.218  -1.997  1.00  0.00     0.070 C 
ENDBRANCH  19  21
ENDBRANCH  18  19
ENDBRANCH   3  17
TORSDOF 7
ENDMDL
MODEL 4
REMARK VINA RESULT: -5.681536462      2.431      3.685
REMARK  7 active torsions:
REMARK  status: ('A' for Active; 'I' for Inactive)
REMARK    1  A    between atoms: C2_2  and  O1_3 
REMARK    2  A    between atoms: O1_3  and  C3_4 
REMARK    3  A    between atoms: C3_4  and  C4_6 
REMARK    4  A    between atoms: C5_7  and  N1_8 
REMARK       I    between atoms: N1_8  and  C6_10 
REMARK    5  A    between atoms: C6_10  and  C7_12 
REMARK    6  A    between atoms: C8_13  and  C9_14 
REMARK    7  A    between atoms: C9_14  and  C10_16 
ROOT
HETATM    1  N1  UNL     1     -13.913   0.450  -3.675  1.00  0.00    -0.303 N 
ATOM      2  H1  UNL     1     -14.848   0.362  -4.073  1.00  0.00     0.171 HD
HETATM    3  C6  UNL     1     -13.532  -0.336  -2.549  1.00  0.00     0.247 C 
HETATM    4  O3  UNL     1     -12.364  -0.215  -2.066  1.00  0.00    -0.268 OA
ENDROOT
BRANCH   1   5
HETATM    5  C5  UNL     1     -12.969   1.361  -4.238  1.00  0.00     0.167 A 
HETATM    6  C4  UNL     1     -11.978   1.043  -5.134  1.00  0.00     0.099 A 
HETATM    7  C16 UNL     1     -11.336   2.267  -5.372  1.00  0.00    -0.012 A 
HETATM    8  C14 UNL     1     -11.948   3.241  -4.631  1.00  0.00     0.058 A 
HETATM    9  C17 UNL     1     -10.187   2.450  -6.278  1.00  0.00     0.052 C 
HETATM   10  O5  UNL     1     -12.916   2.659  -3.970  1.00  0.00    -0.297 OA
HETATM   11  C15 UNL     1     -11.614   4.709  -4.556  1.00  0.00     0.077 C 
BRANCH   6  12
HETATM   12  C3  UNL     1     -11.611  -0.225  -5.743  1.00  0.00     0.298 C 
HETATM   13  O2  UNL     1     -11.194  -1.177  -5.048  1.00  0.00    -0.259 OA
BRANCH  12  14
HETATM   14  O1  UNL     1     -11.697  -0.456  -7.105  1.00  0.00    -0.318 OA
BRANCH  14  15
HETATM   15  C2  UNL     1     -12.922  -0.547  -7.803  1.00  0.00     0.174 C 
HETATM   16  C1  UNL     1     -13.113  -1.837  -8.524  1.00  0.00     0.034 C 
ENDBRANCH  14  15
ENDBRANCH  12  14
ENDBRANCH   6  12
ENDBRANCH   1   5
BRANCH   3  17
HETATM   17  C7  UNL     1     -14.488  -1.259  -1.978  1.00  0.00     0.078 C 
HETATM   18  C8  UNL     1     -14.764  -1.177  -0.692  1.00  0.00     0.061 C 
BRANCH  18  19
HETATM   19  C9  UNL     1     -15.724  -2.099  -0.105  1.00  0.00     0.191 C 
HETATM   20  O4  UNL     1     -16.430  -2.809  -0.824  1.00  0.00    -0.287 OA
BRANCH  19  21
HETATM   21  C10 UNL     1     -15.872  -2.205   1.355  1.00  0.00     0.078 A 
HETATM   22  S1  UNL     1     -14.746  -2.703   2.542  1.00  0.00    -0.079 SA
HETATM   23  C11 UNL     1     -15.734  -2.523   3.924  1.00  0.00     0.139 A 
HETATM   24  N2  UNL     1     -16.870  -2.090   3.399  1.00  0.00    -0.362 N 
HETATM   25  C12 UNL     1     -16.974  -1.921   2.122  1.00  0.00     0.026 A 
ATOM     26  H2  UNL     1     -17.666  -1.890   4.004  1.00  0.00     0.165 HD
HETATM   27  C13 UNL     1     -18.252  -1.428   1.464  1.00  0.00     0.070 C 
ENDBRANCH  19  21
ENDBRANCH  18  19
ENDBRANCH   3  17
TORSDOF 7
ENDMDL
MODEL 5
REMARK VINA RESULT: -5.624568021      1.413      3.583
REMARK  7 active torsions:
REMARK  status: ('A' for Active; 'I' for Inactive)
REMARK    1  A    between atoms: C2_2  and  O1_3 
REMARK    2  A    between atoms: O1_3  and  C3_4 
REMARK    3  A    between atoms: C3_4  and  C4_6 
REMARK    4  A    between atoms: C5_7  and  N1_8 
REMARK       I    between atoms: N1_8  and  C6_10 
REMARK    5  A    between atoms: C6_10  and  C7_12 
REMARK    6  A    between atoms: C8_13  and  C9_14 
REMARK    7  A    between atoms: C9_14  and  C10_16 
ROOT
HETATM    1  N1  UNL     1     -13.771   2.381  -3.578  1.00  0.00    -0.303 N 
ATOM      2  H1  UNL     1     -14.259   2.344  -2.683  1.00  0.00     0.171 HD
HETATM    3  C6  UNL     1     -13.150   1.215  -4.110  1.00  0.00     0.247 C 
HETATM    4  O3  UNL     1     -12.547   1.278  -5.226  1.00  0.00    -0.268 OA
ENDROOT
BRANCH   1   5
HETATM    5  C5  UNL     1     -13.701   3.603  -4.314  1.00  0.00     0.167 A 
HETATM    6  C4  UNL     1     -14.694   4.123  -5.109  1.00  0.00     0.099 A 
HETATM    7  C16 UNL     1     -14.141   5.315  -5.599  1.00  0.00    -0.012 A 
HETATM    8  C14 UNL     1     -12.877   5.458  -5.095  1.00  0.00     0.058 A 
HETATM    9  C17 UNL     1     -14.830   6.247  -6.510  1.00  0.00     0.052 C 
HETATM   10  O5  UNL     1     -12.654   4.417  -4.335  1.00  0.00    -0.297 OA
HETATM   11  C15 UNL     1     -11.894   6.575  -5.337  1.00  0.00     0.077 C 
BRANCH   6  12
HETATM   12  C3  UNL     1     -16.024   3.628  -5.422  1.00  0.00     0.298 C 
HETATM   13  O2  UNL     1     -16.195   2.471  -5.863  1.00  0.00    -0.259 OA
BRANCH  12  14
HETATM   14  O1  UNL     1     -17.167   4.392  -5.255  1.00  0.00    -0.318 OA
BRANCH  14  15
HETATM   15  C2  UNL     1     -18.199   4.468  -6.218  1.00  0.00     0.174 C 
HETATM   16  C1  UNL     1     -19.509   4.915  -5.666  1.00  0.00     0.034 C 
ENDBRANCH  14  15
ENDBRANCH  12  14
ENDBRANCH   6  12
ENDBRANCH   1   5
BRANCH   3  17
HETATM   17  C7  UNL     1     -13.220  -0.023  -3.364  1.00  0.00     0.078 C 
HETATM   18  C8  UNL     1     -13.176   0.022  -2.048  1.00  0.00     0.061 C 
BRANCH  18  19
HETATM   19  C9  UNL     1     -13.246  -1.216  -1.287  1.00  0.00     0.191 C 
HETATM   20  O4  UNL     1     -12.357  -2.063  -1.387  1.00  0.00    -0.287 OA
BRANCH  19  21
HETATM   21  C10 UNL     1     -14.376  -1.481  -0.383  1.00  0.00     0.078 A 
HETATM   22  S1  UNL     1     -14.489  -1.318   1.316  1.00  0.00    -0.079 SA
HETATM   23  C11 UNL     1     -16.107  -1.828   1.515  1.00  0.00     0.139 A 
HETATM   24  N2  UNL     1     -16.470  -2.094   0.269  1.00  0.00    -0.362 N 
HETATM   25  C12 UNL     1     -15.632  -1.932  -0.701  1.00  0.00     0.026 A 
ATOM     26  H2  UNL     1     -17.415  -2.427   0.075  1.00  0.00     0.165 HD
HETATM   27  C13 UNL     1     -15.993  -2.221  -2.148  1.00  0.00     0.070 C 
ENDBRANCH  19  21
ENDBRANCH  18  19
ENDBRANCH   3  17
TORSDOF 7
ENDMDL
