MODEL 1
REMARK VINA RESULT: -6.214444489      0.000      0.000
REMARK  11 active torsions:
REMARK  status: ('A' for Active; 'I' for Inactive)
REMARK    1  A    between atoms: C5_6  and  C6_7 
REMARK    2  A    between atoms: C6_7  and  N2_8 
REMARK    3  A    between atoms: C6_7  and  C9_14 
REMARK    4  A    between atoms: N2_8  and  C7_10 
REMARK    5  A    between atoms: C7_10  and  C8_11 
REMARK    6  A    between atoms: C8_11  and  O1_12 
REMARK    7  A    between atoms: N5_18  and  C10_19 
REMARK    8  A    between atoms: C11_25  and  N8_26 
REMARK    9  A    between atoms: C12_29  and  C13_30 
REMARK   10  A    between atoms: C19_39  and  C20_40 
REMARK   11  A    between atoms: C21_43  and  N12_44 
ROOT
HETATM    1  C9  UNL     1      37.009  62.641  18.936  1.00  0.00     0.101 A 
HETATM    2  N3  UNL     1      37.008  63.087  20.181  1.00  0.00    -0.279 N 
ATOM      3  H3  UNL     1      37.848  63.305  20.716  1.00  0.00     0.184 HD
HETATM    4  N4  UNL     1      35.769  63.214  20.644  1.00  0.00    -0.013 NA
HETATM    5  N5  UNL     1      34.955  62.833  19.651  1.00  0.00    -0.214 N 
HETATM    6  C12 UNL     1      35.711  62.471  18.572  1.00  0.00     0.115 A 
ENDROOT
BRANCH   6   7
HETATM    7  C13 UNL     1      35.250  61.983  17.288  1.00  0.00     0.097 A 
HETATM    8  N9  UNL     1      35.069  60.708  16.919  1.00  0.00    -0.338 N 
HETATM    9  C14 UNL     1      34.622  60.656  15.652  1.00  0.00     0.112 A 
ATOM     10  H9  UNL     1      35.245  59.897  17.512  1.00  0.00     0.167 HD
HETATM   11  C15 UNL     1      34.291  59.565  14.836  1.00  0.00     0.049 A 
HETATM   12  N10 UNL     1      34.503  61.896  15.175  1.00  0.00    -0.302 N 
HETATM   13  C16 UNL     1      33.854  59.783  13.567  1.00  0.00     0.005 A 
HETATM   14  C17 UNL     1      33.740  61.071  13.097  1.00  0.00     0.018 A 
HETATM   15  C18 UNL     1      34.069  62.147  13.910  1.00  0.00     0.099 A 
HETATM   16  C19 UNL     1      34.894  62.728  16.191  1.00  0.00     0.124 A 
BRANCH  16  17
HETATM   17  C20 UNL     1      34.917  64.184  16.052  1.00  0.00     0.215 A 
HETATM   18  N11 UNL     1      36.045  64.912  16.013  1.00  0.00    -0.165 N 
HETATM   19  C21 UNL     1      35.674  66.213  15.877  1.00  0.00     0.698 A 
ATOM     20  H11 UNL     1      36.999  64.557  16.075  1.00  0.00     0.186 HD
HETATM   21  N13 UNL     1      34.331  66.234  15.837  1.00  0.00    -0.089 N 
HETATM   22  O3  UNL     1      33.926  65.010  15.944  1.00  0.00    -0.202 OA
ATOM     23  H13 UNL     1      33.741  67.061  15.740  1.00  0.00     0.213 HD
BRANCH  19  24
HETATM   24  N12 UNL     1      36.501  67.182  15.805  1.00  0.00    -0.233 N 
ATOM     25 2H12 UNL     1      37.521  67.166  15.848  1.00  0.00     0.174 HD
ATOM     26 1H12 UNL     1      36.223  68.156  15.689  1.00  0.00     0.174 HD
ENDBRANCH  19  24
ENDBRANCH  16  17
ENDBRANCH   6   7
BRANCH   1  27
HETATM   27  C6  UNL     1      38.242  62.369  18.124  1.00  0.00     0.069 C 
BRANCH  27  28
HETATM   28  C5  UNL     1      38.646  63.597  17.425  1.00  0.00     0.279 C 
HETATM   29  C2  UNL     1      39.593  64.577  17.992  1.00  0.00     0.049 C 
HETATM   30  C1  UNL     1      38.963  65.761  18.711  1.00  0.00     0.014 C 
HETATM   31  C3  UNL     1      39.835  64.887  16.493  1.00  0.00     0.279 C 
HETATM   32  N1  UNL     1      39.589  63.435  16.320  1.00  0.00     0.095 N 
HETATM   33  C4  UNL     1      39.040  63.245  15.016  1.00  0.00     0.310 C 
ENDBRANCH  27  28
BRANCH  27  34
HETATM   34  N2  UNL     1      38.259  61.118  17.535  1.00  0.00    -0.387 N 
ATOM     35  H2  UNL     1      37.527  60.893  16.861  1.00  0.00     0.159 HD
BRANCH  34  36
HETATM   36  C7  UNL     1      39.230  60.138  17.814  1.00  0.00     0.145 C 
BRANCH  36  37
HETATM   37  C8  UNL     1      39.046  58.959  16.841  1.00  0.00     0.183 C 
BRANCH  37  38
HETATM   38  O1  UNL     1      37.789  59.141  16.262  1.00  0.00    -0.399 OA
ATOM     39  H1  UNL     1      37.548  58.296  15.903  1.00  0.00     0.209 HD
ENDBRANCH  37  38
ENDBRANCH  36  37
ENDBRANCH  34  36
ENDBRANCH  27  34
ENDBRANCH   1  27
BRANCH   5  40
HETATM   40  C10 UNL     1      33.536  62.783  19.663  1.00  0.00     0.194 A 
HETATM   41  N6  UNL     1      32.744  61.799  20.123  1.00  0.00    -0.221 N 
HETATM   42  O2  UNL     1      31.483  62.143  19.950  1.00  0.00    -0.153 OA
ATOM     43  H6  UNL     1      33.066  60.926  20.539  1.00  0.00     0.198 HD
HETATM   44  N7  UNL     1      31.406  63.311  19.396  1.00  0.00    -0.222 N 
HETATM   45  C11 UNL     1      32.671  63.751  19.197  1.00  0.00     0.169 A 
ATOM     46  H7  UNL     1      30.550  63.808  19.153  1.00  0.00     0.198 HD
BRANCH  45  47
HETATM   47  N8  UNL     1      32.964  64.876  18.667  1.00  0.00    -0.381 N 
ATOM     48  H82 UNL     1      32.660  65.168  17.738  1.00  0.00     0.157 HD
ATOM     49  H81 UNL     1      33.523  65.630  19.065  1.00  0.00     0.157 HD
ENDBRANCH  45  47
ENDBRANCH   5  40
TORSDOF 11
ENDMDL
MODEL 2
REMARK VINA RESULT: -6.191154581      2.060      4.495
REMARK  11 active torsions:
REMARK  status: ('A' for Active; 'I' for Inactive)
REMARK    1  A    between atoms: C5_6  and  C6_7 
REMARK    2  A    between atoms: C6_7  and  N2_8 
REMARK    3  A    between atoms: C6_7  and  C9_14 
REMARK    4  A    between atoms: N2_8  and  C7_10 
REMARK    5  A    between atoms: C7_10  and  C8_11 
REMARK    6  A    between atoms: C8_11  and  O1_12 
REMARK    7  A    between atoms: N5_18  and  C10_19 
REMARK    8  A    between atoms: C11_25  and  N8_26 
REMARK    9  A    between atoms: C12_29  and  C13_30 
REMARK   10  A    between atoms: C19_39  and  C20_40 
REMARK   11  A    between atoms: C21_43  and  N12_44 
ROOT
HETATM    1  C9  UNL     1      35.013  64.853  16.001  1.00  0.00     0.101 A 
HETATM    2  N3  UNL     1      34.098  65.716  16.407  1.00  0.00    -0.279 N 
ATOM      3  H3  UNL     1      33.878  66.590  15.931  1.00  0.00     0.184 HD
HETATM    4  N4  UNL     1      33.501  65.295  17.518  1.00  0.00    -0.013 NA
HETATM    5  N5  UNL     1      34.063  64.120  17.825  1.00  0.00    -0.214 N 
HETATM    6  C12 UNL     1      35.013  63.823  16.888  1.00  0.00     0.115 A 
ENDROOT
BRANCH   6   7
HETATM    7  C13 UNL     1      35.874  62.659  16.833  1.00  0.00     0.097 A 
HETATM    8  N9  UNL     1      35.671  61.529  16.143  1.00  0.00    -0.338 N 
HETATM    9  C14 UNL     1      36.699  60.683  16.335  1.00  0.00     0.112 A 
ATOM     10  H9  UNL     1      34.857  61.339  15.558  1.00  0.00     0.167 HD
HETATM   11  C15 UNL     1      36.939  59.397  15.833  1.00  0.00     0.049 A 
HETATM   12  N10 UNL     1      37.588  61.249  17.153  1.00  0.00    -0.302 N 
HETATM   13  C16 UNL     1      38.076  58.739  16.186  1.00  0.00     0.005 A 
HETATM   14  C17 UNL     1      38.978  59.344  17.031  1.00  0.00     0.018 A 
HETATM   15  C18 UNL     1      38.734  60.618  17.524  1.00  0.00     0.099 A 
HETATM   16  C19 UNL     1      37.079  62.482  17.467  1.00  0.00     0.124 A 
BRANCH  16  17
HETATM   17  C20 UNL     1      37.765  63.413  18.362  1.00  0.00     0.215 A 
HETATM   18  N11 UNL     1      38.167  64.641  17.995  1.00  0.00    -0.165 N 
HETATM   19  C21 UNL     1      38.759  65.207  19.080  1.00  0.00     0.698 A 
ATOM     20  H11 UNL     1      38.051  65.069  17.076  1.00  0.00     0.186 HD
HETATM   21  N13 UNL     1      38.698  64.304  20.073  1.00  0.00    -0.089 N 
HETATM   22  O3  UNL     1      38.101  63.257  19.602  1.00  0.00    -0.202 OA
ATOM     23  H13 UNL     1      39.056  64.421  21.021  1.00  0.00     0.213 HD
BRANCH  19  24
HETATM   24  N12 UNL     1      39.256  66.382  19.084  1.00  0.00    -0.233 N 
ATOM     25 2H12 UNL     1      40.231  66.672  18.996  1.00  0.00     0.174 HD
ATOM     26 1H12 UNL     1      38.701  67.231  19.185  1.00  0.00     0.174 HD
ENDBRANCH  19  24
ENDBRANCH  16  17
ENDBRANCH   6   7
BRANCH   1  27
HETATM   27  C6  UNL     1      35.882  65.031  14.790  1.00  0.00     0.069 C 
BRANCH  27  28
HETATM   28  C5  UNL     1      36.259  66.446  14.664  1.00  0.00     0.279 C 
HETATM   29  C2  UNL     1      37.635  66.894  14.373  1.00  0.00     0.049 C 
HETATM   30  C1  UNL     1      38.475  67.272  15.584  1.00  0.00     0.014 C 
HETATM   31  C3  UNL     1      36.882  68.122  13.799  1.00  0.00     0.279 C 
HETATM   32  N1  UNL     1      35.856  67.117  13.429  1.00  0.00     0.095 N 
HETATM   33  C4  UNL     1      34.591  67.776  13.427  1.00  0.00     0.310 C 
ENDBRANCH  27  28
BRANCH  27  34
HETATM   34  N2  UNL     1      35.512  64.244  13.716  1.00  0.00    -0.387 N 
ATOM     35  H2  UNL     1      36.248  63.803  13.165  1.00  0.00     0.159 HD
BRANCH  34  36
HETATM   36  C7  UNL     1      34.174  64.016  13.340  1.00  0.00     0.145 C 
BRANCH  36  37
HETATM   37  C8  UNL     1      33.964  62.506  13.122  1.00  0.00     0.183 C 
BRANCH  37  38
HETATM   38  O1  UNL     1      33.363  62.037  14.290  1.00  0.00    -0.399 OA
ATOM     39  H1  UNL     1      32.664  62.651  14.483  1.00  0.00     0.209 HD
ENDBRANCH  37  38
ENDBRANCH  36  37
ENDBRANCH  34  36
ENDBRANCH  27  34
ENDBRANCH   1  27
BRANCH   5  40
HETATM   40  C10 UNL     1      33.771  63.282  18.933  1.00  0.00     0.194 A 
HETATM   41  N6  UNL     1      32.885  62.274  19.002  1.00  0.00    -0.221 N 
HETATM   42  O2  UNL     1      32.920  61.748  20.210  1.00  0.00    -0.153 OA
ATOM     43  H6  UNL     1      32.280  61.966  18.240  1.00  0.00     0.198 HD
HETATM   44  N7  UNL     1      33.792  62.362  20.944  1.00  0.00    -0.222 N 
HETATM   45  C11 UNL     1      34.352  63.333  20.184  1.00  0.00     0.169 A 
ATOM     46  H7  UNL     1      34.016  62.153  21.916  1.00  0.00     0.198 HD
BRANCH  45  47
HETATM   47  N8  UNL     1      35.257  64.135  20.598  1.00  0.00    -0.381 N 
ATOM     48  H82 UNL     1      35.201  65.150  20.520  1.00  0.00     0.157 HD
ATOM     49  H81 UNL     1      36.141  63.902  21.050  1.00  0.00     0.157 HD
ENDBRANCH  45  47
ENDBRANCH   5  40
TORSDOF 11
ENDMDL
MODEL 3
REMARK VINA RESULT: -6.119441033      1.524      2.737
REMARK  11 active torsions:
REMARK  status: ('A' for Active; 'I' for Inactive)
REMARK    1  A    between atoms: C5_6  and  C6_7 
REMARK    2  A    between atoms: C6_7  and  N2_8 
REMARK    3  A    between atoms: C6_7  and  C9_14 
REMARK    4  A    between atoms: N2_8  and  C7_10 
REMARK    5  A    between atoms: C7_10  and  C8_11 
REMARK    6  A    between atoms: C8_11  and  O1_12 
REMARK    7  A    between atoms: N5_18  and  C10_19 
REMARK    8  A    between atoms: C11_25  and  N8_26 
REMARK    9  A    between atoms: C12_29  and  C13_30 
REMARK   10  A    between atoms: C19_39  and  C20_40 
REMARK   11  A    between atoms: C21_43  and  N12_44 
ROOT
HETATM    1  C9  UNL     1      36.786  62.945  18.446  1.00  0.00     0.101 A 
HETATM    2  N3  UNL     1      36.934  63.127  19.747  1.00  0.00    -0.279 N 
ATOM      3  H3  UNL     1      37.830  63.284  20.209  1.00  0.00     0.184 HD
HETATM    4  N4  UNL     1      35.764  63.079  20.374  1.00  0.00    -0.013 NA
HETATM    5  N5  UNL     1      34.840  62.857  19.432  1.00  0.00    -0.214 N 
HETATM    6  C12 UNL     1      35.458  62.771  18.216  1.00  0.00     0.115 A 
ENDROOT
BRANCH   6   7
HETATM    7  C13 UNL     1      34.849  62.526  16.924  1.00  0.00     0.097 A 
HETATM    8  N9  UNL     1      34.427  61.354  16.433  1.00  0.00    -0.338 N 
HETATM    9  C14 UNL     1      33.907  61.531  15.205  1.00  0.00     0.112 A 
ATOM     10  H9  UNL     1      34.489  60.459  16.919  1.00  0.00     0.167 HD
HETATM   11  C15 UNL     1      33.346  60.618  14.301  1.00  0.00     0.049 A 
HETATM   12  N10 UNL     1      33.983  62.823  14.877  1.00  0.00    -0.302 N 
HETATM   13  C16 UNL     1      32.884  61.059  13.100  1.00  0.00     0.005 A 
HETATM   14  C17 UNL     1      32.973  62.395  12.785  1.00  0.00     0.018 A 
HETATM   15  C18 UNL     1      33.530  63.294  13.683  1.00  0.00     0.099 A 
HETATM   16  C19 UNL     1      34.570  63.448  15.945  1.00  0.00     0.124 A 
BRANCH  16  17
HETATM   17  C20 UNL     1      34.840  64.885  15.965  1.00  0.00     0.215 A 
HETATM   18  N11 UNL     1      36.046  65.421  15.718  1.00  0.00    -0.165 N 
HETATM   19  C21 UNL     1      35.912  66.769  15.824  1.00  0.00     0.698 A 
ATOM     20  H11 UNL     1      36.902  64.912  15.493  1.00  0.00     0.186 HD
HETATM   21  N13 UNL     1      34.628  67.011  16.134  1.00  0.00    -0.089 N 
HETATM   22  O3  UNL     1      34.030  65.865  16.207  1.00  0.00    -0.202 OA
ATOM     23  H13 UNL     1      34.203  67.926  16.284  1.00  0.00     0.213 HD
BRANCH  19  24
HETATM   24  N12 UNL     1      36.872  67.592  15.648  1.00  0.00    -0.233 N 
ATOM     25 2H12 UNL     1      37.432  67.764  14.813  1.00  0.00     0.174 HD
ATOM     26 1H12 UNL     1      37.219  68.220  16.373  1.00  0.00     0.174 HD
ENDBRANCH  19  24
ENDBRANCH  16  17
ENDBRANCH   6   7
BRANCH   1  27
HETATM   27  C6  UNL     1      37.909  62.922  17.449  1.00  0.00     0.069 C 
BRANCH  27  28
HETATM   28  C5  UNL     1      38.044  61.567  16.897  1.00  0.00     0.279 C 
HETATM   29  C2  UNL     1      38.449  61.297  15.504  1.00  0.00     0.049 C 
HETATM   30  C1  UNL     1      37.312  61.070  14.519  1.00  0.00     0.014 C 
HETATM   31  C3  UNL     1      38.932  59.964  16.131  1.00  0.00     0.279 C 
HETATM   32  N1  UNL     1      39.227  60.813  17.311  1.00  0.00     0.095 N 
HETATM   33  C4  UNL     1      39.103  59.991  18.471  1.00  0.00     0.310 C 
ENDBRANCH  27  28
BRANCH  27  34
HETATM   34  N2  UNL     1      38.988  63.710  17.806  1.00  0.00    -0.387 N 
ATOM     35  H2  UNL     1      39.853  63.245  18.080  1.00  0.00     0.159 HD
BRANCH  34  36
HETATM   36  C7  UNL     1      38.959  65.117  17.810  1.00  0.00     0.145 C 
BRANCH  36  37
HETATM   37  C8  UNL     1      39.614  65.628  19.107  1.00  0.00     0.183 C 
BRANCH  37  38
HETATM   38  O1  UNL     1      38.694  65.366  20.122  1.00  0.00    -0.399 OA
ATOM     39  H1  UNL     1      38.376  66.214  20.405  1.00  0.00     0.209 HD
ENDBRANCH  37  38
ENDBRANCH  36  37
ENDBRANCH  34  36
ENDBRANCH  27  34
ENDBRANCH   1  27
BRANCH   5  40
HETATM   40  C10 UNL     1      33.438  62.716  19.606  1.00  0.00     0.194 A 
HETATM   41  N6  UNL     1      32.769  61.690  20.160  1.00  0.00    -0.221 N 
HETATM   42  O2  UNL     1      31.477  61.950  20.131  1.00  0.00    -0.153 OA
ATOM     43  H6  UNL     1      33.193  60.846  20.543  1.00  0.00     0.198 HD
HETATM   44  N7  UNL     1      31.262  63.102  19.581  1.00  0.00    -0.222 N 
HETATM   45  C11 UNL     1      32.464  63.620  19.236  1.00  0.00     0.169 A 
ATOM     46  H7  UNL     1      30.352  63.540  19.435  1.00  0.00     0.198 HD
BRANCH  45  47
HETATM   47  N8  UNL     1      32.620  64.754  18.667  1.00  0.00    -0.381 N 
ATOM     48  H82 UNL     1      33.520  65.219  18.555  1.00  0.00     0.157 HD
ATOM     49  H81 UNL     1      31.904  65.351  18.254  1.00  0.00     0.157 HD
ENDBRANCH  45  47
ENDBRANCH   5  40
TORSDOF 11
ENDMDL
MODEL 4
REMARK VINA RESULT: -6.057795395      2.186      4.823
REMARK  11 active torsions:
REMARK  status: ('A' for Active; 'I' for Inactive)
REMARK    1  A    between atoms: C5_6  and  C6_7 
REMARK    2  A    between atoms: C6_7  and  N2_8 
REMARK    3  A    between atoms: C6_7  and  C9_14 
REMARK    4  A    between atoms: N2_8  and  C7_10 
REMARK    5  A    between atoms: C7_10  and  C8_11 
REMARK    6  A    between atoms: C8_11  and  O1_12 
REMARK    7  A    between atoms: N5_18  and  C10_19 
REMARK    8  A    between atoms: C11_25  and  N8_26 
REMARK    9  A    between atoms: C12_29  and  C13_30 
REMARK   10  A    between atoms: C19_39  and  C20_40 
REMARK   11  A    between atoms: C21_43  and  N12_44 
ROOT
HETATM    1  C9  UNL     1      34.956  64.831  15.962  1.00  0.00     0.101 A 
HETATM    2  N3  UNL     1      34.062  65.705  16.391  1.00  0.00    -0.279 N 
ATOM      3  H3  UNL     1      33.839  66.581  15.919  1.00  0.00     0.184 HD
HETATM    4  N4  UNL     1      33.491  65.294  17.519  1.00  0.00    -0.013 NA
HETATM    5  N5  UNL     1      34.047  64.112  17.813  1.00  0.00    -0.214 N 
HETATM    6  C12 UNL     1      34.967  63.803  16.850  1.00  0.00     0.115 A 
ENDROOT
BRANCH   6   7
HETATM    7  C13 UNL     1      35.812  62.628  16.774  1.00  0.00     0.097 A 
HETATM    8  N9  UNL     1      35.603  61.521  16.049  1.00  0.00    -0.338 N 
HETATM    9  C14 UNL     1      36.616  60.656  16.232  1.00  0.00     0.112 A 
ATOM     10  H9  UNL     1      34.795  61.359  15.448  1.00  0.00     0.167 HD
HETATM   11  C15 UNL     1      36.845  59.380  15.697  1.00  0.00     0.049 A 
HETATM   12  N10 UNL     1      37.502  61.185  17.078  1.00  0.00    -0.302 N 
HETATM   13  C16 UNL     1      37.968  58.697  16.046  1.00  0.00     0.005 A 
HETATM   14  C17 UNL     1      38.866  59.264  16.920  1.00  0.00     0.018 A 
HETATM   15  C18 UNL     1      38.633  60.527  17.446  1.00  0.00     0.099 A 
HETATM   16  C19 UNL     1      37.005  62.416  17.419  1.00  0.00     0.124 A 
BRANCH  16  17
HETATM   17  C20 UNL     1      37.692  63.311  18.350  1.00  0.00     0.215 A 
HETATM   18  N11 UNL     1      38.101  64.549  18.029  1.00  0.00    -0.165 N 
HETATM   19  C21 UNL     1      38.690  65.073  19.136  1.00  0.00     0.698 A 
ATOM     20  H11 UNL     1      37.991  65.010  17.126  1.00  0.00     0.186 HD
HETATM   21  N13 UNL     1      38.621  64.135  20.096  1.00  0.00    -0.089 N 
HETATM   22  O3  UNL     1      38.022  63.109  19.585  1.00  0.00    -0.202 OA
ATOM     23  H13 UNL     1      38.976  64.218  21.049  1.00  0.00     0.213 HD
BRANCH  19  24
HETATM   24  N12 UNL     1      39.193  66.245  19.184  1.00  0.00    -0.233 N 
ATOM     25 2H12 UNL     1      39.604  66.804  18.435  1.00  0.00     0.174 HD
ATOM     26 1H12 UNL     1      39.250  66.802  20.036  1.00  0.00     0.174 HD
ENDBRANCH  19  24
ENDBRANCH  16  17
ENDBRANCH   6   7
BRANCH   1  27
HETATM   27  C6  UNL     1      35.793  64.997  14.727  1.00  0.00     0.069 C 
BRANCH  27  28
HETATM   28  C5  UNL     1      35.253  64.151  13.654  1.00  0.00     0.279 C 
HETATM   29  C2  UNL     1      34.416  64.672  12.556  1.00  0.00     0.049 C 
HETATM   30  C1  UNL     1      32.913  64.551  12.758  1.00  0.00     0.014 C 
HETATM   31  C3  UNL     1      34.991  63.435  11.820  1.00  0.00     0.279 C 
HETATM   32  N1  UNL     1      36.201  63.718  12.629  1.00  0.00     0.095 N 
HETATM   33  C4  UNL     1      36.873  62.477  12.844  1.00  0.00     0.310 C 
ENDBRANCH  27  28
BRANCH  27  34
HETATM   34  N2  UNL     1      37.145  65.130  14.983  1.00  0.00    -0.387 N 
ATOM     35  H2  UNL     1      37.612  64.389  15.506  1.00  0.00     0.159 HD
BRANCH  34  36
HETATM   36  C7  UNL     1      37.914  66.232  14.561  1.00  0.00     0.145 C 
BRANCH  36  37
HETATM   37  C8  UNL     1      37.433  67.492  15.303  1.00  0.00     0.183 C 
BRANCH  37  38
HETATM   38  O1  UNL     1      37.719  67.268  16.650  1.00  0.00    -0.399 OA
ATOM     39  H1  UNL     1      37.719  66.324  16.758  1.00  0.00     0.209 HD
ENDBRANCH  37  38
ENDBRANCH  36  37
ENDBRANCH  34  36
ENDBRANCH  27  34
ENDBRANCH   1  27
BRANCH   5  40
HETATM   40  C10 UNL     1      33.775  63.279  18.929  1.00  0.00     0.194 A 
HETATM   41  N6  UNL     1      32.909  62.254  19.010  1.00  0.00    -0.221 N 
HETATM   42  O2  UNL     1      32.959  61.740  20.223  1.00  0.00    -0.153 OA
ATOM     43  H6  UNL     1      32.309  61.926  18.254  1.00  0.00     0.198 HD
HETATM   44  N7  UNL     1      33.819  62.380  20.949  1.00  0.00    -0.222 N 
HETATM   45  C11 UNL     1      34.357  63.354  20.178  1.00  0.00     0.169 A 
ATOM     46  H7  UNL     1      34.050  62.185  21.923  1.00  0.00     0.198 HD
BRANCH  45  47
HETATM   47  N8  UNL     1      35.246  64.179  20.581  1.00  0.00    -0.381 N 
ATOM     48  H82 UNL     1      35.847  64.023  21.390  1.00  0.00     0.157 HD
ATOM     49  H81 UNL     1      35.489  65.085  20.180  1.00  0.00     0.157 HD
ENDBRANCH  45  47
ENDBRANCH   5  40
TORSDOF 11
ENDMDL
MODEL 5
REMARK VINA RESULT: -6.017590639      5.690      9.212
REMARK  11 active torsions:
REMARK  status: ('A' for Active; 'I' for Inactive)
REMARK    1  A    between atoms: C5_6  and  C6_7 
REMARK    2  A    between atoms: C6_7  and  N2_8 
REMARK    3  A    between atoms: C6_7  and  C9_14 
REMARK    4  A    between atoms: N2_8  and  C7_10 
REMARK    5  A    between atoms: C7_10  and  C8_11 
REMARK    6  A    between atoms: C8_11  and  O1_12 
REMARK    7  A    between atoms: N5_18  and  C10_19 
REMARK    8  A    between atoms: C11_25  and  N8_26 
REMARK    9  A    between atoms: C12_29  and  C13_30 
REMARK   10  A    between atoms: C19_39  and  C20_40 
REMARK   11  A    between atoms: C21_43  and  N12_44 
ROOT
HETATM    1  C9  UNL     1      27.420  65.439  15.389  1.00  0.00     0.101 A 
HETATM    2  N3  UNL     1      26.118  65.227  15.294  1.00  0.00    -0.279 N 
ATOM      3  H3  UNL     1      25.437  65.934  15.016  1.00  0.00     0.184 HD
HETATM    4  N4  UNL     1      25.812  63.973  15.610  1.00  0.00    -0.013 NA
HETATM    5  N5  UNL     1      26.967  63.369  15.916  1.00  0.00    -0.214 N 
HETATM    6  C12 UNL     1      27.987  64.269  15.783  1.00  0.00     0.115 A 
ENDROOT
BRANCH   6   7
HETATM    7  C13 UNL     1      29.400  64.053  16.024  1.00  0.00     0.097 A 
HETATM    8  N9  UNL     1      30.328  63.680  15.134  1.00  0.00    -0.338 N 
HETATM    9  C14 UNL     1      31.530  63.595  15.733  1.00  0.00     0.112 A 
ATOM     10  H9  UNL     1      30.150  63.488  14.148  1.00  0.00     0.167 HD
HETATM   11  C15 UNL     1      32.789  63.246  15.226  1.00  0.00     0.049 A 
HETATM   12  N10 UNL     1      31.402  63.912  17.023  1.00  0.00    -0.302 N 
HETATM   13  C16 UNL     1      33.868  63.236  16.054  1.00  0.00     0.005 A 
HETATM   14  C17 UNL     1      33.712  63.567  17.380  1.00  0.00     0.018 A 
HETATM   15  C18 UNL     1      32.462  63.911  17.876  1.00  0.00     0.099 A 
HETATM   16  C19 UNL     1      30.076  64.199  17.210  1.00  0.00     0.124 A 
BRANCH  16  17
HETATM   17  C20 UNL     1      29.529  64.584  18.511  1.00  0.00     0.215 A 
HETATM   18  N11 UNL     1      29.423  65.856  18.928  1.00  0.00    -0.165 N 
HETATM   19  C21 UNL     1      28.875  65.822  20.172  1.00  0.00     0.698 A 
ATOM     20  H11 UNL     1      29.700  66.690  18.411  1.00  0.00     0.186 HD
HETATM   21  N13 UNL     1      28.666  64.529  20.471  1.00  0.00    -0.089 N 
HETATM   22  O3  UNL     1      29.068  63.832  19.458  1.00  0.00    -0.202 OA
ATOM     23  H13 UNL     1      28.265  64.165  21.336  1.00  0.00     0.213 HD
BRANCH  19  24
HETATM   24  N12 UNL     1      28.631  66.863  20.867  1.00  0.00    -0.233 N 
ATOM     25 2H12 UNL     1      28.954  67.822  20.733  1.00  0.00     0.174 HD
ATOM     26 1H12 UNL     1      28.043  66.863  21.700  1.00  0.00     0.174 HD
ENDBRANCH  19  24
ENDBRANCH  16  17
ENDBRANCH   6   7
BRANCH   1  27
HETATM   27  C6  UNL     1      28.096  66.752  15.120  1.00  0.00     0.069 C 
BRANCH  27  28
HETATM   28  C5  UNL     1      27.218  67.850  15.548  1.00  0.00     0.279 C 
HETATM   29  C2  UNL     1      27.706  69.044  16.265  1.00  0.00     0.049 C 
HETATM   30  C1  UNL     1      27.589  68.995  17.782  1.00  0.00     0.014 C 
HETATM   31  C3  UNL     1      26.449  69.679  15.619  1.00  0.00     0.279 C 
HETATM   32  N1  UNL     1      26.757  68.758  14.499  1.00  0.00     0.095 N 
HETATM   33  C4  UNL     1      25.523  68.439  13.855  1.00  0.00     0.310 C 
ENDBRANCH  27  28
BRANCH  27  34
HETATM   34  N2  UNL     1      28.825  66.775  13.945  1.00  0.00    -0.387 N 
ATOM     35  H2  UNL     1      28.331  66.608  13.069  1.00  0.00     0.159 HD
BRANCH  34  36
HETATM   36  C7  UNL     1      30.212  67.014  13.892  1.00  0.00     0.145 C 
BRANCH  36  37
HETATM   37  C8  UNL     1      30.458  68.535  13.897  1.00  0.00     0.183 C 
BRANCH  37  38
HETATM   38  O1  UNL     1      31.655  68.719  14.590  1.00  0.00    -0.399 OA
ATOM     39  H1  UNL     1      31.607  69.595  14.955  1.00  0.00     0.209 HD
ENDBRANCH  37  38
ENDBRANCH  36  37
ENDBRANCH  34  36
ENDBRANCH  27  34
ENDBRANCH   1  27
BRANCH   5  40
HETATM   40  C10 UNL     1      27.161  62.024  16.326  1.00  0.00     0.194 A 
HETATM   41  N6  UNL     1      27.322  61.551  17.574  1.00  0.00    -0.221 N 
HETATM   42  O2  UNL     1      27.472  60.242  17.524  1.00  0.00    -0.153 OA
ATOM     43  H6  UNL     1      27.327  62.115  18.424  1.00  0.00     0.198 HD
HETATM   44  N7  UNL     1      27.418  59.829  16.299  1.00  0.00    -0.222 N 
HETATM   45  C11 UNL     1      27.224  60.912  15.511  1.00  0.00     0.169 A 
ATOM     46  H7  UNL     1      27.506  58.863  15.984  1.00  0.00     0.198 HD
BRANCH  45  47
HETATM   47  N8  UNL     1      27.122  60.865  14.238  1.00  0.00    -0.381 N 
ATOM     48  H82 UNL     1      26.243  60.737  13.738  1.00  0.00     0.157 HD
ATOM     49  H81 UNL     1      27.869  60.942  13.547  1.00  0.00     0.157 HD
ENDBRANCH  45  47
ENDBRANCH   5  40
TORSDOF 11
ENDMDL
