MODEL 1
REMARK VINA RESULT: -7.082425927      0.000      0.000
REMARK  3 active torsions:
REMARK  status: ('A' for Active; 'I' for Inactive)
REMARK       I    between atoms: C2_2  and  N1_4 
REMARK       I    between atoms: C3_6  and  N2_7 
REMARK       I    between atoms: C3_6  and  N4_11 
REMARK    1  A    between atoms: N4_11  and  C5_13 
REMARK    2  A    between atoms: C10_18  and  C11_19 
REMARK       I    between atoms: C11_19  and  N5_21 
REMARK    3  A    between atoms: N5_21  and  N6_23 
ROOT
HETATM    1  C1  UNL     1       8.664 -10.973  14.544  1.00  0.00     0.118 C 
HETATM    2  C2  UNL     1       8.246  -9.772  15.310  1.00  0.00     0.231 C 
HETATM    3  O1  UNL     1       7.335  -9.025  14.849  1.00  0.00    -0.273 OA
HETATM    4  N1  UNL     1       8.885  -9.511  16.535  1.00  0.00    -0.159 N 
ATOM      5  H1  UNL     1       8.364  -9.760  17.376  1.00  0.00     0.187 HD
HETATM    6  C3  UNL     1      10.032  -9.005  16.719  1.00  0.00     0.694 C 
HETATM    7  N2  UNL     1      10.830  -8.627  15.621  1.00  0.00    -0.126 N 
ATOM      8  H2  UNL     1      11.752  -9.046  15.501  1.00  0.00     0.197 HD
HETATM    9  C4  UNL     1      10.370  -7.686  14.696  1.00  0.00     0.196 C 
HETATM   10  N3  UNL     1      10.003  -6.888  13.911  1.00  0.00    -0.171 NA
HETATM   11  N4  UNL     1      10.495  -8.835  18.088  1.00  0.00    -0.190 N 
ATOM     12  H4  UNL     1      11.177  -9.489  18.472  1.00  0.00     0.184 HD
ENDROOT
BRANCH  11  13
HETATM   13  C5  UNL     1      10.022  -7.792  18.885  1.00  0.00     0.065 A 
HETATM   14  C6  UNL     1       8.718  -7.288  18.644  1.00  0.00     0.031 A 
HETATM   15  C7  UNL     1       8.166  -6.276  19.370  1.00  0.00     0.002 A 
HETATM   16  C8  UNL     1       8.893  -5.707  20.386  1.00  0.00     0.001 A 
HETATM   17  C9  UNL     1      10.164  -6.176  20.646  1.00  0.00     0.019 A 
HETATM   18  C10 UNL     1      10.737  -7.221  19.896  1.00  0.00     0.061 A 
BRANCH  18  19
HETATM   19  C11 UNL     1      12.070  -7.646  20.226  1.00  0.00     0.277 C 
HETATM   20  O2  UNL     1      12.397  -8.727  20.784  1.00  0.00    -0.266 OA
HETATM   21  N5  UNL     1      13.202  -6.808  19.922  1.00  0.00    -0.205 N 
ATOM     22  H5  UNL     1      13.084  -5.902  19.469  1.00  0.00     0.196 HD
BRANCH  21  23
HETATM   23  N6  UNL     1      14.486  -7.292  20.275  1.00  0.00    -0.036 N 
HETATM   24  O3  UNL     1      14.719  -7.597  21.447  1.00  0.00    -0.516 OA
HETATM   25  O4  UNL     1      15.420  -7.403  19.287  1.00  0.00    -0.516 OA
ENDBRANCH  21  23
ENDBRANCH  18  19
ENDBRANCH  11  13
TORSDOF 3
ENDMDL
MODEL 2
REMARK VINA RESULT: -6.742158567      7.278      9.566
REMARK  3 active torsions:
REMARK  status: ('A' for Active; 'I' for Inactive)
REMARK       I    between atoms: C2_2  and  N1_4 
REMARK       I    between atoms: C3_6  and  N2_7 
REMARK       I    between atoms: C3_6  and  N4_11 
REMARK    1  A    between atoms: N4_11  and  C5_13 
REMARK    2  A    between atoms: C10_18  and  C11_19 
REMARK       I    between atoms: C11_19  and  N5_21 
REMARK    3  A    between atoms: N5_21  and  N6_23 
ROOT
HETATM    1  C1  UNL     1       5.066 -15.815  17.713  1.00  0.00     0.118 C 
HETATM    2  C2  UNL     1       5.047 -14.480  17.063  1.00  0.00     0.231 C 
HETATM    3  O1  UNL     1       3.976 -13.807  17.057  1.00  0.00    -0.273 OA
HETATM    4  N1  UNL     1       6.235 -14.012  16.476  1.00  0.00    -0.159 N 
ATOM      5  H1  UNL     1       6.760 -13.320  17.012  1.00  0.00     0.187 HD
HETATM    6  C3  UNL     1       6.732 -14.345  15.360  1.00  0.00     0.694 C 
HETATM    7  N2  UNL     1       6.084 -15.292  14.543  1.00  0.00    -0.126 N 
ATOM      8  H2  UNL     1       6.571 -16.148  14.279  1.00  0.00     0.197 HD
HETATM    9  C4  UNL     1       4.779 -15.070  14.093  1.00  0.00     0.196 C 
HETATM   10  N3  UNL     1       3.684 -14.896  13.697  1.00  0.00    -0.171 NA
HETATM   11  N4  UNL     1       7.988 -13.729  14.956  1.00  0.00    -0.190 N 
ATOM     12  H4  UNL     1       8.855 -14.261  15.035  1.00  0.00     0.184 HD
ENDROOT
BRANCH  11  13
HETATM   13  C5  UNL     1       8.026 -12.424  14.465  1.00  0.00     0.065 A 
HETATM   14  C6  UNL     1       8.342 -11.369  15.358  1.00  0.00     0.031 A 
HETATM   15  C7  UNL     1       8.408 -10.064  14.973  1.00  0.00     0.002 A 
HETATM   16  C8  UNL     1       8.160  -9.738  13.663  1.00  0.00     0.001 A 
HETATM   17  C9  UNL     1       7.850 -10.743  12.769  1.00  0.00     0.019 A 
HETATM   18  C10 UNL     1       7.781 -12.093  13.165  1.00  0.00     0.061 A 
BRANCH  18  19
HETATM   19  C11 UNL     1       7.444 -13.078  12.174  1.00  0.00     0.277 C 
HETATM   20  O2  UNL     1       7.916 -14.243  12.083  1.00  0.00    -0.266 OA
HETATM   21  N5  UNL     1       6.480 -12.783  11.145  1.00  0.00    -0.205 N 
ATOM     22  H5  UNL     1       6.018 -11.874  11.097  1.00  0.00     0.196 HD
BRANCH  21  23
HETATM   23  N6  UNL     1       6.197 -13.803  10.203  1.00  0.00    -0.036 N 
HETATM   24  O3  UNL     1       6.834 -13.849   9.148  1.00  0.00    -0.516 OA
HETATM   25  O4  UNL     1       5.219 -14.702  10.510  1.00  0.00    -0.516 OA
ENDBRANCH  21  23
ENDBRANCH  18  19
ENDBRANCH  11  13
TORSDOF 3
ENDMDL
MODEL 3
REMARK VINA RESULT: -6.468133258      6.712      8.043
REMARK  3 active torsions:
REMARK  status: ('A' for Active; 'I' for Inactive)
REMARK       I    between atoms: C2_2  and  N1_4 
REMARK       I    between atoms: C3_6  and  N2_7 
REMARK       I    between atoms: C3_6  and  N4_11 
REMARK    1  A    between atoms: N4_11  and  C5_13 
REMARK    2  A    between atoms: C10_18  and  C11_19 
REMARK       I    between atoms: C11_19  and  N5_21 
REMARK    3  A    between atoms: N5_21  and  N6_23 
ROOT
HETATM    1  C1  UNL     1       2.075 -11.604  12.586  1.00  0.00     0.118 C 
HETATM    2  C2  UNL     1       3.046 -10.969  13.513  1.00  0.00     0.231 C 
HETATM    3  O1  UNL     1       2.624 -10.211  14.434  1.00  0.00    -0.273 OA
HETATM    4  N1  UNL     1       4.413 -11.240  13.328  1.00  0.00    -0.159 N 
ATOM      5  H1  UNL     1       4.827 -11.919  13.968  1.00  0.00     0.187 HD
HETATM    6  C3  UNL     1       5.192 -10.743  12.462  1.00  0.00     0.694 C 
HETATM    7  N2  UNL     1       4.717  -9.798  11.533  1.00  0.00    -0.126 N 
ATOM      8  H2  UNL     1       4.788  -9.992  10.535  1.00  0.00     0.197 HD
HETATM    9  C4  UNL     1       4.150  -8.596  11.967  1.00  0.00     0.196 C 
HETATM   10  N3  UNL     1       3.678  -7.574  12.313  1.00  0.00    -0.171 NA
HETATM   11  N4  UNL     1       6.580 -11.185  12.455  1.00  0.00    -0.190 N 
ATOM     12  H4  UNL     1       6.890 -11.853  11.749  1.00  0.00     0.184 HD
ENDROOT
BRANCH  11  13
HETATM   13  C5  UNL     1       7.493 -10.709  13.396  1.00  0.00     0.065 A 
HETATM   14  C6  UNL     1       8.183  -9.500  13.125  1.00  0.00     0.031 A 
HETATM   15  C7  UNL     1       9.088  -8.953  13.983  1.00  0.00     0.002 A 
HETATM   16  C8  UNL     1       9.358  -9.590  15.169  1.00  0.00     0.001 A 
HETATM   17  C9  UNL     1       8.702 -10.768  15.462  1.00  0.00     0.019 A 
HETATM   18  C10 UNL     1       7.765 -11.336  14.576  1.00  0.00     0.061 A 
BRANCH  18  19
HETATM   19  C11 UNL     1       7.132 -12.570  14.952  1.00  0.00     0.277 C 
HETATM   20  O2  UNL     1       5.911 -12.737  15.214  1.00  0.00    -0.266 OA
HETATM   21  N5  UNL     1       7.900 -13.783  15.066  1.00  0.00    -0.205 N 
ATOM     22  H5  UNL     1       8.904 -13.794  14.884  1.00  0.00     0.196 HD
BRANCH  21  23
HETATM   23  N6  UNL     1       7.208 -14.962  15.440  1.00  0.00    -0.036 N 
HETATM   24  O3  UNL     1       6.904 -15.787  14.577  1.00  0.00    -0.516 OA
HETATM   25  O4  UNL     1       6.908 -15.133  16.760  1.00  0.00    -0.516 OA
ENDBRANCH  21  23
ENDBRANCH  18  19
ENDBRANCH  11  13
TORSDOF 3
ENDMDL
MODEL 4
REMARK VINA RESULT: -6.279863899      5.831      8.468
REMARK  3 active torsions:
REMARK  status: ('A' for Active; 'I' for Inactive)
REMARK       I    between atoms: C2_2  and  N1_4 
REMARK       I    between atoms: C3_6  and  N2_7 
REMARK       I    between atoms: C3_6  and  N4_11 
REMARK    1  A    between atoms: N4_11  and  C5_13 
REMARK    2  A    between atoms: C10_18  and  C11_19 
REMARK       I    between atoms: C11_19  and  N5_21 
REMARK    3  A    between atoms: N5_21  and  N6_23 
ROOT
HETATM    1  C1  UNL     1       3.492  -7.127  11.558  1.00  0.00     0.118 C 
HETATM    2  C2  UNL     1       4.342  -8.250  11.090  1.00  0.00     0.231 C 
HETATM    3  O1  UNL     1       4.630  -8.342   9.861  1.00  0.00    -0.273 OA
HETATM    4  N1  UNL     1       4.800  -9.177  12.042  1.00  0.00    -0.159 N 
ATOM      5  H1  UNL     1       5.769  -9.071  12.343  1.00  0.00     0.187 HD
HETATM    6  C3  UNL     1       4.152 -10.128  12.572  1.00  0.00     0.694 C 
HETATM    7  N2  UNL     1       2.807 -10.358  12.223  1.00  0.00    -0.126 N 
ATOM      8  H2  UNL     1       2.087 -10.332  12.944  1.00  0.00     0.197 HD
HETATM    9  C4  UNL     1       2.450 -10.622  10.898  1.00  0.00     0.196 C 
HETATM   10  N3  UNL     1       2.132 -10.855   9.787  1.00  0.00    -0.171 NA
HETATM   11  N4  UNL     1       4.836 -10.962  13.550  1.00  0.00    -0.190 N 
ATOM     12  H4  UNL     1       4.647 -10.828  14.543  1.00  0.00     0.184 HD
ENDROOT
BRANCH  11  13
HETATM   13  C5  UNL     1       5.746 -11.942  13.151  1.00  0.00     0.065 A 
HETATM   14  C6  UNL     1       5.246 -13.163  12.628  1.00  0.00     0.031 A 
HETATM   15  C7  UNL     1       6.053 -14.176  12.209  1.00  0.00     0.002 A 
HETATM   16  C8  UNL     1       7.415 -14.027  12.289  1.00  0.00     0.001 A 
HETATM   17  C9  UNL     1       7.932 -12.850  12.793  1.00  0.00     0.019 A 
HETATM   18  C10 UNL     1       7.100 -11.800  13.228  1.00  0.00     0.061 A 
BRANCH  18  19
HETATM   19  C11 UNL     1       7.717 -10.611  13.747  1.00  0.00     0.277 C 
HETATM   20  O2  UNL     1       7.673  -9.459  13.238  1.00  0.00    -0.266 OA
HETATM   21  N5  UNL     1       8.482 -10.655  14.967  1.00  0.00    -0.205 N 
ATOM     22  H5  UNL     1       8.602 -11.525  15.486  1.00  0.00     0.196 HD
BRANCH  21  23
HETATM   23  N6  UNL     1       9.061  -9.443  15.419  1.00  0.00    -0.036 N 
HETATM   24  O3  UNL     1       8.458  -8.752  16.242  1.00  0.00    -0.516 OA
HETATM   25  O4  UNL     1      10.279  -9.092  14.916  1.00  0.00    -0.516 OA
ENDBRANCH  21  23
ENDBRANCH  18  19
ENDBRANCH  11  13
TORSDOF 3
ENDMDL
MODEL 5
REMARK VINA RESULT: -6.111904460      4.949      7.595
REMARK  3 active torsions:
REMARK  status: ('A' for Active; 'I' for Inactive)
REMARK       I    between atoms: C2_2  and  N1_4 
REMARK       I    between atoms: C3_6  and  N2_7 
REMARK       I    between atoms: C3_6  and  N4_11 
REMARK    1  A    between atoms: N4_11  and  C5_13 
REMARK    2  A    between atoms: C10_18  and  C11_19 
REMARK       I    between atoms: C11_19  and  N5_21 
REMARK    3  A    between atoms: N5_21  and  N6_23 
ROOT
HETATM    1  C1  UNL     1       2.552  -8.932  10.244  1.00  0.00     0.118 C 
HETATM    2  C2  UNL     1       2.996 -10.140  10.983  1.00  0.00     0.231 C 
HETATM    3  O1  UNL     1       2.165 -11.064  11.223  1.00  0.00    -0.273 OA
HETATM    4  N1  UNL     1       4.340 -10.212  11.390  1.00  0.00    -0.159 N 
ATOM      5  H1  UNL     1       4.950 -10.801  10.823  1.00  0.00     0.187 HD
HETATM    6  C3  UNL     1       4.883  -9.632  12.377  1.00  0.00     0.694 C 
HETATM    7  N2  UNL     1       4.125  -8.798  13.221  1.00  0.00    -0.126 N 
ATOM      8  H2  UNL     1       4.391  -7.820  13.334  1.00  0.00     0.197 HD
HETATM    9  C4  UNL     1       3.012  -9.297  13.904  1.00  0.00     0.196 C 
HETATM   10  N3  UNL     1       2.077  -9.703  14.495  1.00  0.00    -0.171 NA
HETATM   11  N4  UNL     1       6.305  -9.849  12.601  1.00  0.00    -0.190 N 
ATOM     12  H4  UNL     1       6.971  -9.124  12.336  1.00  0.00     0.184 HD
ENDROOT
BRANCH  11  13
HETATM   13  C5  UNL     1       6.772 -11.033  13.173  1.00  0.00     0.065 A 
HETATM   14  C6  UNL     1       6.084 -12.242  12.895  1.00  0.00     0.031 A 
HETATM   15  C7  UNL     1       6.466 -13.447  13.401  1.00  0.00     0.002 A 
HETATM   16  C8  UNL     1       7.564 -13.513  14.222  1.00  0.00     0.001 A 
HETATM   17  C9  UNL     1       8.255 -12.353  14.511  1.00  0.00     0.019 A 
HETATM   18  C10 UNL     1       7.863 -11.105  13.989  1.00  0.00     0.061 A 
BRANCH  18  19
HETATM   19  C11 UNL     1       8.632  -9.945  14.345  1.00  0.00     0.277 C 
HETATM   20  O2  UNL     1       8.909  -8.970  13.597  1.00  0.00    -0.266 OA
HETATM   21  N5  UNL     1       9.178  -9.806  15.671  1.00  0.00    -0.205 N 
ATOM     22  H5  UNL     1       9.032 -10.524  16.382  1.00  0.00     0.196 HD
BRANCH  21  23
HETATM   23  N6  UNL     1       9.924  -8.635  15.951  1.00  0.00    -0.036 N 
HETATM   24  O3  UNL     1      11.111  -8.578  15.621  1.00  0.00    -0.516 OA
HETATM   25  O4  UNL     1       9.286  -7.606  16.580  1.00  0.00    -0.516 OA
ENDBRANCH  21  23
ENDBRANCH  18  19
ENDBRANCH  11  13
TORSDOF 3
ENDMDL
