MODEL 1
REMARK VINA RESULT: -6.046283339      0.000      0.000
REMARK  5 active torsions:
REMARK  status: ('A' for Active; 'I' for Inactive)
REMARK    1  A    between atoms: C7_8  and  N1_9 
REMARK       I    between atoms: N1_9  and  C8_11 
REMARK    2  A    between atoms: C8_11  and  C9_13 
REMARK    3  A    between atoms: C9_13  and  O2_14 
REMARK    4  A    between atoms: O2_14  and  C10_15 
REMARK    5  A    between atoms: C11_18  and  C12_19 
ROOT
HETATM    1  C1  UNL     1     -18.681  -2.578 -18.353  1.00  0.00     0.038 C 
HETATM    2  C2  UNL     1     -20.138  -2.772 -18.779  1.00  0.00     0.030 C 
HETATM    3  C3  UNL     1     -20.150  -2.727 -20.287  1.00  0.00     0.038 C 
HETATM    4  C4  UNL     1     -20.562  -4.146 -18.329  1.00  0.00     0.071 C 
HETATM    5  C5  UNL     1     -20.566  -4.297 -16.825  1.00  0.00    -0.015 A 
HETATM    6  C6  UNL     1     -20.735  -3.152 -16.124  1.00  0.00     0.082 A 
HETATM    7  S1  UNL     1     -20.642  -3.634 -14.509  1.00  0.00    -0.065 SA
HETATM    8  C7  UNL     1     -20.370  -5.363 -14.750  1.00  0.00     0.093 A 
HETATM    9  C11 UNL     1     -20.384  -5.455 -16.094  1.00  0.00     0.071 A 
HETATM   10  C13 UNL     1     -20.935  -1.816 -16.758  1.00  0.00     0.259 C 
HETATM   11  O5  UNL     1     -21.084  -0.856 -16.005  1.00  0.00    -0.267 OA
HETATM   12  N4  UNL     1     -20.941  -1.748 -18.187  1.00  0.00    -0.348 N 
ATOM     13  H4  UNL     1     -21.459  -1.049 -18.721  1.00  0.00     0.163 HD
ENDROOT
BRANCH   8  14
HETATM   14  N1  UNL     1     -20.217  -6.242 -13.642  1.00  0.00    -0.319 N 
HETATM   15  C8  UNL     1     -21.015  -6.520 -12.565  1.00  0.00     0.246 C 
HETATM   16  O1  UNL     1     -22.143  -6.060 -12.328  1.00  0.00    -0.271 OA
ATOM     17  H1  UNL     1     -19.343  -6.768 -13.652  1.00  0.00     0.169 HD
BRANCH  15  18
HETATM   18  C9  UNL     1     -20.527  -7.491 -11.498  1.00  0.00     0.283 C 
BRANCH  18  19
HETATM   19  O2  UNL     1     -19.736  -6.841 -10.544  1.00  0.00    -0.297 OA
BRANCH  19  20
HETATM   20  C10 UNL     1     -18.360  -6.879 -10.676  1.00  0.00     0.373 C 
HETATM   21  N2  UNL     1     -17.528  -6.493  -9.595  1.00  0.00    -0.032 NA
HETATM   22  O3  UNL     1     -17.893  -7.266 -11.784  1.00  0.00    -0.242 OA
ENDBRANCH  19  20
ENDBRANCH  18  19
ENDBRANCH  15  18
ENDBRANCH   8  14
BRANCH   9  23
HETATM   23  C12 UNL     1     -20.551  -6.779 -16.781  1.00  0.00     0.268 C 
HETATM   24  N3  UNL     1     -20.019  -7.996 -16.298  1.00  0.00    -0.057 NA
HETATM   25  O4  UNL     1     -21.185  -6.913 -17.853  1.00  0.00    -0.271 OA
ENDBRANCH   9  23
TORSDOF 5
ENDMDL
MODEL 2
REMARK VINA RESULT: -6.037708407      1.913      2.418
REMARK  5 active torsions:
REMARK  status: ('A' for Active; 'I' for Inactive)
REMARK    1  A    between atoms: C7_8  and  N1_9 
REMARK       I    between atoms: N1_9  and  C8_11 
REMARK    2  A    between atoms: C8_11  and  C9_13 
REMARK    3  A    between atoms: C9_13  and  O2_14 
REMARK    4  A    between atoms: O2_14  and  C10_15 
REMARK    5  A    between atoms: C11_18  and  C12_19 
ROOT
HETATM    1  C1  UNL     1     -18.916  -4.538 -19.727  1.00  0.00     0.038 C 
HETATM    2  C2  UNL     1     -20.368  -5.016 -19.813  1.00  0.00     0.030 C 
HETATM    3  C3  UNL     1     -20.512  -5.700 -21.150  1.00  0.00     0.038 C 
HETATM    4  C4  UNL     1     -20.575  -6.032 -18.720  1.00  0.00     0.071 C 
HETATM    5  C5  UNL     1     -20.434  -5.445 -17.335  1.00  0.00    -0.015 A 
HETATM    6  C6  UNL     1     -20.688  -4.118 -17.236  1.00  0.00     0.082 A 
HETATM    7  S1  UNL     1     -20.400  -3.759 -15.612  1.00  0.00    -0.065 SA
HETATM    8  C7  UNL     1     -19.933  -5.368 -15.050  1.00  0.00     0.093 A 
HETATM    9  C11 UNL     1     -20.046  -6.093 -16.179  1.00  0.00     0.071 A 
HETATM   10  C13 UNL     1     -21.107  -3.269 -18.388  1.00  0.00     0.259 C 
HETATM   11  O5  UNL     1     -21.313  -2.078 -18.159  1.00  0.00    -0.267 OA
HETATM   12  N4  UNL     1     -21.242  -3.894 -19.667  1.00  0.00    -0.348 N 
ATOM     13  H4  UNL     1     -21.886  -3.576 -20.391  1.00  0.00     0.163 HD
ENDROOT
BRANCH   8  14
HETATM   14  N1  UNL     1     -19.577  -5.595 -13.691  1.00  0.00    -0.319 N 
HETATM   15  C8  UNL     1     -18.565  -6.309 -13.107  1.00  0.00     0.246 C 
HETATM   16  O1  UNL     1     -17.652  -6.923 -13.680  1.00  0.00    -0.271 OA
ATOM     17  H1  UNL     1     -20.196  -5.138 -13.022  1.00  0.00     0.169 HD
BRANCH  15  18
HETATM   18  C9  UNL     1     -18.492  -6.406 -11.589  1.00  0.00     0.283 C 
BRANCH  18  19
HETATM   19  O2  UNL     1     -19.770  -6.468 -11.022  1.00  0.00    -0.297 OA
BRANCH  19  20
HETATM   20  C10 UNL     1     -20.586  -7.542 -11.325  1.00  0.00     0.373 C 
HETATM   21  N2  UNL     1     -21.775  -7.348 -12.071  1.00  0.00    -0.032 NA
HETATM   22  O3  UNL     1     -20.226  -8.680 -10.910  1.00  0.00    -0.242 OA
ENDBRANCH  19  20
ENDBRANCH  18  19
ENDBRANCH  15  18
ENDBRANCH   8  14
BRANCH   9  23
HETATM   23  C12 UNL     1     -20.101  -7.593 -16.137  1.00  0.00     0.268 C 
HETATM   24  N3  UNL     1     -19.415  -8.438 -17.039  1.00  0.00    -0.057 NA
HETATM   25  O4  UNL     1     -20.771  -8.225 -15.287  1.00  0.00    -0.271 OA
ENDBRANCH   9  23
TORSDOF 5
ENDMDL
MODEL 3
REMARK VINA RESULT: -5.996370854      1.339      1.411
REMARK  5 active torsions:
REMARK  status: ('A' for Active; 'I' for Inactive)
REMARK    1  A    between atoms: C7_8  and  N1_9 
REMARK       I    between atoms: N1_9  and  C8_11 
REMARK    2  A    between atoms: C8_11  and  C9_13 
REMARK    3  A    between atoms: C9_13  and  O2_14 
REMARK    4  A    between atoms: O2_14  and  C10_15 
REMARK    5  A    between atoms: C11_18  and  C12_19 
ROOT
HETATM    1  C1  UNL     1     -18.159  -3.798 -18.575  1.00  0.00     0.038 C 
HETATM    2  C2  UNL     1     -19.404  -4.483 -19.144  1.00  0.00     0.030 C 
HETATM    3  C3  UNL     1     -19.029  -4.972 -20.521  1.00  0.00     0.038 C 
HETATM    4  C4  UNL     1     -19.705  -5.673 -18.270  1.00  0.00     0.071 C 
HETATM    5  C5  UNL     1     -20.077  -5.286 -16.857  1.00  0.00    -0.015 A 
HETATM    6  C6  UNL     1     -20.605  -4.048 -16.711  1.00  0.00     0.082 A 
HETATM    7  S1  UNL     1     -20.861  -3.896 -15.050  1.00  0.00    -0.065 SA
HETATM    8  C7  UNL     1     -20.262  -5.475 -14.531  1.00  0.00     0.093 A 
HETATM    9  C11 UNL     1     -19.909  -6.031 -15.706  1.00  0.00     0.071 A 
HETATM   10  C13 UNL     1     -20.843  -3.112 -17.848  1.00  0.00     0.259 C 
HETATM   11  O5  UNL     1     -21.336  -2.018 -17.578  1.00  0.00    -0.267 OA
HETATM   12  N4  UNL     1     -20.487  -3.550 -19.163  1.00  0.00    -0.348 N 
ATOM     13  H4  UNL     1     -20.952  -3.234 -20.014  1.00  0.00     0.163 HD
ENDROOT
BRANCH   8  14
HETATM   14  N1  UNL     1     -20.265  -5.846 -13.157  1.00  0.00    -0.319 N 
HETATM   15  C8  UNL     1     -20.933  -6.819 -12.463  1.00  0.00     0.246 C 
HETATM   16  O1  UNL     1     -21.704  -7.674 -12.924  1.00  0.00    -0.271 OA
ATOM     17  H1  UNL     1     -19.650  -5.275 -12.577  1.00  0.00     0.169 HD
BRANCH  15  18
HETATM   18  C9  UNL     1     -20.758  -6.920 -10.954  1.00  0.00     0.283 C 
BRANCH  18  19
HETATM   19  O2  UNL     1     -19.627  -7.675 -10.624  1.00  0.00    -0.297 OA
BRANCH  19  20
HETATM   20  C10 UNL     1     -18.374  -7.115 -10.790  1.00  0.00     0.373 C 
HETATM   21  N2  UNL     1     -17.725  -6.483  -9.699  1.00  0.00    -0.032 NA
HETATM   22  O3  UNL     1     -17.851  -7.192 -11.937  1.00  0.00    -0.242 OA
ENDBRANCH  19  20
ENDBRANCH  18  19
ENDBRANCH  15  18
ENDBRANCH   8  14
BRANCH   9  23
HETATM   23  C12 UNL     1     -19.677  -7.509 -15.829  1.00  0.00     0.268 C 
HETATM   24  N3  UNL     1     -18.400  -8.115 -15.822  1.00  0.00    -0.057 NA
HETATM   25  O4  UNL     1     -20.610  -8.336 -15.949  1.00  0.00    -0.271 OA
ENDBRANCH   9  23
TORSDOF 5
ENDMDL
MODEL 4
REMARK VINA RESULT: -5.885531368      2.112      3.483
REMARK  5 active torsions:
REMARK  status: ('A' for Active; 'I' for Inactive)
REMARK    1  A    between atoms: C7_8  and  N1_9 
REMARK       I    between atoms: N1_9  and  C8_11 
REMARK    2  A    between atoms: C8_11  and  C9_13 
REMARK    3  A    between atoms: C9_13  and  O2_14 
REMARK    4  A    between atoms: O2_14  and  C10_15 
REMARK    5  A    between atoms: C11_18  and  C12_19 
ROOT
HETATM    1  C1  UNL     1     -21.810  -5.691 -19.937  1.00  0.00     0.038 C 
HETATM    2  C2  UNL     1     -20.376  -5.165 -20.030  1.00  0.00     0.030 C 
HETATM    3  C3  UNL     1     -20.369  -4.138 -21.134  1.00  0.00     0.038 C 
HETATM    4  C4  UNL     1     -20.060  -4.481 -18.725  1.00  0.00     0.071 C 
HETATM    5  C5  UNL     1     -20.058  -5.429 -17.548  1.00  0.00    -0.015 A 
HETATM    6  C6  UNL     1     -19.795  -6.724 -17.842  1.00  0.00     0.082 A 
HETATM    7  S1  UNL     1     -19.916  -7.522 -16.360  1.00  0.00    -0.065 SA
HETATM    8  C7  UNL     1     -20.325  -6.142 -15.335  1.00  0.00     0.093 A 
HETATM    9  C11 UNL     1     -20.327  -5.133 -16.226  1.00  0.00     0.071 A 
HETATM   10  C13 UNL     1     -19.493  -7.213 -19.219  1.00  0.00     0.259 C 
HETATM   11  O5  UNL     1     -19.264  -8.414 -19.347  1.00  0.00    -0.267 OA
HETATM   12  N4  UNL     1     -19.490  -6.258 -20.284  1.00  0.00    -0.348 N 
ATOM     13  H4  UNL     1     -18.922  -6.347 -21.126  1.00  0.00     0.163 HD
ENDROOT
BRANCH   8  14
HETATM   14  N1  UNL     1     -20.541  -6.306 -13.937  1.00  0.00    -0.319 N 
HETATM   15  C8  UNL     1     -20.954  -7.372 -13.184  1.00  0.00     0.246 C 
HETATM   16  O1  UNL     1     -21.208  -8.520 -13.584  1.00  0.00    -0.271 OA
ATOM     17  H1  UNL     1     -20.352  -5.466 -13.391  1.00  0.00     0.169 HD
BRANCH  15  18
HETATM   18  C9  UNL     1     -21.145  -7.204 -11.683  1.00  0.00     0.283 C 
BRANCH  18  19
HETATM   19  O2  UNL     1     -20.104  -6.457 -11.120  1.00  0.00    -0.297 OA
BRANCH  19  20
HETATM   20  C10 UNL     1     -19.023  -7.121 -10.571  1.00  0.00     0.373 C 
HETATM   21  N2  UNL     1     -17.874  -6.398 -10.162  1.00  0.00    -0.032 NA
HETATM   22  O3  UNL     1     -19.109  -8.377 -10.458  1.00  0.00    -0.242 OA
ENDBRANCH  19  20
ENDBRANCH  18  19
ENDBRANCH  15  18
ENDBRANCH   8  14
BRANCH   9  23
HETATM   23  C12 UNL     1     -20.270  -3.701 -15.779  1.00  0.00     0.268 C 
HETATM   24  N3  UNL     1     -19.399  -3.216 -14.777  1.00  0.00    -0.057 NA
HETATM   25  O4  UNL     1     -21.001  -2.807 -16.266  1.00  0.00    -0.271 OA
ENDBRANCH   9  23
TORSDOF 5
ENDMDL
MODEL 5
REMARK VINA RESULT: -5.852471172      1.320      1.475
REMARK  5 active torsions:
REMARK  status: ('A' for Active; 'I' for Inactive)
REMARK    1  A    between atoms: C7_8  and  N1_9 
REMARK       I    between atoms: N1_9  and  C8_11 
REMARK    2  A    between atoms: C8_11  and  C9_13 
REMARK    3  A    between atoms: C9_13  and  O2_14 
REMARK    4  A    between atoms: O2_14  and  C10_15 
REMARK    5  A    between atoms: C11_18  and  C12_19 
ROOT
HETATM    1  C1  UNL     1     -18.427  -2.276 -19.202  1.00  0.00     0.038 C 
HETATM    2  C2  UNL     1     -19.863  -2.281 -19.731  1.00  0.00     0.030 C 
HETATM    3  C3  UNL     1     -19.765  -2.410 -21.230  1.00  0.00     0.038 C 
HETATM    4  C4  UNL     1     -20.544  -3.507 -19.179  1.00  0.00     0.071 C 
HETATM    5  C5  UNL     1     -20.676  -3.480 -17.674  1.00  0.00    -0.015 A 
HETATM    6  C6  UNL     1     -20.695  -2.248 -17.111  1.00  0.00     0.082 A 
HETATM    7  S1  UNL     1     -20.795  -2.548 -15.454  1.00  0.00    -0.065 SA
HETATM    8  C7  UNL     1     -20.806  -4.314 -15.490  1.00  0.00     0.093 A 
HETATM    9  C11 UNL     1     -20.743  -4.558 -16.813  1.00  0.00     0.071 A 
HETATM   10  C13 UNL     1     -20.621  -0.981 -17.896  1.00  0.00     0.259 C 
HETATM   11  O5  UNL     1     -20.656   0.072 -17.261  1.00  0.00    -0.267 OA
HETATM   12  N4  UNL     1     -20.519  -1.079 -19.319  1.00  0.00    -0.348 N 
ATOM     13  H4  UNL     1     -20.873  -0.373 -19.965  1.00  0.00     0.163 HD
ENDROOT
BRANCH   8  14
HETATM   14  N1  UNL     1     -20.880  -5.072 -14.288  1.00  0.00    -0.319 N 
HETATM   15  C8  UNL     1     -21.621  -4.924 -13.146  1.00  0.00     0.246 C 
HETATM   16  O1  UNL     1     -22.479  -4.057 -12.915  1.00  0.00    -0.271 OA
ATOM     17  H1  UNL     1     -20.261  -5.882 -14.274  1.00  0.00     0.169 HD
BRANCH  15  18
HETATM   18  C9  UNL     1     -21.422  -5.894 -11.990  1.00  0.00     0.283 C 
BRANCH  18  19
HETATM   19  O2  UNL     1     -20.067  -6.025 -11.665  1.00  0.00    -0.297 OA
BRANCH  19  20
HETATM   20  C10 UNL     1     -19.655  -7.125 -10.937  1.00  0.00     0.373 C 
HETATM   21  N2  UNL     1     -18.527  -7.034 -10.082  1.00  0.00    -0.032 NA
HETATM   22  O3  UNL     1     -20.320  -8.192 -11.070  1.00  0.00    -0.242 OA
ENDBRANCH  19  20
ENDBRANCH  18  19
ENDBRANCH  15  18
ENDBRANCH   8  14
BRANCH   9  23
HETATM   23  C12 UNL     1     -21.086  -5.909 -17.372  1.00  0.00     0.268 C 
HETATM   24  N3  UNL     1     -20.443  -7.110 -16.996  1.00  0.00    -0.057 NA
HETATM   25  O4  UNL     1     -21.984  -6.082 -18.229  1.00  0.00    -0.271 OA
ENDBRANCH   9  23
TORSDOF 5
ENDMDL
