MODEL 1
REMARK VINA RESULT: -6.098726408      0.000      0.000
REMARK  4 active torsions:
REMARK  status: ('A' for Active; 'I' for Inactive)
REMARK    1  A    between atoms: C3_5  and  C4_6 
REMARK    2  A    between atoms: C4_6  and  C5_7 
REMARK    3  A    between atoms: C5_7  and  N2_8 
REMARK    4  A    between atoms: C6_9  and  N3_10 
ROOT
HETATM    1  N2  UNL     1     -18.694  -5.777 -14.468  1.00  0.00    -0.173 N 
HETATM    2  C6  UNL     1     -18.474  -7.096 -14.181  1.00  0.00     0.684 A 
HETATM    3  N4  UNL     1     -19.480  -7.504 -13.391  1.00  0.00    -0.173 N 
ATOM      4  H4  UNL     1     -19.575  -8.449 -13.019  1.00  0.00     0.186 HD
HETATM    5  C11 UNL     1     -20.333  -6.517 -13.157  1.00  0.00     0.169 A 
HETATM    6  N5  UNL     1     -21.475  -6.383 -12.457  1.00  0.00    -0.174 N 
ATOM      7  H5  UNL     1     -21.835  -7.194 -11.955  1.00  0.00     0.186 HD
HETATM    8  C12 UNL     1     -22.162  -5.227 -12.388  1.00  0.00     0.680 A 
HETATM    9  N6  UNL     1     -23.262  -5.153 -11.696  1.00  0.00    -0.234 N 
ATOM     10  H61 UNL     1     -23.782  -4.278 -11.643  1.00  0.00     0.174 HD
ATOM     11  H62 UNL     1     -23.602  -5.978 -11.202  1.00  0.00     0.174 HD
HETATM   12  N7  UNL     1     -21.717  -4.148 -13.032  1.00  0.00    -0.154 N 
ATOM     13  H7  UNL     1     -22.230  -3.267 -12.989  1.00  0.00     0.187 HD
HETATM   14  C13 UNL     1     -20.561  -4.246 -13.753  1.00  0.00     0.291 A 
HETATM   15  O1  UNL     1     -20.140  -3.218 -14.365  1.00  0.00    -0.265 OA
HETATM   16  C14 UNL     1     -19.830  -5.409 -13.847  1.00  0.00     0.165 A 
ENDROOT
BRANCH   1  17
HETATM   17  C5  UNL     1     -17.862  -4.928 -15.295  1.00  0.00     0.154 C 
BRANCH  17  18
HETATM   18  C4  UNL     1     -18.042  -5.215 -16.750  1.00  0.00     0.079 C 
BRANCH  18  19
HETATM   19  C3  UNL     1     -19.179  -4.512 -17.354  1.00  0.00     0.027 A 
HETATM   20  N1  UNL     1     -19.566  -3.227 -17.258  1.00  0.00    -0.348 N 
HETATM   21  C2  UNL     1     -20.672  -2.993 -17.974  1.00  0.00     0.077 A 
ATOM     22  H1  UNL     1     -19.077  -2.521 -16.709  1.00  0.00     0.167 HD
HETATM   23  C1  UNL     1     -21.408  -1.725 -18.132  1.00  0.00     0.089 C 
HETATM   24  N8  UNL     1     -20.988  -4.176 -18.538  1.00  0.00    -0.354 N 
HETATM   25  C15 UNL     1     -20.100  -5.124 -18.182  1.00  0.00     0.114 A 
ATOM     26  H8  UNL     1     -21.789  -4.332 -19.149  1.00  0.00     0.166 HD
ENDBRANCH  18  19
ENDBRANCH  17  18
ENDBRANCH   1  17
BRANCH   2  27
HETATM   27  N3  UNL     1     -17.378  -7.876 -14.640  1.00  0.00    -0.217 N 
HETATM   28  C7  UNL     1     -17.272  -8.689 -15.838  1.00  0.00     0.141 C 
HETATM   29  C8  UNL     1     -16.124  -9.640 -15.596  1.00  0.00     0.022 C 
HETATM   30  C9  UNL     1     -15.238  -8.905 -14.645  1.00  0.00     0.022 C 
HETATM   31  C10 UNL     1     -16.128  -7.963 -13.906  1.00  0.00     0.141 C 
ENDBRANCH   2  27
TORSDOF 4
ENDMDL
MODEL 2
REMARK VINA RESULT: -5.940765015      1.928      4.690
REMARK  4 active torsions:
REMARK  status: ('A' for Active; 'I' for Inactive)
REMARK    1  A    between atoms: C3_5  and  C4_6 
REMARK    2  A    between atoms: C4_6  and  C5_7 
REMARK    3  A    between atoms: C5_7  and  N2_8 
REMARK    4  A    between atoms: C6_9  and  N3_10 
ROOT
HETATM    1  N2  UNL     1     -18.163  -6.377 -15.490  1.00  0.00    -0.173 N 
HETATM    2  C6  UNL     1     -17.282  -7.282 -16.013  1.00  0.00     0.684 A 
HETATM    3  N4  UNL     1     -17.764  -7.664 -17.207  1.00  0.00    -0.173 N 
ATOM      4  H4  UNL     1     -17.311  -8.337 -17.824  1.00  0.00     0.186 HD
HETATM    5  C11 UNL     1     -18.908  -7.050 -17.477  1.00  0.00     0.169 A 
HETATM    6  N5  UNL     1     -19.784  -7.062 -18.498  1.00  0.00    -0.174 N 
ATOM      7  H5  UNL     1     -19.591  -7.666 -19.297  1.00  0.00     0.186 HD
HETATM    8  C12 UNL     1     -20.902  -6.313 -18.515  1.00  0.00     0.680 A 
HETATM    9  N6  UNL     1     -21.715  -6.363 -19.531  1.00  0.00    -0.234 N 
ATOM     10  H61 UNL     1     -22.563  -5.796 -19.543  1.00  0.00     0.174 HD
ATOM     11  H62 UNL     1     -21.501  -6.976 -20.317  1.00  0.00     0.174 HD
HETATM   12  N7  UNL     1     -21.183  -5.512 -17.487  1.00  0.00    -0.154 N 
ATOM     13  H7  UNL     1     -22.027  -4.939 -17.489  1.00  0.00     0.187 HD
HETATM   14  C13 UNL     1     -20.318  -5.474 -16.431  1.00  0.00     0.291 A 
HETATM   15  O1  UNL     1     -20.587  -4.712 -15.455  1.00  0.00    -0.265 OA
HETATM   16  C14 UNL     1     -19.165  -6.224 -16.377  1.00  0.00     0.165 A 
ENDROOT
BRANCH   1  17
HETATM   17  C5  UNL     1     -18.042  -5.698 -14.217  1.00  0.00     0.154 C 
BRANCH  17  18
HETATM   18  C4  UNL     1     -18.321  -6.611 -13.068  1.00  0.00     0.079 C 
BRANCH  18  19
HETATM   19  C3  UNL     1     -19.670  -6.464 -12.510  1.00  0.00     0.027 A 
HETATM   20  N1  UNL     1     -20.639  -5.573 -12.786  1.00  0.00    -0.348 N 
HETATM   21  C2  UNL     1     -21.731  -5.790 -12.043  1.00  0.00     0.077 A 
ATOM     22  H1  UNL     1     -20.553  -4.827 -13.476  1.00  0.00     0.167 HD
HETATM   23  C1  UNL     1     -23.003  -5.042 -12.045  1.00  0.00     0.089 C 
HETATM   24  N8  UNL     1     -21.432  -6.856 -11.274  1.00  0.00    -0.354 N 
HETATM   25  C15 UNL     1     -20.184  -7.292 -11.532  1.00  0.00     0.114 A 
ATOM     26  H8  UNL     1     -22.063  -7.274 -10.591  1.00  0.00     0.166 HD
ENDBRANCH  18  19
ENDBRANCH  17  18
ENDBRANCH   1  17
BRANCH   2  27
HETATM   27  N3  UNL     1     -16.082  -7.729 -15.395  1.00  0.00    -0.217 N 
HETATM   28  C7  UNL     1     -15.831  -8.959 -14.667  1.00  0.00     0.141 C 
HETATM   29  C8  UNL     1     -14.587  -8.712 -13.848  1.00  0.00     0.022 C 
HETATM   30  C9  UNL     1     -13.835  -7.686 -14.629  1.00  0.00     0.022 C 
HETATM   31  C10 UNL     1     -14.861  -6.943 -15.417  1.00  0.00     0.141 C 
ENDBRANCH   2  27
TORSDOF 4
ENDMDL
MODEL 3
REMARK VINA RESULT: -5.839724768      0.806      1.248
REMARK  4 active torsions:
REMARK  status: ('A' for Active; 'I' for Inactive)
REMARK    1  A    between atoms: C3_5  and  C4_6 
REMARK    2  A    between atoms: C4_6  and  C5_7 
REMARK    3  A    between atoms: C5_7  and  N2_8 
REMARK    4  A    between atoms: C6_9  and  N3_10 
ROOT
HETATM    1  N2  UNL     1     -18.576  -5.770 -14.317  1.00  0.00    -0.173 N 
HETATM    2  C6  UNL     1     -18.423  -7.117 -14.129  1.00  0.00     0.684 A 
HETATM    3  N4  UNL     1     -19.488  -7.545 -13.433  1.00  0.00    -0.173 N 
ATOM      4  H4  UNL     1     -19.640  -8.512 -13.147  1.00  0.00     0.186 HD
HETATM    5  C11 UNL     1     -20.316  -6.545 -13.165  1.00  0.00     0.169 A 
HETATM    6  N5  UNL     1     -21.491  -6.421 -12.521  1.00  0.00    -0.174 N 
ATOM      7  H5  UNL     1     -21.911  -7.255 -12.110  1.00  0.00     0.186 HD
HETATM    8  C12 UNL     1     -22.138  -5.247 -12.394  1.00  0.00     0.680 A 
HETATM    9  N6  UNL     1     -23.274  -5.185 -11.761  1.00  0.00    -0.234 N 
ATOM     10  H61 UNL     1     -23.764  -4.296 -11.664  1.00  0.00     0.174 HD
ATOM     11  H62 UNL     1     -23.673  -6.032 -11.357  1.00  0.00     0.174 HD
HETATM   12  N7  UNL     1     -21.617  -4.140 -12.921  1.00  0.00    -0.154 N 
ATOM     13  H7  UNL     1     -22.099  -3.245 -12.832  1.00  0.00     0.187 HD
HETATM   14  C13 UNL     1     -20.425  -4.226 -13.581  1.00  0.00     0.291 A 
HETATM   15  O1  UNL     1     -19.932  -3.171 -14.081  1.00  0.00    -0.265 OA
HETATM   16  C14 UNL     1     -19.733  -5.407 -13.732  1.00  0.00     0.165 A 
ENDROOT
BRANCH   1  17
HETATM   17  C5  UNL     1     -17.667  -4.892 -15.022  1.00  0.00     0.154 C 
BRANCH  17  18
HETATM   18  C4  UNL     1     -17.612  -5.201 -16.483  1.00  0.00     0.079 C 
BRANCH  18  19
HETATM   19  C3  UNL     1     -18.900  -5.050 -17.167  1.00  0.00     0.027 A 
HETATM   20  N1  UNL     1     -19.751  -5.975 -17.646  1.00  0.00    -0.348 N 
HETATM   21  C2  UNL     1     -20.826  -5.409 -18.207  1.00  0.00     0.077 A 
ATOM     22  H1  UNL     1     -19.597  -6.981 -17.589  1.00  0.00     0.167 HD
HETATM   23  C1  UNL     1     -21.983  -6.070 -18.841  1.00  0.00     0.089 C 
HETATM   24  N8  UNL     1     -20.639  -4.080 -18.074  1.00  0.00    -0.354 N 
HETATM   25  C15 UNL     1     -19.476  -3.826 -17.445  1.00  0.00     0.114 A 
ATOM     26  H8  UNL     1     -21.289  -3.367 -18.404  1.00  0.00     0.166 HD
ENDBRANCH  18  19
ENDBRANCH  17  18
ENDBRANCH   1  17
BRANCH   2  27
HETATM   27  N3  UNL     1     -17.331  -7.902 -14.590  1.00  0.00    -0.217 N 
HETATM   28  C7  UNL     1     -17.225  -8.702 -15.795  1.00  0.00     0.141 C 
HETATM   29  C8  UNL     1     -16.087  -9.666 -15.557  1.00  0.00     0.022 C 
HETATM   30  C9  UNL     1     -15.201  -8.950 -14.593  1.00  0.00     0.022 C 
HETATM   31  C10 UNL     1     -16.086  -8.008 -13.849  1.00  0.00     0.141 C 
ENDBRANCH   2  27
TORSDOF 4
ENDMDL
MODEL 4
REMARK VINA RESULT: -5.831363977      1.888      6.565
REMARK  4 active torsions:
REMARK  status: ('A' for Active; 'I' for Inactive)
REMARK    1  A    between atoms: C3_5  and  C4_6 
REMARK    2  A    between atoms: C4_6  and  C5_7 
REMARK    3  A    between atoms: C5_7  and  N2_8 
REMARK    4  A    between atoms: C6_9  and  N3_10 
ROOT
HETATM    1  N2  UNL     1     -19.824  -5.298 -15.959  1.00  0.00    -0.173 N 
HETATM    2  C6  UNL     1     -19.306  -4.235 -16.648  1.00  0.00     0.684 A 
HETATM    3  N4  UNL     1     -18.059  -4.570 -17.016  1.00  0.00    -0.173 N 
ATOM      4  H4  UNL     1     -17.431  -3.964 -17.545  1.00  0.00     0.186 HD
HETATM    5  C11 UNL     1     -17.751  -5.790 -16.601  1.00  0.00     0.169 A 
HETATM    6  N5  UNL     1     -16.672  -6.590 -16.694  1.00  0.00    -0.174 N 
ATOM      7  H5  UNL     1     -15.851  -6.242 -17.189  1.00  0.00     0.186 HD
HETATM    8  C12 UNL     1     -16.627  -7.826 -16.164  1.00  0.00     0.680 A 
HETATM    9  N6  UNL     1     -15.557  -8.558 -16.284  1.00  0.00    -0.234 N 
ATOM     10  H61 UNL     1     -15.523  -9.494 -15.882  1.00  0.00     0.174 HD
ATOM     11  H62 UNL     1     -14.748  -8.188 -16.783  1.00  0.00     0.174 HD
HETATM   12  N7  UNL     1     -17.684  -8.310 -15.511  1.00  0.00    -0.154 N 
ATOM     13  H7  UNL     1     -17.662  -9.246 -15.106  1.00  0.00     0.187 HD
HETATM   14  C13 UNL     1     -18.797  -7.527 -15.396  1.00  0.00     0.291 A 
HETATM   15  O1  UNL     1     -19.801  -7.989 -14.775  1.00  0.00    -0.265 OA
HETATM   16  C14 UNL     1     -18.882  -6.258 -15.923  1.00  0.00     0.165 A 
ENDROOT
BRANCH   1  17
HETATM   17  C5  UNL     1     -21.147  -5.381 -15.378  1.00  0.00     0.154 C 
BRANCH  17  18
HETATM   18  C4  UNL     1     -21.229  -4.670 -14.067  1.00  0.00     0.079 C 
BRANCH  18  19
HETATM   19  C3  UNL     1     -20.908  -5.519 -12.914  1.00  0.00     0.027 A 
HETATM   20  N1  UNL     1     -19.723  -5.957 -12.452  1.00  0.00    -0.348 N 
HETATM   21  C2  UNL     1     -19.873  -6.719 -11.361  1.00  0.00     0.077 A 
ATOM     22  H1  UNL     1     -18.823  -5.737 -12.879  1.00  0.00     0.167 HD
HETATM   23  C1  UNL     1     -18.829  -7.384 -10.560  1.00  0.00     0.089 C 
HETATM   24  N8  UNL     1     -21.201  -6.758 -11.135  1.00  0.00    -0.354 N 
HETATM   25  C15 UNL     1     -21.862  -6.038 -12.061  1.00  0.00     0.114 A 
ATOM     26  H8  UNL     1     -21.644  -7.263 -10.368  1.00  0.00     0.166 HD
ENDBRANCH  18  19
ENDBRANCH  17  18
ENDBRANCH   1  17
BRANCH   2  27
HETATM   27  N3  UNL     1     -19.976  -3.010 -16.914  1.00  0.00    -0.217 N 
HETATM   28  C7  UNL     1     -19.996  -1.789 -16.129  1.00  0.00     0.141 C 
HETATM   29  C8  UNL     1     -21.197  -1.007 -16.605  1.00  0.00     0.022 C 
HETATM   30  C9  UNL     1     -21.378  -1.446 -18.021  1.00  0.00     0.022 C 
HETATM   31  C10 UNL     1     -20.790  -2.814 -18.101  1.00  0.00     0.141 C 
ENDBRANCH   2  27
TORSDOF 4
ENDMDL
MODEL 5
REMARK VINA RESULT: -5.781846194      1.061      1.303
REMARK  4 active torsions:
REMARK  status: ('A' for Active; 'I' for Inactive)
REMARK    1  A    between atoms: C3_5  and  C4_6 
REMARK    2  A    between atoms: C4_6  and  C5_7 
REMARK    3  A    between atoms: C5_7  and  N2_8 
REMARK    4  A    between atoms: C6_9  and  N3_10 
ROOT
HETATM    1  N2  UNL     1     -19.417  -5.847 -15.358  1.00  0.00    -0.173 N 
HETATM    2  C6  UNL     1     -19.091  -7.153 -15.113  1.00  0.00     0.684 A 
HETATM    3  N4  UNL     1     -19.780  -7.538 -14.027  1.00  0.00    -0.173 N 
ATOM      4  H4  UNL     1     -19.732  -8.468 -13.613  1.00  0.00     0.186 HD
HETATM    5  C11 UNL     1     -20.532  -6.549 -13.564  1.00  0.00     0.169 A 
HETATM    6  N5  UNL     1     -21.390  -6.397 -12.538  1.00  0.00    -0.174 N 
ATOM      7  H5  UNL     1     -21.554  -7.191 -11.920  1.00  0.00     0.186 HD
HETATM    8  C12 UNL     1     -22.040  -5.244 -12.290  1.00  0.00     0.680 A 
HETATM    9  N6  UNL     1     -22.860  -5.153 -11.283  1.00  0.00    -0.234 N 
ATOM     10  H61 UNL     1     -23.353  -4.280 -11.095  1.00  0.00     0.174 HD
ATOM     11  H62 UNL     1     -23.007  -5.961 -10.678  1.00  0.00     0.174 HD
HETATM   12  N7  UNL     1     -21.848  -4.188 -13.080  1.00  0.00    -0.154 N 
ATOM     13  H7  UNL     1     -22.336  -3.310 -12.902  1.00  0.00     0.187 HD
HETATM   14  C13 UNL     1     -20.984  -4.304 -14.131  1.00  0.00     0.291 A 
HETATM   15  O1  UNL     1     -20.803  -3.298 -14.880  1.00  0.00    -0.265 OA
HETATM   16  C14 UNL     1     -20.300  -5.464 -14.417  1.00  0.00     0.165 A 
ENDROOT
BRANCH   1  17
HETATM   17  C5  UNL     1     -18.912  -5.024 -16.437  1.00  0.00     0.154 C 
BRANCH  17  18
HETATM   18  C4  UNL     1     -19.627  -5.288 -17.722  1.00  0.00     0.079 C 
BRANCH  18  19
HETATM   19  C3  UNL     1     -20.347  -4.122 -18.248  1.00  0.00     0.027 A 
HETATM   20  N1  UNL     1     -20.682  -2.961 -17.658  1.00  0.00    -0.348 N 
HETATM   21  C2  UNL     1     -21.344  -2.156 -18.498  1.00  0.00     0.077 A 
ATOM     22  H1  UNL     1     -20.460  -2.723 -16.691  1.00  0.00     0.167 HD
HETATM   23  C1  UNL     1     -21.879  -0.806 -18.242  1.00  0.00     0.089 C 
HETATM   24  N8  UNL     1     -21.425  -2.842 -19.657  1.00  0.00    -0.354 N 
HETATM   25  C15 UNL     1     -20.828  -4.043 -19.540  1.00  0.00     0.114 A 
ATOM     26  H8  UNL     1     -21.876  -2.498 -20.504  1.00  0.00     0.166 HD
ENDBRANCH  18  19
ENDBRANCH  17  18
ENDBRANCH   1  17
BRANCH   2  27
HETATM   27  N3  UNL     1     -18.186  -7.941 -15.874  1.00  0.00    -0.217 N 
HETATM   28  C7  UNL     1     -18.379  -8.553 -17.176  1.00  0.00     0.141 C 
HETATM   29  C8  UNL     1     -17.325  -9.629 -17.291  1.00  0.00     0.022 C 
HETATM   30  C9  UNL     1     -16.212  -9.142 -16.423  1.00  0.00     0.022 C 
HETATM   31  C10 UNL     1     -16.849  -8.258 -15.403  1.00  0.00     0.141 C 
ENDBRANCH   2  27
TORSDOF 4
ENDMDL
