MODEL 1
REMARK VINA RESULT: -6.064792174      0.000      0.000
REMARK  10 active torsions:
REMARK  status: ('A' for Active; 'I' for Inactive)
REMARK       I    between atoms: N1_2  and  C2_4 
REMARK    1  A    between atoms: C2_4  and  C3_6 
REMARK       I    between atoms: C3_6  and  N2_8 
REMARK    2  A    between atoms: N2_8  and  C4_10 
REMARK    3  A    between atoms: C4_10  and  C5_11 
REMARK       I    between atoms: C5_11  and  N3_13 
REMARK    4  A    between atoms: N3_13  and  C6_15 
REMARK    5  A    between atoms: C6_15  and  C7_16 
REMARK    6  A    between atoms: C7_16  and  N4_17 
REMARK       I    between atoms: N4_17  and  C8_19 
REMARK    7  A    between atoms: C8_19  and  C9_21 
REMARK    8  A    between atoms: C10_22  and  O5_23 
REMARK    9  A    between atoms: C12_28  and  O6_29 
REMARK   10  A    between atoms: C12_28  and  C13_31 
ROOT
HETATM    1  N4  UNL     1      12.530  18.510 -18.098  1.00  0.00    -0.339 N 
ATOM      2  H4  UNL     1      12.620  18.893 -17.157  1.00  0.00     0.167 HD
HETATM    3  C8  UNL     1      11.984  17.241 -18.102  1.00  0.00     0.229 C 
HETATM    4  O4  UNL     1      11.757  16.550 -19.089  1.00  0.00    -0.273 OA
ENDROOT
BRANCH   1   5
HETATM    5  C7  UNL     1      12.994  19.402 -19.093  1.00  0.00     0.083 C 
BRANCH   5   6
HETATM    6  C6  UNL     1      14.229  19.157 -19.839  1.00  0.00     0.167 C 
BRANCH   6   7
HETATM    7  N3  UNL     1      14.406  17.844 -20.368  1.00  0.00    -0.355 N 
HETATM    8  C5  UNL     1      15.719  17.390 -20.780  1.00  0.00     0.235 C 
HETATM    9  O3  UNL     1      16.669  18.189 -20.653  1.00  0.00    -0.272 OA
ATOM     10  H3  UNL     1      13.604  17.221 -20.456  1.00  0.00     0.162 HD
BRANCH   8  11
HETATM   11  C4  UNL     1      15.829  16.017 -21.317  1.00  0.00     0.225 C 
BRANCH  11  12
HETATM   12  N2  UNL     1      16.756  15.185 -20.592  1.00  0.00    -0.344 N 
HETATM   13  C3  UNL     1      17.941  14.754 -21.230  1.00  0.00     0.309 C 
HETATM   14  O2  UNL     1      18.247  15.058 -22.411  1.00  0.00    -0.262 OA
ATOM     15  H2  UNL     1      16.558  14.909 -19.630  1.00  0.00     0.163 HD
BRANCH  13  16
HETATM   16  C2  UNL     1      18.888  13.908 -20.508  1.00  0.00     0.308 C 
HETATM   17  N1  UNL     1      19.760  13.007 -21.171  1.00  0.00    -0.357 N 
HETATM   18  C1  UNL     1      20.664  12.207 -20.379  1.00  0.00     0.149 C 
ATOM     19  H1  UNL     1      19.748  12.925 -22.188  1.00  0.00     0.162 HD
HETATM   20  O1  UNL     1      18.933  13.980 -19.259  1.00  0.00    -0.262 OA
ENDBRANCH  13  16
ENDBRANCH  11  12
ENDBRANCH   8  11
ENDBRANCH   6   7
ENDBRANCH   5   6
ENDBRANCH   1   5
BRANCH   3  21
HETATM   21  C9  UNL     1      11.627  16.636 -16.749  1.00  0.00     0.123 C 
HETATM   22  C10 UNL     1      10.388  17.217 -16.141  1.00  0.00     0.148 C 
HETATM   23  C11 UNL     1       9.590  16.106 -16.772  1.00  0.00     0.103 C 
HETATM   24  S1  UNL     1       8.479  15.236 -15.641  1.00  0.00    -0.086 SA
HETATM   25  C15 UNL     1      10.877  15.357 -17.001  1.00  0.00     0.080 C 
HETATM   26  S2  UNL     1       9.077  15.500 -13.616  1.00  0.00    -0.055 SA
HETATM   27  C12 UNL     1      10.369  14.291 -13.255  1.00  0.00     0.150 C 
HETATM   28  C14 UNL     1      11.538  14.568 -14.179  1.00  0.00     0.127 C 
HETATM   29  S3  UNL     1      11.148  14.025 -15.844  1.00  0.00    -0.158 SA
BRANCH  22  30
HETATM   30  O5  UNL     1      10.035  18.503 -16.533  1.00  0.00    -0.393 OA
ATOM     31  H5  UNL     1       9.201  18.836 -16.221  1.00  0.00     0.210 HD
ENDBRANCH  22  30
BRANCH  27  32
HETATM   32  O6  UNL     1      10.732  14.369 -11.919  1.00  0.00    -0.375 OA
ATOM     33  H6  UNL     1      11.394  13.717 -11.724  1.00  0.00     0.211 HD
ENDBRANCH  27  32
BRANCH  27  34
HETATM   34  C13 UNL     1       9.889  12.874 -13.508  1.00  0.00     0.273 C 
HETATM   35  F1  UNL     1      10.859  11.984 -13.042  1.00  0.00    -0.251 F 
ENDBRANCH  27  34
ENDBRANCH   3  21
TORSDOF 10
ENDMDL
MODEL 2
REMARK VINA RESULT: -5.997227974      6.194      8.763
REMARK  10 active torsions:
REMARK  status: ('A' for Active; 'I' for Inactive)
REMARK       I    between atoms: N1_2  and  C2_4 
REMARK    1  A    between atoms: C2_4  and  C3_6 
REMARK       I    between atoms: C3_6  and  N2_8 
REMARK    2  A    between atoms: N2_8  and  C4_10 
REMARK    3  A    between atoms: C4_10  and  C5_11 
REMARK       I    between atoms: C5_11  and  N3_13 
REMARK    4  A    between atoms: N3_13  and  C6_15 
REMARK    5  A    between atoms: C6_15  and  C7_16 
REMARK    6  A    between atoms: C7_16  and  N4_17 
REMARK       I    between atoms: N4_17  and  C8_19 
REMARK    7  A    between atoms: C8_19  and  C9_21 
REMARK    8  A    between atoms: C10_22  and  O5_23 
REMARK    9  A    between atoms: C12_28  and  O6_29 
REMARK   10  A    between atoms: C12_28  and  C13_31 
ROOT
HETATM    1  N4  UNL     1       6.165  16.963 -15.501  1.00  0.00    -0.339 N 
ATOM      2  H4  UNL     1       6.176  17.274 -16.472  1.00  0.00     0.167 HD
HETATM    3  C8  UNL     1       7.343  17.252 -14.839  1.00  0.00     0.229 C 
HETATM    4  O4  UNL     1       7.600  17.000 -13.667  1.00  0.00    -0.273 OA
ENDROOT
BRANCH   1   5
HETATM    5  C7  UNL     1       4.948  16.337 -15.146  1.00  0.00     0.083 C 
BRANCH   5   6
HETATM    6  C6  UNL     1       4.756  14.890 -15.263  1.00  0.00     0.167 C 
BRANCH   6   7
HETATM    7  N3  UNL     1       5.816  14.066 -14.781  1.00  0.00    -0.355 N 
HETATM    8  C5  UNL     1       6.848  13.596 -15.683  1.00  0.00     0.235 C 
HETATM    9  O3  UNL     1       6.766  13.941 -16.879  1.00  0.00    -0.272 OA
ATOM     10  H3  UNL     1       5.847  13.805 -13.796  1.00  0.00     0.162 HD
BRANCH   8  11
HETATM   11  C4  UNL     1       7.916  12.747 -15.115  1.00  0.00     0.225 C 
BRANCH  11  12
HETATM   12  N2  UNL     1       8.965  13.493 -14.466  1.00  0.00    -0.344 N 
HETATM   13  C3  UNL     1       9.828  12.830 -13.564  1.00  0.00     0.309 C 
HETATM   14  O2  UNL     1       9.738  11.606 -13.285  1.00  0.00    -0.262 OA
ATOM     15  H2  UNL     1       9.085  14.488 -14.656  1.00  0.00     0.163 HD
BRANCH  13  16
HETATM   16  C2  UNL     1      10.893  13.574 -12.897  1.00  0.00     0.308 C 
HETATM   17  N1  UNL     1      11.858  14.326 -13.614  1.00  0.00    -0.357 N 
HETATM   18  C1  UNL     1      12.877  15.032 -12.873  1.00  0.00     0.149 C 
ATOM     19  H1  UNL     1      11.833  14.367 -14.633  1.00  0.00     0.162 HD
HETATM   20  O1  UNL     1      10.956  13.548 -11.647  1.00  0.00    -0.262 OA
ENDBRANCH  13  16
ENDBRANCH  11  12
ENDBRANCH   8  11
ENDBRANCH   6   7
ENDBRANCH   5   6
ENDBRANCH   1   5
BRANCH   3  21
HETATM   21  C9  UNL     1       8.433  17.953 -15.642  1.00  0.00     0.123 C 
HETATM   22  C10 UNL     1       9.686  17.144 -15.784  1.00  0.00     0.148 C 
HETATM   23  C11 UNL     1       9.161  16.610 -17.091  1.00  0.00     0.103 C 
HETATM   24  S1  UNL     1      10.320  16.721 -18.474  1.00  0.00    -0.086 SA
HETATM   25  C15 UNL     1       8.148  17.725 -17.101  1.00  0.00     0.080 C 
HETATM   26  S2  UNL     1      11.821  18.186 -18.109  1.00  0.00    -0.055 SA
HETATM   27  C12 UNL     1      11.146  19.798 -18.562  1.00  0.00     0.150 C 
HETATM   28  C14 UNL     1       9.940  20.063 -17.682  1.00  0.00     0.127 C 
HETATM   29  S3  UNL     1       8.555  19.057 -18.218  1.00  0.00    -0.158 SA
BRANCH  22  30
HETATM   30  O5  UNL     1       9.936  16.189 -14.805  1.00  0.00    -0.393 OA
ATOM     31  H5  UNL     1      10.826  16.130 -14.477  1.00  0.00     0.210 HD
ENDBRANCH  22  30
BRANCH  27  32
HETATM   32  O6  UNL     1      12.119  20.776 -18.420  1.00  0.00    -0.375 OA
ATOM     33  H6  UNL     1      12.058  21.173 -17.558  1.00  0.00     0.211 HD
ENDBRANCH  27  32
BRANCH  27  34
HETATM   34  C13 UNL     1      10.693  19.824 -20.010  1.00  0.00     0.273 C 
HETATM   35  F1  UNL     1      11.558  19.028 -20.763  1.00  0.00    -0.251 F 
ENDBRANCH  27  34
ENDBRANCH   3  21
TORSDOF 10
ENDMDL
MODEL 3
REMARK VINA RESULT: -5.980139561      1.381      1.839
REMARK  10 active torsions:
REMARK  status: ('A' for Active; 'I' for Inactive)
REMARK       I    between atoms: N1_2  and  C2_4 
REMARK    1  A    between atoms: C2_4  and  C3_6 
REMARK       I    between atoms: C3_6  and  N2_8 
REMARK    2  A    between atoms: N2_8  and  C4_10 
REMARK    3  A    between atoms: C4_10  and  C5_11 
REMARK       I    between atoms: C5_11  and  N3_13 
REMARK    4  A    between atoms: N3_13  and  C6_15 
REMARK    5  A    between atoms: C6_15  and  C7_16 
REMARK    6  A    between atoms: C7_16  and  N4_17 
REMARK       I    between atoms: N4_17  and  C8_19 
REMARK    7  A    between atoms: C8_19  and  C9_21 
REMARK    8  A    between atoms: C10_22  and  O5_23 
REMARK    9  A    between atoms: C12_28  and  O6_29 
REMARK   10  A    between atoms: C12_28  and  C13_31 
ROOT
HETATM    1  N4  UNL     1      11.075  19.299 -17.612  1.00  0.00    -0.339 N 
ATOM      2  H4  UNL     1      11.040  19.633 -16.649  1.00  0.00     0.167 HD
HETATM    3  C8  UNL     1      11.038  17.921 -17.697  1.00  0.00     0.229 C 
HETATM    4  O4  UNL     1      11.058  17.255 -18.726  1.00  0.00    -0.273 OA
ENDROOT
BRANCH   1   5
HETATM    5  C7  UNL     1      11.149  20.357 -18.549  1.00  0.00     0.083 C 
BRANCH   5   6
HETATM    6  C6  UNL     1      12.343  20.588 -19.364  1.00  0.00     0.167 C 
BRANCH   6   7
HETATM    7  N3  UNL     1      12.742  19.525 -20.227  1.00  0.00    -0.355 N 
HETATM    8  C5  UNL     1      14.077  18.970 -20.138  1.00  0.00     0.235 C 
HETATM    9  O3  UNL     1      14.847  19.459 -19.286  1.00  0.00    -0.272 OA
ATOM     10  H3  UNL     1      12.083  19.152 -20.910  1.00  0.00     0.162 HD
BRANCH   8  11
HETATM   11  C4  UNL     1      14.422  17.868 -21.061  1.00  0.00     0.225 C 
BRANCH  11  12
HETATM   12  N2  UNL     1      15.796  17.444 -20.970  1.00  0.00    -0.344 N 
HETATM   13  C3  UNL     1      16.086  16.071 -20.803  1.00  0.00     0.309 C 
HETATM   14  O2  UNL     1      15.204  15.177 -20.728  1.00  0.00    -0.262 OA
ATOM     15  H2  UNL     1      16.552  18.127 -21.026  1.00  0.00     0.163 HD
BRANCH  13  16
HETATM   16  C2  UNL     1      17.474  15.627 -20.706  1.00  0.00     0.308 C 
HETATM   17  N1  UNL     1      17.847  14.441 -20.024  1.00  0.00    -0.357 N 
HETATM   18  C1  UNL     1      19.244  14.078 -19.978  1.00  0.00     0.149 C 
ATOM     19  H1  UNL     1      17.141  13.855 -19.575  1.00  0.00     0.162 HD
HETATM   20  O1  UNL     1      18.367  16.319 -21.245  1.00  0.00    -0.262 OA
ENDBRANCH  13  16
ENDBRANCH  11  12
ENDBRANCH   8  11
ENDBRANCH   6   7
ENDBRANCH   5   6
ENDBRANCH   1   5
BRANCH   3  21
HETATM   21  C9  UNL     1      10.965  17.149 -16.385  1.00  0.00     0.123 C 
HETATM   22  C10 UNL     1       9.691  17.369 -15.630  1.00  0.00     0.148 C 
HETATM   23  C11 UNL     1       9.114  16.150 -16.300  1.00  0.00     0.103 C 
HETATM   24  S1  UNL     1       8.350  14.958 -15.176  1.00  0.00    -0.086 SA
HETATM   25  C15 UNL     1      10.510  15.750 -16.700  1.00  0.00     0.080 C 
HETATM   26  S2  UNL     1       9.067  15.202 -13.187  1.00  0.00    -0.055 SA
HETATM   27  C12 UNL     1      10.632  14.314 -13.047  1.00  0.00     0.150 C 
HETATM   28  C14 UNL     1      11.609  14.931 -14.028  1.00  0.00     0.127 C 
HETATM   29  S3  UNL     1      11.194  14.437 -15.702  1.00  0.00    -0.158 SA
BRANCH  22  30
HETATM   30  O5  UNL     1       9.014  18.559 -15.867  1.00  0.00    -0.393 OA
ATOM     31  H5  UNL     1       8.832  19.110 -15.114  1.00  0.00     0.210 HD
ENDBRANCH  22  30
BRANCH  27  32
HETATM   32  O6  UNL     1      11.097  14.375 -11.741  1.00  0.00    -0.375 OA
ATOM     33  H6  UNL     1      12.043  14.289 -11.729  1.00  0.00     0.211 HD
ENDBRANCH  27  32
BRANCH  27  34
HETATM   34  C13 UNL     1      10.471  12.846 -13.397  1.00  0.00     0.273 C 
HETATM   35  F1  UNL     1       9.597  12.261 -12.478  1.00  0.00    -0.251 F 
ENDBRANCH  27  34
ENDBRANCH   3  21
TORSDOF 10
ENDMDL
MODEL 4
REMARK VINA RESULT: -5.974179050      2.395      2.803
REMARK  10 active torsions:
REMARK  status: ('A' for Active; 'I' for Inactive)
REMARK       I    between atoms: N1_2  and  C2_4 
REMARK    1  A    between atoms: C2_4  and  C3_6 
REMARK       I    between atoms: C3_6  and  N2_8 
REMARK    2  A    between atoms: N2_8  and  C4_10 
REMARK    3  A    between atoms: C4_10  and  C5_11 
REMARK       I    between atoms: C5_11  and  N3_13 
REMARK    4  A    between atoms: N3_13  and  C6_15 
REMARK    5  A    between atoms: C6_15  and  C7_16 
REMARK    6  A    between atoms: C7_16  and  N4_17 
REMARK       I    between atoms: N4_17  and  C8_19 
REMARK    7  A    between atoms: C8_19  and  C9_21 
REMARK    8  A    between atoms: C10_22  and  O5_23 
REMARK    9  A    between atoms: C12_28  and  O6_29 
REMARK   10  A    between atoms: C12_28  and  C13_31 
ROOT
HETATM    1  N4  UNL     1      11.018  19.251 -17.725  1.00  0.00    -0.339 N 
ATOM      2  H4  UNL     1      10.754  19.580 -16.797  1.00  0.00     0.167 HD
HETATM    3  C8  UNL     1      11.271  17.893 -17.754  1.00  0.00     0.229 C 
HETATM    4  O4  UNL     1      11.598  17.235 -18.735  1.00  0.00    -0.273 OA
ENDROOT
BRANCH   1   5
HETATM    5  C7  UNL     1      11.040  20.292 -18.683  1.00  0.00     0.083 C 
BRANCH   5   6
HETATM    6  C6  UNL     1      12.276  20.709 -19.348  1.00  0.00     0.167 C 
BRANCH   6   7
HETATM    7  N3  UNL     1      12.924  19.731 -20.159  1.00  0.00    -0.355 N 
HETATM    8  C5  UNL     1      14.272  19.299 -19.852  1.00  0.00     0.235 C 
HETATM    9  O3  UNL     1      14.828  19.815 -18.861  1.00  0.00    -0.272 OA
ATOM     10  H3  UNL     1      12.436  19.334 -20.961  1.00  0.00     0.162 HD
BRANCH   8  11
HETATM   11  C4  UNL     1      14.881  18.282 -20.734  1.00  0.00     0.225 C 
BRANCH  11  12
HETATM   12  N2  UNL     1      14.088  17.087 -20.875  1.00  0.00    -0.344 N 
HETATM   13  C3  UNL     1      14.706  15.826 -20.718  1.00  0.00     0.309 C 
HETATM   14  O2  UNL     1      15.927  15.675 -20.457  1.00  0.00    -0.262 OA
ATOM     15  H2  UNL     1      13.092  17.151 -21.085  1.00  0.00     0.163 HD
BRANCH  13  16
HETATM   16  C2  UNL     1      13.914  14.606 -20.861  1.00  0.00     0.308 C 
HETATM   17  N1  UNL     1      14.439  13.424 -21.442  1.00  0.00    -0.357 N 
HETATM   18  C1  UNL     1      13.585  12.263 -21.544  1.00  0.00     0.149 C 
ATOM     19  H1  UNL     1      15.401  13.393 -21.782  1.00  0.00     0.162 HD
HETATM   20  O1  UNL     1      12.730  14.604 -20.455  1.00  0.00    -0.262 OA
ENDBRANCH  13  16
ENDBRANCH  11  12
ENDBRANCH   8  11
ENDBRANCH   6   7
ENDBRANCH   5   6
ENDBRANCH   1   5
BRANCH   3  21
HETATM   21  C9  UNL     1      11.131  17.135 -16.439  1.00  0.00     0.123 C 
HETATM   22  C10 UNL     1       9.809  17.341 -15.767  1.00  0.00     0.148 C 
HETATM   23  C11 UNL     1       9.295  16.105 -16.456  1.00  0.00     0.103 C 
HETATM   24  S1  UNL     1       8.484  14.913 -15.365  1.00  0.00    -0.086 SA
HETATM   25  C15 UNL     1      10.720  15.725 -16.763  1.00  0.00     0.080 C 
HETATM   26  S2  UNL     1       9.072  15.194 -13.339  1.00  0.00    -0.055 SA
HETATM   27  C12 UNL     1      10.641  14.335 -13.091  1.00  0.00     0.150 C 
HETATM   28  C14 UNL     1      11.666  14.957 -14.018  1.00  0.00     0.127 C 
HETATM   29  S3  UNL     1      11.363  14.437 -15.708  1.00  0.00    -0.158 SA
BRANCH  22  30
HETATM   30  O5  UNL     1       9.127  18.517 -16.061  1.00  0.00    -0.393 OA
ATOM     31  H5  UNL     1       8.767  18.600 -16.936  1.00  0.00     0.210 HD
ENDBRANCH  22  30
BRANCH  27  32
HETATM   32  O6  UNL     1      11.022  14.420 -11.760  1.00  0.00    -0.375 OA
ATOM     33  H6  UNL     1      11.204  15.324 -11.532  1.00  0.00     0.211 HD
ENDBRANCH  27  32
BRANCH  27  34
HETATM   34  C13 UNL     1      10.526  12.861 -13.431  1.00  0.00     0.273 C 
HETATM   35  F1  UNL     1       9.519  12.298 -12.645  1.00  0.00    -0.251 F 
ENDBRANCH  27  34
ENDBRANCH   3  21
TORSDOF 10
ENDMDL
MODEL 5
REMARK VINA RESULT: -5.967608264      4.985      8.496
REMARK  10 active torsions:
REMARK  status: ('A' for Active; 'I' for Inactive)
REMARK       I    between atoms: N1_2  and  C2_4 
REMARK    1  A    between atoms: C2_4  and  C3_6 
REMARK       I    between atoms: C3_6  and  N2_8 
REMARK    2  A    between atoms: N2_8  and  C4_10 
REMARK    3  A    between atoms: C4_10  and  C5_11 
REMARK       I    between atoms: C5_11  and  N3_13 
REMARK    4  A    between atoms: N3_13  and  C6_15 
REMARK    5  A    between atoms: C6_15  and  C7_16 
REMARK    6  A    between atoms: C7_16  and  N4_17 
REMARK       I    between atoms: N4_17  and  C8_19 
REMARK    7  A    between atoms: C8_19  and  C9_21 
REMARK    8  A    between atoms: C10_22  and  O5_23 
REMARK    9  A    between atoms: C12_28  and  O6_29 
REMARK   10  A    between atoms: C12_28  and  C13_31 
ROOT
HETATM    1  N4  UNL     1       9.381  18.702 -16.647  1.00  0.00    -0.339 N 
ATOM      2  H4  UNL     1       9.412  18.984 -17.627  1.00  0.00     0.167 HD
HETATM    3  C8  UNL     1      10.325  17.741 -16.342  1.00  0.00     0.229 C 
HETATM    4  O4  UNL     1      10.514  17.231 -15.243  1.00  0.00    -0.273 OA
ENDROOT
BRANCH   1   5
HETATM    5  C7  UNL     1       8.380  19.387 -15.920  1.00  0.00     0.083 C 
BRANCH   5   6
HETATM    6  C6  UNL     1       7.123  18.744 -15.535  1.00  0.00     0.167 C 
BRANCH   6   7
HETATM    7  N3  UNL     1       7.226  17.483 -14.878  1.00  0.00    -0.355 N 
HETATM    8  C5  UNL     1       7.178  16.251 -15.640  1.00  0.00     0.235 C 
HETATM    9  O3  UNL     1       7.043  16.347 -16.877  1.00  0.00    -0.272 OA
ATOM     10  H3  UNL     1       7.335  17.447 -13.865  1.00  0.00     0.162 HD
BRANCH   8  11
HETATM   11  C4  UNL     1       7.294  14.981 -14.893  1.00  0.00     0.225 C 
BRANCH  11  12
HETATM   12  N2  UNL     1       8.651  14.623 -14.566  1.00  0.00    -0.344 N 
HETATM   13  C3  UNL     1       9.179  14.995 -13.309  1.00  0.00     0.309 C 
HETATM   14  O2  UNL     1       8.528  15.630 -12.439  1.00  0.00    -0.262 OA
ATOM     15  H2  UNL     1       9.224  14.107 -15.234  1.00  0.00     0.163 HD
BRANCH  13  16
HETATM   16  C2  UNL     1      10.554  14.641 -12.965  1.00  0.00     0.308 C 
HETATM   17  N1  UNL     1      11.664  15.065 -13.739  1.00  0.00    -0.357 N 
HETATM   18  C1  UNL     1      12.989  14.669 -13.325  1.00  0.00     0.149 C 
ATOM     19  H1  UNL     1      11.528  15.639 -14.572  1.00  0.00     0.162 HD
HETATM   20  O1  UNL     1      10.760  13.940 -11.949  1.00  0.00    -0.262 OA
ENDBRANCH  13  16
ENDBRANCH  11  12
ENDBRANCH   8  11
ENDBRANCH   6   7
ENDBRANCH   5   6
ENDBRANCH   1   5
BRANCH   3  21
HETATM   21  C9  UNL     1      11.222  17.266 -17.479  1.00  0.00     0.123 C 
HETATM   22  C10 UNL     1      11.113  15.798 -17.754  1.00  0.00     0.148 C 
HETATM   23  C11 UNL     1      10.066  16.096 -18.794  1.00  0.00     0.103 C 
HETATM   24  S1  UNL     1      10.349  15.314 -20.399  1.00  0.00    -0.086 SA
HETATM   25  C15 UNL     1      10.505  17.537 -18.773  1.00  0.00     0.080 C 
HETATM   26  S2  UNL     1      12.392  14.771 -20.645  1.00  0.00    -0.055 SA
HETATM   27  C12 UNL     1      13.291  16.230 -21.212  1.00  0.00     0.150 C 
HETATM   28  C14 UNL     1      13.165  17.300 -20.146  1.00  0.00     0.127 C 
HETATM   29  S3  UNL     1      11.514  18.001 -20.170  1.00  0.00    -0.158 SA
BRANCH  22  30
HETATM   30  O5  UNL     1      10.698  14.987 -16.703  1.00  0.00    -0.393 OA
ATOM     31  H5  UNL     1      11.376  14.602 -16.161  1.00  0.00     0.210 HD
ENDBRANCH  22  30
BRANCH  27  32
HETATM   32  O6  UNL     1      14.615  15.902 -21.467  1.00  0.00    -0.375 OA
ATOM     33  H6  UNL     1      15.179  16.631 -21.238  1.00  0.00     0.211 HD
ENDBRANCH  27  32
BRANCH  27  34
HETATM   34  C13 UNL     1      12.707  16.774 -22.502  1.00  0.00     0.273 C 
HETATM   35  F1  UNL     1      13.559  17.765 -22.995  1.00  0.00    -0.251 F 
ENDBRANCH  27  34
ENDBRANCH   3  21
TORSDOF 10
ENDMDL
