MODEL 1
REMARK VINA RESULT: -7.996093434      0.000      0.000
REMARK  9 active torsions:
REMARK  status: ('A' for Active; 'I' for Inactive)
REMARK    1  A    between atoms: C2_3  and  C3_4 
REMARK    2  A    between atoms: C3_4  and  N2_5 
REMARK    3  A    between atoms: C3_4  and  C16_25 
REMARK       I    between atoms: N2_5  and  C4_7 
REMARK       I    between atoms: C4_7  and  N3_9 
REMARK    4  A    between atoms: N3_9  and  C5_11 
REMARK    5  A    between atoms: C8_14  and  O2_15 
REMARK    6  A    between atoms: O2_15  and  C9_16 
REMARK       I    between atoms: C16_25  and  N5_27 
REMARK    7  A    between atoms: N5_27  and  S1_29 
REMARK    8  A    between atoms: S1_29  and  C17_32 
REMARK    9  A    between atoms: C23_38  and  C24_39 
ROOT
HETATM    1  C3  UNL     1      12.749   9.808   9.273  1.00  0.00     0.229 C 
ENDROOT
BRANCH   1   2
HETATM    2  C2  UNL     1      13.800   9.210  10.133  1.00  0.00     0.044 A 
HETATM    3  N1  UNL     1      13.697   8.459  11.240  1.00  0.00    -0.351 N 
HETATM    4  C1  UNL     1      12.455   8.050  11.888  1.00  0.00     0.156 C 
HETATM    5  C23 UNL     1      14.918   8.122  11.699  1.00  0.00     0.083 A 
HETATM    6  C22 UNL     1      15.857   8.678  10.861  1.00  0.00     0.033 A 
HETATM    7  C21 UNL     1      15.154   9.355   9.887  1.00  0.00     0.030 A 
BRANCH   5   8
HETATM    8  C24 UNL     1      15.198   7.299  12.888  1.00  0.00     0.282 C 
HETATM    9  C25 UNL     1      16.697   7.147  13.069  1.00  0.00     0.097 C 
HETATM   10  F1  UNL     1      14.665   7.792  14.040  1.00  0.00    -0.200 F 
HETATM   11  F2  UNL     1      14.692   6.012  12.734  1.00  0.00    -0.200 F 
ENDBRANCH   5   8
ENDBRANCH   1   2
BRANCH   1  12
HETATM   12  N2  UNL     1      12.757  11.251   9.353  1.00  0.00    -0.324 N 
HETATM   13  C4  UNL     1      11.751  11.953  10.113  1.00  0.00     0.321 C 
HETATM   14  O1  UNL     1      10.869  11.244  10.693  1.00  0.00    -0.247 OA
HETATM   15  N3  UNL     1      11.804  13.339  10.161  1.00  0.00    -0.309 N 
ATOM     16  H3  UNL     1      12.583  13.775   9.666  1.00  0.00     0.170 HD
ATOM     17  H2  UNL     1      13.481  11.780   8.867  1.00  0.00     0.165 HD
BRANCH  15  18
HETATM   18  C5  UNL     1      10.916  14.219  10.810  1.00  0.00     0.036 A 
HETATM   19  C6  UNL     1      10.016  15.010  10.148  1.00  0.00     0.032 A 
HETATM   20  C7  UNL     1       9.183  15.848  10.875  1.00  0.00     0.039 A 
HETATM   21  C8  UNL     1       9.214  15.930  12.266  1.00  0.00     0.076 A 
HETATM   22  C14 UNL     1      10.118  15.133  12.940  1.00  0.00     0.039 A 
HETATM   23  C15 UNL     1      10.936  14.310  12.222  1.00  0.00     0.032 A 
BRANCH  21  24
HETATM   24  O2  UNL     1       8.411  16.752  13.003  1.00  0.00    -0.311 OA
BRANCH  24  25
HETATM   25  C9  UNL     1       8.482  18.116  13.035  1.00  0.00     0.078 A 
HETATM   26  C10 UNL     1       7.404  18.888  12.649  1.00  0.00     0.054 A 
HETATM   27  C11 UNL     1       7.581  20.258  12.725  1.00  0.00     0.090 A 
HETATM   28  N4  UNL     1       8.731  20.828  13.149  1.00  0.00    -0.375 N 
HETATM   29  C12 UNL     1       9.778  20.085  13.525  1.00  0.00     0.090 A 
ATOM     30  H4  UNL     1       8.802  21.845  13.184  1.00  0.00     0.164 HD
HETATM   31  C13 UNL     1       9.670  18.720  13.474  1.00  0.00     0.054 A 
ENDBRANCH  24  25
ENDBRANCH  21  24
ENDBRANCH  15  18
ENDBRANCH   1  12
BRANCH   1  32
HETATM   32  C16 UNL     1      12.979   9.443   7.828  1.00  0.00     0.259 C 
HETATM   33  O3  UNL     1      12.794   8.269   7.444  1.00  0.00    -0.270 OA
HETATM   34  N5  UNL     1      13.402  10.429   6.937  1.00  0.00    -0.252 N 
ATOM     35  H5  UNL     1      13.546  11.368   7.310  1.00  0.00     0.181 HD
BRANCH  34  36
HETATM   36  S1  UNL     1      13.697  10.195   5.288  1.00  0.00     0.240 S 
HETATM   37  O4  UNL     1      12.590   9.380   4.634  1.00  0.00    -0.205 OA
HETATM   38  O5  UNL     1      13.670  11.542   4.558  1.00  0.00    -0.205 OA
BRANCH  36  39
HETATM   39  C17 UNL     1      15.226   9.398   4.987  1.00  0.00     0.072 C 
HETATM   40  C18 UNL     1      15.170   7.898   4.868  1.00  0.00     0.033 C 
HETATM   41  C19 UNL     1      16.124   9.681   6.196  1.00  0.00     0.033 C 
HETATM   42  C20 UNL     1      15.840  10.012   3.737  1.00  0.00     0.033 C 
ENDBRANCH  36  39
ENDBRANCH  34  36
ENDBRANCH   1  32
TORSDOF 9
ENDMDL
MODEL 2
REMARK VINA RESULT: -7.901770419      5.217      6.809
REMARK  9 active torsions:
REMARK  status: ('A' for Active; 'I' for Inactive)
REMARK    1  A    between atoms: C2_3  and  C3_4 
REMARK    2  A    between atoms: C3_4  and  N2_5 
REMARK    3  A    between atoms: C3_4  and  C16_25 
REMARK       I    between atoms: N2_5  and  C4_7 
REMARK       I    between atoms: C4_7  and  N3_9 
REMARK    4  A    between atoms: N3_9  and  C5_11 
REMARK    5  A    between atoms: C8_14  and  O2_15 
REMARK    6  A    between atoms: O2_15  and  C9_16 
REMARK       I    between atoms: C16_25  and  N5_27 
REMARK    7  A    between atoms: N5_27  and  S1_29 
REMARK    8  A    between atoms: S1_29  and  C17_32 
REMARK    9  A    between atoms: C23_38  and  C24_39 
ROOT
HETATM    1  C3  UNL     1      18.853  11.593  10.551  1.00  0.00     0.229 C 
ENDROOT
BRANCH   1   2
HETATM    2  C2  UNL     1      19.945  11.581   9.547  1.00  0.00     0.044 A 
HETATM    3  N1  UNL     1      21.246  11.887   9.670  1.00  0.00    -0.351 N 
HETATM    4  C1  UNL     1      21.911  12.338  10.889  1.00  0.00     0.156 C 
HETATM    5  C23 UNL     1      21.883  11.730   8.494  1.00  0.00     0.083 A 
HETATM    6  C22 UNL     1      20.962  11.306   7.563  1.00  0.00     0.033 A 
HETATM    7  C21 UNL     1      19.756  11.216   8.225  1.00  0.00     0.030 A 
BRANCH   5   8
HETATM    8  C24 UNL     1      23.316  11.964   8.248  1.00  0.00     0.282 C 
HETATM    9  C25 UNL     1      23.676  11.532   6.839  1.00  0.00     0.097 C 
HETATM   10  F1  UNL     1      23.703  13.258   8.423  1.00  0.00    -0.200 F 
HETATM   11  F2  UNL     1      24.101  11.196   9.103  1.00  0.00    -0.200 F 
ENDBRANCH   5   8
ENDBRANCH   1   2
BRANCH   1  12
HETATM   12  N2  UNL     1      17.609  12.051   9.975  1.00  0.00    -0.324 N 
HETATM   13  C4  UNL     1      16.555  12.568  10.813  1.00  0.00     0.321 C 
HETATM   14  O1  UNL     1      16.775  12.593  12.065  1.00  0.00    -0.247 OA
HETATM   15  N3  UNL     1      15.381  12.999  10.211  1.00  0.00    -0.309 N 
ATOM     16  H3  UNL     1      15.353  12.942   9.193  1.00  0.00     0.170 HD
ATOM     17  H2  UNL     1      17.474  12.008   8.965  1.00  0.00     0.165 HD
BRANCH  15  18
HETATM   18  C5  UNL     1      14.222  13.505  10.834  1.00  0.00     0.036 A 
HETATM   19  C6  UNL     1      13.980  14.841  11.009  1.00  0.00     0.032 A 
HETATM   20  C7  UNL     1      12.810  15.244  11.637  1.00  0.00     0.039 A 
HETATM   21  C8  UNL     1      11.854  14.347  12.110  1.00  0.00     0.076 A 
HETATM   22  C14 UNL     1      12.092  12.998  11.935  1.00  0.00     0.039 A 
HETATM   23  C15 UNL     1      13.243  12.605  11.316  1.00  0.00     0.032 A 
BRANCH  21  24
HETATM   24  O2  UNL     1      10.701  14.718  12.738  1.00  0.00    -0.311 OA
BRANCH  24  25
HETATM   25  C9  UNL     1       9.749  15.556  12.228  1.00  0.00     0.078 A 
HETATM   26  C10 UNL     1       9.469  15.565  10.875  1.00  0.00     0.054 A 
HETATM   27  C11 UNL     1       8.486  16.448  10.466  1.00  0.00     0.090 A 
HETATM   28  N4  UNL     1       7.826  17.260  11.321  1.00  0.00    -0.375 N 
HETATM   29  C12 UNL     1       8.093  17.255  12.632  1.00  0.00     0.090 A 
ATOM     30  H4  UNL     1       7.110  17.890  10.959  1.00  0.00     0.164 HD
HETATM   31  C13 UNL     1       9.057  16.404  13.104  1.00  0.00     0.054 A 
ENDBRANCH  24  25
ENDBRANCH  21  24
ENDBRANCH  15  18
ENDBRANCH   1  12
BRANCH   1  32
HETATM   32  C16 UNL     1      18.610  10.204  11.083  1.00  0.00     0.259 C 
HETATM   33  O3  UNL     1      19.575   9.440  11.297  1.00  0.00    -0.270 OA
HETATM   34  N5  UNL     1      17.301   9.787  11.325  1.00  0.00    -0.252 N 
ATOM     35  H5  UNL     1      16.553  10.450  11.122  1.00  0.00     0.181 HD
BRANCH  34  36
HETATM   36  S1  UNL     1      16.853   8.272  11.927  1.00  0.00     0.240 S 
HETATM   37  O4  UNL     1      17.244   7.154  10.972  1.00  0.00    -0.205 OA
HETATM   38  O5  UNL     1      17.631   7.973  13.214  1.00  0.00    -0.205 OA
BRANCH  36  39
HETATM   39  C17 UNL     1      15.136   8.157  12.243  1.00  0.00     0.072 C 
HETATM   40  C18 UNL     1      14.707   7.012  13.121  1.00  0.00     0.033 C 
HETATM   41  C19 UNL     1      14.447   7.921  10.895  1.00  0.00     0.033 C 
HETATM   42  C20 UNL     1      14.674   9.484  12.830  1.00  0.00     0.033 C 
ENDBRANCH  36  39
ENDBRANCH  34  36
ENDBRANCH   1  32
TORSDOF 9
ENDMDL
MODEL 3
REMARK VINA RESULT: -7.812378579      5.535     12.438
REMARK  9 active torsions:
REMARK  status: ('A' for Active; 'I' for Inactive)
REMARK    1  A    between atoms: C2_3  and  C3_4 
REMARK    2  A    between atoms: C3_4  and  N2_5 
REMARK    3  A    between atoms: C3_4  and  C16_25 
REMARK       I    between atoms: N2_5  and  C4_7 
REMARK       I    between atoms: C4_7  and  N3_9 
REMARK    4  A    between atoms: N3_9  and  C5_11 
REMARK    5  A    between atoms: C8_14  and  O2_15 
REMARK    6  A    between atoms: O2_15  and  C9_16 
REMARK       I    between atoms: C16_25  and  N5_27 
REMARK    7  A    between atoms: N5_27  and  S1_29 
REMARK    8  A    between atoms: S1_29  and  C17_32 
REMARK    9  A    between atoms: C23_38  and  C24_39 
ROOT
HETATM    1  C3  UNL     1       8.636  18.579  12.958  1.00  0.00     0.229 C 
ENDROOT
BRANCH   1   2
HETATM    2  C2  UNL     1       7.674  18.544  11.829  1.00  0.00     0.044 A 
HETATM    3  N1  UNL     1       7.801  18.967  10.562  1.00  0.00    -0.351 N 
HETATM    4  C1  UNL     1       8.980  19.605   9.983  1.00  0.00     0.156 C 
HETATM    5  C23 UNL     1       6.671  18.732   9.868  1.00  0.00     0.083 A 
HETATM    6  C22 UNL     1       5.767  18.133  10.715  1.00  0.00     0.033 A 
HETATM    7  C21 UNL     1       6.397  18.019  11.936  1.00  0.00     0.030 A 
BRANCH   5   8
HETATM    8  C24 UNL     1       6.445  19.053   8.449  1.00  0.00     0.282 C 
HETATM    9  C25 UNL     1       5.146  18.426   7.977  1.00  0.00     0.097 C 
HETATM   10  F1  UNL     1       6.407  20.389   8.184  1.00  0.00    -0.200 F 
HETATM   11  F2  UNL     1       7.449  18.518   7.649  1.00  0.00    -0.200 F 
ENDBRANCH   5   8
ENDBRANCH   1   2
BRANCH   1  12
HETATM   12  N2  UNL     1       9.919  18.034  12.579  1.00  0.00    -0.324 N 
HETATM   13  C4  UNL     1      10.074  16.622  12.323  1.00  0.00     0.321 C 
HETATM   14  O1  UNL     1       9.038  15.897  12.453  1.00  0.00    -0.247 OA
HETATM   15  N3  UNL     1      11.326  16.149  11.958  1.00  0.00    -0.309 N 
ATOM     16  H3  UNL     1      12.062  16.850  11.869  1.00  0.00     0.170 HD
ATOM     17  H2  UNL     1      10.725  18.653  12.491  1.00  0.00     0.165 HD
BRANCH  15  18
HETATM   18  C5  UNL     1      11.707  14.818  11.694  1.00  0.00     0.036 A 
HETATM   19  C6  UNL     1      11.763  13.843  12.654  1.00  0.00     0.032 A 
HETATM   20  C7  UNL     1      12.153  12.559  12.298  1.00  0.00     0.039 A 
HETATM   21  C8  UNL     1      12.499  12.205  10.995  1.00  0.00     0.076 A 
HETATM   22  C14 UNL     1      12.442  13.183  10.022  1.00  0.00     0.039 A 
HETATM   23  C15 UNL     1      12.058  14.444  10.376  1.00  0.00     0.032 A 
BRANCH  21  24
HETATM   24  O2  UNL     1      12.893  10.953  10.622  1.00  0.00    -0.311 OA
BRANCH  24  25
HETATM   25  C9  UNL     1      12.325   9.781  11.037  1.00  0.00     0.078 A 
HETATM   26  C10 UNL     1      11.024   9.468  10.695  1.00  0.00     0.054 A 
HETATM   27  C11 UNL     1      10.549   8.256  11.164  1.00  0.00     0.090 A 
HETATM   28  N4  UNL     1      11.296   7.414  11.911  1.00  0.00    -0.375 N 
HETATM   29  C12 UNL     1      12.556   7.712  12.245  1.00  0.00     0.090 A 
ATOM     30  H4  UNL     1      10.890   6.533  12.228  1.00  0.00     0.164 HD
HETATM   31  C13 UNL     1      13.089   8.898  11.814  1.00  0.00     0.054 A 
ENDBRANCH  24  25
ENDBRANCH  21  24
ENDBRANCH  15  18
ENDBRANCH   1  12
BRANCH   1  32
HETATM   32  C16 UNL     1       8.873  19.999  13.405  1.00  0.00     0.259 C 
HETATM   33  O3  UNL     1      10.039  20.413  13.578  1.00  0.00    -0.270 OA
HETATM   34  N5  UNL     1       7.778  20.835  13.624  1.00  0.00    -0.252 N 
ATOM     35  H5  UNL     1       6.849  20.440  13.475  1.00  0.00     0.181 HD
BRANCH  34  36
HETATM   36  S1  UNL     1       7.865  22.451  14.115  1.00  0.00     0.240 S 
HETATM   37  O4  UNL     1       6.824  22.767  15.180  1.00  0.00    -0.205 OA
HETATM   38  O5  UNL     1       9.212  22.715  14.799  1.00  0.00    -0.205 OA
BRANCH  36  39
HETATM   39  C17 UNL     1       7.656  23.569  12.785  1.00  0.00     0.072 C 
HETATM   40  C18 UNL     1       6.663  24.677  13.011  1.00  0.00     0.033 C 
HETATM   41  C19 UNL     1       7.109  22.762  11.603  1.00  0.00     0.033 C 
HETATM   42  C20 UNL     1       9.022  24.139  12.428  1.00  0.00     0.033 C 
ENDBRANCH  36  39
ENDBRANCH  34  36
ENDBRANCH   1  32
TORSDOF 9
ENDMDL
MODEL 4
REMARK VINA RESULT: -7.810195169      0.966      1.489
REMARK  9 active torsions:
REMARK  status: ('A' for Active; 'I' for Inactive)
REMARK    1  A    between atoms: C2_3  and  C3_4 
REMARK    2  A    between atoms: C3_4  and  N2_5 
REMARK    3  A    between atoms: C3_4  and  C16_25 
REMARK       I    between atoms: N2_5  and  C4_7 
REMARK       I    between atoms: C4_7  and  N3_9 
REMARK    4  A    between atoms: N3_9  and  C5_11 
REMARK    5  A    between atoms: C8_14  and  O2_15 
REMARK    6  A    between atoms: O2_15  and  C9_16 
REMARK       I    between atoms: C16_25  and  N5_27 
REMARK    7  A    between atoms: N5_27  and  S1_29 
REMARK    8  A    between atoms: S1_29  and  C17_32 
REMARK    9  A    between atoms: C23_38  and  C24_39 
ROOT
HETATM    1  C3  UNL     1      12.625  10.203   9.685  1.00  0.00     0.229 C 
ENDROOT
BRANCH   1   2
HETATM    2  C2  UNL     1      13.778   9.835  10.544  1.00  0.00     0.044 A 
HETATM    3  N1  UNL     1      14.100   8.665  11.116  1.00  0.00    -0.351 N 
HETATM    4  C1  UNL     1      13.335   7.425  11.025  1.00  0.00     0.156 C 
HETATM    5  C23 UNL     1      15.247   8.778  11.813  1.00  0.00     0.083 A 
HETATM    6  C22 UNL     1      15.691  10.075  11.695  1.00  0.00     0.033 A 
HETATM    7  C21 UNL     1      14.772  10.729  10.904  1.00  0.00     0.030 A 
BRANCH   5   8
HETATM    8  C24 UNL     1      15.911   7.701  12.566  1.00  0.00     0.282 C 
HETATM    9  C25 UNL     1      17.174   8.230  13.219  1.00  0.00     0.097 C 
HETATM   10  F1  UNL     1      15.128   7.131  13.524  1.00  0.00    -0.200 F 
HETATM   11  F2  UNL     1      16.312   6.674  11.718  1.00  0.00    -0.200 F 
ENDBRANCH   5   8
ENDBRANCH   1   2
BRANCH   1  12
HETATM   12  N2  UNL     1      12.483  11.637   9.574  1.00  0.00    -0.324 N 
HETATM   13  C4  UNL     1      11.532  12.349  10.392  1.00  0.00     0.321 C 
HETATM   14  O1  UNL     1      10.833  11.657  11.197  1.00  0.00    -0.247 OA
HETATM   15  N3  UNL     1      11.437  13.727  10.250  1.00  0.00    -0.309 N 
ATOM     16  H3  UNL     1      12.078  14.153   9.580  1.00  0.00     0.170 HD
ATOM     17  H2  UNL     1      13.062  12.152   8.910  1.00  0.00     0.165 HD
BRANCH  15  18
HETATM   18  C5  UNL     1      10.564  14.609  10.918  1.00  0.00     0.036 A 
HETATM   19  C6  UNL     1      10.606  14.838  12.267  1.00  0.00     0.032 A 
HETATM   20  C7  UNL     1       9.701  15.723  12.835  1.00  0.00     0.039 A 
HETATM   21  C8  UNL     1       8.734  16.402  12.094  1.00  0.00     0.076 A 
HETATM   22  C14 UNL     1       8.688  16.176  10.732  1.00  0.00     0.039 A 
HETATM   23  C15 UNL     1       9.580  15.305  10.177  1.00  0.00     0.032 A 
BRANCH  21  24
HETATM   24  O2  UNL     1       7.829  17.270  12.631  1.00  0.00    -0.311 OA
BRANCH  24  25
HETATM   25  C9  UNL     1       7.965  18.629  12.688  1.00  0.00     0.078 A 
HETATM   26  C10 UNL     1       8.954  19.207  13.459  1.00  0.00     0.054 A 
HETATM   27  C11 UNL     1       9.005  20.589  13.442  1.00  0.00     0.090 A 
HETATM   28  N4  UNL     1       8.150  21.347  12.722  1.00  0.00    -0.375 N 
HETATM   29  C12 UNL     1       7.189  20.793  11.974  1.00  0.00     0.090 A 
ATOM     30  H4  UNL     1       8.238  22.363  12.750  1.00  0.00     0.164 HD
HETATM   31  C13 UNL     1       7.082  19.427  11.945  1.00  0.00     0.054 A 
ENDBRANCH  24  25
ENDBRANCH  21  24
ENDBRANCH  15  18
ENDBRANCH   1  12
BRANCH   1  32
HETATM   32  C16 UNL     1      12.816   9.668   8.289  1.00  0.00     0.259 C 
HETATM   33  O3  UNL     1      12.130   8.702   7.892  1.00  0.00    -0.270 OA
HETATM   34  N5  UNL     1      13.765  10.260   7.457  1.00  0.00    -0.252 N 
ATOM     35  H5  UNL     1      14.302  11.039   7.838  1.00  0.00     0.181 HD
BRANCH  34  36
HETATM   36  S1  UNL     1      14.099   9.792   5.866  1.00  0.00     0.240 S 
HETATM   37  O4  UNL     1      12.854   9.269   5.166  1.00  0.00    -0.205 OA
HETATM   38  O5  UNL     1      14.523  11.013   5.043  1.00  0.00    -0.205 OA
BRANCH  36  39
HETATM   39  C17 UNL     1      15.344   8.566   5.776  1.00  0.00     0.072 C 
HETATM   40  C18 UNL     1      15.273   7.483   6.819  1.00  0.00     0.033 C 
HETATM   41  C19 UNL     1      16.685   9.271   6.006  1.00  0.00     0.033 C 
HETATM   42  C20 UNL     1      15.314   7.965   4.377  1.00  0.00     0.033 C 
ENDBRANCH  36  39
ENDBRANCH  34  36
ENDBRANCH   1  32
TORSDOF 9
ENDMDL
MODEL 5
REMARK VINA RESULT: -7.753758805      0.828      1.676
REMARK  9 active torsions:
REMARK  status: ('A' for Active; 'I' for Inactive)
REMARK    1  A    between atoms: C2_3  and  C3_4 
REMARK    2  A    between atoms: C3_4  and  N2_5 
REMARK    3  A    between atoms: C3_4  and  C16_25 
REMARK       I    between atoms: N2_5  and  C4_7 
REMARK       I    between atoms: C4_7  and  N3_9 
REMARK    4  A    between atoms: N3_9  and  C5_11 
REMARK    5  A    between atoms: C8_14  and  O2_15 
REMARK    6  A    between atoms: O2_15  and  C9_16 
REMARK       I    between atoms: C16_25  and  N5_27 
REMARK    7  A    between atoms: N5_27  and  S1_29 
REMARK    8  A    between atoms: S1_29  and  C17_32 
REMARK    9  A    between atoms: C23_38  and  C24_39 
ROOT
HETATM    1  C3  UNL     1      12.094   9.756   8.859  1.00  0.00     0.229 C 
ENDROOT
BRANCH   1   2
HETATM    2  C2  UNL     1      12.634   8.936   9.971  1.00  0.00     0.044 A 
HETATM    3  N1  UNL     1      13.819   8.988  10.596  1.00  0.00    -0.351 N 
HETATM    4  C1  UNL     1      14.910   9.911  10.295  1.00  0.00     0.156 C 
HETATM    5  C23 UNL     1      13.887   8.052  11.562  1.00  0.00     0.083 A 
HETATM    6  C22 UNL     1      12.699   7.357  11.567  1.00  0.00     0.033 A 
HETATM    7  C21 UNL     1      11.922   7.912  10.573  1.00  0.00     0.030 A 
BRANCH   5   8
HETATM    8  C24 UNL     1      15.030   7.817  12.460  1.00  0.00     0.282 C 
HETATM    9  C25 UNL     1      14.697   6.709  13.442  1.00  0.00     0.097 C 
HETATM   10  F1  UNL     1      16.184   7.495  11.813  1.00  0.00    -0.200 F 
HETATM   11  F2  UNL     1      15.304   8.946  13.225  1.00  0.00    -0.200 F 
ENDBRANCH   5   8
ENDBRANCH   1   2
BRANCH   1  12
HETATM   12  N2  UNL     1      12.291  11.168   9.096  1.00  0.00    -0.324 N 
HETATM   13  C4  UNL     1      11.365  11.915   9.911  1.00  0.00     0.321 C 
HETATM   14  O1  UNL     1      10.379  11.275  10.395  1.00  0.00    -0.247 OA
HETATM   15  N3  UNL     1      11.601  13.268  10.112  1.00  0.00    -0.309 N 
ATOM     16  H3  UNL     1      12.447  13.644   9.681  1.00  0.00     0.170 HD
ATOM     17  H2  UNL     1      13.095  11.642   8.683  1.00  0.00     0.165 HD
BRANCH  15  18
HETATM   18  C5  UNL     1      10.818  14.186  10.839  1.00  0.00     0.036 A 
HETATM   19  C6  UNL     1      10.897  14.339  12.197  1.00  0.00     0.032 A 
HETATM   20  C7  UNL     1      10.081  15.269  12.826  1.00  0.00     0.039 A 
HETATM   21  C8  UNL     1       9.169  16.068  12.137  1.00  0.00     0.076 A 
HETATM   22  C14 UNL     1       9.086  15.920  10.767  1.00  0.00     0.039 A 
HETATM   23  C15 UNL     1       9.890  15.004  10.152  1.00  0.00     0.032 A 
BRANCH  21  24
HETATM   24  O2  UNL     1       8.350  16.982  12.734  1.00  0.00    -0.311 OA
BRANCH  24  25
HETATM   25  C9  UNL     1       8.665  18.288  12.987  1.00  0.00     0.078 A 
HETATM   26  C10 UNL     1       7.734  19.289  12.790  1.00  0.00     0.054 A 
HETATM   27  C11 UNL     1       8.155  20.574  13.082  1.00  0.00     0.090 A 
HETATM   28  N4  UNL     1       9.397  20.855  13.534  1.00  0.00    -0.375 N 
HETATM   29  C12 UNL     1      10.302  19.890  13.726  1.00  0.00     0.090 A 
ATOM     30  H4  UNL     1       9.649  21.824  13.732  1.00  0.00     0.164 HD
HETATM   31  C13 UNL     1       9.950  18.593  13.456  1.00  0.00     0.054 A 
ENDBRANCH  24  25
ENDBRANCH  21  24
ENDBRANCH  15  18
ENDBRANCH   1  12
BRANCH   1  32
HETATM   32  C16 UNL     1      12.797   9.422   7.567  1.00  0.00     0.259 C 
HETATM   33  O3  UNL     1      12.933   8.229   7.222  1.00  0.00    -0.270 OA
HETATM   34  N5  UNL     1      13.292  10.457   6.775  1.00  0.00    -0.252 N 
ATOM     35  H5  UNL     1      13.160  11.410   7.112  1.00  0.00     0.181 HD
BRANCH  34  36
HETATM   36  S1  UNL     1      14.094  10.260   5.299  1.00  0.00     0.240 S 
HETATM   37  O4  UNL     1      13.282   9.411   4.331  1.00  0.00    -0.205 OA
HETATM   38  O5  UNL     1      14.237  11.616   4.599  1.00  0.00    -0.205 OA
BRANCH  36  39
HETATM   39  C17 UNL     1      15.673   9.530   5.487  1.00  0.00     0.072 C 
HETATM   40  C18 UNL     1      16.270   9.608   6.867  1.00  0.00     0.033 C 
HETATM   41  C19 UNL     1      16.635  10.304   4.579  1.00  0.00     0.033 C 
HETATM   42  C20 UNL     1      15.583   8.083   5.023  1.00  0.00     0.033 C 
ENDBRANCH  36  39
ENDBRANCH  34  36
ENDBRANCH   1  32
TORSDOF 9
ENDMDL
