MODEL 1
REMARK VINA RESULT: -7.766830427      0.000      0.000
REMARK  11 active torsions:
REMARK  status: ('A' for Active; 'I' for Inactive)
REMARK    1  A    between atoms: C2_2  and  S1_3 
REMARK    2  A    between atoms: S1_3  and  C3_4 
REMARK    3  A    between atoms: C3_4  and  N2_11 
REMARK    4  A    between atoms: N1_5  and  C4_7 
REMARK    5  A    between atoms: C4_7  and  C5_8 
REMARK    6  A    between atoms: C5_8  and  O1_9 
REMARK    7  A    between atoms: N2_11  and  C7_13 
REMARK    8  A    between atoms: C7_13  and  C8_14 
REMARK    9  A    between atoms: C8_14  and  N3_15 
REMARK   10  A    between atoms: N3_15  and  C9_17 
REMARK   11  A    between atoms: C10_20  and  N5_21 
ROOT
HETATM    1  C9  UNL     1      20.185 -39.800  -6.284  1.00  0.00     0.138 A 
HETATM    2  N4  UNL     1      19.496 -39.760  -5.129  1.00  0.00    -0.176 N 
ATOM      3  H4  UNL     1      18.626 -40.278  -5.007  1.00  0.00     0.186 HD
HETATM    4  C10 UNL     1      20.006 -39.004  -4.142  1.00  0.00     0.680 A 
HETATM    5  N6  UNL     1      21.138 -38.317  -4.272  1.00  0.00    -0.175 N 
ATOM      6  H6  UNL     1      21.464 -37.764  -3.479  1.00  0.00     0.186 HD
HETATM    7  C12 UNL     1      21.887 -38.315  -5.420  1.00  0.00     0.142 A 
HETATM    8  N7  UNL     1      22.998 -37.681  -5.641  1.00  0.00    -0.339 N 
ATOM      9  H7  UNL     1      23.406 -37.100  -4.908  1.00  0.00     0.168 HD
HETATM   10  C13 UNL     1      23.600 -37.785  -6.810  1.00  0.00     0.049 A 
HETATM   11  C14 UNL     1      24.881 -37.144  -7.273  1.00  0.00     0.076 C 
HETATM   12  S2  UNL     1      22.546 -38.840  -7.663  1.00  0.00    -0.070 SA
HETATM   13  C15 UNL     1      21.380 -39.081  -6.436  1.00  0.00     0.095 A 
ENDROOT
BRANCH   1  14
HETATM   14  N3  UNL     1      19.819 -40.483  -7.313  1.00  0.00    -0.373 N 
ATOM     15  H3  UNL     1      19.381 -39.969  -8.077  1.00  0.00     0.161 HD
BRANCH  14  16
HETATM   16  C8  UNL     1      19.969 -41.888  -7.484  1.00  0.00     0.141 C 
BRANCH  16  17
HETATM   17  C7  UNL     1      20.497 -42.294  -8.829  1.00  0.00     0.141 C 
BRANCH  17  18
HETATM   18  N2  UNL     1      19.638 -43.294  -9.466  1.00  0.00    -0.369 N 
ATOM     19  H2  UNL     1      18.663 -43.060  -9.651  1.00  0.00     0.161 HD
BRANCH  18  20
HETATM   20  C3  UNL     1      20.113 -44.569  -9.833  1.00  0.00     0.136 C 
HETATM   21  N1  UNL     1      19.350 -45.481 -10.351  1.00  0.00    -0.369 N 
ATOM     22  H1  UNL     1      18.362 -45.281 -10.508  1.00  0.00     0.161 HD
BRANCH  20  23
HETATM   23  S1  UNL     1      21.838 -44.951  -9.572  1.00  0.00    -0.095 SA
BRANCH  23  24
HETATM   24  C2  UNL     1      22.849 -44.194 -10.865  1.00  0.00     0.078 C 
HETATM   25  C1  UNL     1      23.880 -43.312 -10.216  1.00  0.00     0.016 C 
ENDBRANCH  23  24
ENDBRANCH  20  23
BRANCH  21  26
HETATM   26  C4  UNL     1      19.882 -46.779 -10.711  1.00  0.00     0.148 C 
BRANCH  26  27
HETATM   27  C5  UNL     1      18.826 -47.787 -11.049  1.00  0.00     0.186 C 
BRANCH  27  28
HETATM   28  O1  UNL     1      17.828 -47.258 -11.867  1.00  0.00    -0.394 OA
HETATM   29  C6  UNL     1      16.558 -47.631 -11.405  1.00  0.00     0.201 C 
ENDBRANCH  27  28
ENDBRANCH  26  27
ENDBRANCH  21  26
ENDBRANCH  18  20
ENDBRANCH  17  18
ENDBRANCH  16  17
ENDBRANCH  14  16
ENDBRANCH   1  14
BRANCH   4  30
HETATM   30  N5  UNL     1      19.359 -38.935  -2.983  1.00  0.00    -0.230 N 
HETATM   31  C11 UNL     1      18.136 -39.671  -2.787  1.00  0.00     0.165 C 
ATOM     32  H5  UNL     1      19.729 -38.359  -2.228  1.00  0.00     0.177 HD
ENDBRANCH   4  30
TORSDOF 11
ENDMDL
MODEL 2
REMARK VINA RESULT: -7.616365508      1.240      3.345
REMARK  11 active torsions:
REMARK  status: ('A' for Active; 'I' for Inactive)
REMARK    1  A    between atoms: C2_2  and  S1_3 
REMARK    2  A    between atoms: S1_3  and  C3_4 
REMARK    3  A    between atoms: C3_4  and  N2_11 
REMARK    4  A    between atoms: N1_5  and  C4_7 
REMARK    5  A    between atoms: C4_7  and  C5_8 
REMARK    6  A    between atoms: C5_8  and  O1_9 
REMARK    7  A    between atoms: N2_11  and  C7_13 
REMARK    8  A    between atoms: C7_13  and  C8_14 
REMARK    9  A    between atoms: C8_14  and  N3_15 
REMARK   10  A    between atoms: N3_15  and  C9_17 
REMARK   11  A    between atoms: C10_20  and  N5_21 
ROOT
HETATM    1  C9  UNL     1      21.213 -39.738  -7.324  1.00  0.00     0.138 A 
HETATM    2  N4  UNL     1      22.279 -38.990  -7.666  1.00  0.00    -0.176 N 
ATOM      3  H4  UNL     1      22.755 -39.116  -8.559  1.00  0.00     0.186 HD
HETATM    4  C10 UNL     1      22.686 -38.069  -6.776  1.00  0.00     0.680 A 
HETATM    5  N6  UNL     1      22.084 -37.883  -5.605  1.00  0.00    -0.175 N 
ATOM      6  H6  UNL     1      22.450 -37.165  -4.980  1.00  0.00     0.186 HD
HETATM    7  C12 UNL     1      20.996 -38.610  -5.196  1.00  0.00     0.142 A 
HETATM    8  N7  UNL     1      20.344 -38.502  -4.080  1.00  0.00    -0.339 N 
ATOM      9  H7  UNL     1      20.633 -37.811  -3.387  1.00  0.00     0.168 HD
HETATM   10  C13 UNL     1      19.309 -39.283  -3.837  1.00  0.00     0.049 A 
HETATM   11  C14 UNL     1      18.422 -39.325  -2.621  1.00  0.00     0.076 C 
HETATM   12  S2  UNL     1      19.238 -40.237  -5.264  1.00  0.00    -0.070 SA
HETATM   13  C15 UNL     1      20.568 -39.554  -6.093  1.00  0.00     0.095 A 
ENDROOT
BRANCH   1  14
HETATM   14  N3  UNL     1      20.711 -40.655  -8.077  1.00  0.00    -0.373 N 
ATOM     15  H3  UNL     1      19.943 -40.381  -8.689  1.00  0.00     0.161 HD
BRANCH  14  16
HETATM   16  C8  UNL     1      21.126 -42.015  -8.134  1.00  0.00     0.141 C 
BRANCH  16  17
HETATM   17  C7  UNL     1      19.999 -43.006  -8.136  1.00  0.00     0.141 C 
BRANCH  17  18
HETATM   18  N2  UNL     1      19.691 -43.469  -9.491  1.00  0.00    -0.369 N 
ATOM     19  H2  UNL     1      19.143 -42.867 -10.104  1.00  0.00     0.161 HD
BRANCH  18  20
HETATM   20  C3  UNL     1      20.126 -44.719  -9.975  1.00  0.00     0.136 C 
HETATM   21  N1  UNL     1      19.311 -45.621 -10.427  1.00  0.00    -0.369 N 
ATOM     22  H1  UNL     1      18.309 -45.431 -10.440  1.00  0.00     0.161 HD
BRANCH  20  23
HETATM   23  S1  UNL     1      21.875 -45.081  -9.966  1.00  0.00    -0.095 SA
BRANCH  23  24
HETATM   24  C2  UNL     1      22.771 -43.866 -10.960  1.00  0.00     0.078 C 
HETATM   25  C1  UNL     1      23.958 -43.381 -10.174  1.00  0.00     0.016 C 
ENDBRANCH  23  24
ENDBRANCH  20  23
BRANCH  21  26
HETATM   26  C4  UNL     1      19.804 -46.892 -10.913  1.00  0.00     0.148 C 
BRANCH  26  27
HETATM   27  C5  UNL     1      18.735 -47.930 -11.068  1.00  0.00     0.186 C 
BRANCH  27  28
HETATM   28  O1  UNL     1      17.748 -47.546 -11.975  1.00  0.00    -0.394 OA
HETATM   29  C6  UNL     1      16.478 -47.604 -11.381  1.00  0.00     0.201 C 
ENDBRANCH  27  28
ENDBRANCH  26  27
ENDBRANCH  21  26
ENDBRANCH  18  20
ENDBRANCH  17  18
ENDBRANCH  16  17
ENDBRANCH  14  16
ENDBRANCH   1  14
BRANCH   4  30
HETATM   30  N5  UNL     1      23.734 -37.307  -7.073  1.00  0.00    -0.230 N 
HETATM   31  C11 UNL     1      24.893 -37.878  -7.710  1.00  0.00     0.165 C 
ATOM     32  H5  UNL     1      23.718 -36.313  -6.848  1.00  0.00     0.177 HD
ENDBRANCH   4  30
TORSDOF 11
ENDMDL
MODEL 3
REMARK VINA RESULT: -7.566383467      3.916      7.735
REMARK  11 active torsions:
REMARK  status: ('A' for Active; 'I' for Inactive)
REMARK    1  A    between atoms: C2_2  and  S1_3 
REMARK    2  A    between atoms: S1_3  and  C3_4 
REMARK    3  A    between atoms: C3_4  and  N2_11 
REMARK    4  A    between atoms: N1_5  and  C4_7 
REMARK    5  A    between atoms: C4_7  and  C5_8 
REMARK    6  A    between atoms: C5_8  and  O1_9 
REMARK    7  A    between atoms: N2_11  and  C7_13 
REMARK    8  A    between atoms: C7_13  and  C8_14 
REMARK    9  A    between atoms: C8_14  and  N3_15 
REMARK   10  A    between atoms: N3_15  and  C9_17 
REMARK   11  A    between atoms: C10_20  and  N5_21 
ROOT
HETATM    1  C9  UNL     1      21.055 -40.062  -7.369  1.00  0.00     0.138 A 
HETATM    2  N4  UNL     1      20.191 -40.741  -8.146  1.00  0.00    -0.176 N 
ATOM      3  H4  UNL     1      19.258 -40.382  -8.348  1.00  0.00     0.186 HD
HETATM    4  C10 UNL     1      20.614 -41.916  -8.642  1.00  0.00     0.680 A 
HETATM    5  N6  UNL     1      21.824 -42.410  -8.394  1.00  0.00    -0.175 N 
ATOM      6  H6  UNL     1      22.074 -43.309  -8.805  1.00  0.00     0.186 HD
HETATM    7  C12 UNL     1      22.750 -41.769  -7.613  1.00  0.00     0.142 A 
HETATM    8  N7  UNL     1      23.949 -42.168  -7.316  1.00  0.00    -0.339 N 
ATOM      9  H7  UNL     1      24.293 -43.057  -7.680  1.00  0.00     0.168 HD
HETATM   10  C13 UNL     1      24.723 -41.428  -6.545  1.00  0.00     0.049 A 
HETATM   11  C14 UNL     1      26.129 -41.698  -6.082  1.00  0.00     0.076 C 
HETATM   12  S2  UNL     1      23.710 -40.082  -6.209  1.00  0.00    -0.070 SA
HETATM   13  C15 UNL     1      22.334 -40.569  -7.099  1.00  0.00     0.095 A 
ENDROOT
BRANCH   1  14
HETATM   14  N3  UNL     1      20.790 -38.923  -6.828  1.00  0.00    -0.373 N 
ATOM     15  H3  UNL     1      21.217 -38.099  -7.251  1.00  0.00     0.161 HD
BRANCH  14  16
HETATM   16  C8  UNL     1      19.956 -38.706  -5.695  1.00  0.00     0.141 C 
BRANCH  16  17
HETATM   17  C7  UNL     1      20.701 -38.530  -4.404  1.00  0.00     0.141 C 
BRANCH  17  18
HETATM   18  N2  UNL     1      19.865 -38.864  -3.250  1.00  0.00    -0.369 N 
ATOM     19  H2  UNL     1      20.309 -39.235  -2.410  1.00  0.00     0.161 HD
BRANCH  18  20
HETATM   20  C3  UNL     1      18.466 -38.690  -3.259  1.00  0.00     0.136 C 
HETATM   21  N1  UNL     1      17.903 -37.522  -3.296  1.00  0.00    -0.369 N 
ATOM     22  H1  UNL     1      18.484 -36.684  -3.321  1.00  0.00     0.161 HD
BRANCH  20  23
HETATM   23  S1  UNL     1      17.421 -40.137  -3.217  1.00  0.00    -0.095 SA
BRANCH  23  24
HETATM   24  C2  UNL     1      17.107 -40.733  -4.894  1.00  0.00     0.078 C 
HETATM   25  C1  UNL     1      17.083 -42.236  -4.875  1.00  0.00     0.016 C 
ENDBRANCH  23  24
ENDBRANCH  20  23
BRANCH  21  26
HETATM   26  C4  UNL     1      16.461 -37.392  -3.302  1.00  0.00     0.148 C 
BRANCH  26  27
HETATM   27  C5  UNL     1      15.969 -36.219  -4.094  1.00  0.00     0.186 C 
BRANCH  27  28
HETATM   28  O1  UNL     1      14.782 -36.494  -4.771  1.00  0.00    -0.394 OA
HETATM   29  C6  UNL     1      14.669 -37.866  -5.037  1.00  0.00     0.201 C 
ENDBRANCH  27  28
ENDBRANCH  26  27
ENDBRANCH  21  26
ENDBRANCH  18  20
ENDBRANCH  17  18
ENDBRANCH  16  17
ENDBRANCH  14  16
ENDBRANCH   1  14
BRANCH   4  30
HETATM   30  N5  UNL     1      19.793 -42.621  -9.414  1.00  0.00    -0.230 N 
HETATM   31  C11 UNL     1      20.156 -43.947  -9.845  1.00  0.00     0.165 C 
ATOM     32  H5  UNL     1      18.901 -42.221  -9.704  1.00  0.00     0.177 HD
ENDBRANCH   4  30
TORSDOF 11
ENDMDL
MODEL 4
REMARK VINA RESULT: -7.557034257      1.454      1.574
REMARK  11 active torsions:
REMARK  status: ('A' for Active; 'I' for Inactive)
REMARK    1  A    between atoms: C2_2  and  S1_3 
REMARK    2  A    between atoms: S1_3  and  C3_4 
REMARK    3  A    between atoms: C3_4  and  N2_11 
REMARK    4  A    between atoms: N1_5  and  C4_7 
REMARK    5  A    between atoms: C4_7  and  C5_8 
REMARK    6  A    between atoms: C5_8  and  O1_9 
REMARK    7  A    between atoms: N2_11  and  C7_13 
REMARK    8  A    between atoms: C7_13  and  C8_14 
REMARK    9  A    between atoms: C8_14  and  N3_15 
REMARK   10  A    between atoms: N3_15  and  C9_17 
REMARK   11  A    between atoms: C10_20  and  N5_21 
ROOT
HETATM    1  C9  UNL     1      21.218 -40.165  -7.267  1.00  0.00     0.138 A 
HETATM    2  N4  UNL     1      20.160 -39.411  -6.917  1.00  0.00    -0.176 N 
ATOM      3  H4  UNL     1      19.232 -39.582  -7.304  1.00  0.00     0.186 HD
HETATM    4  C10 UNL     1      20.381 -38.423  -6.035  1.00  0.00     0.680 A 
HETATM    5  N6  UNL     1      21.580 -38.177  -5.514  1.00  0.00    -0.175 N 
ATOM      6  H6  UNL     1      21.673 -37.408  -4.850  1.00  0.00     0.186 HD
HETATM    7  C12 UNL     1      22.699 -38.906  -5.827  1.00  0.00     0.142 A 
HETATM    8  N7  UNL     1      23.903 -38.743  -5.374  1.00  0.00    -0.339 N 
ATOM      9  H7  UNL     1      24.098 -38.000  -4.703  1.00  0.00     0.168 HD
HETATM   10  C13 UNL     1      24.877 -39.537  -5.778  1.00  0.00     0.049 A 
HETATM   11  C14 UNL     1      26.330 -39.525  -5.384  1.00  0.00     0.076 C 
HETATM   12  S2  UNL     1      24.057 -40.583  -6.867  1.00  0.00    -0.070 SA
HETATM   13  C15 UNL     1      22.489 -39.918  -6.727  1.00  0.00     0.095 A 
ENDROOT
BRANCH   1  14
HETATM   14  N3  UNL     1      21.156 -41.147  -8.098  1.00  0.00    -0.373 N 
ATOM     15  H3  UNL     1      21.154 -40.913  -9.091  1.00  0.00     0.161 HD
BRANCH  14  16
HETATM   16  C8  UNL     1      21.088 -42.529  -7.762  1.00  0.00     0.141 C 
BRANCH  16  17
HETATM   17  C7  UNL     1      19.785 -43.187  -8.110  1.00  0.00     0.141 C 
BRANCH  17  18
HETATM   18  N2  UNL     1      19.731 -43.558  -9.526  1.00  0.00    -0.369 N 
ATOM     19  H2  UNL     1      19.367 -42.883 -10.198  1.00  0.00     0.161 HD
BRANCH  18  20
HETATM   20  C3  UNL     1      20.164 -44.815  -9.990  1.00  0.00     0.136 C 
HETATM   21  N1  UNL     1      19.345 -45.732 -10.405  1.00  0.00    -0.369 N 
ATOM     22  H1  UNL     1      18.341 -45.549 -10.402  1.00  0.00     0.161 HD
BRANCH  20  23
HETATM   23  S1  UNL     1      21.914 -45.167 -10.009  1.00  0.00    -0.095 SA
BRANCH  23  24
HETATM   24  C2  UNL     1      22.796 -43.906 -10.957  1.00  0.00     0.078 C 
HETATM   25  C1  UNL     1      23.882 -43.325 -10.093  1.00  0.00     0.016 C 
ENDBRANCH  23  24
ENDBRANCH  20  23
BRANCH  21  26
HETATM   26  C4  UNL     1      19.836 -47.011 -10.872  1.00  0.00     0.148 C 
BRANCH  26  27
HETATM   27  C5  UNL     1      18.747 -47.982 -11.216  1.00  0.00     0.186 C 
BRANCH  27  28
HETATM   28  O1  UNL     1      17.735 -47.398 -11.978  1.00  0.00    -0.394 OA
HETATM   29  C6  UNL     1      16.478 -47.654 -11.411  1.00  0.00     0.201 C 
ENDBRANCH  27  28
ENDBRANCH  26  27
ENDBRANCH  21  26
ENDBRANCH  18  20
ENDBRANCH  17  18
ENDBRANCH  16  17
ENDBRANCH  14  16
ENDBRANCH   1  14
BRANCH   4  30
HETATM   30  N5  UNL     1      19.364 -37.654  -5.661  1.00  0.00    -0.230 N 
HETATM   31  C11 UNL     1      18.489 -38.070  -4.594  1.00  0.00     0.165 C 
ATOM     32  H5  UNL     1      19.201 -36.764  -6.132  1.00  0.00     0.177 HD
ENDBRANCH   4  30
TORSDOF 11
ENDMDL
MODEL 5
REMARK VINA RESULT: -7.525907609      1.117      1.516
REMARK  11 active torsions:
REMARK  status: ('A' for Active; 'I' for Inactive)
REMARK    1  A    between atoms: C2_2  and  S1_3 
REMARK    2  A    between atoms: S1_3  and  C3_4 
REMARK    3  A    between atoms: C3_4  and  N2_11 
REMARK    4  A    between atoms: N1_5  and  C4_7 
REMARK    5  A    between atoms: C4_7  and  C5_8 
REMARK    6  A    between atoms: C5_8  and  O1_9 
REMARK    7  A    between atoms: N2_11  and  C7_13 
REMARK    8  A    between atoms: C7_13  and  C8_14 
REMARK    9  A    between atoms: C8_14  and  N3_15 
REMARK   10  A    between atoms: N3_15  and  C9_17 
REMARK   11  A    between atoms: C10_20  and  N5_21 
ROOT
HETATM    1  C9  UNL     1      20.675 -40.317  -5.861  1.00  0.00     0.138 A 
HETATM    2  N4  UNL     1      19.816 -40.036  -4.864  1.00  0.00    -0.176 N 
ATOM      3  H4  UNL     1      19.040 -40.657  -4.636  1.00  0.00     0.186 HD
HETATM    4  C10 UNL     1      20.028 -38.898  -4.181  1.00  0.00     0.680 A 
HETATM    5  N6  UNL     1      21.031 -38.069  -4.455  1.00  0.00    -0.175 N 
ATOM      6  H6  UNL     1      21.129 -37.223  -3.895  1.00  0.00     0.186 HD
HETATM    7  C12 UNL     1      21.941 -38.296  -5.457  1.00  0.00     0.142 A 
HETATM    8  N7  UNL     1      22.947 -37.551  -5.797  1.00  0.00    -0.339 N 
ATOM      9  H7  UNL     1      23.129 -36.682  -5.295  1.00  0.00     0.168 HD
HETATM   10  C13 UNL     1      23.734 -37.915  -6.792  1.00  0.00     0.049 A 
HETATM   11  C14 UNL     1      24.943 -37.208  -7.345  1.00  0.00     0.076 C 
HETATM   12  S2  UNL     1      23.023 -39.398  -7.288  1.00  0.00    -0.070 SA
HETATM   13  C15 UNL     1      21.738 -39.453  -6.162  1.00  0.00     0.095 A 
ENDROOT
BRANCH   1  14
HETATM   14  N3  UNL     1      20.598 -41.372  -6.597  1.00  0.00    -0.373 N 
ATOM     15  H3  UNL     1      21.256 -42.125  -6.397  1.00  0.00     0.161 HD
BRANCH  14  16
HETATM   16  C8  UNL     1      19.681 -41.584  -7.665  1.00  0.00     0.141 C 
BRANCH  16  17
HETATM   17  C7  UNL     1      20.315 -42.064  -8.938  1.00  0.00     0.141 C 
BRANCH  17  18
HETATM   18  N2  UNL     1      19.501 -43.090  -9.592  1.00  0.00    -0.369 N 
ATOM     19  H2  UNL     1      18.578 -42.838  -9.942  1.00  0.00     0.161 HD
BRANCH  18  20
HETATM   20  C3  UNL     1      19.951 -44.416  -9.754  1.00  0.00     0.136 C 
HETATM   21  N1  UNL     1      19.350 -45.274 -10.519  1.00  0.00    -0.369 N 
ATOM     22  H1  UNL     1      18.515 -44.992 -11.032  1.00  0.00     0.161 HD
BRANCH  20  23
HETATM   23  S1  UNL     1      21.411 -44.941  -8.870  1.00  0.00    -0.095 SA
BRANCH  23  24
HETATM   24  C2  UNL     1      21.064 -45.053  -7.099  1.00  0.00     0.078 C 
HETATM   25  C1  UNL     1      19.646 -45.521  -6.915  1.00  0.00     0.016 C 
ENDBRANCH  23  24
ENDBRANCH  20  23
BRANCH  21  26
HETATM   26  C4  UNL     1      19.848 -46.627 -10.653  1.00  0.00     0.148 C 
BRANCH  26  27
HETATM   27  C5  UNL     1      18.770 -47.643 -10.873  1.00  0.00     0.186 C 
BRANCH  27  28
HETATM   28  O1  UNL     1      17.847 -47.240 -11.838  1.00  0.00    -0.394 OA
HETATM   29  C6  UNL     1      16.547 -47.617 -11.470  1.00  0.00     0.201 C 
ENDBRANCH  27  28
ENDBRANCH  26  27
ENDBRANCH  21  26
ENDBRANCH  18  20
ENDBRANCH  17  18
ENDBRANCH  16  17
ENDBRANCH  14  16
ENDBRANCH   1  14
BRANCH   4  30
HETATM   30  N5  UNL     1      19.205 -38.581  -3.187  1.00  0.00    -0.230 N 
HETATM   31  C11 UNL     1      18.082 -39.427  -2.873  1.00  0.00     0.165 C 
ATOM     32  H5  UNL     1      19.368 -37.734  -2.644  1.00  0.00     0.177 HD
ENDBRANCH   4  30
TORSDOF 11
ENDMDL
