MODEL 1
REMARK VINA RESULT: -8.141442155      0.000      0.000
REMARK  2 active torsions:
REMARK  status: ('A' for Active; 'I' for Inactive)
REMARK    1  A    between atoms: C4_4  and  C5_5 
REMARK    2  A    between atoms: N1_6  and  N2_8 
ROOT
HETATM    1  C1  UNL     1      38.428  18.514 -19.094  1.00  0.00     0.018 C 
HETATM    2  C2  UNL     1      37.947  17.680 -19.790  1.00  0.00    -0.070 C 
HETATM    3  C3  UNL     1      37.351  16.646 -20.622  1.00  0.00     0.113 A 
HETATM    4  C4  UNL     1      37.986  15.446 -20.831  1.00  0.00     0.077 A 
HETATM    5  N5  UNL     1      37.422  14.506 -21.601  1.00  0.00    -0.306 N 
ATOM      6  H5  UNL     1      37.900  13.617 -21.751  1.00  0.00     0.171 HD
HETATM    7  C7  UNL     1      36.228  14.730 -22.177  1.00  0.00     0.327 A 
HETATM    8  O1  UNL     1      35.673  13.857 -22.912  1.00  0.00    -0.247 OA
HETATM    9  N6  UNL     1      35.595  15.913 -21.977  1.00  0.00    -0.274 N 
ATOM     10  H6  UNL     1      34.690  16.075 -22.418  1.00  0.00     0.173 HD
HETATM   11  C8  UNL     1      36.129  16.868 -21.216  1.00  0.00     0.270 A 
HETATM   12  O2  UNL     1      35.505  17.957 -21.055  1.00  0.00    -0.266 OA
ENDROOT
BRANCH   4  13
HETATM   13  C5  UNL     1      39.276  15.172 -20.223  1.00  0.00     0.138 C 
HETATM   14  N1  UNL     1      39.385  14.242 -19.338  1.00  0.00    -0.308 N 
ATOM     15  H1  UNL     1      38.544  13.720 -19.091  1.00  0.00     0.186 HD
BRANCH  14  16
HETATM   16  N2  UNL     1      40.561  13.904 -18.703  1.00  0.00    -0.276 N 
HETATM   17  C6  UNL     1      41.087  12.739 -18.800  1.00  0.00     0.215 C 
HETATM   18  N3  UNL     1      42.296  12.428 -18.133  1.00  0.00    -0.065 NA
HETATM   19  N4  UNL     1      40.454  11.747 -19.585  1.00  0.00    -0.065 NA
ATOM     20  H2  UNL     1      41.029  14.607 -18.133  1.00  0.00     0.189 HD
ENDBRANCH  14  16
ENDBRANCH   4  13
TORSDOF 2
ENDMDL
MODEL 2
REMARK VINA RESULT: -7.498523617      5.504      7.216
REMARK  2 active torsions:
REMARK  status: ('A' for Active; 'I' for Inactive)
REMARK    1  A    between atoms: C4_4  and  C5_5 
REMARK    2  A    between atoms: N1_6  and  N2_8 
ROOT
HETATM    1  C1  UNL     1      42.126  15.338 -13.930  1.00  0.00     0.018 C 
HETATM    2  C2  UNL     1      41.819  14.630 -14.833  1.00  0.00    -0.070 C 
HETATM    3  C3  UNL     1      41.432  13.781 -15.950  1.00  0.00     0.113 A 
HETATM    4  C4  UNL     1      40.156  13.284 -16.057  1.00  0.00     0.077 A 
HETATM    5  N5  UNL     1      39.819  12.503 -17.093  1.00  0.00    -0.306 N 
ATOM      6  H5  UNL     1      38.869  12.138 -17.165  1.00  0.00     0.171 HD
HETATM    7  C7  UNL     1      40.727  12.201 -18.037  1.00  0.00     0.327 A 
HETATM    8  O1  UNL     1      40.433  11.464 -19.027  1.00  0.00    -0.247 OA
HETATM    9  N6  UNL     1      41.990  12.688 -17.938  1.00  0.00    -0.274 N 
ATOM     10  H6  UNL     1      42.672  12.454 -18.658  1.00  0.00     0.173 HD
HETATM   11  C8  UNL     1      42.357  13.467 -16.920  1.00  0.00     0.270 A 
HETATM   12  O2  UNL     1      43.544  13.900 -16.866  1.00  0.00    -0.266 OA
ENDROOT
BRANCH   4  13
HETATM   13  C5  UNL     1      39.151  13.591 -15.055  1.00  0.00     0.138 C 
HETATM   14  N1  UNL     1      39.105  12.912 -13.962  1.00  0.00    -0.308 N 
ATOM     15  H1  UNL     1      39.791  12.167 -13.836  1.00  0.00     0.186 HD
BRANCH  14  16
HETATM   16  N2  UNL     1      38.192  13.123 -12.951  1.00  0.00    -0.276 N 
HETATM   17  C6  UNL     1      38.510  13.678 -11.840  1.00  0.00     0.215 C 
HETATM   18  N3  UNL     1      37.545  13.878 -10.824  1.00  0.00    -0.065 NA
HETATM   19  N4  UNL     1      39.842  14.099 -11.621  1.00  0.00    -0.065 NA
ATOM     20  H2  UNL     1      37.228  12.825 -13.092  1.00  0.00     0.189 HD
ENDBRANCH  14  16
ENDBRANCH   4  13
TORSDOF 2
ENDMDL
MODEL 3
REMARK VINA RESULT: -7.197016012      2.027      2.377
REMARK  2 active torsions:
REMARK  status: ('A' for Active; 'I' for Inactive)
REMARK    1  A    between atoms: C4_4  and  C5_5 
REMARK    2  A    between atoms: N1_6  and  N2_8 
ROOT
HETATM    1  C1  UNL     1      41.504  17.603 -22.065  1.00  0.00     0.018 C 
HETATM    2  C2  UNL     1      40.534  16.957 -21.837  1.00  0.00    -0.070 C 
HETATM    3  C3  UNL     1      39.337  16.183 -21.544  1.00  0.00     0.113 A 
HETATM    4  C4  UNL     1      39.209  15.491 -20.364  1.00  0.00     0.077 A 
HETATM    5  N5  UNL     1      38.099  14.783 -20.112  1.00  0.00    -0.306 N 
ATOM      6  H5  UNL     1      38.012  14.271 -19.233  1.00  0.00     0.171 HD
HETATM    7  C7  UNL     1      37.101  14.745 -21.012  1.00  0.00     0.327 A 
HETATM    8  O1  UNL     1      36.040  14.082 -20.797  1.00  0.00    -0.247 OA
HETATM    9  N6  UNL     1      37.220  15.426 -22.179  1.00  0.00    -0.274 N 
ATOM     10  H6  UNL     1      36.459  15.392 -22.856  1.00  0.00     0.173 HD
HETATM   11  C8  UNL     1      38.311  16.139 -22.460  1.00  0.00     0.270 A 
HETATM   12  O2  UNL     1      38.382  16.759 -23.560  1.00  0.00    -0.266 OA
ENDROOT
BRANCH   4  13
HETATM   13  C5  UNL     1      40.268  15.511 -19.371  1.00  0.00     0.138 C 
HETATM   14  N1  UNL     1      40.427  14.506 -18.581  1.00  0.00    -0.308 N 
ATOM     15  H1  UNL     1      39.791  13.715 -18.685  1.00  0.00     0.186 HD
BRANCH  14  16
HETATM   16  N2  UNL     1      41.399  14.426 -17.607  1.00  0.00    -0.276 N 
HETATM   17  C6  UNL     1      42.193  13.424 -17.504  1.00  0.00     0.215 C 
HETATM   18  N3  UNL     1      43.178  13.378 -16.490  1.00  0.00    -0.065 NA
HETATM   19  N4  UNL     1      42.086  12.348 -18.416  1.00  0.00    -0.065 NA
ATOM     20  H2  UNL     1      41.489  15.193 -16.941  1.00  0.00     0.189 HD
ENDBRANCH  14  16
ENDBRANCH   4  13
TORSDOF 2
ENDMDL
MODEL 4
REMARK VINA RESULT: -7.053110538      5.519      6.994
REMARK  2 active torsions:
REMARK  status: ('A' for Active; 'I' for Inactive)
REMARK    1  A    between atoms: C4_4  and  C5_5 
REMARK    2  A    between atoms: N1_6  and  N2_8 
ROOT
HETATM    1  C1  UNL     1      37.748  13.211 -14.149  1.00  0.00     0.018 C 
HETATM    2  C2  UNL     1      38.588  13.046 -14.972  1.00  0.00    -0.070 C 
HETATM    3  C3  UNL     1      39.629  12.828 -15.964  1.00  0.00     0.113 A 
HETATM    4  C4  UNL     1      40.838  13.476 -15.881  1.00  0.00     0.077 A 
HETATM    5  N5  UNL     1      41.785  13.263 -16.806  1.00  0.00    -0.306 N 
ATOM      6  H5  UNL     1      42.680  13.748 -16.737  1.00  0.00     0.171 HD
HETATM    7  C7  UNL     1      41.559  12.413 -17.822  1.00  0.00     0.327 A 
HETATM    8  O1  UNL     1      42.439  12.194 -18.711  1.00  0.00    -0.247 OA
HETATM    9  N6  UNL     1      40.368  11.770 -17.911  1.00  0.00    -0.274 N 
ATOM     10  H6  UNL     1      40.205  11.127 -18.686  1.00  0.00     0.173 HD
HETATM   11  C8  UNL     1      39.406  11.960 -17.008  1.00  0.00     0.270 A 
HETATM   12  O2  UNL     1      38.309  11.340 -17.129  1.00  0.00    -0.266 OA
ENDROOT
BRANCH   4  13
HETATM   13  C5  UNL     1      41.114  14.400 -14.796  1.00  0.00     0.138 C 
HETATM   14  N1  UNL     1      42.274  14.405 -14.236  1.00  0.00    -0.308 N 
ATOM     15  H1  UNL     1      42.972  13.746 -14.582  1.00  0.00     0.186 HD
BRANCH  14  16
HETATM   16  N2  UNL     1      42.637  15.240 -13.201  1.00  0.00    -0.276 N 
HETATM   17  C6  UNL     1      43.227  16.362 -13.394  1.00  0.00     0.215 C 
HETATM   18  N3  UNL     1      43.584  17.192 -12.305  1.00  0.00    -0.065 NA
HETATM   19  N4  UNL     1      43.527  16.779 -14.711  1.00  0.00    -0.065 NA
ATOM     20  H2  UNL     1      42.427  14.954 -12.245  1.00  0.00     0.189 HD
ENDBRANCH  14  16
ENDBRANCH   4  13
TORSDOF 2
ENDMDL
MODEL 5
REMARK VINA RESULT: -6.965854951      5.357      6.877
REMARK  2 active torsions:
REMARK  status: ('A' for Active; 'I' for Inactive)
REMARK    1  A    between atoms: C4_4  and  C5_5 
REMARK    2  A    between atoms: N1_6  and  N2_8 
ROOT
HETATM    1  C1  UNL     1      43.653  14.765 -16.714  1.00  0.00     0.018 C 
HETATM    2  C2  UNL     1      42.647  14.138 -16.791  1.00  0.00    -0.070 C 
HETATM    3  C3  UNL     1      41.404  13.389 -16.899  1.00  0.00     0.113 A 
HETATM    4  C4  UNL     1      40.352  13.632 -16.050  1.00  0.00     0.077 A 
HETATM    5  N5  UNL     1      39.215  12.931 -16.164  1.00  0.00    -0.306 N 
ATOM      6  H5  UNL     1      38.438  13.117 -15.530  1.00  0.00     0.171 HD
HETATM    7  C7  UNL     1      39.096  11.984 -17.110  1.00  0.00     0.327 A 
HETATM    8  O1  UNL     1      38.030  11.306 -17.238  1.00  0.00    -0.247 OA
HETATM    9  N6  UNL     1      40.131  11.738 -17.952  1.00  0.00    -0.274 N 
ATOM     10  H6  UNL     1      40.032  11.017 -18.667  1.00  0.00     0.173 HD
HETATM   11  C8  UNL     1      41.274  12.417 -17.865  1.00  0.00     0.270 A 
HETATM   12  O2  UNL     1      42.215  12.156 -18.669  1.00  0.00    -0.266 OA
ENDROOT
BRANCH   4  13
HETATM   13  C5  UNL     1      40.448  14.648 -15.017  1.00  0.00     0.138 C 
HETATM   14  N1  UNL     1      40.679  14.304 -13.798  1.00  0.00    -0.308 N 
ATOM     15  H1  UNL     1      40.790  13.310 -13.597  1.00  0.00     0.186 HD
BRANCH  14  16
HETATM   16  N2  UNL     1      40.788  15.188 -12.746  1.00  0.00    -0.276 N 
HETATM   17  C6  UNL     1      41.916  15.647 -12.344  1.00  0.00     0.215 C 
HETATM   18  N3  UNL     1      41.988  16.553 -11.259  1.00  0.00    -0.065 NA
HETATM   19  N4  UNL     1      43.108  15.244 -12.990  1.00  0.00    -0.065 NA
ATOM     20  H2  UNL     1      39.939  15.488 -12.269  1.00  0.00     0.189 HD
ENDBRANCH  14  16
ENDBRANCH   4  13
TORSDOF 2
ENDMDL
