MODEL 1
REMARK VINA RESULT: -8.366672879      0.000      0.000
REMARK  11 active torsions:
REMARK  status: ('A' for Active; 'I' for Inactive)
REMARK    1  A    between atoms: C2_2  and  C4_5 
REMARK    2  A    between atoms: C4_5  and  C5_6 
REMARK    3  A    between atoms: C5_6  and  C6_7 
REMARK    4  A    between atoms: C7_8  and  C8_9 
REMARK       I    between atoms: C8_9  and  N1_11 
REMARK    5  A    between atoms: N1_11  and  C9_12 
REMARK    6  A    between atoms: C9_12  and  C10_13 
REMARK    7  A    between atoms: C10_13  and  O2_14 
REMARK    8  A    between atoms: N4_24  and  C15_26 
REMARK    9  A    between atoms: C15_26  and  C16_27 
REMARK   10  A    between atoms: C19_30  and  N5_31 
REMARK   11  A    between atoms: C20_33  and  C21_34 
ROOT
HETATM    1  C6  UNL     1      37.993 -19.023  27.040  1.00  0.00     0.051 A 
HETATM    2  C7  UNL     1      38.040 -17.808  27.652  1.00  0.00     0.066 A 
HETATM    3  C11 UNL     1      38.777 -17.589  28.808  1.00  0.00     0.022 A 
HETATM    4  C12 UNL     1      39.482 -18.596  29.379  1.00  0.00     0.033 A 
HETATM    5  C13 UNL     1      39.446 -19.852  28.772  1.00  0.00     0.063 A 
HETATM    6  N2  UNL     1      40.041 -20.990  29.145  1.00  0.00    -0.298 N 
ATOM      7  H2  UNL     1      40.641 -21.120  29.959  1.00  0.00     0.187 HD
HETATM    8  N3  UNL     1      39.705 -21.920  28.260  1.00  0.00    -0.284 N 
ATOM      9  H3  UNL     1      40.018 -22.890  28.297  1.00  0.00     0.188 HD
HETATM   10  C14 UNL     1      38.897 -21.416  27.308  1.00  0.00     0.130 A 
HETATM   11  N4  UNL     1      38.354 -22.016  26.315  1.00  0.00    -0.374 N 
ATOM     12  H4  UNL     1      37.768 -21.473  25.681  1.00  0.00     0.161 HD
HETATM   13  C29 UNL     1      38.711 -20.057  27.619  1.00  0.00     0.057 A 
ENDROOT
BRANCH  11  14
HETATM   14  C15 UNL     1      38.531 -23.410  26.055  1.00  0.00     0.126 C 
BRANCH  14  15
HETATM   15  C16 UNL     1      37.775 -23.968  24.899  1.00  0.00     0.003 C 
HETATM   16  C17 UNL     1      37.833 -25.424  24.678  1.00  0.00     0.008 C 
HETATM   17  C18 UNL     1      36.567 -26.208  24.826  1.00  0.00     0.025 C 
HETATM   18  C19 UNL     1      35.288 -25.499  24.604  1.00  0.00     0.080 C 
HETATM   19  C27 UNL     1      35.611 -24.172  23.863  1.00  0.00     0.025 C 
HETATM   20  C28 UNL     1      36.390 -23.357  24.874  1.00  0.00     0.008 C 
BRANCH  18  21
HETATM   21  N5  UNL     1      34.258 -26.093  23.907  1.00  0.00    -0.397 N 
HETATM   22  C20 UNL     1      34.270 -26.802  22.742  1.00  0.00     0.060 C 
ATOM     23  H5  UNL     1      33.337 -25.984  24.332  1.00  0.00     0.159 HD
BRANCH  22  24
HETATM   24  C21 UNL     1      34.938 -28.149  22.668  1.00  0.00     0.027 C 
HETATM   25  C22 UNL     1      34.416 -29.016  23.835  1.00  0.00     0.013 C 
HETATM   26  C23 UNL     1      34.361 -30.407  23.302  1.00  0.00     0.044 C 
HETATM   27  C24 UNL     1      34.490 -30.327  21.824  1.00  0.00     0.100 C 
HETATM   28  C25 UNL     1      33.378 -31.134  21.145  1.00  0.00     0.051 C 
HETATM   29  F1  UNL     1      35.707 -30.812  21.386  1.00  0.00    -0.243 F 
HETATM   30  C26 UNL     1      34.341 -28.893  21.461  1.00  0.00     0.052 C 
ENDBRANCH  22  24
ENDBRANCH  18  21
ENDBRANCH  14  15
ENDBRANCH  11  14
BRANCH   1  31
HETATM   31  C5  UNL     1      37.327 -19.256  25.793  1.00  0.00    -0.063 C 
BRANCH  31  32
HETATM   32  C4  UNL     1      36.805 -19.491  24.723  1.00  0.00    -0.075 C 
BRANCH  32  33
HETATM   33  C2  UNL     1      36.229 -19.772  23.405  1.00  0.00     0.093 C 
HETATM   34  C1  UNL     1      35.915 -18.414  22.799  1.00  0.00     0.046 C 
HETATM   35  C3  UNL     1      37.240 -20.521  22.571  1.00  0.00     0.046 C 
HETATM   36 CL1  UNL     1      34.701 -20.660  23.478  1.00  0.00    -0.106 Cl
ENDBRANCH  32  33
ENDBRANCH  31  32
ENDBRANCH   1  31
BRANCH   2  37
HETATM   37  C8  UNL     1      37.200 -16.669  27.164  1.00  0.00     0.327 C 
HETATM   38  O1  UNL     1      37.295 -16.533  25.911  1.00  0.00    -0.251 OA
HETATM   39  N1  UNL     1      36.467 -15.909  28.007  1.00  0.00    -0.381 NA
BRANCH  39  40
HETATM   40  C9  UNL     1      35.715 -15.130  28.869  1.00  0.00     0.185 C 
BRANCH  40  41
HETATM   41  C10 UNL     1      35.321 -13.737  28.337  1.00  0.00     0.223 C 
BRANCH  41  42
HETATM   42  O2  UNL     1      36.348 -12.836  28.491  1.00  0.00    -0.395 OA
ATOM     43  H2  UNL     1      36.017 -11.962  28.664  1.00  0.00     0.209 HD
ENDBRANCH  41  42
ENDBRANCH  40  41
ENDBRANCH  39  40
ENDBRANCH   2  37
TORSDOF 11
ENDMDL
MODEL 2
REMARK VINA RESULT: -8.161377490      3.964      6.575
REMARK  11 active torsions:
REMARK  status: ('A' for Active; 'I' for Inactive)
REMARK    1  A    between atoms: C2_2  and  C4_5 
REMARK    2  A    between atoms: C4_5  and  C5_6 
REMARK    3  A    between atoms: C5_6  and  C6_7 
REMARK    4  A    between atoms: C7_8  and  C8_9 
REMARK       I    between atoms: C8_9  and  N1_11 
REMARK    5  A    between atoms: N1_11  and  C9_12 
REMARK    6  A    between atoms: C9_12  and  C10_13 
REMARK    7  A    between atoms: C10_13  and  O2_14 
REMARK    8  A    between atoms: N4_24  and  C15_26 
REMARK    9  A    between atoms: C15_26  and  C16_27 
REMARK   10  A    between atoms: C19_30  and  N5_31 
REMARK   11  A    between atoms: C20_33  and  C21_34 
ROOT
HETATM    1  C6  UNL     1      40.580 -23.357  28.112  1.00  0.00     0.051 A 
HETATM    2  C7  UNL     1      40.850 -22.740  29.295  1.00  0.00     0.066 A 
HETATM    3  C11 UNL     1      40.883 -23.429  30.499  1.00  0.00     0.022 A 
HETATM    4  C12 UNL     1      40.640 -24.762  30.540  1.00  0.00     0.033 A 
HETATM    5  C13 UNL     1      40.355 -25.416  29.340  1.00  0.00     0.063 A 
HETATM    6  N2  UNL     1      40.074 -26.706  29.125  1.00  0.00    -0.298 N 
ATOM      7  H2  UNL     1      40.028 -27.440  29.832  1.00  0.00     0.187 HD
HETATM    8  N3  UNL     1      39.866 -26.853  27.824  1.00  0.00    -0.284 N 
ATOM      9  H3  UNL     1      39.631 -27.738  27.374  1.00  0.00     0.188 HD
HETATM   10  C14 UNL     1      40.005 -25.682  27.173  1.00  0.00     0.130 A 
HETATM   11  N4  UNL     1      39.852 -25.433  25.927  1.00  0.00    -0.374 N 
ATOM     12  H4  UNL     1      40.003 -24.479  25.599  1.00  0.00     0.161 HD
HETATM   13  C29 UNL     1      40.327 -24.720  28.146  1.00  0.00     0.057 A 
ENDROOT
BRANCH  11  14
HETATM   14  C15 UNL     1      39.480 -26.429  24.972  1.00  0.00     0.126 C 
BRANCH  14  15
HETATM   15  C16 UNL     1      38.194 -26.210  24.253  1.00  0.00     0.003 C 
HETATM   16  C17 UNL     1      36.993 -25.933  25.062  1.00  0.00     0.008 C 
HETATM   17  C18 UNL     1      36.347 -24.591  24.925  1.00  0.00     0.025 C 
HETATM   18  C19 UNL     1      36.539 -23.861  23.652  1.00  0.00     0.080 C 
HETATM   19  C27 UNL     1      37.053 -24.883  22.600  1.00  0.00     0.025 C 
HETATM   20  C28 UNL     1      38.432 -25.268  23.093  1.00  0.00     0.008 C 
BRANCH  18  21
HETATM   21  N5  UNL     1      35.497 -23.182  23.059  1.00  0.00    -0.397 N 
HETATM   22  C20 UNL     1      35.077 -21.894  23.215  1.00  0.00     0.060 C 
ATOM     23  H5  UNL     1      34.952 -23.731  22.395  1.00  0.00     0.159 HD
BRANCH  22  24
HETATM   24  C21 UNL     1      35.932 -20.743  22.754  1.00  0.00     0.027 C 
HETATM   25  C22 UNL     1      35.009 -19.544  22.445  1.00  0.00     0.013 C 
HETATM   26  C23 UNL     1      35.786 -18.334  22.836  1.00  0.00     0.044 C 
HETATM   27  C24 UNL     1      36.941 -18.787  23.654  1.00  0.00     0.100 C 
HETATM   28  C25 UNL     1      37.025 -17.982  24.956  1.00  0.00     0.051 C 
HETATM   29  F1  UNL     1      38.138 -18.644  22.979  1.00  0.00    -0.243 F 
HETATM   30  C26 UNL     1      36.697 -20.217  23.980  1.00  0.00     0.052 C 
ENDBRANCH  22  24
ENDBRANCH  18  21
ENDBRANCH  14  15
ENDBRANCH  11  14
BRANCH   1  31
HETATM   31  C5  UNL     1      40.636 -22.697  26.842  1.00  0.00    -0.063 C 
BRANCH  31  32
HETATM   32  C4  UNL     1      40.732 -22.109  25.785  1.00  0.00    -0.075 C 
BRANCH  32  33
HETATM   33  C2  UNL     1      40.810 -21.357  24.528  1.00  0.00     0.093 C 
HETATM   34  C1  UNL     1      40.457 -19.923  24.888  1.00  0.00     0.046 C 
HETATM   35  C3  UNL     1      42.213 -21.452  23.980  1.00  0.00     0.046 C 
HETATM   36 CL1  UNL     1      39.631 -21.882  23.319  1.00  0.00    -0.106 Cl
ENDBRANCH  32  33
ENDBRANCH  31  32
ENDBRANCH   1  31
BRANCH   2  37
HETATM   37  C8  UNL     1      41.013 -21.253  29.365  1.00  0.00     0.327 C 
HETATM   38  O1  UNL     1      42.151 -20.938  29.819  1.00  0.00    -0.251 OA
HETATM   39  N1  UNL     1      40.029 -20.408  28.991  1.00  0.00    -0.381 NA
BRANCH  39  40
HETATM   40  C9  UNL     1      39.021 -19.539  28.608  1.00  0.00     0.185 C 
BRANCH  40  41
HETATM   41  C10 UNL     1      39.121 -18.109  29.176  1.00  0.00     0.223 C 
BRANCH  41  42
HETATM   42  O2  UNL     1      39.546 -18.121  30.484  1.00  0.00    -0.395 OA
ATOM     43  H2  UNL     1      39.152 -17.412  30.979  1.00  0.00     0.209 HD
ENDBRANCH  41  42
ENDBRANCH  40  41
ENDBRANCH  39  40
ENDBRANCH   2  37
TORSDOF 11
ENDMDL
MODEL 3
REMARK VINA RESULT: -8.130129779      2.926      5.096
REMARK  11 active torsions:
REMARK  status: ('A' for Active; 'I' for Inactive)
REMARK    1  A    between atoms: C2_2  and  C4_5 
REMARK    2  A    between atoms: C4_5  and  C5_6 
REMARK    3  A    between atoms: C5_6  and  C6_7 
REMARK    4  A    between atoms: C7_8  and  C8_9 
REMARK       I    between atoms: C8_9  and  N1_11 
REMARK    5  A    between atoms: N1_11  and  C9_12 
REMARK    6  A    between atoms: C9_12  and  C10_13 
REMARK    7  A    between atoms: C10_13  and  O2_14 
REMARK    8  A    between atoms: N4_24  and  C15_26 
REMARK    9  A    between atoms: C15_26  and  C16_27 
REMARK   10  A    between atoms: C19_30  and  N5_31 
REMARK   11  A    between atoms: C20_33  and  C21_34 
ROOT
HETATM    1  C6  UNL     1      38.969 -18.202  26.425  1.00  0.00     0.051 A 
HETATM    2  C7  UNL     1      39.279 -17.615  27.613  1.00  0.00     0.066 A 
HETATM    3  C11 UNL     1      39.488 -16.248  27.732  1.00  0.00     0.022 A 
HETATM    4  C12 UNL     1      39.394 -15.438  26.650  1.00  0.00     0.033 A 
HETATM    5  C13 UNL     1      39.082 -16.017  25.419  1.00  0.00     0.063 A 
HETATM    6  N2  UNL     1      38.945 -15.438  24.221  1.00  0.00    -0.298 N 
ATOM      7  H2  UNL     1      39.046 -14.444  24.015  1.00  0.00     0.187 HD
HETATM    8  N3  UNL     1      38.655 -16.396  23.351  1.00  0.00    -0.284 N 
ATOM      9  H3  UNL     1      38.495 -16.241  22.355  1.00  0.00     0.188 HD
HETATM   10  C14 UNL     1      38.596 -17.599  23.952  1.00  0.00     0.130 A 
HETATM   11  N4  UNL     1      38.372 -18.747  23.432  1.00  0.00    -0.374 N 
ATOM     12  H4  UNL     1      38.359 -19.564  24.042  1.00  0.00     0.161 HD
HETATM   13  C29 UNL     1      38.873 -17.380  25.313  1.00  0.00     0.057 A 
ENDROOT
BRANCH  11  14
HETATM   14  C15 UNL     1      38.138 -18.938  22.035  1.00  0.00     0.126 C 
BRANCH  14  15
HETATM   15  C16 UNL     1      36.852 -19.592  21.663  1.00  0.00     0.003 C 
HETATM   16  C17 UNL     1      36.897 -20.686  20.676  1.00  0.00     0.008 C 
HETATM   17  C18 UNL     1      36.512 -22.058  21.129  1.00  0.00     0.025 C 
HETATM   18  C19 UNL     1      35.591 -22.169  22.282  1.00  0.00     0.080 C 
HETATM   19  C27 UNL     1      34.925 -20.779  22.484  1.00  0.00     0.025 C 
HETATM   20  C28 UNL     1      36.062 -19.879  22.921  1.00  0.00     0.008 C 
BRANCH  18  21
HETATM   21  N5  UNL     1      34.570 -23.094  22.288  1.00  0.00    -0.397 N 
HETATM   22  C20 UNL     1      34.607 -24.454  22.392  1.00  0.00     0.060 C 
ATOM     23  H5  UNL     1      33.634 -22.698  22.202  1.00  0.00     0.159 HD
BRANCH  22  24
HETATM   24  C21 UNL     1      35.055 -25.117  23.668  1.00  0.00     0.027 C 
HETATM   25  C22 UNL     1      34.652 -26.607  23.609  1.00  0.00     0.013 C 
HETATM   26  C23 UNL     1      35.739 -27.340  24.317  1.00  0.00     0.044 C 
HETATM   27  C24 UNL     1      36.885 -26.406  24.470  1.00  0.00     0.100 C 
HETATM   28  C25 UNL     1      38.181 -27.063  23.984  1.00  0.00     0.051 C 
HETATM   29  F1  UNL     1      37.062 -26.019  25.785  1.00  0.00    -0.243 F 
HETATM   30  C26 UNL     1      36.589 -25.225  23.617  1.00  0.00     0.052 C 
ENDBRANCH  22  24
ENDBRANCH  18  21
ENDBRANCH  14  15
ENDBRANCH  11  14
BRANCH   1  31
HETATM   31  C5  UNL     1      38.648 -19.592  26.287  1.00  0.00    -0.063 C 
BRANCH  31  32
HETATM   32  C4  UNL     1      38.385 -20.763  26.112  1.00  0.00    -0.075 C 
BRANCH  32  33
HETATM   33  C2  UNL     1      38.067 -22.169  25.843  1.00  0.00     0.093 C 
HETATM   34  C1  UNL     1      38.550 -22.432  24.426  1.00  0.00     0.046 C 
HETATM   35  C3  UNL     1      38.792 -23.042  26.838  1.00  0.00     0.046 C 
HETATM   36 CL1  UNL     1      36.333 -22.514  25.859  1.00  0.00    -0.106 Cl
ENDBRANCH  32  33
ENDBRANCH  31  32
ENDBRANCH   1  31
BRANCH   2  37
HETATM   37  C8  UNL     1      39.522 -18.443  28.838  1.00  0.00     0.327 C 
HETATM   38  O1  UNL     1      38.794 -18.063  29.799  1.00  0.00    -0.251 OA
HETATM   39  N1  UNL     1      40.429 -19.444  28.855  1.00  0.00    -0.381 NA
BRANCH  39  40
HETATM   40  C9  UNL     1      41.357 -20.470  28.875  1.00  0.00     0.185 C 
BRANCH  40  41
HETATM   41  C10 UNL     1      41.315 -21.384  30.117  1.00  0.00     0.223 C 
BRANCH  41  42
HETATM   42  O2  UNL     1      40.613 -20.797  31.144  1.00  0.00    -0.395 OA
ATOM     43  H2  UNL     1      41.120 -20.108  31.557  1.00  0.00     0.209 HD
ENDBRANCH  41  42
ENDBRANCH  40  41
ENDBRANCH  39  40
ENDBRANCH   2  37
TORSDOF 11
ENDMDL
MODEL 4
REMARK VINA RESULT: -8.116458014      5.060      9.370
REMARK  11 active torsions:
REMARK  status: ('A' for Active; 'I' for Inactive)
REMARK    1  A    between atoms: C2_2  and  C4_5 
REMARK    2  A    between atoms: C4_5  and  C5_6 
REMARK    3  A    between atoms: C5_6  and  C6_7 
REMARK    4  A    between atoms: C7_8  and  C8_9 
REMARK       I    between atoms: C8_9  and  N1_11 
REMARK    5  A    between atoms: N1_11  and  C9_12 
REMARK    6  A    between atoms: C9_12  and  C10_13 
REMARK    7  A    between atoms: C10_13  and  O2_14 
REMARK    8  A    between atoms: N4_24  and  C15_26 
REMARK    9  A    between atoms: C15_26  and  C16_27 
REMARK   10  A    between atoms: C19_30  and  N5_31 
REMARK   11  A    between atoms: C20_33  and  C21_34 
ROOT
HETATM    1  C6  UNL     1      37.803 -22.806  25.234  1.00  0.00     0.051 A 
HETATM    2  C7  UNL     1      36.954 -21.987  24.555  1.00  0.00     0.066 A 
HETATM    3  C11 UNL     1      35.769 -22.447  23.998  1.00  0.00     0.022 A 
HETATM    4  C12 UNL     1      35.412 -23.749  24.109  1.00  0.00     0.033 A 
HETATM    5  C13 UNL     1      36.269 -24.610  24.797  1.00  0.00     0.063 A 
HETATM    6  N2  UNL     1      36.144 -25.921  25.029  1.00  0.00    -0.298 N 
ATOM      7  H2  UNL     1      35.371 -26.517  24.732  1.00  0.00     0.187 HD
HETATM    8  N3  UNL     1      37.212 -26.304  25.716  1.00  0.00    -0.284 N 
ATOM      9  H3  UNL     1      37.383 -27.259  26.031  1.00  0.00     0.188 HD
HETATM   10  C14 UNL     1      38.042 -25.268  25.943  1.00  0.00     0.130 A 
HETATM   11  N4  UNL     1      39.173 -25.261  26.543  1.00  0.00    -0.374 N 
ATOM     12  H4  UNL     1      39.672 -24.376  26.630  1.00  0.00     0.161 HD
HETATM   13  C29 UNL     1      37.446 -24.141  25.350  1.00  0.00     0.057 A 
ENDROOT
BRANCH  11  14
HETATM   14  C15 UNL     1      39.770 -26.436  27.095  1.00  0.00     0.126 C 
BRANCH  14  15
HETATM   15  C16 UNL     1      40.386 -26.293  28.444  1.00  0.00     0.003 C 
HETATM   16  C17 UNL     1      41.832 -26.549  28.569  1.00  0.00     0.008 C 
HETATM   17  C18 UNL     1      42.718 -25.405  28.951  1.00  0.00     0.025 C 
HETATM   18  C19 UNL     1      42.115 -24.297  29.723  1.00  0.00     0.080 C 
HETATM   19  C27 UNL     1      40.765 -24.807  30.299  1.00  0.00     0.025 C 
HETATM   20  C28 UNL     1      39.891 -25.013  29.080  1.00  0.00     0.008 C 
BRANCH  18  21
HETATM   21  N5  UNL     1      42.791 -23.713  30.773  1.00  0.00    -0.397 N 
HETATM   22  C20 UNL     1      44.120 -23.455  30.937  1.00  0.00     0.060 C 
ATOM     23  H5  UNL     1      42.201 -23.427  31.554  1.00  0.00     0.159 HD
BRANCH  22  24
HETATM   24  C21 UNL     1      44.819 -22.435  30.077  1.00  0.00     0.027 C 
HETATM   25  C22 UNL     1      44.397 -21.027  30.553  1.00  0.00     0.013 C 
HETATM   26  C23 UNL     1      45.601 -20.169  30.367  1.00  0.00     0.044 C 
HETATM   27  C24 UNL     1      46.763 -21.068  30.141  1.00  0.00     0.100 C 
HETATM   28  C25 UNL     1      47.922 -20.690  31.069  1.00  0.00     0.051 C 
HETATM   29  F1  UNL     1      47.215 -21.006  28.836  1.00  0.00    -0.243 F 
HETATM   30  C26 UNL     1      46.306 -22.444  30.467  1.00  0.00     0.052 C 
ENDBRANCH  22  24
ENDBRANCH  18  21
ENDBRANCH  14  15
ENDBRANCH  11  14
BRANCH   1  31
HETATM   31  C5  UNL     1      38.981 -22.346  25.906  1.00  0.00    -0.063 C 
BRANCH  31  32
HETATM   32  C4  UNL     1      39.950 -21.907  26.491  1.00  0.00    -0.075 C 
BRANCH  32  33
HETATM   33  C2  UNL     1      41.103 -21.323  27.183  1.00  0.00     0.093 C 
HETATM   34  C1  UNL     1      41.327 -19.969  26.529  1.00  0.00     0.046 C 
HETATM   35  C3  UNL     1      40.778 -21.174  28.649  1.00  0.00     0.046 C 
HETATM   36 CL1  UNL     1      42.597 -22.244  26.966  1.00  0.00    -0.106 Cl
ENDBRANCH  32  33
ENDBRANCH  31  32
ENDBRANCH   1  31
BRANCH   2  37
HETATM   37  C8  UNL     1      37.321 -20.562  24.278  1.00  0.00     0.327 C 
HETATM   38  O1  UNL     1      37.681 -20.407  23.076  1.00  0.00    -0.251 OA
HETATM   39  N1  UNL     1      37.266 -19.611  25.236  1.00  0.00    -0.381 NA
BRANCH  39  40
HETATM   40  C9  UNL     1      37.211 -18.636  26.216  1.00  0.00     0.185 C 
BRANCH  40  41
HETATM   41  C10 UNL     1      37.784 -19.038  27.591  1.00  0.00     0.223 C 
BRANCH  41  42
HETATM   42  O2  UNL     1      37.209 -20.200  28.050  1.00  0.00    -0.395 OA
ATOM     43  H2  UNL     1      37.852 -20.757  28.474  1.00  0.00     0.209 HD
ENDBRANCH  41  42
ENDBRANCH  40  41
ENDBRANCH  39  40
ENDBRANCH   2  37
TORSDOF 11
ENDMDL
MODEL 5
REMARK VINA RESULT: -7.966731147      3.139      5.423
REMARK  11 active torsions:
REMARK  status: ('A' for Active; 'I' for Inactive)
REMARK    1  A    between atoms: C2_2  and  C4_5 
REMARK    2  A    between atoms: C4_5  and  C5_6 
REMARK    3  A    between atoms: C5_6  and  C6_7 
REMARK    4  A    between atoms: C7_8  and  C8_9 
REMARK       I    between atoms: C8_9  and  N1_11 
REMARK    5  A    between atoms: N1_11  and  C9_12 
REMARK    6  A    between atoms: C9_12  and  C10_13 
REMARK    7  A    between atoms: C10_13  and  O2_14 
REMARK    8  A    between atoms: N4_24  and  C15_26 
REMARK    9  A    between atoms: C15_26  and  C16_27 
REMARK   10  A    between atoms: C19_30  and  N5_31 
REMARK   11  A    between atoms: C20_33  and  C21_34 
ROOT
HETATM    1  C6  UNL     1      39.323 -19.601  27.139  1.00  0.00     0.051 A 
HETATM    2  C7  UNL     1      39.707 -19.522  28.443  1.00  0.00     0.066 A 
HETATM    3  C11 UNL     1      39.337 -18.463  29.260  1.00  0.00     0.022 A 
HETATM    4  C12 UNL     1      38.574 -17.452  28.780  1.00  0.00     0.033 A 
HETATM    5  C13 UNL     1      38.172 -17.508  27.444  1.00  0.00     0.063 A 
HETATM    6  N2  UNL     1      37.435 -16.639  26.744  1.00  0.00    -0.298 N 
ATOM      7  H2  UNL     1      37.032 -15.769  27.094  1.00  0.00     0.187 HD
HETATM    8  N3  UNL     1      37.326 -17.116  25.512  1.00  0.00    -0.284 N 
ATOM      9  H3  UNL     1      36.814 -16.656  24.759  1.00  0.00     0.188 HD
HETATM   10  C14 UNL     1      37.978 -18.287  25.384  1.00  0.00     0.130 A 
HETATM   11  N4  UNL     1      38.115 -19.020  24.343  1.00  0.00    -0.374 N 
ATOM     12  H4  UNL     1      38.644 -19.888  24.426  1.00  0.00     0.161 HD
HETATM   13  C29 UNL     1      38.544 -18.569  26.639  1.00  0.00     0.057 A 
ENDROOT
BRANCH  11  14
HETATM   14  C15 UNL     1      37.562 -18.679  23.070  1.00  0.00     0.126 C 
BRANCH  14  15
HETATM   15  C16 UNL     1      36.280 -19.344  22.706  1.00  0.00     0.003 C 
HETATM   16  C17 UNL     1      36.181 -19.963  21.373  1.00  0.00     0.008 C 
HETATM   17  C18 UNL     1      36.018 -21.448  21.297  1.00  0.00     0.025 C 
HETATM   18  C19 UNL     1      35.398 -22.132  22.454  1.00  0.00     0.080 C 
HETATM   19  C27 UNL     1      34.692 -21.048  23.315  1.00  0.00     0.025 C 
HETATM   20  C28 UNL     1      35.826 -20.207  23.863  1.00  0.00     0.008 C 
BRANCH  18  21
HETATM   21  N5  UNL     1      34.481 -23.144  22.272  1.00  0.00    -0.397 N 
HETATM   22  C20 UNL     1      34.648 -24.497  22.248  1.00  0.00     0.060 C 
ATOM     23  H5  UNL     1      33.520 -22.830  22.135  1.00  0.00     0.159 HD
BRANCH  22  24
HETATM   24  C21 UNL     1      35.050 -25.246  23.491  1.00  0.00     0.027 C 
HETATM   25  C22 UNL     1      34.671 -26.733  23.307  1.00  0.00     0.013 C 
HETATM   26  C23 UNL     1      35.736 -27.503  24.007  1.00  0.00     0.044 C 
HETATM   27  C24 UNL     1      36.861 -26.570  24.278  1.00  0.00     0.100 C 
HETATM   28  C25 UNL     1      38.187 -27.176  23.804  1.00  0.00     0.051 C 
HETATM   29  F1  UNL     1      36.976 -26.278  25.624  1.00  0.00    -0.243 F 
HETATM   30  C26 UNL     1      36.585 -25.334  23.501  1.00  0.00     0.052 C 
ENDBRANCH  22  24
ENDBRANCH  18  21
ENDBRANCH  14  15
ENDBRANCH  11  14
BRANCH   1  31
HETATM   31  C5  UNL     1      39.601 -20.727  26.298  1.00  0.00    -0.063 C 
BRANCH  31  32
HETATM   32  C4  UNL     1      39.824 -21.715  25.630  1.00  0.00    -0.075 C 
BRANCH  32  33
HETATM   33  C2  UNL     1      40.051 -22.938  24.854  1.00  0.00     0.093 C 
HETATM   34  C1  UNL     1      39.128 -22.834  23.650  1.00  0.00     0.046 C 
HETATM   35  C3  UNL     1      41.499 -22.994  24.429  1.00  0.00     0.046 C 
HETATM   36 CL1  UNL     1      39.597 -24.414  25.715  1.00  0.00    -0.106 Cl
ENDBRANCH  32  33
ENDBRANCH  31  32
ENDBRANCH   1  31
BRANCH   2  37
HETATM   37  C8  UNL     1      40.648 -20.528  29.028  1.00  0.00     0.327 C 
HETATM   38  O1  UNL     1      41.798 -20.033  29.203  1.00  0.00    -0.251 OA
HETATM   39  N1  UNL     1      40.262 -21.794  29.300  1.00  0.00    -0.381 NA
BRANCH  39  40
HETATM   40  C9  UNL     1      39.869 -23.091  29.578  1.00  0.00     0.185 C 
BRANCH  40  41
HETATM   41  C10 UNL     1      40.985 -24.037  30.066  1.00  0.00     0.223 C 
BRANCH  41  42
HETATM   42  O2  UNL     1      41.942 -23.353  30.779  1.00  0.00    -0.395 OA
ATOM     43  H2  UNL     1      41.807 -22.414  30.721  1.00  0.00     0.209 HD
ENDBRANCH  41  42
ENDBRANCH  40  41
ENDBRANCH  39  40
ENDBRANCH   2  37
TORSDOF 11
ENDMDL
