MODEL 1
REMARK VINA RESULT: -8.274809236      0.000      0.000
REMARK  12 active torsions:
REMARK  status: ('A' for Active; 'I' for Inactive)
REMARK    1  A    between atoms: C2_2  and  C3_3 
REMARK    2  A    between atoms: C4_5  and  O2_6 
REMARK    3  A    between atoms: O2_6  and  C5_7 
REMARK    4  A    between atoms: C11_13  and  C12_14 
REMARK    5  A    between atoms: C13_15  and  C14_16 
REMARK    6  A    between atoms: C18_20  and  O3_21 
REMARK    7  A    between atoms: C23_27  and  N1_28 
REMARK    8  A    between atoms: C24_30  and  O4_31 
REMARK    9  A    between atoms: C28_35  and  C29_36 
REMARK   10  A    between atoms: C29_36  and  O5_37 
REMARK   11  A    between atoms: C30_39  and  O6_40 
REMARK   12  A    between atoms: C31_42  and  O7_43 
ROOT
HETATM    1  C5  UNL     1      38.206 -19.006  24.225  1.00  0.00     0.072 C 
HETATM    2  C6  UNL     1      38.278 -20.012  25.406  1.00  0.00     0.039 C 
HETATM    3  C7  UNL     1      38.449 -21.429  25.047  1.00  0.00     0.013 C 
HETATM    4  C8  UNL     1      37.224 -22.111  24.560  1.00  0.00     0.026 C 
HETATM    5  C9  UNL     1      37.182 -23.578  24.707  1.00  0.00    -0.044 A 
HETATM    6  C10 UNL     1      38.124 -24.340  25.293  1.00  0.00     0.019 A 
HETATM    7  C11 UNL     1      37.958 -25.723  25.367  1.00  0.00    -0.033 A 
HETATM    8  C17 UNL     1      36.840 -26.326  24.846  1.00  0.00     0.048 A 
HETATM    9  C18 UNL     1      35.861 -25.541  24.236  1.00  0.00     0.073 A 
HETATM   10  C19 UNL     1      36.036 -24.178  24.170  1.00  0.00    -0.018 A 
HETATM   11  C20 UNL     1      34.954 -23.414  23.500  1.00  0.00     0.042 C 
HETATM   12  C21 UNL     1      35.359 -22.034  23.067  1.00  0.00     0.012 C 
HETATM   13  C22 UNL     1      36.875 -21.834  23.138  1.00  0.00     0.023 C 
HETATM   14  C23 UNL     1      37.242 -20.517  22.591  1.00  0.00     0.044 C 
HETATM   15  C26 UNL     1      38.688 -20.331  22.236  1.00  0.00     0.035 C 
HETATM   16  C27 UNL     1      39.271 -19.400  23.277  1.00  0.00     0.041 C 
HETATM   17  C28 UNL     1      36.926 -19.346  23.503  1.00  0.00     0.072 C 
ENDROOT
BRANCH   1  18
HETATM   18  O2  UNL     1      38.182 -17.862  24.811  1.00  0.00    -0.347 OA
BRANCH  18  19
HETATM   19  C4  UNL     1      37.513 -17.119  25.609  1.00  0.00     0.292 C 
HETATM   20  O1  UNL     1      37.511 -17.678  26.879  1.00  0.00    -0.350 OA
HETATM   21  C3  UNL     1      37.030 -16.966  27.909  1.00  0.00     0.161 C 
HETATM   22  C32 UNL     1      37.088 -15.485  27.852  1.00  0.00     0.230 C 
HETATM   23  C31 UNL     1      37.206 -14.884  26.499  1.00  0.00     0.188 C 
HETATM   24  F1  UNL     1      38.188 -15.038  28.599  1.00  0.00    -0.244 F 
HETATM   25  C30 UNL     1      38.175 -15.708  25.694  1.00  0.00     0.205 C 
BRANCH  21  26
HETATM   26  C2  UNL     1      37.540 -17.496  29.266  1.00  0.00     0.030 C 
HETATM   27  C1  UNL     1      38.838 -18.250  29.077  1.00  0.00     0.007 C 
ENDBRANCH  21  26
BRANCH  23  28
HETATM   28  O7  UNL     1      37.565 -13.539  26.542  1.00  0.00    -0.390 OA
ATOM     29  H7  UNL     1      36.941 -12.985  26.090  1.00  0.00     0.210 HD
ENDBRANCH  23  28
BRANCH  25  30
HETATM   30  O6  UNL     1      38.304 -15.152  24.455  1.00  0.00    -0.388 OA
ATOM     31  H6  UNL     1      39.206 -14.906  24.283  1.00  0.00     0.210 HD
ENDBRANCH  25  30
ENDBRANCH  18  19
ENDBRANCH   1  18
BRANCH  17  32
HETATM   32  C29 UNL     1      36.427 -18.259  22.569  1.00  0.00     0.174 C 
BRANCH  32  33
HETATM   33  O5  UNL     1      35.124 -17.871  22.841  1.00  0.00    -0.400 OA
ATOM     34  H5  UNL     1      34.478 -18.401  22.389  1.00  0.00     0.209 HD
ENDBRANCH  32  33
ENDBRANCH  17  32
BRANCH  14  35
HETATM   35  N1  UNL     1      36.512 -20.397  21.312  1.00  0.00    -0.371 N 
HETATM   36  C24 UNL     1      37.127 -20.778  20.253  1.00  0.00     0.221 C 
ATOM     37  H1  UNL     1      35.562 -20.029  21.274  1.00  0.00     0.161 HD
BRANCH  36  38
HETATM   38  O4  UNL     1      36.466 -20.676  19.045  1.00  0.00    -0.352 OA
HETATM   39  C25 UNL     1      36.027 -19.405  18.616  1.00  0.00     0.210 C 
ENDBRANCH  36  38
ENDBRANCH  14  35
BRANCH   7  40
HETATM   40  C12 UNL     1      38.997 -26.481  26.005  1.00  0.00     0.008 C 
HETATM   41  C13 UNL     1      39.954 -25.925  26.695  1.00  0.00    -0.022 C 
BRANCH  41  42
HETATM   42  C14 UNL     1      41.036 -26.713  27.359  1.00  0.00    -0.000 C 
HETATM   43  C15 UNL     1      41.713 -27.626  26.395  1.00  0.00     0.013 C 
HETATM   44  C16 UNL     1      40.523 -27.497  28.531  1.00  0.00     0.013 C 
ENDBRANCH  41  42
ENDBRANCH   7  40
BRANCH   9  45
HETATM   45  O3  UNL     1      34.768 -26.228  23.739  1.00  0.00    -0.360 OA
ATOM     46  H3  UNL     1      33.993 -26.219  24.288  1.00  0.00     0.217 HD
ENDBRANCH   9  45
TORSDOF 12
ENDMDL
MODEL 2
REMARK VINA RESULT: -8.025103179      3.003      8.586
REMARK  12 active torsions:
REMARK  status: ('A' for Active; 'I' for Inactive)
REMARK    1  A    between atoms: C2_2  and  C3_3 
REMARK    2  A    between atoms: C4_5  and  O2_6 
REMARK    3  A    between atoms: O2_6  and  C5_7 
REMARK    4  A    between atoms: C11_13  and  C12_14 
REMARK    5  A    between atoms: C13_15  and  C14_16 
REMARK    6  A    between atoms: C18_20  and  O3_21 
REMARK    7  A    between atoms: C23_27  and  N1_28 
REMARK    8  A    between atoms: C24_30  and  O4_31 
REMARK    9  A    between atoms: C28_35  and  C29_36 
REMARK   10  A    between atoms: C29_36  and  O5_37 
REMARK   11  A    between atoms: C30_39  and  O6_40 
REMARK   12  A    between atoms: C31_42  and  O7_43 
ROOT
HETATM    1  C5  UNL     1      35.986 -21.929  23.661  1.00  0.00     0.072 C 
HETATM    2  C6  UNL     1      36.601 -21.182  24.876  1.00  0.00     0.039 C 
HETATM    3  C7  UNL     1      36.689 -19.717  24.766  1.00  0.00     0.013 C 
HETATM    4  C8  UNL     1      37.793 -19.211  23.915  1.00  0.00     0.026 C 
HETATM    5  C9  UNL     1      38.264 -17.840  24.189  1.00  0.00    -0.044 A 
HETATM    6  C10 UNL     1      37.824 -17.037  25.175  1.00  0.00     0.019 A 
HETATM    7  C11 UNL     1      38.359 -15.758  25.325  1.00  0.00    -0.033 A 
HETATM    8  C17 UNL     1      39.336 -15.299  24.476  1.00  0.00     0.048 A 
HETATM    9  C18 UNL     1      39.795 -16.127  23.452  1.00  0.00     0.073 A 
HETATM   10  C19 UNL     1      39.260 -17.387  23.314  1.00  0.00    -0.018 A 
HETATM   11  C20 UNL     1      39.796 -18.204  22.196  1.00  0.00     0.042 C 
HETATM   12  C21 UNL     1      38.920 -19.361  21.812  1.00  0.00     0.012 C 
HETATM   13  C22 UNL     1      37.532 -19.266  22.448  1.00  0.00     0.023 C 
HETATM   14  C23 UNL     1      36.666 -20.348  21.951  1.00  0.00     0.044 C 
HETATM   15  C26 UNL     1      35.193 -20.167  22.172  1.00  0.00     0.035 C 
HETATM   16  C27 UNL     1      34.797 -21.150  23.252  1.00  0.00     0.041 C 
HETATM   17  C28 UNL     1      36.968 -21.715  22.536  1.00  0.00     0.072 C 
ENDROOT
BRANCH   1  18
HETATM   18  O2  UNL     1      35.918 -23.147  24.064  1.00  0.00    -0.347 OA
BRANCH  18  19
HETATM   19  C4  UNL     1      36.267 -24.349  23.799  1.00  0.00     0.292 C 
HETATM   20  O1  UNL     1      37.385 -24.688  24.548  1.00  0.00    -0.350 OA
HETATM   21  C3  UNL     1      37.801 -25.963  24.566  1.00  0.00     0.161 C 
HETATM   22  C32 UNL     1      36.813 -27.048  24.347  1.00  0.00     0.230 C 
HETATM   23  C31 UNL     1      35.561 -26.664  23.645  1.00  0.00     0.188 C 
HETATM   24  F1  UNL     1      36.442 -27.590  25.586  1.00  0.00    -0.244 F 
HETATM   25  C30 UNL     1      35.110 -25.328  24.172  1.00  0.00     0.205 C 
BRANCH  21  26
HETATM   26  C2  UNL     1      38.700 -26.261  25.784  1.00  0.00     0.030 C 
HETATM   27  C1  UNL     1      40.053 -26.761  25.324  1.00  0.00     0.007 C 
ENDBRANCH  21  26
BRANCH  23  28
HETATM   28  O7  UNL     1      34.570 -27.636  23.754  1.00  0.00    -0.390 OA
ATOM     29  H7  UNL     1      34.930 -28.514  23.796  1.00  0.00     0.210 HD
ENDBRANCH  23  28
BRANCH  25  30
HETATM   30  O6  UNL     1      33.950 -24.976  23.546  1.00  0.00    -0.388 OA
ATOM     31  H6  UNL     1      33.256 -25.595  23.740  1.00  0.00     0.210 HD
ENDBRANCH  25  30
ENDBRANCH  18  19
ENDBRANCH   1  18
BRANCH  17  32
HETATM   32  C29 UNL     1      36.804 -22.673  21.371  1.00  0.00     0.174 C 
BRANCH  32  33
HETATM   33  O5  UNL     1      38.013 -23.157  20.895  1.00  0.00    -0.400 OA
ATOM     34  H5  UNL     1      37.939 -23.557  20.037  1.00  0.00     0.209 HD
ENDBRANCH  32  33
ENDBRANCH  17  32
BRANCH  14  35
HETATM   35  N1  UNL     1      36.838 -20.356  20.484  1.00  0.00    -0.371 N 
HETATM   36  C24 UNL     1      36.109 -19.544  19.808  1.00  0.00     0.221 C 
ATOM     37  H1  UNL     1      37.506 -20.978  20.029  1.00  0.00     0.161 HD
BRANCH  36  38
HETATM   38  O4  UNL     1      36.251 -19.532  18.435  1.00  0.00    -0.352 OA
HETATM   39  C25 UNL     1      35.939 -20.702  17.710  1.00  0.00     0.210 C 
ENDBRANCH  36  38
ENDBRANCH  14  35
BRANCH   7  40
HETATM   40  C12 UNL     1      37.849 -14.948  26.396  1.00  0.00     0.008 C 
HETATM   41  C13 UNL     1      36.964 -15.384  27.250  1.00  0.00    -0.022 C 
BRANCH  41  42
HETATM   42  C14 UNL     1      36.432 -14.543  28.365  1.00  0.00    -0.000 C 
HETATM   43  C15 UNL     1      35.387 -15.269  29.141  1.00  0.00     0.013 C 
HETATM   44  C16 UNL     1      35.886 -13.236  27.872  1.00  0.00     0.013 C 
ENDBRANCH  41  42
ENDBRANCH   7  40
BRANCH   9  45
HETATM   45  O3  UNL     1      40.780 -15.587  22.643  1.00  0.00    -0.360 OA
ATOM     46  H3  UNL     1      41.080 -14.720  22.885  1.00  0.00     0.217 HD
ENDBRANCH   9  45
TORSDOF 12
ENDMDL
MODEL 3
REMARK VINA RESULT: -7.879600492      4.253      6.057
REMARK  12 active torsions:
REMARK  status: ('A' for Active; 'I' for Inactive)
REMARK    1  A    between atoms: C2_2  and  C3_3 
REMARK    2  A    between atoms: C4_5  and  O2_6 
REMARK    3  A    between atoms: O2_6  and  C5_7 
REMARK    4  A    between atoms: C11_13  and  C12_14 
REMARK    5  A    between atoms: C13_15  and  C14_16 
REMARK    6  A    between atoms: C18_20  and  O3_21 
REMARK    7  A    between atoms: C23_27  and  N1_28 
REMARK    8  A    between atoms: C24_30  and  O4_31 
REMARK    9  A    between atoms: C28_35  and  C29_36 
REMARK   10  A    between atoms: C29_36  and  O5_37 
REMARK   11  A    between atoms: C30_39  and  O6_40 
REMARK   12  A    between atoms: C31_42  and  O7_43 
ROOT
HETATM    1  C5  UNL     1      39.807 -19.914  27.067  1.00  0.00     0.072 C 
HETATM    2  C6  UNL     1      40.886 -20.048  28.176  1.00  0.00     0.039 C 
HETATM    3  C7  UNL     1      41.968 -21.012  27.922  1.00  0.00     0.013 C 
HETATM    4  C8  UNL     1      41.605 -22.437  28.122  1.00  0.00     0.026 C 
HETATM    5  C9  UNL     1      42.713 -23.366  28.416  1.00  0.00    -0.044 A 
HETATM    6  C10 UNL     1      44.005 -23.027  28.577  1.00  0.00     0.019 A 
HETATM    7  C11 UNL     1      44.956 -24.009  28.856  1.00  0.00    -0.033 A 
HETATM    8  C17 UNL     1      44.593 -25.328  28.969  1.00  0.00     0.048 A 
HETATM    9  C18 UNL     1      43.255 -25.685  28.803  1.00  0.00     0.073 A 
HETATM   10  C19 UNL     1      42.326 -24.708  28.528  1.00  0.00    -0.018 A 
HETATM   11  C20 UNL     1      40.925 -25.169  28.358  1.00  0.00     0.042 C 
HETATM   12  C21 UNL     1      40.040 -24.182  27.652  1.00  0.00     0.012 C 
HETATM   13  C22 UNL     1      40.843 -23.055  26.999  1.00  0.00     0.023 C 
HETATM   14  C23 UNL     1      39.954 -22.181  26.217  1.00  0.00     0.044 C 
HETATM   15  C26 UNL     1      40.625 -21.281  25.221  1.00  0.00     0.035 C 
HETATM   16  C27 UNL     1      40.535 -19.878  25.780  1.00  0.00     0.041 C 
HETATM   17  C28 UNL     1      39.098 -21.245  27.051  1.00  0.00     0.072 C 
ENDROOT
BRANCH   1  18
HETATM   18  O2  UNL     1      39.074 -18.942  27.481  1.00  0.00    -0.347 OA
BRANCH  18  19
HETATM   19  C4  UNL     1      39.012 -17.671  27.610  1.00  0.00     0.292 C 
HETATM   20  O1  UNL     1      39.640 -17.060  26.535  1.00  0.00    -0.350 OA
HETATM   21  C3  UNL     1      39.524 -15.733  26.374  1.00  0.00     0.161 C 
HETATM   22  C32 UNL     1      38.319 -15.045  26.898  1.00  0.00     0.230 C 
HETATM   23  C31 UNL     1      37.576 -15.751  27.974  1.00  0.00     0.188 C 
HETATM   24  F1  UNL     1      37.416 -14.830  25.846  1.00  0.00    -0.244 F 
HETATM   25  C30 UNL     1      37.519 -17.215  27.632  1.00  0.00     0.205 C 
BRANCH  21  26
HETATM   26  C2  UNL     1      39.834 -15.296  24.926  1.00  0.00     0.030 C 
HETATM   27  C1  UNL     1      40.668 -16.351  24.231  1.00  0.00     0.007 C 
ENDBRANCH  21  26
BRANCH  23  28
HETATM   28  O7  UNL     1      36.311 -15.210  28.191  1.00  0.00    -0.390 OA
ATOM     29  H7  UNL     1      36.292 -14.629  28.941  1.00  0.00     0.210 HD
ENDBRANCH  23  28
BRANCH  25  30
HETATM   30  O6  UNL     1      36.822 -17.870  28.605  1.00  0.00    -0.388 OA
ATOM     31  H6  UNL     1      37.398 -18.155  29.305  1.00  0.00     0.210 HD
ENDBRANCH  25  30
ENDBRANCH  18  19
ENDBRANCH   1  18
BRANCH  17  32
HETATM   32  C29 UNL     1      37.754 -21.230  26.348  1.00  0.00     0.174 C 
BRANCH  32  33
HETATM   33  O5  UNL     1      36.782 -20.539  27.056  1.00  0.00    -0.400 OA
ATOM     34  H5  UNL     1      35.899 -20.785  26.809  1.00  0.00     0.209 HD
ENDBRANCH  32  33
ENDBRANCH  17  32
BRANCH  14  35
HETATM   35  N1  UNL     1      39.109 -23.086  25.412  1.00  0.00    -0.371 N 
HETATM   36  C24 UNL     1      39.484 -23.313  24.206  1.00  0.00     0.221 C 
ATOM     37  H1  UNL     1      38.266 -23.511  25.797  1.00  0.00     0.161 HD
BRANCH  36  38
HETATM   38  O4  UNL     1      38.712 -24.157  23.433  1.00  0.00    -0.352 OA
HETATM   39  C25 UNL     1      37.445 -24.549  23.915  1.00  0.00     0.210 C 
ENDBRANCH  36  38
ENDBRANCH  14  35
BRANCH   7  40
HETATM   40  C12 UNL     1      46.318 -23.585  29.017  1.00  0.00     0.008 C 
HETATM   41  C13 UNL     1      46.652 -22.538  29.720  1.00  0.00    -0.022 C 
BRANCH  41  42
HETATM   42  C14 UNL     1      48.070 -22.095  29.889  1.00  0.00    -0.000 C 
HETATM   43  C15 UNL     1      48.967 -23.247  30.186  1.00  0.00     0.013 C 
HETATM   44  C16 UNL     1      48.209 -21.051  30.958  1.00  0.00     0.013 C 
ENDBRANCH  41  42
ENDBRANCH   7  40
BRANCH   9  45
HETATM   45  O3  UNL     1      42.975 -27.034  28.934  1.00  0.00    -0.360 OA
ATOM     46  H3  UNL     1      42.170 -27.244  29.392  1.00  0.00     0.217 HD
ENDBRANCH   9  45
TORSDOF 12
ENDMDL
MODEL 4
REMARK VINA RESULT: -7.819530330      4.874      9.929
REMARK  12 active torsions:
REMARK  status: ('A' for Active; 'I' for Inactive)
REMARK    1  A    between atoms: C2_2  and  C3_3 
REMARK    2  A    between atoms: C4_5  and  O2_6 
REMARK    3  A    between atoms: O2_6  and  C5_7 
REMARK    4  A    between atoms: C11_13  and  C12_14 
REMARK    5  A    between atoms: C13_15  and  C14_16 
REMARK    6  A    between atoms: C18_20  and  O3_21 
REMARK    7  A    between atoms: C23_27  and  N1_28 
REMARK    8  A    between atoms: C24_30  and  O4_31 
REMARK    9  A    between atoms: C28_35  and  C29_36 
REMARK   10  A    between atoms: C29_36  and  O5_37 
REMARK   11  A    between atoms: C30_39  and  O6_40 
REMARK   12  A    between atoms: C31_42  and  O7_43 
ROOT
HETATM    1  C5  UNL     1      41.090 -23.719  27.310  1.00  0.00     0.072 C 
HETATM    2  C6  UNL     1      39.652 -23.416  26.809  1.00  0.00     0.039 C 
HETATM    3  C7  UNL     1      39.450 -22.116  26.149  1.00  0.00     0.013 C 
HETATM    4  C8  UNL     1      39.363 -20.949  27.062  1.00  0.00     0.026 C 
HETATM    5  C9  UNL     1      38.645 -19.765  26.553  1.00  0.00    -0.044 A 
HETATM    6  C10 UNL     1      38.016 -19.673  25.367  1.00  0.00     0.019 A 
HETATM    7  C11 UNL     1      37.371 -18.489  25.009  1.00  0.00    -0.033 A 
HETATM    8  C17 UNL     1      37.366 -17.406  25.853  1.00  0.00     0.048 A 
HETATM    9  C18 UNL     1      38.018 -17.497  27.083  1.00  0.00     0.073 A 
HETATM   10  C19 UNL     1      38.651 -18.669  27.426  1.00  0.00    -0.018 A 
HETATM   11  C20 UNL     1      39.327 -18.684  28.747  1.00  0.00     0.042 C 
HETATM   12  C21 UNL     1      40.342 -19.779  28.902  1.00  0.00     0.012 C 
HETATM   13  C22 UNL     1      40.673 -20.446  27.565  1.00  0.00     0.023 C 
HETATM   14  C23 UNL     1      41.758 -21.427  27.738  1.00  0.00     0.044 C 
HETATM   15  C26 UNL     1      42.450 -21.871  26.482  1.00  0.00     0.035 C 
HETATM   16  C27 UNL     1      42.006 -23.295  26.228  1.00  0.00     0.041 C 
HETATM   17  C28 UNL     1      41.337 -22.719  28.412  1.00  0.00     0.072 C 
ENDROOT
BRANCH   1  18
HETATM   18  O2  UNL     1      41.012 -24.934  27.721  1.00  0.00    -0.347 OA
BRANCH  18  19
HETATM   19  C4  UNL     1      41.523 -26.102  27.611  1.00  0.00     0.292 C 
HETATM   20  O1  UNL     1      42.894 -25.998  27.427  1.00  0.00    -0.350 OA
HETATM   21  C3  UNL     1      43.649 -27.105  27.480  1.00  0.00     0.161 C 
HETATM   22  C32 UNL     1      43.189 -28.254  28.298  1.00  0.00     0.230 C 
HETATM   23  C31 UNL     1      41.735 -28.308  28.596  1.00  0.00     0.188 C 
HETATM   24  F1  UNL     1      43.862 -28.241  29.529  1.00  0.00    -0.244 F 
HETATM   25  C30 UNL     1      41.262 -26.916  28.917  1.00  0.00     0.205 C 
BRANCH  21  26
HETATM   26  C2  UNL     1      45.133 -26.781  27.753  1.00  0.00     0.030 C 
HETATM   27  C1  UNL     1      45.264 -25.392  28.340  1.00  0.00     0.007 C 
ENDBRANCH  21  26
BRANCH  23  28
HETATM   28  O7  UNL     1      41.431 -29.216  29.607  1.00  0.00    -0.390 OA
ATOM     29  H7  UNL     1      40.948 -29.967  29.283  1.00  0.00     0.210 HD
ENDBRANCH  23  28
BRANCH  25  30
HETATM   30  O6  UNL     1      39.930 -26.958  29.210  1.00  0.00    -0.388 OA
ATOM     31  H6  UNL     1      39.723 -26.388  29.942  1.00  0.00     0.210 HD
ENDBRANCH  25  30
ENDBRANCH  18  19
ENDBRANCH   1  18
BRANCH  17  32
HETATM   32  C29 UNL     1      42.497 -23.068  29.325  1.00  0.00     0.174 C 
BRANCH  32  33
HETATM   33  O5  UNL     1      42.254 -22.748  30.653  1.00  0.00    -0.400 OA
ATOM     34  H5  UNL     1      42.211 -21.812  30.805  1.00  0.00     0.209 HD
ENDBRANCH  32  33
ENDBRANCH  17  32
BRANCH  14  35
HETATM   35  N1  UNL     1      42.798 -20.737  28.528  1.00  0.00    -0.371 N 
HETATM   36  C24 UNL     1      43.983 -20.717  28.039  1.00  0.00     0.221 C 
ATOM     37  H1  UNL     1      42.582 -20.298  29.423  1.00  0.00     0.161 HD
BRANCH  36  38
HETATM   38  O4  UNL     1      44.973 -20.078  28.759  1.00  0.00    -0.352 OA
HETATM   39  C25 UNL     1      45.158 -20.425  30.114  1.00  0.00     0.210 C 
ENDBRANCH  36  38
ENDBRANCH  14  35
BRANCH   7  40
HETATM   40  C12 UNL     1      36.717 -18.452  23.731  1.00  0.00     0.008 C 
HETATM   41  C13 UNL     1      36.211 -19.514  23.166  1.00  0.00    -0.022 C 
BRANCH  41  42
HETATM   42  C14 UNL     1      35.530 -19.477  21.836  1.00  0.00    -0.000 C 
HETATM   43  C15 UNL     1      36.357 -20.136  20.785  1.00  0.00     0.013 C 
HETATM   44  C16 UNL     1      35.191 -18.077  21.417  1.00  0.00     0.013 C 
ENDBRANCH  41  42
ENDBRANCH   7  40
BRANCH   9  45
HETATM   45  O3  UNL     1      37.965 -16.361  27.873  1.00  0.00    -0.360 OA
ATOM     46  H3  UNL     1      37.095 -16.084  28.136  1.00  0.00     0.217 HD
ENDBRANCH   9  45
TORSDOF 12
ENDMDL
MODEL 5
REMARK VINA RESULT: -7.705827731      5.671      9.637
REMARK  12 active torsions:
REMARK  status: ('A' for Active; 'I' for Inactive)
REMARK    1  A    between atoms: C2_2  and  C3_3 
REMARK    2  A    between atoms: C4_5  and  O2_6 
REMARK    3  A    between atoms: O2_6  and  C5_7 
REMARK    4  A    between atoms: C11_13  and  C12_14 
REMARK    5  A    between atoms: C13_15  and  C14_16 
REMARK    6  A    between atoms: C18_20  and  O3_21 
REMARK    7  A    between atoms: C23_27  and  N1_28 
REMARK    8  A    between atoms: C24_30  and  O4_31 
REMARK    9  A    between atoms: C28_35  and  C29_36 
REMARK   10  A    between atoms: C29_36  and  O5_37 
REMARK   11  A    between atoms: C30_39  and  O6_40 
REMARK   12  A    between atoms: C31_42  and  O7_43 
ROOT
HETATM    1  C5  UNL     1      42.430 -22.768  29.667  1.00  0.00     0.072 C 
HETATM    2  C6  UNL     1      42.385 -21.217  29.747  1.00  0.00     0.039 C 
HETATM    3  C7  UNL     1      41.190 -20.568  29.186  1.00  0.00     0.013 C 
HETATM    4  C8  UNL     1      41.156 -20.479  27.705  1.00  0.00     0.026 C 
HETATM    5  C9  UNL     1      40.317 -19.411  27.127  1.00  0.00    -0.044 A 
HETATM    6  C10 UNL     1      39.635 -18.481  27.821  1.00  0.00     0.019 A 
HETATM    7  C11 UNL     1      38.879 -17.522  27.147  1.00  0.00    -0.033 A 
HETATM    8  C17 UNL     1      38.818 -17.510  25.775  1.00  0.00     0.048 A 
HETATM    9  C18 UNL     1      39.523 -18.472  25.052  1.00  0.00     0.073 A 
HETATM   10  C19 UNL     1      40.265 -19.413  25.727  1.00  0.00    -0.018 A 
HETATM   11  C20 UNL     1      40.980 -20.406  24.887  1.00  0.00     0.042 C 
HETATM   12  C21 UNL     1      41.409 -21.639  25.630  1.00  0.00     0.012 C 
HETATM   13  C22 UNL     1      40.752 -21.733  27.009  1.00  0.00     0.023 C 
HETATM   14  C23 UNL     1      41.100 -23.011  27.654  1.00  0.00     0.044 C 
HETATM   15  C26 UNL     1      40.240 -23.419  28.814  1.00  0.00     0.035 C 
HETATM   16  C27 UNL     1      41.084 -23.243  30.057  1.00  0.00     0.041 C 
HETATM   17  C28 UNL     1      42.516 -23.079  28.194  1.00  0.00     0.072 C 
ENDROOT
BRANCH   1  18
HETATM   18  O2  UNL     1      43.493 -23.069  30.323  1.00  0.00    -0.347 OA
BRANCH  18  19
HETATM   19  C4  UNL     1      44.772 -23.070  30.283  1.00  0.00     0.292 C 
HETATM   20  O1  UNL     1      45.205 -22.439  29.126  1.00  0.00    -0.350 OA
HETATM   21  C3  UNL     1      46.509 -22.162  28.977  1.00  0.00     0.161 C 
HETATM   22  C32 UNL     1      47.342 -21.946  30.185  1.00  0.00     0.230 C 
HETATM   23  C31 UNL     1      46.825 -22.523  31.452  1.00  0.00     0.188 C 
HETATM   24  F1  UNL     1      47.502 -20.568  30.394  1.00  0.00    -0.244 F 
HETATM   25  C30 UNL     1      45.339 -22.290  31.510  1.00  0.00     0.205 C 
BRANCH  21  26
HETATM   26  C2  UNL     1      46.750 -21.060  27.925  1.00  0.00     0.030 C 
HETATM   27  C1  UNL     1      45.430 -20.478  27.467  1.00  0.00     0.007 C 
ENDBRANCH  21  26
BRANCH  23  28
HETATM   28  O7  UNL     1      47.482 -22.022  32.573  1.00  0.00    -0.390 OA
ATOM     29  H7  UNL     1      46.883 -21.624  33.194  1.00  0.00     0.210 HD
ENDBRANCH  23  28
BRANCH  25  30
HETATM   30  O6  UNL     1      44.857 -22.800  32.680  1.00  0.00    -0.388 OA
ATOM     31  H6  UNL     1      44.018 -22.412  32.902  1.00  0.00     0.210 HD
ENDBRANCH  25  30
ENDBRANCH  18  19
ENDBRANCH   1  18
BRANCH  17  32
HETATM   32  C29 UNL     1      42.978 -24.489  27.878  1.00  0.00     0.174 C 
BRANCH  32  33
HETATM   33  O5  UNL     1      44.126 -24.520  27.100  1.00  0.00    -0.400 OA
ATOM     34  H5  UNL     1      44.858 -24.070  27.504  1.00  0.00     0.209 HD
ENDBRANCH  32  33
ENDBRANCH  17  32
BRANCH  14  35
HETATM   35  N1  UNL     1      40.881 -24.050  26.627  1.00  0.00    -0.371 N 
HETATM   36  C24 UNL     1      39.761 -24.675  26.660  1.00  0.00     0.221 C 
ATOM     37  H1  UNL     1      41.588 -24.261  25.922  1.00  0.00     0.161 HD
BRANCH  36  38
HETATM   38  O4  UNL     1      39.531 -25.650  25.711  1.00  0.00    -0.352 OA
HETATM   39  C25 UNL     1      40.416 -26.747  25.637  1.00  0.00     0.210 C 
ENDBRANCH  36  38
ENDBRANCH  14  35
BRANCH   7  40
HETATM   40  C12 UNL     1      38.174 -16.556  27.941  1.00  0.00     0.008 C 
HETATM   41  C13 UNL     1      37.487 -15.578  27.417  1.00  0.00    -0.022 C 
BRANCH  41  42
HETATM   42  C14 UNL     1      36.753 -14.571  28.243  1.00  0.00    -0.000 C 
HETATM   43  C15 UNL     1      35.582 -15.185  28.931  1.00  0.00     0.013 C 
HETATM   44  C16 UNL     1      36.306 -13.394  27.427  1.00  0.00     0.013 C 
ENDBRANCH  41  42
ENDBRANCH   7  40
BRANCH   9  45
HETATM   45  O3  UNL     1      39.408 -18.388  23.675  1.00  0.00    -0.360 OA
ATOM     46  H3  UNL     1      40.220 -18.252  23.202  1.00  0.00     0.217 HD
ENDBRANCH   9  45
TORSDOF 12
ENDMDL
