MODEL 1
REMARK VINA RESULT: -7.154093361      0.000      0.000
REMARK  12 active torsions:
REMARK  status: ('A' for Active; 'I' for Inactive)
REMARK    1  A    between atoms: C4_4  and  N1_5 
REMARK    2  A    between atoms: C7_8  and  O1_9 
REMARK    3  A    between atoms: C8_11  and  O2_12 
REMARK    4  A    between atoms: O2_12  and  C9_13 
REMARK    5  A    between atoms: C18_23  and  N2_24 
REMARK    6  A    between atoms: N2_24  and  C19_26 
REMARK    7  A    between atoms: C19_26  and  C20_27 
REMARK    8  A    between atoms: C20_27  and  C21_28 
REMARK    9  A    between atoms: C21_28  and  N3_29 
REMARK   10  A    between atoms: C23_34  and  C24_35 
REMARK   11  A    between atoms: C24_35  and  C25_36 
REMARK   12  A    between atoms: C25_36  and  N4_37 
ROOT
HETATM    1  C9  UNL     1      -1.107  38.475  27.027  1.00  0.00     0.142 C 
HETATM    2  C10 UNL     1      -0.150  38.800  28.109  1.00  0.00     0.034 C 
HETATM    3  C11 UNL     1      -0.843  38.618  29.443  1.00  0.00     0.017 C 
HETATM    4  C12 UNL     1       0.445  40.151  28.087  1.00  0.00    -0.023 C 
HETATM    5  C13 UNL     1       1.499  40.480  28.817  1.00  0.00    -0.023 C 
HETATM    6  C14 UNL     1       2.239  39.607  29.743  1.00  0.00     0.105 C 
HETATM    7  C15 UNL     1       3.727  39.825  29.559  1.00  0.00     0.139 C 
HETATM    8  O3  UNL     1       4.070  40.731  28.832  1.00  0.00    -0.297 OA
HETATM    9  C16 UNL     1       4.679  38.921  30.278  1.00  0.00     0.101 C 
HETATM   10  C17 UNL     1       4.723  39.517  31.700  1.00  0.00     0.024 C 
HETATM   11  C18 UNL     1       5.979  38.720  29.690  1.00  0.00     0.023 C 
HETATM   12  C22 UNL     1       6.311  37.801  28.765  1.00  0.00     0.001 C 
HETATM   13  C23 UNL     1       7.305  37.171  27.897  1.00  0.00     0.157 C 
HETATM   14  O4  UNL     1       6.554  35.990  27.943  1.00  0.00    -0.371 OA
HETATM   15  C28 UNL     1       5.427  36.852  28.117  1.00  0.00     0.160 C 
HETATM   16  C29 UNL     1       4.831  37.195  26.805  1.00  0.00     0.019 C 
HETATM   17  C30 UNL     1       5.162  38.520  26.216  1.00  0.00     0.013 C 
HETATM   18  C31 UNL     1       3.313  37.023  26.744  1.00  0.00    -0.012 C 
HETATM   19  C32 UNL     1       2.867  35.779  27.438  1.00  0.00     0.010 C 
HETATM   20  C33 UNL     1       2.822  37.038  25.330  1.00  0.00     0.016 C 
HETATM   21  C34 UNL     1       1.329  37.152  25.196  1.00  0.00     0.052 C 
HETATM   22  C35 UNL     1       0.987  36.708  23.780  1.00  0.00     0.018 C 
HETATM   23  C36 UNL     1       0.799  38.529  25.380  1.00  0.00     0.137 C 
HETATM   24  O5  UNL     1       1.540  39.460  25.329  1.00  0.00    -0.297 OA
HETATM   25  C37 UNL     1      -0.640  38.713  25.618  1.00  0.00     0.081 C 
HETATM   26  C38 UNL     1      -1.120  40.073  25.100  1.00  0.00     0.020 C 
ENDROOT
BRANCH   1  27
HETATM   27  O2  UNL     1      -2.351  39.090  27.132  1.00  0.00    -0.352 OA
BRANCH  27  28
HETATM   28  C8  UNL     1      -3.417  38.194  27.280  1.00  0.00     0.291 C 
HETATM   29  C7  UNL     1      -4.762  38.793  27.161  1.00  0.00     0.195 C 
HETATM   30  C4  UNL     1      -5.633  38.307  26.042  1.00  0.00     0.114 C 
HETATM   31  C3  UNL     1      -5.426  36.858  25.703  1.00  0.00     0.059 C 
HETATM   32  C2  UNL     1      -4.197  36.290  26.374  1.00  0.00     0.122 C 
HETATM   33  C1  UNL     1      -3.853  34.970  25.674  1.00  0.00     0.040 C 
HETATM   34  O6  UNL     1      -3.142  37.160  26.377  1.00  0.00    -0.354 OA
BRANCH  29  35
HETATM   35  O1  UNL     1      -5.433  38.623  28.399  1.00  0.00    -0.389 OA
ATOM     36  H1  UNL     1      -4.900  38.097  28.984  1.00  0.00     0.210 HD
ENDBRANCH  29  35
BRANCH  30  37
HETATM   37  N1  UNL     1      -5.604  39.089  24.851  1.00  0.00    -0.414 N 
HETATM   38  C5  UNL     1      -5.453  38.398  23.620  1.00  0.00     0.143 C 
HETATM   39  C6  UNL     1      -4.892  40.323  24.939  1.00  0.00     0.143 C 
ENDBRANCH  30  37
ENDBRANCH  27  28
ENDBRANCH   1  27
BRANCH  11  40
HETATM   40  N2  UNL     1       7.071  39.592  30.110  1.00  0.00    -0.392 N 
ATOM     41  H2  UNL     1       7.434  39.474  31.056  1.00  0.00     0.159 HD
BRANCH  40  42
HETATM   42  C19 UNL     1       7.663  40.590  29.299  1.00  0.00     0.121 C 
BRANCH  42  43
HETATM   43  C20 UNL     1       8.522  41.612  29.981  1.00  0.00     0.047 C 
BRANCH  43  44
HETATM   44  C21 UNL     1       9.931  41.238  30.250  1.00  0.00     0.231 C 
BRANCH  44  45
HETATM   45  N3  UNL     1      10.620  42.237  31.008  1.00  0.00    -0.079 N 
ATOM     46  H33 UNL     1      11.630  42.093  30.976  1.00  0.00     0.274 HD
ATOM     47  H32 UNL     1      10.571  43.147  30.550  1.00  0.00     0.274 HD
ATOM     48  H31 UNL     1      10.286  42.290  31.971  1.00  0.00     0.274 HD
ENDBRANCH  44  45
ENDBRANCH  43  44
ENDBRANCH  42  43
ENDBRANCH  40  42
ENDBRANCH  11  40
BRANCH  13  49
HETATM   49  C24 UNL     1       8.689  36.960  28.485  1.00  0.00     0.067 C 
BRANCH  49  50
HETATM   50  C25 UNL     1       9.072  35.517  28.215  1.00  0.00     0.274 C 
BRANCH  50  51
HETATM   51  N4  UNL     1       9.774  34.934  29.332  1.00  0.00     0.080 N 
HETATM   52  C26 UNL     1      10.015  33.540  29.032  1.00  0.00     0.309 C 
HETATM   53  C27 UNL     1       8.977  35.015  30.535  1.00  0.00     0.309 C 
ENDBRANCH  50  51
ENDBRANCH  49  50
ENDBRANCH  13  49
TORSDOF 12
ENDMDL
MODEL 2
REMARK VINA RESULT: -7.132212167      6.893     10.910
REMARK  12 active torsions:
REMARK  status: ('A' for Active; 'I' for Inactive)
REMARK    1  A    between atoms: C4_4  and  N1_5 
REMARK    2  A    between atoms: C7_8  and  O1_9 
REMARK    3  A    between atoms: C8_11  and  O2_12 
REMARK    4  A    between atoms: O2_12  and  C9_13 
REMARK    5  A    between atoms: C18_23  and  N2_24 
REMARK    6  A    between atoms: N2_24  and  C19_26 
REMARK    7  A    between atoms: C19_26  and  C20_27 
REMARK    8  A    between atoms: C20_27  and  C21_28 
REMARK    9  A    between atoms: C21_28  and  N3_29 
REMARK   10  A    between atoms: C23_34  and  C24_35 
REMARK   11  A    between atoms: C24_35  and  C25_36 
REMARK   12  A    between atoms: C25_36  and  N4_37 
ROOT
HETATM    1  C9  UNL     1       7.390  42.053  20.184  1.00  0.00     0.142 C 
HETATM    2  C10 UNL     1       7.648  41.719  21.604  1.00  0.00     0.034 C 
HETATM    3  C11 UNL     1       8.483  42.822  22.219  1.00  0.00     0.017 C 
HETATM    4  C12 UNL     1       8.324  40.434  21.872  1.00  0.00    -0.023 C 
HETATM    5  C13 UNL     1       8.373  39.890  23.078  1.00  0.00    -0.023 C 
HETATM    6  C14 UNL     1       7.795  40.436  24.317  1.00  0.00     0.105 C 
HETATM    7  C15 UNL     1       7.120  39.321  25.090  1.00  0.00     0.139 C 
HETATM    8  O3  UNL     1       7.271  38.191  24.681  1.00  0.00    -0.297 OA
HETATM    9  C16 UNL     1       6.317  39.673  26.303  1.00  0.00     0.101 C 
HETATM   10  C17 UNL     1       7.390  39.843  27.398  1.00  0.00     0.024 C 
HETATM   11  C18 UNL     1       5.244  38.785  26.672  1.00  0.00     0.023 C 
HETATM   12  C22 UNL     1       3.977  38.820  26.219  1.00  0.00     0.001 C 
HETATM   13  C23 UNL     1       2.615  38.288  26.206  1.00  0.00     0.157 C 
HETATM   14  O4  UNL     1       2.153  39.560  25.849  1.00  0.00    -0.371 OA
HETATM   15  C28 UNL     1       3.429  39.719  25.223  1.00  0.00     0.160 C 
HETATM   16  C29 UNL     1       3.369  39.286  23.808  1.00  0.00     0.019 C 
HETATM   17  C30 UNL     1       3.895  37.937  23.472  1.00  0.00     0.013 C 
HETATM   18  C31 UNL     1       3.978  40.283  22.823  1.00  0.00    -0.012 C 
HETATM   19  C32 UNL     1       3.617  41.691  23.163  1.00  0.00     0.010 C 
HETATM   20  C33 UNL     1       3.579  39.967  21.415  1.00  0.00     0.016 C 
HETATM   21  C34 UNL     1       4.350  40.724  20.369  1.00  0.00     0.052 C 
HETATM   22  C35 UNL     1       3.540  40.630  19.082  1.00  0.00     0.018 C 
HETATM   23  C36 UNL     1       5.706  40.180  20.093  1.00  0.00     0.137 C 
HETATM   24  O5  UNL     1       5.990  39.082  20.457  1.00  0.00    -0.297 OA
HETATM   25  C37 UNL     1       6.674  41.014  19.366  1.00  0.00     0.081 C 
HETATM   26  C38 UNL     1       7.667  40.155  18.575  1.00  0.00     0.020 C 
ENDROOT
BRANCH   1  27
HETATM   27  O2  UNL     1       8.512  42.421  19.449  1.00  0.00    -0.352 OA
BRANCH  27  28
HETATM   28  C8  UNL     1       8.347  43.601  18.714  1.00  0.00     0.291 C 
HETATM   29  C7  UNL     1       9.100  44.767  19.219  1.00  0.00     0.195 C 
HETATM   30  C4  UNL     1      10.136  45.361  18.312  1.00  0.00     0.114 C 
HETATM   31  C3  UNL     1       9.780  45.274  16.855  1.00  0.00     0.059 C 
HETATM   32  C2  UNL     1       8.598  44.364  16.614  1.00  0.00     0.122 C 
HETATM   33  C1  UNL     1       8.565  44.031  15.118  1.00  0.00     0.040 C 
HETATM   34  O6  UNL     1       8.625  43.239  17.390  1.00  0.00    -0.354 OA
BRANCH  29  35
HETATM   35  O1  UNL     1       8.168  45.765  19.601  1.00  0.00    -0.389 OA
ATOM     36  H1  UNL     1       7.535  45.398  20.207  1.00  0.00     0.210 HD
ENDBRANCH  29  35
BRANCH  30  37
HETATM   37  N1  UNL     1      11.469  44.902  18.511  1.00  0.00    -0.414 N 
HETATM   38  C5  UNL     1      12.090  44.214  17.435  1.00  0.00     0.143 C 
HETATM   39  C6  UNL     1      11.755  44.374  19.806  1.00  0.00     0.143 C 
ENDBRANCH  30  37
ENDBRANCH  27  28
ENDBRANCH   1  27
BRANCH  11  40
HETATM   40  N2  UNL     1       5.526  37.717  27.625  1.00  0.00    -0.392 N 
ATOM     41  H2  UNL     1       5.276  37.875  28.601  1.00  0.00     0.159 HD
BRANCH  40  42
HETATM   42  C19 UNL     1       6.122  36.476  27.293  1.00  0.00     0.121 C 
BRANCH  42  43
HETATM   43  C20 UNL     1       7.504  36.216  27.812  1.00  0.00     0.047 C 
BRANCH  43  44
HETATM   44  C21 UNL     1       8.435  35.491  26.915  1.00  0.00     0.231 C 
BRANCH  44  45
HETATM   45  N3  UNL     1       8.075  35.627  25.536  1.00  0.00    -0.079 N 
ATOM     46  H33 UNL     1       7.349  36.334  25.413  1.00  0.00     0.274 HD
ATOM     47  H32 UNL     1       8.823  36.068  25.001  1.00  0.00     0.274 HD
ATOM     48  H31 UNL     1       7.797  34.738  25.120  1.00  0.00     0.274 HD
ENDBRANCH  44  45
ENDBRANCH  43  44
ENDBRANCH  42  43
ENDBRANCH  40  42
ENDBRANCH  11  40
BRANCH  13  49
HETATM   49  C24 UNL     1       2.039  37.855  27.543  1.00  0.00     0.067 C 
BRANCH  49  50
HETATM   50  C25 UNL     1       2.074  36.339  27.571  1.00  0.00     0.274 C 
BRANCH  50  51
HETATM   51  N4  UNL     1       0.926  35.793  28.252  1.00  0.00     0.080 N 
HETATM   52  C26 UNL     1      -0.259  36.419  27.707  1.00  0.00     0.309 C 
HETATM   53  C27 UNL     1       0.987  36.079  29.668  1.00  0.00     0.309 C 
ENDBRANCH  50  51
ENDBRANCH  49  50
ENDBRANCH  13  49
TORSDOF 12
ENDMDL
MODEL 3
REMARK VINA RESULT: -6.923027722      7.888     10.241
REMARK  12 active torsions:
REMARK  status: ('A' for Active; 'I' for Inactive)
REMARK    1  A    between atoms: C4_4  and  N1_5 
REMARK    2  A    between atoms: C7_8  and  O1_9 
REMARK    3  A    between atoms: C8_11  and  O2_12 
REMARK    4  A    between atoms: O2_12  and  C9_13 
REMARK    5  A    between atoms: C18_23  and  N2_24 
REMARK    6  A    between atoms: N2_24  and  C19_26 
REMARK    7  A    between atoms: C19_26  and  C20_27 
REMARK    8  A    between atoms: C20_27  and  C21_28 
REMARK    9  A    between atoms: C21_28  and  N3_29 
REMARK   10  A    between atoms: C23_34  and  C24_35 
REMARK   11  A    between atoms: C24_35  and  C25_36 
REMARK   12  A    between atoms: C25_36  and  N4_37 
ROOT
HETATM    1  C9  UNL     1       5.155  39.176  23.231  1.00  0.00     0.142 C 
HETATM    2  C10 UNL     1       6.568  39.559  23.453  1.00  0.00     0.034 C 
HETATM    3  C11 UNL     1       7.232  38.500  24.308  1.00  0.00     0.017 C 
HETATM    4  C12 UNL     1       6.810  40.870  24.087  1.00  0.00    -0.023 C 
HETATM    5  C13 UNL     1       8.000  41.451  24.097  1.00  0.00    -0.023 C 
HETATM    6  C14 UNL     1       9.244  40.925  23.512  1.00  0.00     0.105 C 
HETATM    7  C15 UNL     1       9.971  42.042  22.791  1.00  0.00     0.139 C 
HETATM    8  O3  UNL     1       9.532  43.163  22.917  1.00  0.00    -0.297 OA
HETATM    9  C16 UNL     1      11.179  41.702  21.975  1.00  0.00     0.101 C 
HETATM   10  C17 UNL     1      12.299  41.596  23.032  1.00  0.00     0.024 C 
HETATM   11  C18 UNL     1      11.502  42.568  20.871  1.00  0.00     0.023 C 
HETATM   12  C22 UNL     1      11.028  42.482  19.614  1.00  0.00     0.001 C 
HETATM   13  C23 UNL     1      10.975  42.974  18.238  1.00  0.00     0.157 C 
HETATM   14  O4  UNL     1      10.647  41.679  17.819  1.00  0.00    -0.371 OA
HETATM   15  C28 UNL     1      10.050  41.539  19.111  1.00  0.00     0.160 C 
HETATM   16  C29 UNL     1       8.622  41.929  19.065  1.00  0.00     0.019 C 
HETATM   17  C30 UNL     1       8.255  43.282  19.559  1.00  0.00     0.013 C 
HETATM   18  C31 UNL     1       7.678  40.921  19.721  1.00  0.00    -0.012 C 
HETATM   19  C32 UNL     1       8.053  39.514  19.395  1.00  0.00     0.010 C 
HETATM   20  C33 UNL     1       6.254  41.184  19.340  1.00  0.00     0.016 C 
HETATM   21  C34 UNL     1       5.246  40.420  20.152  1.00  0.00     0.052 C 
HETATM   22  C35 UNL     1       3.942  40.452  19.364  1.00  0.00     0.018 C 
HETATM   23  C36 UNL     1       4.977  40.995  21.497  1.00  0.00     0.137 C 
HETATM   24  O5  UNL     1       5.313  42.111  21.742  1.00  0.00    -0.297 OA
HETATM   25  C37 UNL     1       4.293  40.168  22.501  1.00  0.00     0.081 C 
HETATM   26  C38 UNL     1       3.495  41.033  23.484  1.00  0.00     0.020 C 
ENDROOT
BRANCH   1  27
HETATM   27  O2  UNL     1       4.451  38.820  24.377  1.00  0.00    -0.352 OA
BRANCH  27  28
HETATM   28  C8  UNL     1       3.872  37.546  24.316  1.00  0.00     0.291 C 
HETATM   29  C7  UNL     1       4.512  36.522  25.167  1.00  0.00     0.195 C 
HETATM   30  C4  UNL     1       3.675  35.910  26.250  1.00  0.00     0.114 C 
HETATM   31  C3  UNL     1       2.222  35.781  25.887  1.00  0.00     0.059 C 
HETATM   32  C2  UNL     1       1.882  36.549  24.631  1.00  0.00     0.122 C 
HETATM   33  C1  UNL     1       0.357  36.686  24.569  1.00  0.00     0.040 C 
HETATM   34  O6  UNL     1       2.511  37.761  24.561  1.00  0.00    -0.354 OA
BRANCH  29  35
HETATM   35  O1  UNL     1       5.027  35.504  24.325  1.00  0.00    -0.389 OA
ATOM     36  H1  UNL     1       5.970  35.593  24.253  1.00  0.00     0.210 HD
ENDBRANCH  29  35
BRANCH  30  37
HETATM   37  N1  UNL     1       3.800  36.503  27.538  1.00  0.00    -0.414 N 
HETATM   38  C5  UNL     1       2.653  37.147  28.074  1.00  0.00     0.143 C 
HETATM   39  C6  UNL     1       5.037  37.166  27.797  1.00  0.00     0.143 C 
ENDBRANCH  30  37
ENDBRANCH  27  28
ENDBRANCH   1  27
BRANCH  11  40
HETATM   40  N2  UNL     1      12.428  43.672  21.104  1.00  0.00    -0.392 N 
ATOM     41  H2  UNL     1      12.102  44.450  21.677  1.00  0.00     0.159 HD
BRANCH  40  42
HETATM   42  C19 UNL     1      13.746  43.741  20.592  1.00  0.00     0.121 C 
BRANCH  42  43
HETATM   43  C20 UNL     1      14.866  43.397  21.527  1.00  0.00     0.047 C 
BRANCH  43  44
HETATM   44  C21 UNL     1      15.619  42.150  21.247  1.00  0.00     0.231 C 
BRANCH  44  45
HETATM   45  N3  UNL     1      14.853  41.217  20.478  1.00  0.00    -0.079 N 
ATOM     46  H33 UNL     1      15.254  40.281  20.528  1.00  0.00     0.274 HD
ATOM     47  H32 UNL     1      13.951  41.031  20.915  1.00  0.00     0.274 HD
ATOM     48  H31 UNL     1      14.739  41.518  19.509  1.00  0.00     0.274 HD
ENDBRANCH  44  45
ENDBRANCH  43  44
ENDBRANCH  42  43
ENDBRANCH  40  42
ENDBRANCH  11  40
BRANCH  13  49
HETATM   49  C24 UNL     1      12.287  43.429  17.624  1.00  0.00     0.067 C 
BRANCH  49  50
HETATM   50  C25 UNL     1      11.942  44.300  16.432  1.00  0.00     0.274 C 
BRANCH  50  51
HETATM   51  N4  UNL     1      13.035  45.170  16.073  1.00  0.00     0.080 N 
HETATM   52  C26 UNL     1      13.609  45.694  17.293  1.00  0.00     0.309 C 
HETATM   53  C27 UNL     1      12.566  46.278  15.271  1.00  0.00     0.309 C 
ENDBRANCH  50  51
ENDBRANCH  49  50
ENDBRANCH  13  49
TORSDOF 12
ENDMDL
MODEL 4
REMARK VINA RESULT: -6.823736079      4.719     10.442
REMARK  12 active torsions:
REMARK  status: ('A' for Active; 'I' for Inactive)
REMARK    1  A    between atoms: C4_4  and  N1_5 
REMARK    2  A    between atoms: C7_8  and  O1_9 
REMARK    3  A    between atoms: C8_11  and  O2_12 
REMARK    4  A    between atoms: O2_12  and  C9_13 
REMARK    5  A    between atoms: C18_23  and  N2_24 
REMARK    6  A    between atoms: N2_24  and  C19_26 
REMARK    7  A    between atoms: C19_26  and  C20_27 
REMARK    8  A    between atoms: C20_27  and  C21_28 
REMARK    9  A    between atoms: C21_28  and  N3_29 
REMARK   10  A    between atoms: C23_34  and  C24_35 
REMARK   11  A    between atoms: C24_35  and  C25_36 
REMARK   12  A    between atoms: C25_36  and  N4_37 
ROOT
HETATM    1  C9  UNL     1       5.485  40.169  22.654  1.00  0.00     0.142 C 
HETATM    2  C10 UNL     1       4.961  39.110  23.547  1.00  0.00     0.034 C 
HETATM    3  C11 UNL     1       6.129  38.339  24.125  1.00  0.00     0.017 C 
HETATM    4  C12 UNL     1       4.026  38.138  22.948  1.00  0.00    -0.023 C 
HETATM    5  C13 UNL     1       3.282  37.320  23.676  1.00  0.00    -0.023 C 
HETATM    6  C14 UNL     1       3.250  37.227  25.145  1.00  0.00     0.105 C 
HETATM    7  C15 UNL     1       1.813  37.106  25.609  1.00  0.00     0.139 C 
HETATM    8  O3  UNL     1       0.964  36.962  24.757  1.00  0.00    -0.297 OA
HETATM    9  C16 UNL     1       1.525  37.168  27.076  1.00  0.00     0.101 C 
HETATM   10  C17 UNL     1       1.847  35.738  27.558  1.00  0.00     0.024 C 
HETATM   11  C18 UNL     1       0.225  37.640  27.481  1.00  0.00     0.023 C 
HETATM   12  C22 UNL     1      -0.141  38.919  27.683  1.00  0.00     0.001 C 
HETATM   13  C23 UNL     1      -1.151  39.911  28.051  1.00  0.00     0.157 C 
HETATM   14  O4  UNL     1      -0.121  40.756  28.480  1.00  0.00    -0.371 OA
HETATM   15  C28 UNL     1       0.672  40.103  27.486  1.00  0.00     0.160 C 
HETATM   16  C29 UNL     1       0.591  40.832  26.199  1.00  0.00     0.019 C 
HETATM   17  C30 UNL     1      -0.320  40.297  25.153  1.00  0.00     0.013 C 
HETATM   18  C31 UNL     1       1.948  41.096  25.545  1.00  0.00    -0.012 C 
HETATM   19  C32 UNL     1       2.976  41.508  26.546  1.00  0.00     0.010 C 
HETATM   20  C33 UNL     1       1.835  42.121  24.459  1.00  0.00     0.016 C 
HETATM   21  C34 UNL     1       3.057  42.234  23.589  1.00  0.00     0.052 C 
HETATM   22  C35 UNL     1       2.951  43.573  22.870  1.00  0.00     0.018 C 
HETATM   23  C36 UNL     1       3.176  41.172  22.556  1.00  0.00     0.137 C 
HETATM   24  O5  UNL     1       2.229  40.505  22.280  1.00  0.00    -0.297 OA
HETATM   25  C37 UNL     1       4.469  40.970  21.887  1.00  0.00     0.081 C 
HETATM   26  C38 UNL     1       4.284  40.413  20.472  1.00  0.00     0.020 C 
ENDROOT
BRANCH   1  27
HETATM   27  O2  UNL     1       6.428  39.745  21.723  1.00  0.00    -0.352 OA
BRANCH  27  28
HETATM   28  C8  UNL     1       7.750  39.816  22.180  1.00  0.00     0.291 C 
HETATM   29  C7  UNL     1       8.743  39.114  21.342  1.00  0.00     0.195 C 
HETATM   30  C4  UNL     1       9.822  39.944  20.714  1.00  0.00     0.114 C 
HETATM   31  C3  UNL     1      10.246  41.116  21.556  1.00  0.00     0.059 C 
HETATM   32  C2  UNL     1       9.301  41.354  22.711  1.00  0.00     0.122 C 
HETATM   33  C1  UNL     1       9.577  42.761  23.254  1.00  0.00     0.040 C 
HETATM   34  O6  UNL     1       7.989  41.183  22.370  1.00  0.00    -0.354 OA
BRANCH  29  35
HETATM   35  O1  UNL     1       9.325  38.080  22.119  1.00  0.00    -0.389 OA
ATOM     36  H1  UNL     1       8.682  37.736  22.729  1.00  0.00     0.210 HD
ENDBRANCH  29  35
BRANCH  30  37
HETATM   37  N1  UNL     1       9.574  40.374  19.380  1.00  0.00    -0.414 N 
HETATM   38  C5  UNL     1       9.660  41.767  19.115  1.00  0.00     0.143 C 
HETATM   39  C6  UNL     1       8.517  39.699  18.698  1.00  0.00     0.143 C 
ENDBRANCH  30  37
ENDBRANCH  27  28
ENDBRANCH   1  27
BRANCH  11  40
HETATM   40  N2  UNL     1      -0.833  36.657  27.692  1.00  0.00    -0.392 N 
ATOM     41  H2  UNL     1      -0.685  35.949  28.411  1.00  0.00     0.159 HD
BRANCH  40  42
HETATM   42  C19 UNL     1      -2.051  36.616  26.971  1.00  0.00     0.121 C 
BRANCH  42  43
HETATM   43  C20 UNL     1      -2.147  35.640  25.837  1.00  0.00     0.047 C 
BRANCH  43  44
HETATM   44  C21 UNL     1      -3.462  34.994  25.613  1.00  0.00     0.231 C 
BRANCH  44  45
HETATM   45  N3  UNL     1      -3.368  33.566  25.598  1.00  0.00    -0.079 N 
ATOM     46  H33 UNL     1      -3.905  33.169  24.827  1.00  0.00     0.274 HD
ATOM     47  H32 UNL     1      -2.435  33.261  25.319  1.00  0.00     0.274 HD
ATOM     48  H31 UNL     1      -3.641  33.152  26.489  1.00  0.00     0.274 HD
ENDBRANCH  44  45
ENDBRANCH  43  44
ENDBRANCH  42  43
ENDBRANCH  40  42
ENDBRANCH  11  40
BRANCH  13  49
HETATM   49  C24 UNL     1      -2.074  39.550  29.201  1.00  0.00     0.067 C 
BRANCH  49  50
HETATM   50  C25 UNL     1      -1.253  39.634  30.474  1.00  0.00     0.274 C 
BRANCH  50  51
HETATM   51  N4  UNL     1      -0.979  38.325  31.017  1.00  0.00     0.080 N 
HETATM   52  C26 UNL     1      -1.616  38.236  32.313  1.00  0.00     0.309 C 
HETATM   53  C27 UNL     1       0.444  38.132  31.189  1.00  0.00     0.309 C 
ENDBRANCH  50  51
ENDBRANCH  49  50
ENDBRANCH  13  49
TORSDOF 12
ENDMDL
MODEL 5
REMARK VINA RESULT: -6.797954916      4.871     10.279
REMARK  12 active torsions:
REMARK  status: ('A' for Active; 'I' for Inactive)
REMARK    1  A    between atoms: C4_4  and  N1_5 
REMARK    2  A    between atoms: C7_8  and  O1_9 
REMARK    3  A    between atoms: C8_11  and  O2_12 
REMARK    4  A    between atoms: O2_12  and  C9_13 
REMARK    5  A    between atoms: C18_23  and  N2_24 
REMARK    6  A    between atoms: N2_24  and  C19_26 
REMARK    7  A    between atoms: C19_26  and  C20_27 
REMARK    8  A    between atoms: C20_27  and  C21_28 
REMARK    9  A    between atoms: C21_28  and  N3_29 
REMARK   10  A    between atoms: C23_34  and  C24_35 
REMARK   11  A    between atoms: C24_35  and  C25_36 
REMARK   12  A    between atoms: C25_36  and  N4_37 
ROOT
HETATM    1  C9  UNL     1       4.566  40.530  21.813  1.00  0.00     0.142 C 
HETATM    2  C10 UNL     1       4.276  39.448  22.782  1.00  0.00     0.034 C 
HETATM    3  C11 UNL     1       5.581  38.800  23.192  1.00  0.00     0.017 C 
HETATM    4  C12 UNL     1       3.361  38.381  22.331  1.00  0.00    -0.023 C 
HETATM    5  C13 UNL     1       2.808  37.514  23.165  1.00  0.00    -0.023 C 
HETATM    6  C14 UNL     1       2.994  37.451  24.625  1.00  0.00     0.105 C 
HETATM    7  C15 UNL     1       1.654  37.209  25.291  1.00  0.00     0.139 C 
HETATM    8  O3  UNL     1       0.711  36.969  24.571  1.00  0.00    -0.297 OA
HETATM    9  C16 UNL     1       1.574  37.277  26.784  1.00  0.00     0.101 C 
HETATM   10  C17 UNL     1       2.094  35.893  27.227  1.00  0.00     0.024 C 
HETATM   11  C18 UNL     1       0.306  37.636  27.367  1.00  0.00     0.023 C 
HETATM   12  C22 UNL     1      -0.146  38.880  27.608  1.00  0.00     0.001 C 
HETATM   13  C23 UNL     1      -1.182  39.783  28.109  1.00  0.00     0.157 C 
HETATM   14  O4  UNL     1      -0.186  40.729  28.378  1.00  0.00    -0.371 OA
HETATM   15  C28 UNL     1       0.515  40.129  27.286  1.00  0.00     0.160 C 
HETATM   16  C29 UNL     1       0.185  40.819  26.018  1.00  0.00     0.019 C 
HETATM   17  C30 UNL     1      -0.812  40.180  25.118  1.00  0.00     0.013 C 
HETATM   18  C31 UNL     1       1.404  41.192  25.174  1.00  0.00    -0.012 C 
HETATM   19  C32 UNL     1       2.520  41.719  26.013  1.00  0.00     0.010 C 
HETATM   20  C33 UNL     1       1.042  42.178  24.106  1.00  0.00     0.016 C 
HETATM   21  C34 UNL     1       2.111  42.384  23.069  1.00  0.00     0.052 C 
HETATM   22  C35 UNL     1       1.779  43.691  22.360  1.00  0.00     0.018 C 
HETATM   23  C36 UNL     1       2.182  41.314  22.039  1.00  0.00     0.137 C 
HETATM   24  O5  UNL     1       1.272  40.557  21.908  1.00  0.00    -0.297 OA
HETATM   25  C37 UNL     1       3.380  41.217  21.193  1.00  0.00     0.081 C 
HETATM   26  C38 UNL     1       3.049  40.615  19.824  1.00  0.00     0.020 C 
ENDROOT
BRANCH   1  27
HETATM   27  O2  UNL     1       5.402  40.174  20.760  1.00  0.00    -0.352 OA
BRANCH  27  28
HETATM   28  C8  UNL     1       6.270  41.195  20.354  1.00  0.00     0.291 C 
HETATM   29  C7  UNL     1       7.390  41.473  21.276  1.00  0.00     0.195 C 
HETATM   30  C4  UNL     1       8.779  41.258  20.753  1.00  0.00     0.114 C 
HETATM   31  C3  UNL     1       8.923  41.558  19.288  1.00  0.00     0.059 C 
HETATM   32  C2  UNL     1       7.584  41.739  18.612  1.00  0.00     0.122 C 
HETATM   33  C1  UNL     1       7.810  41.641  17.099  1.00  0.00     0.040 C 
HETATM   34  O6  UNL     1       6.643  40.849  19.049  1.00  0.00    -0.354 OA
BRANCH  29  35
HETATM   35  O1  UNL     1       7.256  42.803  21.747  1.00  0.00    -0.389 OA
ATOM     36  H1  UNL     1       6.351  43.082  21.671  1.00  0.00     0.210 HD
ENDBRANCH  29  35
BRANCH  30  37
HETATM   37  N1  UNL     1       9.361  39.991  21.046  1.00  0.00    -0.414 N 
HETATM   38  C5  UNL     1       9.273  38.986  20.047  1.00  0.00     0.143 C 
HETATM   39  C6  UNL     1       9.187  39.525  22.383  1.00  0.00     0.143 C 
ENDBRANCH  30  37
ENDBRANCH  27  28
ENDBRANCH   1  27
BRANCH  11  40
HETATM   40  N2  UNL     1      -0.615  36.565  27.736  1.00  0.00    -0.392 N 
ATOM     41  H2  UNL     1      -0.286  35.867  28.403  1.00  0.00     0.159 HD
BRANCH  40  42
HETATM   42  C19 UNL     1      -1.932  36.426  27.236  1.00  0.00     0.121 C 
BRANCH  42  43
HETATM   43  C20 UNL     1      -2.094  35.761  25.902  1.00  0.00     0.047 C 
BRANCH  43  44
HETATM   44  C21 UNL     1      -3.399  35.115  25.625  1.00  0.00     0.231 C 
BRANCH  44  45
HETATM   45  N3  UNL     1      -3.309  33.687  25.636  1.00  0.00    -0.079 N 
ATOM     46  H33 UNL     1      -4.164  33.261  25.278  1.00  0.00     0.274 HD
ATOM     47  H32 UNL     1      -2.654  33.353  24.929  1.00  0.00     0.274 HD
ATOM     48  H31 UNL     1      -3.074  33.322  26.559  1.00  0.00     0.274 HD
ENDBRANCH  44  45
ENDBRANCH  43  44
ENDBRANCH  42  43
ENDBRANCH  40  42
ENDBRANCH  11  40
BRANCH  13  49
HETATM   49  C24 UNL     1      -1.895  39.365  29.382  1.00  0.00     0.067 C 
BRANCH  49  50
HETATM   50  C25 UNL     1      -1.051  39.852  30.544  1.00  0.00     0.274 C 
BRANCH  50  51
HETATM   51  N4  UNL     1      -0.648  38.764  31.403  1.00  0.00     0.080 N 
HETATM   52  C26 UNL     1       0.752  38.495  31.157  1.00  0.00     0.309 C 
HETATM   53  C27 UNL     1      -1.406  37.570  31.104  1.00  0.00     0.309 C 
ENDBRANCH  50  51
ENDBRANCH  49  50
ENDBRANCH  13  49
TORSDOF 12
ENDMDL
