MODEL 1
REMARK VINA RESULT: -6.203503690      0.000      0.000
REMARK  4 active torsions:
REMARK  status: ('A' for Active; 'I' for Inactive)
REMARK    1  A    between atoms: N2_7  and  C5_8 
REMARK    2  A    between atoms: C5_8  and  C6_9 
REMARK    3  A    between atoms: C6_9  and  N3_10 
REMARK    4  A    between atoms: N5_17  and  O1_18 
ROOT
HETATM    1  C1  UNL     1      -8.104  31.683  32.727  1.00  0.00     0.091 C 
HETATM    2  C2  UNL     1      -8.096  32.693  31.624  1.00  0.00     0.108 A 
HETATM    3  N1  UNL     1      -7.802  32.500  30.316  1.00  0.00    -0.340 N 
ATOM      4  H1  UNL     1      -7.538  31.612  29.889  1.00  0.00     0.167 HD
HETATM    5  C3  UNL     1      -7.919  33.684  29.670  1.00  0.00     0.099 A 
HETATM    6  C4  UNL     1      -7.816  34.350  28.446  1.00  0.00     0.143 A 
HETATM    7  N2  UNL     1      -8.132  35.626  28.728  1.00  0.00    -0.298 N 
HETATM    8  N4  UNL     1      -8.412  35.771  30.013  1.00  0.00    -0.280 N 
ATOM      9  H4  UNL     1      -8.679  36.649  30.460  1.00  0.00     0.189 HD
HETATM   10  C7  UNL     1      -8.292  34.588  30.640  1.00  0.00     0.177 A 
HETATM   11  N5  UNL     1      -8.402  33.983  31.839  1.00  0.00    -0.192 N 
ENDROOT
BRANCH   7  12
HETATM   12  C5  UNL     1      -8.172  36.716  27.786  1.00  0.00     0.175 C 
BRANCH  12  13
HETATM   13  C6  UNL     1      -7.855  36.138  26.410  1.00  0.00     0.251 C 
BRANCH  13  14
HETATM   14  N3  UNL     1      -9.053  36.185  25.623  1.00  0.00    -0.078 N 
ATOM     15  H33 UNL     1      -9.900  36.118  26.188  1.00  0.00     0.274 HD
ATOM     16  H32 UNL     1      -9.228  37.108  25.226  1.00  0.00     0.274 HD
ATOM     17  H31 UNL     1      -8.994  35.455  24.913  1.00  0.00     0.274 HD
ENDBRANCH  13  14
ENDBRANCH  12  13
ENDBRANCH   7  12
BRANCH  11  18
HETATM   18  O1  UNL     1      -8.758  34.582  33.041  1.00  0.00    -0.280 OA
ATOM     19  H1  UNL     1      -8.628  35.487  33.300  1.00  0.00     0.245 HD
ENDBRANCH  11  18
TORSDOF 4
ENDMDL
MODEL 2
REMARK VINA RESULT: -5.320656438      2.257      5.325
REMARK  4 active torsions:
REMARK  status: ('A' for Active; 'I' for Inactive)
REMARK    1  A    between atoms: N2_7  and  C5_8 
REMARK    2  A    between atoms: C5_8  and  C6_9 
REMARK    3  A    between atoms: C6_9  and  N3_10 
REMARK    4  A    between atoms: N5_17  and  O1_18 
ROOT
HETATM    1  C1  UNL     1      -8.337  36.298  25.846  1.00  0.00     0.091 C 
HETATM    2  C2  UNL     1      -8.394  35.397  27.040  1.00  0.00     0.108 A 
HETATM    3  N1  UNL     1      -9.469  34.753  27.550  1.00  0.00    -0.340 N 
ATOM      4  H1  UNL     1     -10.420  34.793  27.180  1.00  0.00     0.167 HD
HETATM    5  C3  UNL     1      -9.072  34.047  28.634  1.00  0.00     0.099 A 
HETATM    6  C4  UNL     1      -9.465  33.187  29.663  1.00  0.00     0.143 A 
HETATM    7  N2  UNL     1      -8.337  32.951  30.356  1.00  0.00    -0.298 N 
HETATM    8  N4  UNL     1      -7.312  33.597  29.825  1.00  0.00    -0.280 N 
ATOM      9  H4  UNL     1      -6.355  33.571  30.178  1.00  0.00     0.189 HD
HETATM   10  C7  UNL     1      -7.722  34.294  28.751  1.00  0.00     0.177 A 
HETATM   11  N5  UNL     1      -7.304  35.121  27.773  1.00  0.00    -0.192 N 
ENDROOT
BRANCH   7  12
HETATM   12  C5  UNL     1      -8.220  32.114  31.523  1.00  0.00     0.175 C 
BRANCH  12  13
HETATM   13  C6  UNL     1      -8.537  32.981  32.738  1.00  0.00     0.251 C 
BRANCH  13  14
HETATM   14  N3  UNL     1      -8.173  32.246  33.914  1.00  0.00    -0.078 N 
ATOM     15  H33 UNL     1      -8.846  32.355  34.672  1.00  0.00     0.274 HD
ATOM     16  H32 UNL     1      -8.266  31.237  33.794  1.00  0.00     0.274 HD
ATOM     17  H31 UNL     1      -7.229  32.525  34.182  1.00  0.00     0.274 HD
ENDBRANCH  13  14
ENDBRANCH  12  13
ENDBRANCH   7  12
BRANCH  11  18
HETATM   18  O1  UNL     1      -6.009  35.586  27.578  1.00  0.00    -0.280 OA
ATOM     19  H1  UNL     1      -5.737  36.464  27.334  1.00  0.00     0.245 HD
ENDBRANCH  11  18
TORSDOF 4
ENDMDL
MODEL 3
REMARK VINA RESULT: -5.227214619      2.094      5.135
REMARK  4 active torsions:
REMARK  status: ('A' for Active; 'I' for Inactive)
REMARK    1  A    between atoms: N2_7  and  C5_8 
REMARK    2  A    between atoms: C5_8  and  C6_9 
REMARK    3  A    between atoms: C6_9  and  N3_10 
REMARK    4  A    between atoms: N5_17  and  O1_18 
ROOT
HETATM    1  C1  UNL     1      -6.973  35.895  25.692  1.00  0.00     0.091 C 
HETATM    2  C2  UNL     1      -7.396  35.290  26.993  1.00  0.00     0.108 A 
HETATM    3  N1  UNL     1      -8.025  34.109  27.201  1.00  0.00    -0.340 N 
ATOM      4  H1  UNL     1      -8.306  33.448  26.476  1.00  0.00     0.167 HD
HETATM    5  C3  UNL     1      -8.218  33.953  28.531  1.00  0.00     0.099 A 
HETATM    6  C4  UNL     1      -8.729  33.130  29.538  1.00  0.00     0.143 A 
HETATM    7  N2  UNL     1      -8.480  33.798  30.679  1.00  0.00    -0.298 N 
HETATM    8  N4  UNL     1      -7.866  34.943  30.433  1.00  0.00    -0.280 N 
ATOM      9  H4  UNL     1      -7.576  35.618  31.141  1.00  0.00     0.189 HD
HETATM   10  C7  UNL     1      -7.682  35.084  29.108  1.00  0.00     0.177 A 
HETATM   11  N5  UNL     1      -7.177  35.905  28.167  1.00  0.00    -0.192 N 
ENDROOT
BRANCH   7  12
HETATM   12  C5  UNL     1      -8.820  33.357  32.009  1.00  0.00     0.175 C 
BRANCH  12  13
HETATM   13  C6  UNL     1      -8.067  32.055  32.262  1.00  0.00     0.251 C 
BRANCH  13  14
HETATM   14  N3  UNL     1      -7.925  31.894  33.680  1.00  0.00    -0.078 N 
ATOM     15  H33 UNL     1      -8.814  31.722  34.149  1.00  0.00     0.274 HD
ATOM     16  H32 UNL     1      -7.466  31.019  33.933  1.00  0.00     0.274 HD
ATOM     17  H31 UNL     1      -7.439  32.714  34.044  1.00  0.00     0.274 HD
ENDBRANCH  13  14
ENDBRANCH  12  13
ENDBRANCH   7  12
BRANCH  11  18
HETATM   18  O1  UNL     1      -6.560  37.132  28.381  1.00  0.00    -0.280 OA
ATOM     19  H1  UNL     1      -6.944  37.997  28.298  1.00  0.00     0.245 HD
ENDBRANCH  11  18
TORSDOF 4
ENDMDL
MODEL 4
REMARK VINA RESULT: -5.188915017      1.174      1.226
REMARK  4 active torsions:
REMARK  status: ('A' for Active; 'I' for Inactive)
REMARK    1  A    between atoms: N2_7  and  C5_8 
REMARK    2  A    between atoms: C5_8  and  C6_9 
REMARK    3  A    between atoms: C6_9  and  N3_10 
REMARK    4  A    between atoms: N5_17  and  O1_18 
ROOT
HETATM    1  C1  UNL     1      -8.251  32.021  33.544  1.00  0.00     0.091 C 
HETATM    2  C2  UNL     1      -8.311  32.670  32.198  1.00  0.00     0.108 A 
HETATM    3  N1  UNL     1      -8.235  32.080  30.981  1.00  0.00    -0.340 N 
ATOM      4  H1  UNL     1      -8.123  31.080  30.809  1.00  0.00     0.167 HD
HETATM    5  C3  UNL     1      -8.332  33.039  30.032  1.00  0.00     0.099 A 
HETATM    6  C4  UNL     1      -8.350  33.315  28.662  1.00  0.00     0.143 A 
HETATM    7  N2  UNL     1      -8.497  34.649  28.588  1.00  0.00    -0.298 N 
HETATM    8  N4  UNL     1      -8.568  35.186  29.795  1.00  0.00    -0.280 N 
ATOM      9  H4  UNL     1      -8.680  36.181  29.989  1.00  0.00     0.189 HD
HETATM   10  C7  UNL     1      -8.469  34.221  30.727  1.00  0.00     0.177 A 
HETATM   11  N5  UNL     1      -8.457  33.997  32.055  1.00  0.00    -0.192 N 
ENDROOT
BRANCH   7  12
HETATM   12  C5  UNL     1      -8.572  35.426  27.376  1.00  0.00     0.175 C 
BRANCH  12  13
HETATM   13  C6  UNL     1      -7.618  36.607  27.533  1.00  0.00     0.251 C 
BRANCH  13  14
HETATM   14  N3  UNL     1      -6.302  36.164  27.177  1.00  0.00    -0.078 N 
ATOM     15  H33 UNL     1      -5.868  35.593  27.902  1.00  0.00     0.274 HD
ATOM     16  H32 UNL     1      -6.308  35.463  26.437  1.00  0.00     0.274 HD
ATOM     17  H31 UNL     1      -5.747  36.985  26.937  1.00  0.00     0.274 HD
ENDBRANCH  13  14
ENDBRANCH  12  13
ENDBRANCH   7  12
BRANCH  11  18
HETATM   18  O1  UNL     1      -8.572  34.951  33.058  1.00  0.00    -0.280 OA
ATOM     19  H1  UNL     1      -7.883  35.495  33.424  1.00  0.00     0.245 HD
ENDBRANCH  11  18
TORSDOF 4
ENDMDL
MODEL 5
REMARK VINA RESULT: -5.154242386      1.911      5.100
REMARK  4 active torsions:
REMARK  status: ('A' for Active; 'I' for Inactive)
REMARK    1  A    between atoms: N2_7  and  C5_8 
REMARK    2  A    between atoms: C5_8  and  C6_9 
REMARK    3  A    between atoms: C6_9  and  N3_10 
REMARK    4  A    between atoms: N5_17  and  O1_18 
ROOT
HETATM    1  C1  UNL     1      -8.243  36.351  26.292  1.00  0.00     0.091 C 
HETATM    2  C2  UNL     1      -8.258  35.472  27.503  1.00  0.00     0.108 A 
HETATM    3  N1  UNL     1      -8.339  34.121  27.554  1.00  0.00    -0.340 N 
ATOM      4  H1  UNL     1      -8.401  33.497  26.749  1.00  0.00     0.167 HD
HETATM    5  C3  UNL     1      -8.322  33.739  28.852  1.00  0.00     0.099 A 
HETATM    6  C4  UNL     1      -8.360  32.662  29.742  1.00  0.00     0.143 A 
HETATM    7  N2  UNL     1      -8.288  33.228  30.960  1.00  0.00    -0.298 N 
HETATM    8  N4  UNL     1      -8.210  34.546  30.866  1.00  0.00    -0.280 N 
ATOM      9  H4  UNL     1      -8.146  35.188  31.656  1.00  0.00     0.189 HD
HETATM   10  C7  UNL     1      -8.229  34.910  29.572  1.00  0.00     0.177 A 
HETATM   11  N5  UNL     1      -8.189  35.974  28.746  1.00  0.00    -0.192 N 
ENDROOT
BRANCH   7  12
HETATM   12  C5  UNL     1      -8.291  32.528  32.220  1.00  0.00     0.175 C 
BRANCH  12  13
HETATM   13  C6  UNL     1      -8.828  33.492  33.273  1.00  0.00     0.251 C 
BRANCH  13  14
HETATM   14  N3  UNL     1      -8.496  32.966  34.565  1.00  0.00    -0.078 N 
ATOM     15  H33 UNL     1      -9.278  33.003  35.219  1.00  0.00     0.274 HD
ATOM     16  H32 UNL     1      -8.372  31.954  34.559  1.00  0.00     0.274 HD
ATOM     17  H31 UNL     1      -7.673  33.462  34.906  1.00  0.00     0.274 HD
ENDBRANCH  13  14
ENDBRANCH  12  13
ENDBRANCH   7  12
BRANCH  11  18
HETATM   18  O1  UNL     1      -8.097  37.310  29.119  1.00  0.00    -0.280 OA
ATOM     19  H1  UNL     1      -7.856  38.049  28.573  1.00  0.00     0.245 HD
ENDBRANCH  11  18
TORSDOF 4
ENDMDL
