MODEL 1
REMARK VINA RESULT: -6.770873624      0.000      0.000
REMARK  4 active torsions:
REMARK  status: ('A' for Active; 'I' for Inactive)
REMARK    1  A    between atoms: N1_1  and  C1_4 
REMARK    2  A    between atoms: N2_8  and  C5_9 
REMARK    3  A    between atoms: C5_9  and  C6_10 
REMARK    4  A    between atoms: N4_15  and  O1_16 
ROOT
HETATM    1  C1  UNL     1      50.904 -25.089   7.672  1.00  0.00     0.113 A 
HETATM    2  C2  UNL     1      51.739 -25.986   7.037  1.00  0.00     0.051 A 
HETATM    3  C3  UNL     1      52.543 -26.804   7.824  1.00  0.00     0.023 A 
HETATM    4  C4  UNL     1      52.468 -26.683   9.195  1.00  0.00     0.111 A 
HETATM    5  N2  UNL     1      51.647 -25.801   9.786  1.00  0.00    -0.295 N 
HETATM    6  N5  UNL     1      50.893 -25.035   9.016  1.00  0.00    -0.284 N 
ATOM      7  H5  UNL     1      50.269 -24.365   9.465  1.00  0.00     0.188 HD
ENDROOT
BRANCH   5   8
HETATM    8  C5  UNL     1      51.589 -25.693  11.253  1.00  0.00     0.227 C 
BRANCH   8   9
HETATM    9  C6  UNL     1      50.706 -26.802  11.765  1.00  0.00     0.129 A 
HETATM   10  N3  UNL     1      49.822 -27.522  11.052  1.00  0.00    -0.351 N 
HETATM   11  C7  UNL     1      49.203 -28.432  11.827  1.00  0.00     0.109 A 
ATOM     12  H3  UNL     1      49.644 -27.395  10.056  1.00  0.00     0.166 HD
HETATM   13  C8  UNL     1      49.727 -28.273  13.093  1.00  0.00     0.141 A 
HETATM   14  N4  UNL     1      50.630 -27.280  13.015  1.00  0.00    -0.221 N 
BRANCH  14  15
HETATM   15  O1  UNL     1      51.379 -26.817  14.085  1.00  0.00    -0.282 OA
ATOM     16  H1  UNL     1      51.018 -26.543  14.920  1.00  0.00     0.245 HD
ENDBRANCH  14  15
ENDBRANCH   8   9
ENDBRANCH   5   8
BRANCH   1  17
HETATM   17  N1  UNL     1      50.145 -24.313   6.953  1.00  0.00    -0.384 N 
ATOM     18  H12 UNL     1      49.262 -24.643   6.562  1.00  0.00     0.157 HD
ATOM     19  H11 UNL     1      50.441 -23.353   6.778  1.00  0.00     0.157 HD
ENDBRANCH   1  17
TORSDOF 4
ENDMDL
MODEL 2
REMARK VINA RESULT: -6.470781523      1.284      1.538
REMARK  4 active torsions:
REMARK  status: ('A' for Active; 'I' for Inactive)
REMARK    1  A    between atoms: N1_1  and  C1_4 
REMARK    2  A    between atoms: N2_8  and  C5_9 
REMARK    3  A    between atoms: C5_9  and  C6_10 
REMARK    4  A    between atoms: N4_15  and  O1_16 
ROOT
HETATM    1  C1  UNL     1      50.903 -25.076   7.698  1.00  0.00     0.113 A 
HETATM    2  C2  UNL     1      51.739 -26.002   7.109  1.00  0.00     0.051 A 
HETATM    3  C3  UNL     1      52.525 -26.797   7.937  1.00  0.00     0.023 A 
HETATM    4  C4  UNL     1      52.433 -26.624   9.302  1.00  0.00     0.111 A 
HETATM    5  N2  UNL     1      51.610 -25.715   9.848  1.00  0.00    -0.295 N 
HETATM    6  N5  UNL     1      50.874 -24.972   9.040  1.00  0.00    -0.284 N 
ATOM      7  H5  UNL     1      50.249 -24.282   9.455  1.00  0.00     0.188 HD
ENDROOT
BRANCH   5   8
HETATM    8  C5  UNL     1      51.534 -25.553  11.309  1.00  0.00     0.227 C 
BRANCH   8   9
HETATM    9  C6  UNL     1      50.560 -26.574  11.838  1.00  0.00     0.129 A 
HETATM   10  N3  UNL     1      50.807 -27.518  12.764  1.00  0.00    -0.351 N 
HETATM   11  C7  UNL     1      49.711 -28.261  13.002  1.00  0.00     0.109 A 
ATOM     12  H3  UNL     1      51.707 -27.653  13.225  1.00  0.00     0.166 HD
HETATM   13  C8  UNL     1      48.724 -27.757  12.181  1.00  0.00     0.141 A 
HETATM   14  N4  UNL     1      49.275 -26.740  11.494  1.00  0.00    -0.221 N 
BRANCH  14  15
HETATM   15  O1  UNL     1      48.603 -25.971  10.558  1.00  0.00    -0.282 OA
ATOM     16  H1  UNL     1      48.999 -25.597   9.780  1.00  0.00     0.245 HD
ENDBRANCH  14  15
ENDBRANCH   8   9
ENDBRANCH   5   8
BRANCH   1  17
HETATM   17  N1  UNL     1      50.159 -24.321   6.941  1.00  0.00    -0.384 N 
ATOM     18  H12 UNL     1      50.269 -23.307   6.925  1.00  0.00     0.157 HD
ATOM     19  H11 UNL     1      49.451 -24.757   6.349  1.00  0.00     0.157 HD
ENDBRANCH   1  17
TORSDOF 4
ENDMDL
MODEL 3
REMARK VINA RESULT: -6.401841219      1.137      1.280
REMARK  4 active torsions:
REMARK  status: ('A' for Active; 'I' for Inactive)
REMARK    1  A    between atoms: N1_1  and  C1_4 
REMARK    2  A    between atoms: N2_8  and  C5_9 
REMARK    3  A    between atoms: C5_9  and  C6_10 
REMARK    4  A    between atoms: N4_15  and  O1_16 
ROOT
HETATM    1  C1  UNL     1      51.380 -26.599   7.576  1.00  0.00     0.113 A 
HETATM    2  C2  UNL     1      52.742 -26.716   7.766  1.00  0.00     0.051 A 
HETATM    3  C3  UNL     1      53.257 -26.417   9.024  1.00  0.00     0.023 A 
HETATM    4  C4  UNL     1      52.388 -26.019  10.017  1.00  0.00     0.111 A 
HETATM    5  N2  UNL     1      51.067 -25.913   9.803  1.00  0.00    -0.295 N 
HETATM    6  N5  UNL     1      50.602 -26.203   8.600  1.00  0.00    -0.284 N 
ATOM      7  H5  UNL     1      49.599 -26.122   8.439  1.00  0.00     0.188 HD
ENDROOT
BRANCH   5   8
HETATM    8  C5  UNL     1      50.164 -25.484  10.883  1.00  0.00     0.227 C 
BRANCH   8   9
HETATM    9  C6  UNL     1      49.880 -26.681  11.754  1.00  0.00     0.129 A 
HETATM   10  N3  UNL     1      48.874 -27.561  11.611  1.00  0.00    -0.351 N 
HETATM   11  C7  UNL     1      48.920 -28.509  12.565  1.00  0.00     0.109 A 
ATOM     12  H3  UNL     1      48.167 -27.515  10.877  1.00  0.00     0.166 HD
HETATM   13  C8  UNL     1      50.015 -28.207  13.348  1.00  0.00     0.141 A 
HETATM   14  N4  UNL     1      50.568 -27.097  12.827  1.00  0.00    -0.221 N 
BRANCH  14  15
HETATM   15  O1  UNL     1      51.695 -26.472  13.333  1.00  0.00    -0.282 OA
ATOM     16  H1  UNL     1      52.577 -26.592  12.999  1.00  0.00     0.245 HD
ENDBRANCH  14  15
ENDBRANCH   8   9
ENDBRANCH   5   8
BRANCH   1  17
HETATM   17  N1  UNL     1      50.878 -26.873   6.406  1.00  0.00    -0.384 N 
ATOM     18  H12 UNL     1      50.040 -26.405   6.062  1.00  0.00     0.157 HD
ATOM     19  H11 UNL     1      51.336 -27.573   5.822  1.00  0.00     0.157 HD
ENDBRANCH   1  17
TORSDOF 4
ENDMDL
MODEL 4
REMARK VINA RESULT: -6.325479904      1.634      1.934
REMARK  4 active torsions:
REMARK  status: ('A' for Active; 'I' for Inactive)
REMARK    1  A    between atoms: N1_1  and  C1_4 
REMARK    2  A    between atoms: N2_8  and  C5_9 
REMARK    3  A    between atoms: C5_9  and  C6_10 
REMARK    4  A    between atoms: N4_15  and  O1_16 
ROOT
HETATM    1  C1  UNL     1      51.458 -26.560   7.626  1.00  0.00     0.113 A 
HETATM    2  C2  UNL     1      52.818 -26.787   7.653  1.00  0.00     0.051 A 
HETATM    3  C3  UNL     1      53.503 -26.533   8.837  1.00  0.00     0.023 A 
HETATM    4  C4  UNL     1      52.794 -26.069   9.925  1.00  0.00     0.111 A 
HETATM    5  N2  UNL     1      51.470 -25.857   9.870  1.00  0.00    -0.295 N 
HETATM    6  N5  UNL     1      50.842 -26.105   8.733  1.00  0.00    -0.284 N 
ATOM      7  H5  UNL     1      49.836 -25.944   8.693  1.00  0.00     0.188 HD
ENDROOT
BRANCH   5   8
HETATM    8  C5  UNL     1      50.740 -25.360  11.047  1.00  0.00     0.227 C 
BRANCH   8   9
HETATM    9  C6  UNL     1      50.248 -26.553  11.826  1.00  0.00     0.129 A 
HETATM   10  N3  UNL     1      50.782 -27.055  12.953  1.00  0.00    -0.351 N 
HETATM   11  C7  UNL     1      50.089 -28.126  13.381  1.00  0.00     0.109 A 
ATOM     12  H3  UNL     1      51.604 -26.675  13.421  1.00  0.00     0.166 HD
HETATM   13  C8  UNL     1      49.066 -28.306  12.474  1.00  0.00     0.141 A 
HETATM   14  N4  UNL     1      49.196 -27.337  11.550  1.00  0.00    -0.221 N 
BRANCH  14  15
HETATM   15  O1  UNL     1      48.354 -27.174  10.462  1.00  0.00    -0.282 OA
ATOM     16  H1  UNL     1      47.648 -26.541  10.413  1.00  0.00     0.245 HD
ENDBRANCH  14  15
ENDBRANCH   8   9
ENDBRANCH   5   8
BRANCH   1  17
HETATM   17  N1  UNL     1      50.799 -26.790   6.527  1.00  0.00    -0.384 N 
ATOM     18  H12 UNL     1      50.133 -26.114   6.151  1.00  0.00     0.157 HD
ATOM     19  H11 UNL     1      50.953 -27.668   6.031  1.00  0.00     0.157 HD
ENDBRANCH   1  17
TORSDOF 4
ENDMDL
MODEL 5
REMARK VINA RESULT: -6.090388106      1.825      2.521
REMARK  4 active torsions:
REMARK  status: ('A' for Active; 'I' for Inactive)
REMARK    1  A    between atoms: N1_1  and  C1_4 
REMARK    2  A    between atoms: N2_8  and  C5_9 
REMARK    3  A    between atoms: C5_9  and  C6_10 
REMARK    4  A    between atoms: N4_15  and  O1_16 
ROOT
HETATM    1  C1  UNL     1      52.864 -26.822   8.064  1.00  0.00     0.113 A 
HETATM    2  C2  UNL     1      52.226 -26.593   6.862  1.00  0.00     0.051 A 
HETATM    3  C3  UNL     1      51.076 -25.810   6.868  1.00  0.00     0.023 A 
HETATM    4  C4  UNL     1      50.628 -25.302   8.069  1.00  0.00     0.111 A 
HETATM    5  N2  UNL     1      51.269 -25.542   9.224  1.00  0.00    -0.295 N 
HETATM    6  N5  UNL     1      52.360 -26.288   9.191  1.00  0.00    -0.284 N 
ATOM      7  H5  UNL     1      52.846 -26.470  10.069  1.00  0.00     0.188 HD
ENDROOT
BRANCH   5   8
HETATM    8  C5  UNL     1      50.767 -24.987  10.491  1.00  0.00     0.227 C 
BRANCH   8   9
HETATM    9  C6  UNL     1      50.170 -26.118  11.288  1.00  0.00     0.129 A 
HETATM   10  N3  UNL     1      50.832 -26.990  12.069  1.00  0.00    -0.351 N 
HETATM   11  C7  UNL     1      49.988 -27.871  12.635  1.00  0.00     0.109 A 
ATOM     12  H3  UNL     1      51.842 -26.984  12.213  1.00  0.00     0.166 HD
HETATM   13  C8  UNL     1      48.728 -27.535  12.184  1.00  0.00     0.141 A 
HETATM   14  N4  UNL     1      48.880 -26.472  11.374  1.00  0.00    -0.221 N 
BRANCH  14  15
HETATM   15  O1  UNL     1      47.841 -25.832  10.718  1.00  0.00    -0.282 OA
ATOM     16  H1  UNL     1      47.904 -24.977  10.309  1.00  0.00     0.245 HD
ENDBRANCH  14  15
ENDBRANCH   8   9
ENDBRANCH   5   8
BRANCH   1  17
HETATM   17  N1  UNL     1      53.942 -27.553   8.079  1.00  0.00    -0.384 N 
ATOM     18  H12 UNL     1      54.831 -27.200   7.723  1.00  0.00     0.157 HD
ATOM     19  H11 UNL     1      53.894 -28.499   8.457  1.00  0.00     0.157 HD
ENDBRANCH   1  17
TORSDOF 4
ENDMDL
