MODEL 1
REMARK VINA RESULT: -6.970458191      0.000      0.000
REMARK  3 active torsions:
REMARK  status: ('A' for Active; 'I' for Inactive)
REMARK    1  A    between atoms: C4_8  and  C5_9 
REMARK    2  A    between atoms: C15_19  and  C16_20 
REMARK    3  A    between atoms: C22_27  and  N2_28 
ROOT
HETATM    1  O1  UNL     1      -0.577  -5.915 -24.948  1.00  0.00    -0.273 OA
HETATM    2  C1  UNL     1      -0.162  -7.125 -24.945  1.00  0.00     0.228 C 
HETATM    3  C2  UNL     1      -0.618  -8.117 -25.920  1.00  0.00     0.179 C 
HETATM    4  S1  UNL     1       0.740  -9.334 -25.831  1.00  0.00    -0.125 SA
HETATM    5  C3  UNL     1       1.754  -8.495 -24.532  1.00  0.00     0.116 C 
HETATM    6  N1  UNL     1       0.758  -7.605 -24.014  1.00  0.00    -0.339 N 
ATOM      7  H1  UNL     1       0.725  -7.340 -23.030  1.00  0.00     0.164 HD
HETATM    8  C4  UNL     1       2.089  -9.604 -23.560  1.00  0.00     0.060 C 
HETATM    9  C11 UNL     1       3.479  -9.978 -23.903  1.00  0.00     0.020 C 
HETATM   10  C12 UNL     1       3.947  -9.116 -25.029  1.00  0.00     0.019 C 
HETATM   11  C13 UNL     1       5.279  -8.531 -24.641  1.00  0.00     0.008 C 
HETATM   12  C14 UNL     1       5.159  -7.057 -24.795  1.00  0.00     0.012 C 
HETATM   13  C15 UNL     1       3.645  -6.762 -24.726  1.00  0.00     0.051 C 
HETATM   14  C22 UNL     1       2.948  -7.966 -25.169  1.00  0.00     0.084 C 
ENDROOT
BRANCH  13  15
HETATM   15  C16 UNL     1       3.296  -6.094 -23.481  1.00  0.00    -0.051 A 
HETATM   16  C17 UNL     1       3.764  -6.552 -22.280  1.00  0.00     0.011 A 
HETATM   17  C18 UNL     1       3.449  -5.920 -21.067  1.00  0.00     0.043 A 
HETATM   18  C19 UNL     1       2.639  -4.796 -21.061  1.00  0.00     0.116 A 
HETATM   19  F1  UNL     1       2.349  -4.204 -19.866  1.00  0.00    -0.206 F 
HETATM   20  C20 UNL     1       2.169  -4.333 -22.253  1.00  0.00     0.043 A 
HETATM   21  C21 UNL     1       2.495  -4.972 -23.420  1.00  0.00     0.011 A 
ENDBRANCH  13  15
BRANCH  14  22
HETATM   22  N2  UNL     1       2.633  -7.783 -26.607  1.00  0.00    -0.337 N 
HETATM   23  C23 UNL     1       2.549  -6.607 -27.256  1.00  0.00     0.110 A 
HETATM   24  C24 UNL     1       2.238  -6.821 -28.594  1.00  0.00     0.106 A 
HETATM   25  N3  UNL     1       2.138  -8.130 -28.735  1.00  0.00    -0.361 N 
HETATM   26  C25 UNL     1       2.376  -8.703 -27.540  1.00  0.00     0.183 A 
ATOM     27  H3  UNL     1       1.919  -8.623 -29.601  1.00  0.00     0.166 HD
ENDBRANCH  14  22
BRANCH   8  28
HETATM   28  C5  UNL     1       1.230 -10.799 -23.669  1.00  0.00    -0.051 A 
HETATM   29  C6  UNL     1       1.802 -12.035 -23.828  1.00  0.00     0.007 A 
HETATM   30  C7  UNL     1       1.001 -13.184 -23.935  1.00  0.00     0.001 A 
HETATM   31  C8  UNL     1      -0.375 -13.102 -23.882  1.00  0.00     0.000 A 
HETATM   32  C9  UNL     1      -0.943 -11.861 -23.721  1.00  0.00     0.001 A 
HETATM   33  C10 UNL     1      -0.147 -10.742 -23.618  1.00  0.00     0.007 A 
ENDBRANCH   8  28
TORSDOF 3
ENDMDL
MODEL 2
REMARK VINA RESULT: -6.448299049      4.257      6.254
REMARK  3 active torsions:
REMARK  status: ('A' for Active; 'I' for Inactive)
REMARK    1  A    between atoms: C4_8  and  C5_9 
REMARK    2  A    between atoms: C15_19  and  C16_20 
REMARK    3  A    between atoms: C22_27  and  N2_28 
ROOT
HETATM    1  O1  UNL     1       4.211  -3.860 -20.048  1.00  0.00    -0.273 OA
HETATM    2  C1  UNL     1       3.911  -4.360 -21.187  1.00  0.00     0.228 C 
HETATM    3  C2  UNL     1       2.582  -4.897 -21.487  1.00  0.00     0.179 C 
HETATM    4  S1  UNL     1       2.585  -4.817 -23.311  1.00  0.00    -0.125 SA
HETATM    5  C3  UNL     1       4.292  -4.142 -23.537  1.00  0.00     0.116 C 
HETATM    6  N1  UNL     1       4.821  -4.438 -22.240  1.00  0.00    -0.339 N 
ATOM      7  H1  UNL     1       5.799  -4.689 -22.096  1.00  0.00     0.164 HD
HETATM    8  C4  UNL     1       4.890  -5.022 -24.613  1.00  0.00     0.060 C 
HETATM    9  C11 UNL     1       4.786  -4.210 -25.844  1.00  0.00     0.020 C 
HETATM   10  C12 UNL     1       4.158  -2.897 -25.506  1.00  0.00     0.019 C 
HETATM   11  C13 UNL     1       5.025  -1.808 -26.078  1.00  0.00     0.008 C 
HETATM   12  C14 UNL     1       5.346  -0.885 -24.956  1.00  0.00     0.012 C 
HETATM   13  C15 UNL     1       5.144  -1.719 -23.672  1.00  0.00     0.051 C 
HETATM   14  C22 UNL     1       4.173  -2.764 -23.982  1.00  0.00     0.084 C 
ENDROOT
BRANCH  13  15
HETATM   15  C16 UNL     1       6.418  -2.026 -23.040  1.00  0.00    -0.051 A 
HETATM   16  C17 UNL     1       6.623  -1.781 -21.710  1.00  0.00     0.011 A 
HETATM   17  C18 UNL     1       7.839  -2.075 -21.076  1.00  0.00     0.043 A 
HETATM   18  C19 UNL     1       8.881  -2.633 -21.799  1.00  0.00     0.116 A 
HETATM   19  F1  UNL     1      10.052  -2.907 -21.156  1.00  0.00    -0.206 F 
HETATM   20  C20 UNL     1       8.686  -2.881 -23.125  1.00  0.00     0.043 A 
HETATM   21  C21 UNL     1       7.486  -2.582 -23.715  1.00  0.00     0.011 A 
ENDBRANCH  13  15
BRANCH  14  22
HETATM   22  N2  UNL     1       2.847  -2.272 -23.535  1.00  0.00    -0.337 N 
HETATM   23  C23 UNL     1       2.610  -1.496 -22.462  1.00  0.00     0.110 A 
HETATM   24  C24 UNL     1       1.249  -1.231 -22.355  1.00  0.00     0.106 A 
HETATM   25  N3  UNL     1       0.680  -1.855 -23.370  1.00  0.00    -0.361 N 
HETATM   26  C25 UNL     1       1.642  -2.479 -24.076  1.00  0.00     0.183 A 
ATOM     27  H3  UNL     1      -0.318  -1.863 -23.583  1.00  0.00     0.166 HD
ENDBRANCH  14  22
BRANCH   8  28
HETATM   28  C5  UNL     1       4.188  -6.303 -24.822  1.00  0.00    -0.051 A 
HETATM   29  C6  UNL     1       4.538  -7.400 -24.077  1.00  0.00     0.007 A 
HETATM   30  C7  UNL     1       3.882  -8.628 -24.263  1.00  0.00     0.001 A 
HETATM   31  C8  UNL     1       2.873  -8.764 -25.193  1.00  0.00     0.000 A 
HETATM   32  C9  UNL     1       2.525  -7.662 -25.937  1.00  0.00     0.001 A 
HETATM   33  C10 UNL     1       3.176  -6.463 -25.745  1.00  0.00     0.007 A 
ENDBRANCH   8  28
TORSDOF 3
ENDMDL
MODEL 3
REMARK VINA RESULT: -6.405722374      4.213      6.154
REMARK  3 active torsions:
REMARK  status: ('A' for Active; 'I' for Inactive)
REMARK    1  A    between atoms: C4_8  and  C5_9 
REMARK    2  A    between atoms: C15_19  and  C16_20 
REMARK    3  A    between atoms: C22_27  and  N2_28 
ROOT
HETATM    1  O1  UNL     1       4.156  -3.549 -19.799  1.00  0.00    -0.273 OA
HETATM    2  C1  UNL     1       3.855  -4.187 -20.866  1.00  0.00     0.228 C 
HETATM    3  C2  UNL     1       2.520  -4.739 -21.104  1.00  0.00     0.179 C 
HETATM    4  S1  UNL     1       2.535  -4.896 -22.923  1.00  0.00    -0.125 SA
HETATM    5  C3  UNL     1       4.252  -4.280 -23.222  1.00  0.00     0.116 C 
HETATM    6  N1  UNL     1       4.770  -4.413 -21.893  1.00  0.00    -0.339 N 
ATOM      7  H1  UNL     1       5.743  -4.658 -21.711  1.00  0.00     0.164 HD
HETATM    8  C4  UNL     1       4.844  -5.299 -24.170  1.00  0.00     0.060 C 
HETATM    9  C11 UNL     1       4.759  -4.652 -25.497  1.00  0.00     0.020 C 
HETATM   10  C12 UNL     1       4.148  -3.298 -25.336  1.00  0.00     0.019 C 
HETATM   11  C13 UNL     1       5.034  -2.304 -26.037  1.00  0.00     0.008 C 
HETATM   12  C14 UNL     1       5.362  -1.248 -25.041  1.00  0.00     0.012 C 
HETATM   13  C15 UNL     1       5.141  -1.907 -23.662  1.00  0.00     0.051 C 
HETATM   14  C22 UNL     1       4.156  -2.969 -23.842  1.00  0.00     0.084 C 
ENDROOT
BRANCH  13  15
HETATM   15  C16 UNL     1       6.406  -2.147 -22.986  1.00  0.00    -0.051 A 
HETATM   16  C17 UNL     1       7.458  -2.727 -23.641  1.00  0.00     0.011 A 
HETATM   17  C18 UNL     1       8.691  -2.961 -23.014  1.00  0.00     0.043 A 
HETATM   18  C19 UNL     1       8.873  -2.604 -21.687  1.00  0.00     0.116 A 
HETATM   19  F1  UNL     1      10.082  -2.845 -21.104  1.00  0.00    -0.206 F 
HETATM   20  C20 UNL     1       7.831  -2.025 -21.027  1.00  0.00     0.043 A 
HETATM   21  C21 UNL     1       6.639  -1.810 -21.668  1.00  0.00     0.011 A 
ENDBRANCH  13  15
BRANCH  14  22
HETATM   22  N2  UNL     1       2.835  -2.405 -23.472  1.00  0.00    -0.337 N 
HETATM   23  C23 UNL     1       2.604  -1.491 -22.512  1.00  0.00     0.110 A 
HETATM   24  C24 UNL     1       1.247  -1.197 -22.449  1.00  0.00     0.106 A 
HETATM   25  N3  UNL     1       0.674  -1.941 -23.377  1.00  0.00    -0.361 N 
HETATM   26  C25 UNL     1       1.630  -2.665 -23.988  1.00  0.00     0.183 A 
ATOM     27  H3  UNL     1      -0.323  -1.964 -23.593  1.00  0.00     0.166 HD
ENDBRANCH  14  22
BRANCH   8  28
HETATM   28  C5  UNL     1       4.123  -6.587 -24.218  1.00  0.00    -0.051 A 
HETATM   29  C6  UNL     1       3.291  -6.861 -25.273  1.00  0.00     0.007 A 
HETATM   30  C7  UNL     1       2.596  -8.080 -25.335  1.00  0.00     0.001 A 
HETATM   31  C8  UNL     1       2.731  -9.030 -24.344  1.00  0.00     0.000 A 
HETATM   32  C9  UNL     1       3.567  -8.751 -23.289  1.00  0.00     0.001 A 
HETATM   33  C10 UNL     1       4.242  -7.551 -23.240  1.00  0.00     0.007 A 
ENDBRANCH   8  28
TORSDOF 3
ENDMDL
MODEL 4
REMARK VINA RESULT: -5.992984824      3.132      5.896
REMARK  3 active torsions:
REMARK  status: ('A' for Active; 'I' for Inactive)
REMARK    1  A    between atoms: C4_8  and  C5_9 
REMARK    2  A    between atoms: C15_19  and  C16_20 
REMARK    3  A    between atoms: C22_27  and  N2_28 
ROOT
HETATM    1  O1  UNL     1       4.748  -4.296 -25.791  1.00  0.00    -0.273 OA
HETATM    2  C1  UNL     1       4.831  -5.331 -25.045  1.00  0.00     0.228 C 
HETATM    3  C2  UNL     1       5.324  -5.272 -23.668  1.00  0.00     0.179 C 
HETATM    4  S1  UNL     1       4.601  -6.802 -22.980  1.00  0.00    -0.125 SA
HETATM    5  C3  UNL     1       3.764  -7.404 -24.515  1.00  0.00     0.116 C 
HETATM    6  N1  UNL     1       4.462  -6.604 -25.477  1.00  0.00    -0.339 N 
ATOM      7  H1  UNL     1       4.674  -6.943 -26.415  1.00  0.00     0.164 HD
HETATM    8  C4  UNL     1       4.157  -8.863 -24.594  1.00  0.00     0.060 C 
HETATM    9  C11 UNL     1       2.970  -9.585 -24.086  1.00  0.00     0.020 C 
HETATM   10  C12 UNL     1       1.915  -8.590 -23.730  1.00  0.00     0.019 C 
HETATM   11  C13 UNL     1       0.632  -9.020 -24.389  1.00  0.00     0.008 C 
HETATM   12  C14 UNL     1       0.147  -7.856 -25.178  1.00  0.00     0.012 C 
HETATM   13  C15 UNL     1       1.395  -6.981 -25.422  1.00  0.00     0.051 C 
HETATM   14  C22 UNL     1       2.331  -7.248 -24.334  1.00  0.00     0.084 C 
ENDROOT
BRANCH  13  15
HETATM   15  C16 UNL     1       1.810  -7.036 -26.815  1.00  0.00    -0.051 A 
HETATM   16  C17 UNL     1       2.385  -5.954 -27.424  1.00  0.00     0.011 A 
HETATM   17  C18 UNL     1       2.801  -5.985 -28.763  1.00  0.00     0.043 A 
HETATM   18  C19 UNL     1       2.634  -7.137 -29.515  1.00  0.00     0.116 A 
HETATM   19  F1  UNL     1       3.048  -7.137 -30.815  1.00  0.00    -0.206 F 
HETATM   20  C20 UNL     1       2.063  -8.220 -28.917  1.00  0.00     0.043 A 
HETATM   21  C21 UNL     1       1.667  -8.158 -27.606  1.00  0.00     0.011 A 
ENDBRANCH  13  15
BRANCH  14  22
HETATM   22  N2  UNL     1       2.131  -6.186 -23.317  1.00  0.00    -0.337 N 
HETATM   23  C23 UNL     1       1.887  -4.887 -23.566  1.00  0.00     0.110 A 
HETATM   24  C24 UNL     1       1.753  -4.188 -22.372  1.00  0.00     0.106 A 
HETATM   25  N3  UNL     1       1.918  -5.081 -21.413  1.00  0.00    -0.361 N 
HETATM   26  C25 UNL     1       2.145  -6.278 -21.985  1.00  0.00     0.183 A 
ATOM     27  H3  UNL     1       1.880  -4.895 -20.410  1.00  0.00     0.166 HD
ENDBRANCH  14  22
BRANCH   8  28
HETATM   28  C5  UNL     1       5.329  -9.231 -23.775  1.00  0.00    -0.051 A 
HETATM   29  C6  UNL     1       6.590  -9.110 -24.300  1.00  0.00     0.007 A 
HETATM   30  C7  UNL     1       7.717  -9.456 -23.537  1.00  0.00     0.001 A 
HETATM   31  C8  UNL     1       7.588  -9.923 -22.245  1.00  0.00     0.000 A 
HETATM   32  C9  UNL     1       6.323 -10.041 -21.723  1.00  0.00     0.001 A 
HETATM   33  C10 UNL     1       5.225  -9.699 -22.482  1.00  0.00     0.007 A 
ENDBRANCH   8  28
TORSDOF 3
ENDMDL
MODEL 5
REMARK VINA RESULT: -5.897341946      3.414      7.032
REMARK  3 active torsions:
REMARK  status: ('A' for Active; 'I' for Inactive)
REMARK    1  A    between atoms: C4_8  and  C5_9 
REMARK    2  A    between atoms: C15_19  and  C16_20 
REMARK    3  A    between atoms: C22_27  and  N2_28 
ROOT
HETATM    1  O1  UNL     1       0.303  -3.636 -24.007  1.00  0.00    -0.273 OA
HETATM    2  C1  UNL     1       1.580  -3.642 -23.926  1.00  0.00     0.228 C 
HETATM    3  C2  UNL     1       2.319  -2.722 -23.060  1.00  0.00     0.179 C 
HETATM    4  S1  UNL     1       3.899  -3.619 -22.877  1.00  0.00    -0.125 SA
HETATM    5  C3  UNL     1       3.497  -5.071 -23.950  1.00  0.00     0.116 C 
HETATM    6  N1  UNL     1       2.378  -4.522 -24.656  1.00  0.00    -0.339 N 
ATOM      7  H1  UNL     1       2.179  -4.759 -25.627  1.00  0.00     0.164 HD
HETATM    8  C4  UNL     1       4.715  -5.216 -24.835  1.00  0.00     0.060 C 
HETATM    9  C11 UNL     1       5.477  -6.327 -24.223  1.00  0.00     0.020 C 
HETATM   10  C12 UNL     1       4.731  -6.823 -23.027  1.00  0.00     0.019 C 
HETATM   11  C13 UNL     1       4.611  -8.319 -23.144  1.00  0.00     0.008 C 
HETATM   12  C14 UNL     1       3.165  -8.642 -23.018  1.00  0.00     0.012 C 
HETATM   13  C15 UNL     1       2.423  -7.339 -23.386  1.00  0.00     0.051 C 
HETATM   14  C22 UNL     1       3.323  -6.228 -23.090  1.00  0.00     0.084 C 
ENDROOT
BRANCH  13  15
HETATM   15  C16 UNL     1       1.761  -7.459 -24.676  1.00  0.00    -0.051 A 
HETATM   16  C17 UNL     1       0.426  -7.190 -24.812  1.00  0.00     0.011 A 
HETATM   17  C18 UNL     1      -0.233  -7.291 -26.047  1.00  0.00     0.043 A 
HETATM   18  C19 UNL     1       0.469  -7.673 -27.179  1.00  0.00     0.116 A 
HETATM   19  F1  UNL     1      -0.199  -7.763 -28.364  1.00  0.00    -0.206 F 
HETATM   20  C20 UNL     1       1.798  -7.942 -27.053  1.00  0.00     0.043 A 
HETATM   21  C21 UNL     1       2.413  -7.835 -25.833  1.00  0.00     0.011 A 
ENDBRANCH  13  15
BRANCH  14  22
HETATM   22  N2  UNL     1       2.961  -5.723 -21.743  1.00  0.00    -0.337 N 
HETATM   23  C23 UNL     1       3.821  -5.404 -20.758  1.00  0.00     0.110 A 
HETATM   24  C24 UNL     1       3.124  -4.963 -19.639  1.00  0.00     0.106 A 
HETATM   25  N3  UNL     1       1.846  -5.022 -19.965  1.00  0.00    -0.361 N 
HETATM   26  C25 UNL     1       1.752  -5.479 -21.228  1.00  0.00     0.183 A 
ATOM     27  H3  UNL     1       1.063  -4.766 -19.362  1.00  0.00     0.166 HD
ENDBRANCH  14  22
BRANCH   8  28
HETATM   28  C5  UNL     1       5.577  -4.020 -24.898  1.00  0.00    -0.051 A 
HETATM   29  C6  UNL     1       5.538  -3.211 -26.004  1.00  0.00     0.007 A 
HETATM   30  C7  UNL     1       6.352  -2.069 -26.082  1.00  0.00     0.001 A 
HETATM   31  C8  UNL     1       7.209  -1.731 -25.055  1.00  0.00     0.000 A 
HETATM   32  C9  UNL     1       7.244  -2.545 -23.948  1.00  0.00     0.001 A 
HETATM   33  C10 UNL     1       6.441  -3.663 -23.884  1.00  0.00     0.007 A 
ENDBRANCH   8  28
TORSDOF 3
ENDMDL
