MODEL 1
REMARK VINA RESULT: -9.841152238      0.000      0.000
REMARK  9 active torsions:
REMARK  status: ('A' for Active; 'I' for Inactive)
REMARK    1  A    between atoms: C2_2  and  O1_5 
REMARK    2  A    between atoms: O1_5  and  C5_6 
REMARK       I    between atoms: C5_6  and  N1_8 
REMARK    3  A    between atoms: N1_8  and  C6_10 
REMARK    4  A    between atoms: N4_18  and  C10_19 
REMARK    5  A    between atoms: C10_19  and  C13_22 
REMARK    6  A    between atoms: C13_22  and  C14_23 
REMARK    7  A    between atoms: C15_24  and  C16_25 
REMARK       I    between atoms: N6_49  and  C37_50 
REMARK    8  A    between atoms: C37_50  and  O5_52 
REMARK    9  A    between atoms: O5_52  and  C38_53 
ROOT
HETATM    1  C6  UNL     1      70.582 -11.173  21.028  1.00  0.00     0.702 A 
HETATM    2  N2  UNL     1      69.309 -10.903  21.397  1.00  0.00    -0.173 N 
ATOM      3  H2  UNL     1      69.053  -9.947  21.646  1.00  0.00     0.186 HD
HETATM    4  C7  UNL     1      68.373 -11.871  21.440  1.00  0.00     0.157 A 
HETATM    5  C8  UNL     1      68.745 -13.142  21.101  1.00  0.00     0.148 A 
HETATM    6  N3  UNL     1      67.700 -13.972  21.191  1.00  0.00    -0.345 N 
ATOM      7  H3  UNL     1      67.693 -14.973  20.996  1.00  0.00     0.167 HD
HETATM    8  C9  UNL     1      66.655 -13.215  21.594  1.00  0.00     0.186 A 
HETATM    9  N4  UNL     1      67.056 -11.940  21.748  1.00  0.00    -0.317 N 
HETATM   10  C36 UNL     1      70.059 -13.432  20.718  1.00  0.00     0.302 A 
HETATM   11  O3  UNL     1      70.421 -14.588  20.404  1.00  0.00    -0.264 OA
HETATM   12  N6  UNL     1      70.936 -12.432  20.695  1.00  0.00    -0.050 N 
HETATM   13  C37 UNL     1      72.279 -12.674  20.315  1.00  0.00     0.389 C 
HETATM   14  O4  UNL     1      73.141 -11.751  20.279  1.00  0.00    -0.237 OA
ENDROOT
BRANCH   9  15
HETATM   15  C10 UNL     1      66.275 -10.784  22.165  1.00  0.00     0.042 C 
HETATM   16  C11 UNL     1      65.283 -11.177  23.251  1.00  0.00     0.039 C 
HETATM   17  C12 UNL     1      67.173  -9.671  22.653  1.00  0.00     0.039 C 
BRANCH  15  18
HETATM   18  C13 UNL     1      65.488 -10.286  20.993  1.00  0.00     0.125 C 
BRANCH  18  19
HETATM   19  C14 UNL     1      66.376  -9.534  20.107  1.00  0.00    -0.099 C 
HETATM   20  C15 UNL     1      67.128  -8.923  19.387  1.00  0.00    -0.067 C 
BRANCH  20  21
HETATM   21  C16 UNL     1      68.051  -8.203  18.533  1.00  0.00     0.018 A 
HETATM   22  C17 UNL     1      67.659  -7.155  17.727  1.00  0.00     0.023 A 
HETATM   23  C18 UNL     1      68.548  -6.474  16.916  1.00  0.00     0.032 A 
HETATM   24  C19 UNL     1      69.878  -6.823  16.881  1.00  0.00     0.043 A 
HETATM   25  N5  UNL     1      70.959  -6.348  16.197  1.00  0.00    -0.355 N 
HETATM   26  C26 UNL     1      70.291  -7.869  17.679  1.00  0.00     0.004 A 
HETATM   27  C20 UNL     1      72.058  -7.036  16.514  1.00  0.00     0.044 A 
ATOM     28  H5  UNL     1      70.932  -5.573  15.534  1.00  0.00     0.166 HD
HETATM   29  C21 UNL     1      73.398  -7.007  16.149  1.00  0.00     0.038 A 
HETATM   30  C25 UNL     1      71.648  -7.989  17.439  1.00  0.00     0.004 A 
HETATM   31  C22 UNL     1      74.260  -7.920  16.717  1.00  0.00    -0.045 A 
HETATM   32  C23 UNL     1      73.871  -8.867  17.632  1.00  0.00    -0.046 A 
HETATM   33  C35 UNL     1      75.684  -7.875  16.326  1.00  0.00     0.078 C 
HETATM   34  C24 UNL     1      72.537  -8.882  17.983  1.00  0.00     0.022 A 
HETATM   35  C28 UNL     1      74.805  -9.857  18.242  1.00  0.00     0.078 C 
HETATM   36  C29 UNL     1      75.757 -10.208  17.157  1.00  0.00    -0.047 A 
HETATM   37  C30 UNL     1      76.243 -11.491  17.041  1.00  0.00     0.008 A 
HETATM   38  C34 UNL     1      76.168  -9.265  16.247  1.00  0.00    -0.047 A 
HETATM   39  C31 UNL     1      77.135 -11.841  16.026  1.00  0.00     0.001 A 
HETATM   40  C32 UNL     1      77.546 -10.898  15.114  1.00  0.00     0.001 A 
HETATM   41  C33 UNL     1      77.047  -9.612  15.247  1.00  0.00     0.008 A 
HETATM   42  C27 UNL     1      69.395  -8.543  18.486  1.00  0.00     0.035 A 
ENDBRANCH  20  21
ENDBRANCH  18  19
ENDBRANCH  15  18
ENDBRANCH   9  15
BRANCH   1  43
HETATM   43  N1  UNL     1      71.420 -10.206  21.001  1.00  0.00    -0.134 N 
HETATM   44  C5  UNL     1      71.596  -9.311  22.076  1.00  0.00     0.379 C 
HETATM   45  O2  UNL     1      72.689  -9.346  22.715  1.00  0.00    -0.238 OA
ATOM     46  H1  UNL     1      71.987 -10.077  20.163  1.00  0.00     0.189 HD
BRANCH  44  47
HETATM   47  O1  UNL     1      70.641  -8.393  22.469  1.00  0.00    -0.293 OA
BRANCH  47  48
HETATM   48  C2  UNL     1      70.790  -7.038  22.125  1.00  0.00     0.061 C 
HETATM   49  C1  UNL     1      69.429  -6.576  21.613  1.00  0.00     0.046 C 
HETATM   50  C3  UNL     1      71.202  -6.237  23.313  1.00  0.00     0.046 C 
HETATM   51  C4  UNL     1      71.758  -6.828  20.980  1.00  0.00     0.046 C 
ENDBRANCH  47  48
ENDBRANCH  44  47
ENDBRANCH   1  43
BRANCH  13  52
HETATM   52  O5  UNL     1      72.697 -13.938  19.967  1.00  0.00    -0.293 OA
BRANCH  52  53
HETATM   53  C38 UNL     1      73.266 -14.178  18.703  1.00  0.00     0.061 C 
HETATM   54  C39 UNL     1      72.820 -13.182  17.669  1.00  0.00     0.046 C 
HETATM   55  C40 UNL     1      74.773 -14.197  18.753  1.00  0.00     0.046 C 
HETATM   56  C41 UNL     1      72.796 -15.554  18.251  1.00  0.00     0.046 C 
ENDBRANCH  52  53
ENDBRANCH  13  52
TORSDOF 9
ENDMDL
MODEL 2
REMARK VINA RESULT: -9.767496973      4.437      8.040
REMARK  9 active torsions:
REMARK  status: ('A' for Active; 'I' for Inactive)
REMARK    1  A    between atoms: C2_2  and  O1_5 
REMARK    2  A    between atoms: O1_5  and  C5_6 
REMARK       I    between atoms: C5_6  and  N1_8 
REMARK    3  A    between atoms: N1_8  and  C6_10 
REMARK    4  A    between atoms: N4_18  and  C10_19 
REMARK    5  A    between atoms: C10_19  and  C13_22 
REMARK    6  A    between atoms: C13_22  and  C14_23 
REMARK    7  A    between atoms: C15_24  and  C16_25 
REMARK       I    between atoms: N6_49  and  C37_50 
REMARK    8  A    between atoms: C37_50  and  O5_52 
REMARK    9  A    between atoms: O5_52  and  C38_53 
ROOT
HETATM    1  C6  UNL     1      66.685  -6.138  24.548  1.00  0.00     0.702 A 
HETATM    2  N2  UNL     1      67.935  -5.840  24.130  1.00  0.00    -0.173 N 
ATOM      3  H2  UNL     1      68.237  -6.138  23.202  1.00  0.00     0.186 HD
HETATM    4  C7  UNL     1      68.791  -5.158  24.915  1.00  0.00     0.157 A 
HETATM    5  C8  UNL     1      68.361  -4.772  26.154  1.00  0.00     0.148 A 
HETATM    6  N3  UNL     1      69.326  -4.104  26.795  1.00  0.00    -0.345 N 
ATOM      7  H3  UNL     1      69.277  -3.702  27.732  1.00  0.00     0.167 HD
HETATM    8  C9  UNL     1      70.380  -4.068  25.949  1.00  0.00     0.186 A 
HETATM    9  N4  UNL     1      70.064  -4.706  24.809  1.00  0.00    -0.317 N 
HETATM   10  C36 UNL     1      67.068  -5.075  26.596  1.00  0.00     0.302 A 
HETATM   11  O3  UNL     1      66.653  -4.732  27.726  1.00  0.00    -0.264 OA
HETATM   12  N6  UNL     1      66.271  -5.752  25.774  1.00  0.00    -0.050 N 
HETATM   13  C37 UNL     1      64.953  -6.083  26.174  1.00  0.00     0.389 C 
HETATM   14  O4  UNL     1      64.166  -6.723  25.421  1.00  0.00    -0.237 OA
ENDROOT
BRANCH   9  15
HETATM   15  C10 UNL     1      70.885  -4.915  23.624  1.00  0.00     0.042 C 
HETATM   16  C11 UNL     1      72.020  -3.901  23.579  1.00  0.00     0.039 C 
HETATM   17  C12 UNL     1      71.436  -6.322  23.588  1.00  0.00     0.039 C 
BRANCH  15  18
HETATM   18  C13 UNL     1      70.039  -4.701  22.408  1.00  0.00     0.125 C 
BRANCH  18  19
HETATM   19  C14 UNL     1      70.591  -5.479  21.300  1.00  0.00    -0.099 C 
HETATM   20  C15 UNL     1      71.030  -6.113  20.371  1.00  0.00    -0.067 C 
BRANCH  20  21
HETATM   21  C16 UNL     1      71.540  -6.859  19.239  1.00  0.00     0.018 A 
HETATM   22  C17 UNL     1      70.717  -7.489  18.329  1.00  0.00     0.023 A 
HETATM   23  C18 UNL     1      71.214  -8.199  17.251  1.00  0.00     0.032 A 
HETATM   24  C19 UNL     1      72.570  -8.306  17.044  1.00  0.00     0.043 A 
HETATM   25  N5  UNL     1      73.332  -8.924  16.095  1.00  0.00    -0.355 N 
HETATM   26  C26 UNL     1      73.410  -7.684  17.942  1.00  0.00     0.004 A 
HETATM   27  C20 UNL     1      74.630  -8.732  16.335  1.00  0.00     0.044 A 
ATOM     28  H5  UNL     1      72.960  -9.460  15.311  1.00  0.00     0.166 HD
HETATM   29  C21 UNL     1      75.826  -9.107  15.734  1.00  0.00     0.038 A 
HETATM   30  C25 UNL     1      74.687  -7.958  17.487  1.00  0.00     0.004 A 
HETATM   31  C22 UNL     1      77.011  -8.697  16.305  1.00  0.00    -0.045 A 
HETATM   32  C23 UNL     1      77.084  -7.932  17.443  1.00  0.00    -0.046 A 
HETATM   33  C35 UNL     1      78.276  -9.097  15.654  1.00  0.00     0.078 C 
HETATM   34  C24 UNL     1      75.888  -7.569  18.026  1.00  0.00     0.022 A 
HETATM   35  C28 UNL     1      78.369  -7.494  18.061  1.00  0.00     0.078 C 
HETATM   36  C29 UNL     1      79.302  -8.634  17.860  1.00  0.00    -0.047 A 
HETATM   37  C30 UNL     1      80.234  -8.952  18.823  1.00  0.00     0.008 A 
HETATM   38  C34 UNL     1      79.250  -9.394  16.718  1.00  0.00    -0.047 A 
HETATM   39  C31 UNL     1      81.115 -10.021  18.654  1.00  0.00     0.001 A 
HETATM   40  C32 UNL     1      81.065 -10.783  17.512  1.00  0.00     0.001 A 
HETATM   41  C33 UNL     1      80.120 -10.448  16.554  1.00  0.00     0.008 A 
HETATM   42  C27 UNL     1      72.903  -6.976  19.016  1.00  0.00     0.035 A 
ENDBRANCH  20  21
ENDBRANCH  18  19
ENDBRANCH  15  18
ENDBRANCH   9  15
BRANCH   1  43
HETATM   43  N1  UNL     1      65.919  -6.784  23.750  1.00  0.00    -0.134 N 
HETATM   44  C5  UNL     1      66.136  -8.131  23.398  1.00  0.00     0.379 C 
HETATM   45  O2  UNL     1      65.311  -9.000  23.807  1.00  0.00    -0.238 OA
ATOM     46  H1  UNL     1      65.115  -6.300  23.350  1.00  0.00     0.189 HD
BRANCH  44  47
HETATM   47  O1  UNL     1      67.201  -8.556  22.625  1.00  0.00    -0.293 OA
BRANCH  47  48
HETATM   48  C2  UNL     1      67.101  -8.532  21.223  1.00  0.00     0.061 C 
HETATM   49  C1  UNL     1      68.424  -9.073  20.692  1.00  0.00     0.046 C 
HETATM   50  C3  UNL     1      65.965  -9.380  20.763  1.00  0.00     0.046 C 
HETATM   51  C4  UNL     1      66.975  -7.127  20.670  1.00  0.00     0.046 C 
ENDBRANCH  47  48
ENDBRANCH  44  47
ENDBRANCH   1  43
BRANCH  13  52
HETATM   52  O5  UNL     1      64.479  -5.715  27.412  1.00  0.00    -0.293 OA
BRANCH  52  53
HETATM   53  C38 UNL     1      63.366  -4.864  27.526  1.00  0.00     0.061 C 
HETATM   54  C39 UNL     1      63.475  -3.648  26.648  1.00  0.00     0.046 C 
HETATM   55  C40 UNL     1      62.071  -5.577  27.222  1.00  0.00     0.046 C 
HETATM   56  C41 UNL     1      63.308  -4.387  28.970  1.00  0.00     0.046 C 
ENDBRANCH  52  53
ENDBRANCH  13  52
TORSDOF 9
ENDMDL
MODEL 3
REMARK VINA RESULT: -9.523658847      4.500      8.130
REMARK  9 active torsions:
REMARK  status: ('A' for Active; 'I' for Inactive)
REMARK    1  A    between atoms: C2_2  and  O1_5 
REMARK    2  A    between atoms: O1_5  and  C5_6 
REMARK       I    between atoms: C5_6  and  N1_8 
REMARK    3  A    between atoms: N1_8  and  C6_10 
REMARK    4  A    between atoms: N4_18  and  C10_19 
REMARK    5  A    between atoms: C10_19  and  C13_22 
REMARK    6  A    between atoms: C13_22  and  C14_23 
REMARK    7  A    between atoms: C15_24  and  C16_25 
REMARK       I    between atoms: N6_49  and  C37_50 
REMARK    8  A    between atoms: C37_50  and  O5_52 
REMARK    9  A    between atoms: O5_52  and  C38_53 
ROOT
HETATM    1  C6  UNL     1      66.457  -6.112  24.834  1.00  0.00     0.702 A 
HETATM    2  N2  UNL     1      67.691  -5.862  24.340  1.00  0.00    -0.173 N 
ATOM      3  H2  UNL     1      67.927  -6.177  23.400  1.00  0.00     0.186 HD
HETATM    4  C7  UNL     1      68.614  -5.204  25.068  1.00  0.00     0.157 A 
HETATM    5  C8  UNL     1      68.271  -4.793  26.325  1.00  0.00     0.148 A 
HETATM    6  N3  UNL     1      69.294  -4.153  26.903  1.00  0.00    -0.345 N 
ATOM      7  H3  UNL     1      69.314  -3.743  27.836  1.00  0.00     0.167 HD
HETATM    8  C9  UNL     1      70.298  -4.161  25.996  1.00  0.00     0.186 A 
HETATM    9  N4  UNL     1      69.893  -4.797  24.883  1.00  0.00    -0.317 N 
HETATM   10  C36 UNL     1      66.997  -5.046  26.845  1.00  0.00     0.302 A 
HETATM   11  O3  UNL     1      66.661  -4.681  27.994  1.00  0.00    -0.264 OA
HETATM   12  N6  UNL     1      66.130  -5.702  26.077  1.00  0.00    -0.050 N 
HETATM   13  C37 UNL     1      64.827  -5.984  26.557  1.00  0.00     0.389 C 
HETATM   14  O4  UNL     1      63.975  -6.602  25.858  1.00  0.00    -0.237 OA
ENDROOT
BRANCH   9  15
HETATM   15  C10 UNL     1      70.635  -5.043  23.654  1.00  0.00     0.042 C 
HETATM   16  C11 UNL     1      69.706  -4.975  22.449  1.00  0.00     0.039 C 
HETATM   17  C12 UNL     1      71.769  -4.056  23.498  1.00  0.00     0.039 C 
BRANCH  15  18
HETATM   18  C13 UNL     1      71.207  -6.425  23.706  1.00  0.00     0.125 C 
BRANCH  18  19
HETATM   19  C14 UNL     1      71.527  -6.861  22.347  1.00  0.00    -0.099 C 
HETATM   20  C15 UNL     1      71.793  -7.243  21.233  1.00  0.00    -0.067 C 
BRANCH  20  21
HETATM   21  C16 UNL     1      72.110  -7.727  19.905  1.00  0.00     0.018 A 
HETATM   22  C17 UNL     1      71.144  -8.138  19.011  1.00  0.00     0.023 A 
HETATM   23  C18 UNL     1      71.456  -8.598  17.745  1.00  0.00     0.032 A 
HETATM   24  C19 UNL     1      72.763  -8.665  17.324  1.00  0.00     0.043 A 
HETATM   25  N5  UNL     1      73.360  -9.066  16.163  1.00  0.00    -0.355 N 
HETATM   26  C26 UNL     1      73.746  -8.260  18.202  1.00  0.00     0.004 A 
HETATM   27  C20 UNL     1      74.685  -8.940  16.246  1.00  0.00     0.044 A 
ATOM     28  H5  UNL     1      72.860  -9.414  15.345  1.00  0.00     0.166 HD
HETATM   29  C21 UNL     1      75.769  -9.182  15.411  1.00  0.00     0.038 A 
HETATM   30  C25 UNL     1      74.934  -8.437  17.518  1.00  0.00     0.004 A 
HETATM   31  C22 UNL     1      77.038  -8.914  15.877  1.00  0.00    -0.045 A 
HETATM   32  C23 UNL     1      77.300  -8.418  17.130  1.00  0.00    -0.046 A 
HETATM   33  C35 UNL     1      78.182  -9.170  14.977  1.00  0.00     0.078 C 
HETATM   34  C24 UNL     1      76.213  -8.183  17.946  1.00  0.00     0.022 A 
HETATM   35  C28 UNL     1      78.675  -8.134  17.633  1.00  0.00     0.078 C 
HETATM   36  C29 UNL     1      79.526  -9.209  17.058  1.00  0.00    -0.047 A 
HETATM   37  C30 UNL     1      80.572  -9.735  17.782  1.00  0.00     0.008 A 
HETATM   38  C34 UNL     1      79.285  -9.700  15.799  1.00  0.00    -0.047 A 
HETATM   39  C31 UNL     1      81.379 -10.747  17.260  1.00  0.00     0.001 A 
HETATM   40  C32 UNL     1      81.138 -11.241  16.000  1.00  0.00     0.001 A 
HETATM   41  C33 UNL     1      80.081 -10.698  15.286  1.00  0.00     0.008 A 
HETATM   42  C27 UNL     1      73.422  -7.802  19.465  1.00  0.00     0.035 A 
ENDBRANCH  20  21
ENDBRANCH  18  19
ENDBRANCH  15  18
ENDBRANCH   9  15
BRANCH   1  43
HETATM   43  N1  UNL     1      65.625  -6.737  24.088  1.00  0.00    -0.134 N 
HETATM   44  C5  UNL     1      66.022  -7.585  23.035  1.00  0.00     0.379 C 
HETATM   45  O2  UNL     1      65.811  -8.829  23.151  1.00  0.00    -0.238 OA
ATOM     46  H1  UNL     1      64.627  -6.614  24.264  1.00  0.00     0.189 HD
BRANCH  44  47
HETATM   47  O1  UNL     1      66.628  -7.134  21.878  1.00  0.00    -0.293 OA
BRANCH  47  48
HETATM   48  C2  UNL     1      67.387  -8.020  21.093  1.00  0.00     0.061 C 
HETATM   49  C1  UNL     1      67.999  -7.183  19.975  1.00  0.00     0.046 C 
HETATM   50  C3  UNL     1      68.454  -8.662  21.912  1.00  0.00     0.046 C 
HETATM   51  C4  UNL     1      66.537  -9.070  20.410  1.00  0.00     0.046 C 
ENDBRANCH  47  48
ENDBRANCH  44  47
ENDBRANCH   1  43
BRANCH  13  52
HETATM   52  O5  UNL     1      64.440  -5.590  27.817  1.00  0.00    -0.293 OA
BRANCH  52  53
HETATM   53  C38 UNL     1      63.348  -4.720  27.988  1.00  0.00     0.061 C 
HETATM   54  C39 UNL     1      63.477  -3.463  27.173  1.00  0.00     0.046 C 
HETATM   55  C40 UNL     1      62.034  -5.386  27.665  1.00  0.00     0.046 C 
HETATM   56  C41 UNL     1      63.319  -4.316  29.456  1.00  0.00     0.046 C 
ENDBRANCH  52  53
ENDBRANCH  13  52
TORSDOF 9
ENDMDL
MODEL 4
REMARK VINA RESULT: -9.117363822      3.098      6.074
REMARK  9 active torsions:
REMARK  status: ('A' for Active; 'I' for Inactive)
REMARK    1  A    between atoms: C2_2  and  O1_5 
REMARK    2  A    between atoms: O1_5  and  C5_6 
REMARK       I    between atoms: C5_6  and  N1_8 
REMARK    3  A    between atoms: N1_8  and  C6_10 
REMARK    4  A    between atoms: N4_18  and  C10_19 
REMARK    5  A    between atoms: C10_19  and  C13_22 
REMARK    6  A    between atoms: C13_22  and  C14_23 
REMARK    7  A    between atoms: C15_24  and  C16_25 
REMARK       I    between atoms: N6_49  and  C37_50 
REMARK    8  A    between atoms: C37_50  and  O5_52 
REMARK    9  A    between atoms: O5_52  and  C38_53 
ROOT
HETATM    1  C6  UNL     1      67.370  -6.793  22.366  1.00  0.00     0.702 A 
HETATM    2  N2  UNL     1      67.177  -7.703  21.385  1.00  0.00    -0.173 N 
ATOM      3  H2  UNL     1      67.605  -7.553  20.471  1.00  0.00     0.186 HD
HETATM    4  C7  UNL     1      66.429  -8.804  21.590  1.00  0.00     0.157 A 
HETATM    5  C8  UNL     1      65.866  -8.980  22.824  1.00  0.00     0.148 A 
HETATM    6  N3  UNL     1      65.166 -10.120  22.858  1.00  0.00    -0.345 N 
ATOM      7  H3  UNL     1      64.646 -10.496  23.651  1.00  0.00     0.167 HD
HETATM    8  C9  UNL     1      65.288 -10.670  21.629  1.00  0.00     0.186 A 
HETATM    9  N4  UNL     1      66.051  -9.878  20.855  1.00  0.00    -0.317 N 
HETATM   10  C36 UNL     1      66.061  -8.045  23.846  1.00  0.00     0.302 A 
HETATM   11  O3  UNL     1      65.555  -8.185  24.982  1.00  0.00    -0.264 OA
HETATM   12  N6  UNL     1      66.810  -6.978  23.580  1.00  0.00    -0.050 N 
HETATM   13  C37 UNL     1      67.037  -6.002  24.581  1.00  0.00     0.389 C 
HETATM   14  O4  UNL     1      67.744  -4.976  24.368  1.00  0.00    -0.237 OA
ENDROOT
BRANCH   9  15
HETATM   15  C10 UNL     1      66.448 -10.071  19.467  1.00  0.00     0.042 C 
HETATM   16  C11 UNL     1      65.338 -10.765  18.689  1.00  0.00     0.039 C 
HETATM   17  C12 UNL     1      66.798  -8.752  18.816  1.00  0.00     0.039 C 
BRANCH  15  18
HETATM   18  C13 UNL     1      67.652 -10.958  19.429  1.00  0.00     0.125 C 
BRANCH  18  19
HETATM   19  C14 UNL     1      68.784 -10.204  18.891  1.00  0.00    -0.099 C 
HETATM   20  C15 UNL     1      69.711  -9.588  18.425  1.00  0.00    -0.067 C 
BRANCH  20  21
HETATM   21  C16 UNL     1      70.812  -8.849  17.841  1.00  0.00     0.018 A 
HETATM   22  C17 UNL     1      70.655  -7.606  17.265  1.00  0.00     0.023 A 
HETATM   23  C18 UNL     1      71.712  -6.909  16.711  1.00  0.00     0.032 A 
HETATM   24  C19 UNL     1      72.982  -7.438  16.713  1.00  0.00     0.043 A 
HETATM   25  N5  UNL     1      74.188  -6.995  16.252  1.00  0.00    -0.355 N 
HETATM   26  C26 UNL     1      73.162  -8.680  17.284  1.00  0.00     0.004 A 
HETATM   27  C20 UNL     1      75.145  -7.892  16.498  1.00  0.00     0.044 A 
ATOM     28  H5  UNL     1      74.337  -6.101  15.784  1.00  0.00     0.166 HD
HETATM   29  C21 UNL     1      76.512  -7.987  16.268  1.00  0.00     0.038 A 
HETATM   30  C25 UNL     1      74.511  -8.947  17.142  1.00  0.00     0.004 A 
HETATM   31  C22 UNL     1      77.177  -9.118  16.686  1.00  0.00    -0.045 A 
HETATM   32  C23 UNL     1      76.566 -10.170  17.324  1.00  0.00    -0.046 A 
HETATM   33  C35 UNL     1      78.632  -9.205  16.441  1.00  0.00     0.078 C 
HETATM   34  C24 UNL     1      75.209 -10.059  17.544  1.00  0.00     0.022 A 
HETATM   35  C28 UNL     1      77.288 -11.396  17.770  1.00  0.00     0.078 C 
HETATM   36  C29 UNL     1      78.310 -11.645  16.721  1.00  0.00    -0.047 A 
HETATM   37  C30 UNL     1      78.639 -12.933  16.358  1.00  0.00     0.008 A 
HETATM   38  C34 UNL     1      78.941 -10.603  16.089  1.00  0.00    -0.047 A 
HETATM   39  C31 UNL     1      79.593 -13.187  15.372  1.00  0.00     0.001 A 
HETATM   40  C32 UNL     1      80.226 -12.144  14.738  1.00  0.00     0.001 A 
HETATM   41  C33 UNL     1      79.882 -10.855  15.117  1.00  0.00     0.008 A 
HETATM   42  C27 UNL     1      72.098  -9.368  17.835  1.00  0.00     0.035 A 
ENDBRANCH  20  21
ENDBRANCH  18  19
ENDBRANCH  15  18
ENDBRANCH   9  15
BRANCH   1  43
HETATM   43  N1  UNL     1      68.098  -5.772  22.106  1.00  0.00    -0.134 N 
HETATM   44  C5  UNL     1      68.871  -5.657  20.933  1.00  0.00     0.379 C 
HETATM   45  O2  UNL     1      68.535  -4.788  20.075  1.00  0.00    -0.238 OA
ATOM     46  H1  UNL     1      68.119  -5.006  22.780  1.00  0.00     0.189 HD
BRANCH  44  47
HETATM   47  O1  UNL     1      69.979  -6.439  20.669  1.00  0.00    -0.293 OA
BRANCH  47  48
HETATM   48  C2  UNL     1      71.216  -6.119  21.255  1.00  0.00     0.061 C 
HETATM   49  C1  UNL     1      71.499  -7.215  22.278  1.00  0.00     0.046 C 
HETATM   50  C3  UNL     1      72.291  -6.076  20.222  1.00  0.00     0.046 C 
HETATM   51  C4  UNL     1      71.176  -4.822  22.036  1.00  0.00     0.046 C 
ENDBRANCH  47  48
ENDBRANCH  44  47
ENDBRANCH   1  43
BRANCH  13  52
HETATM   52  O5  UNL     1      66.489  -6.138  25.835  1.00  0.00    -0.293 OA
BRANCH  52  53
HETATM   53  C38 UNL     1      65.505  -5.240  26.285  1.00  0.00     0.061 C 
HETATM   54  C39 UNL     1      66.090  -4.032  26.962  1.00  0.00     0.046 C 
HETATM   55  C40 UNL     1      64.594  -4.789  25.170  1.00  0.00     0.046 C 
HETATM   56  C41 UNL     1      64.656  -5.978  27.312  1.00  0.00     0.046 C 
ENDBRANCH  52  53
ENDBRANCH  13  52
TORSDOF 9
ENDMDL
MODEL 5
REMARK VINA RESULT: -8.936393185      4.025      7.742
REMARK  9 active torsions:
REMARK  status: ('A' for Active; 'I' for Inactive)
REMARK    1  A    between atoms: C2_2  and  O1_5 
REMARK    2  A    between atoms: O1_5  and  C5_6 
REMARK       I    between atoms: C5_6  and  N1_8 
REMARK    3  A    between atoms: N1_8  and  C6_10 
REMARK    4  A    between atoms: N4_18  and  C10_19 
REMARK    5  A    between atoms: C10_19  and  C13_22 
REMARK    6  A    between atoms: C13_22  and  C14_23 
REMARK    7  A    between atoms: C15_24  and  C16_25 
REMARK       I    between atoms: N6_49  and  C37_50 
REMARK    8  A    between atoms: C37_50  and  O5_52 
REMARK    9  A    between atoms: O5_52  and  C38_53 
ROOT
HETATM    1  C6  UNL     1      66.851  -6.624  23.550  1.00  0.00     0.702 A 
HETATM    2  N2  UNL     1      68.092  -6.376  23.076  1.00  0.00    -0.173 N 
ATOM      3  H2  UNL     1      68.363  -6.747  22.165  1.00  0.00     0.186 HD
HETATM    4  C7  UNL     1      68.978  -5.648  23.783  1.00  0.00     0.157 A 
HETATM    5  C8  UNL     1      68.589  -5.163  25.000  1.00  0.00     0.148 A 
HETATM    6  N3  UNL     1      69.580  -4.462  25.562  1.00  0.00    -0.345 N 
ATOM      7  H3  UNL     1      69.562  -3.990  26.466  1.00  0.00     0.167 HD
HETATM    8  C9  UNL     1      70.609  -4.505  24.686  1.00  0.00     0.186 A 
HETATM    9  N4  UNL     1      70.253  -5.222  23.607  1.00  0.00    -0.317 N 
HETATM   10  C36 UNL     1      67.306  -5.414  25.500  1.00  0.00     0.302 A 
HETATM   11  O3  UNL     1      66.928  -4.981  26.612  1.00  0.00    -0.264 OA
HETATM   12  N6  UNL     1      66.477  -6.140  24.754  1.00  0.00    -0.050 N 
HETATM   13  C37 UNL     1      65.168  -6.422  25.215  1.00  0.00     0.389 C 
HETATM   14  O4  UNL     1      64.352  -7.106  24.535  1.00  0.00    -0.237 OA
ENDROOT
BRANCH   9  15
HETATM   15  C10 UNL     1      71.037  -5.532  22.418  1.00  0.00     0.042 C 
HETATM   16  C11 UNL     1      72.071  -4.442  22.166  1.00  0.00     0.039 C 
HETATM   17  C12 UNL     1      71.713  -6.877  22.551  1.00  0.00     0.039 C 
BRANCH  15  18
HETATM   18  C13 UNL     1      70.122  -5.570  21.235  1.00  0.00     0.125 C 
BRANCH  18  19
HETATM   19  C14 UNL     1      70.745  -6.364  20.177  1.00  0.00    -0.099 C 
HETATM   20  C15 UNL     1      71.273  -7.002  19.298  1.00  0.00    -0.067 C 
BRANCH  20  21
HETATM   21  C16 UNL     1      71.927  -7.749  18.243  1.00  0.00     0.018 A 
HETATM   22  C17 UNL     1      71.229  -8.444  17.278  1.00  0.00     0.023 A 
HETATM   23  C18 UNL     1      71.863  -9.153  16.274  1.00  0.00     0.032 A 
HETATM   24  C19 UNL     1      73.236  -9.193  16.200  1.00  0.00     0.043 A 
HETATM   25  N5  UNL     1      74.116  -9.794  15.347  1.00  0.00    -0.355 N 
HETATM   26  C26 UNL     1      73.953  -8.505  17.156  1.00  0.00     0.004 A 
HETATM   27  C20 UNL     1      75.374  -9.527  15.704  1.00  0.00     0.044 A 
ATOM     28  H5  UNL     1      73.849 -10.367  14.547  1.00  0.00     0.166 HD
HETATM   29  C21 UNL     1      76.640  -9.853  15.231  1.00  0.00     0.038 A 
HETATM   30  C25 UNL     1      75.280  -8.723  16.833  1.00  0.00     0.004 A 
HETATM   31  C22 UNL     1      77.742  -9.367  15.899  1.00  0.00    -0.045 A 
HETATM   32  C23 UNL     1      77.666  -8.572  17.016  1.00  0.00    -0.046 A 
HETATM   33  C35 UNL     1      79.083  -9.716  15.384  1.00  0.00     0.078 C 
HETATM   34  C24 UNL     1      76.403  -8.258  17.471  1.00  0.00     0.022 A 
HETATM   35  C28 UNL     1      78.862  -8.051  17.740  1.00  0.00     0.078 C 
HETATM   36  C29 UNL     1      79.865  -9.145  17.664  1.00  0.00    -0.047 A 
HETATM   37  C30 UNL     1      80.715  -9.389  18.720  1.00  0.00     0.008 A 
HETATM   38  C34 UNL     1      79.963  -9.935  16.545  1.00  0.00    -0.047 A 
HETATM   39  C31 UNL     1      81.661 -10.414  18.668  1.00  0.00     0.001 A 
HETATM   40  C32 UNL     1      81.760 -11.206  17.549  1.00  0.00     0.001 A 
HETATM   41  C33 UNL     1      80.896 -10.945  16.496  1.00  0.00     0.008 A 
HETATM   42  C27 UNL     1      73.310  -7.799  18.154  1.00  0.00     0.035 A 
ENDBRANCH  20  21
ENDBRANCH  18  19
ENDBRANCH  15  18
ENDBRANCH   9  15
BRANCH   1  43
HETATM   43  N1  UNL     1      66.055  -7.317  22.825  1.00  0.00    -0.134 N 
HETATM   44  C5  UNL     1      66.378  -8.601  22.341  1.00  0.00     0.379 C 
HETATM   45  O2  UNL     1      65.740  -9.595  22.798  1.00  0.00    -0.238 OA
ATOM     46  H1  UNL     1      65.146  -6.922  22.587  1.00  0.00     0.189 HD
BRANCH  44  47
HETATM   47  O1  UNL     1      67.353  -8.836  21.390  1.00  0.00    -0.293 OA
BRANCH  47  48
HETATM   48  C2  UNL     1      67.033  -8.751  20.024  1.00  0.00     0.061 C 
HETATM   49  C1  UNL     1      68.241  -9.294  19.268  1.00  0.00     0.046 C 
HETATM   50  C3  UNL     1      65.817  -9.559  19.719  1.00  0.00     0.046 C 
HETATM   51  C4  UNL     1      66.855  -7.323  19.552  1.00  0.00     0.046 C 
ENDBRANCH  47  48
ENDBRANCH  44  47
ENDBRANCH   1  43
BRANCH  13  52
HETATM   52  O5  UNL     1      64.735  -5.956  26.434  1.00  0.00    -0.293 OA
BRANCH  52  53
HETATM   53  C38 UNL     1      63.664  -5.046  26.511  1.00  0.00     0.061 C 
HETATM   54  C39 UNL     1      63.604  -4.123  25.325  1.00  0.00     0.046 C 
HETATM   55  C40 UNL     1      62.335  -5.744  26.662  1.00  0.00     0.046 C 
HETATM   56  C41 UNL     1      63.887  -4.191  27.751  1.00  0.00     0.046 C 
ENDBRANCH  52  53
ENDBRANCH  13  52
TORSDOF 9
ENDMDL
