MODEL 1
REMARK VINA RESULT: -10.996248335      0.000      0.000
REMARK  0 active torsions:
REMARK  status: ('A' for Active; 'I' for Inactive)
ROOT
HETATM    1  O1  UNL     1      64.886 -11.073  23.761  1.00  0.00    -0.268 OA
HETATM    2  C1  UNL     1      65.566 -11.052  22.660  1.00  0.00     0.251 C 
HETATM    3  N1  UNL     1      65.276 -12.257  21.898  1.00  0.00    -0.351 N 
ATOM      4  H1  UNL     1      64.724 -12.998  22.330  1.00  0.00     0.163 HD
HETATM    5  C2  UNL     1      65.759 -12.432  20.521  1.00  0.00     0.179 C 
HETATM    6  C3  UNL     1      66.505 -13.702  20.374  1.00  0.00     0.026 A 
HETATM    7  C4  UNL     1      66.437 -14.790  19.604  1.00  0.00     0.027 A 
HETATM    8  C5  UNL     1      67.372 -15.876  19.714  1.00  0.00     0.011 A 
HETATM    9  C6  UNL     1      68.379 -15.799  20.649  1.00  0.00    -0.038 A 
HETATM   10  C7  UNL     1      68.454 -14.678  21.448  1.00  0.00     0.095 A 
HETATM   11  N2  UNL     1      67.529 -13.728  21.258  1.00  0.00    -0.367 N 
ATOM     12  H2  UNL     1      67.608 -12.910  21.863  1.00  0.00     0.165 HD
HETATM   13  C8  UNL     1      69.420 -16.905  20.768  1.00  0.00     0.078 C 
HETATM   14  C9  UNL     1      70.633 -16.549  19.913  1.00  0.00    -0.054 A 
HETATM   15  C10 UNL     1      70.687 -16.940  18.606  1.00  0.00     0.010 A 
HETATM   16  C11 UNL     1      71.803 -16.573  17.791  1.00  0.00     0.037 A 
HETATM   17  C12 UNL     1      72.845 -15.830  18.265  1.00  0.00     0.069 A 
HETATM   18  C13 UNL     1      72.773 -15.449  19.568  1.00  0.00     0.037 A 
HETATM   19  C14 UNL     1      71.675 -15.800  20.406  1.00  0.00     0.010 A 
HETATM   20  O2  UNL     1      73.907 -15.492  17.440  1.00  0.00    -0.347 OA
HETATM   21  C15 UNL     1      75.175 -16.032  17.290  1.00  0.00     0.214 C 
HETATM   22  C16 UNL     1      76.277 -14.994  17.297  1.00  0.00    -0.034 A 
HETATM   23  C17 UNL     1      76.940 -14.994  18.542  1.00  0.00     0.009 A 
HETATM   24  C18 UNL     1      77.976 -14.147  18.854  1.00  0.00     0.001 A 
HETATM   25  C19 UNL     1      78.318 -13.293  17.852  1.00  0.00     0.007 A 
HETATM   26  C20 UNL     1      77.670 -13.265  16.580  1.00  0.00    -0.052 A 
HETATM   27  C21 UNL     1      76.644 -14.118  16.299  1.00  0.00     0.016 A 
HETATM   28  C22 UNL     1      78.353 -12.186  15.786  1.00  0.00     0.097 C 
HETATM   29  C23 UNL     1      78.037 -10.927  16.523  1.00  0.00     0.043 A 
HETATM   30  N3  UNL     1      76.775 -10.810  16.972  1.00  0.00    -0.194 N 
ATOM     31  H3  UNL     1      76.121 -11.567  16.772  1.00  0.00     0.184 HD
HETATM   32  C24 UNL     1      76.328  -9.752  17.667  1.00  0.00     0.679 A 
HETATM   33  N4  UNL     1      77.194  -8.760  17.926  1.00  0.00    -0.191 N 
ATOM     34  H4  UNL     1      76.870  -7.948  18.453  1.00  0.00     0.184 HD
HETATM   35  C25 UNL     1      78.464  -8.798  17.519  1.00  0.00     0.061 A 
HETATM   36  C26 UNL     1      79.368  -7.787  17.772  1.00  0.00     0.031 A 
HETATM   37  C27 UNL     1      80.666  -7.870  17.327  1.00  0.00     0.002 A 
HETATM   38  C28 UNL     1      81.076  -8.996  16.604  1.00  0.00     0.001 A 
HETATM   39  C29 UNL     1      80.186 -10.015  16.342  1.00  0.00     0.016 A 
HETATM   40  C30 UNL     1      78.902  -9.915  16.793  1.00  0.00     0.015 A 
HETATM   41  N5  UNL     1      74.984  -9.699  18.103  1.00  0.00    -0.222 N 
ATOM     42  H5  UNL     1      74.811  -9.294  19.022  1.00  0.00     0.178 HD
HETATM   43  C31 UNL     1      73.830 -10.169  17.363  1.00  0.00     0.176 C 
HETATM   44  C32 UNL     1      72.656  -9.218  17.425  1.00  0.00    -0.037 A 
HETATM   45  C33 UNL     1      72.546  -8.515  16.198  1.00  0.00     0.009 A 
HETATM   46  C34 UNL     1      71.574  -7.590  15.944  1.00  0.00     0.003 A 
HETATM   47  C35 UNL     1      70.692  -7.382  16.976  1.00  0.00     0.037 A 
HETATM   48  C36 UNL     1      70.760  -8.055  18.214  1.00  0.00     0.069 A 
HETATM   49  C37 UNL     1      71.767  -8.989  18.430  1.00  0.00     0.045 A 
HETATM   50  O3  UNL     1      69.757  -7.644  19.036  1.00  0.00    -0.347 OA
HETATM   51  C38 UNL     1      69.400  -7.217  20.268  1.00  0.00     0.214 C 
HETATM   52  C39 UNL     1      68.405  -8.199  20.877  1.00  0.00    -0.034 A 
HETATM   53  C40 UNL     1      67.057  -8.098  20.651  1.00  0.00     0.010 A 
HETATM   54  C41 UNL     1      66.161  -9.028  21.240  1.00  0.00     0.017 A 
HETATM   55  C42 UNL     1      66.539 -10.074  22.057  1.00  0.00     0.032 A 
HETATM   56  C43 UNL     1      67.903 -10.135  22.252  1.00  0.00     0.017 A 
HETATM   57  C44 UNL     1      68.828  -9.225  21.682  1.00  0.00     0.010 A 
ENDROOT
TORSDOF 0
ENDMDL
MODEL 2
REMARK VINA RESULT: -10.896153940      6.685     13.458
REMARK  0 active torsions:
REMARK  status: ('A' for Active; 'I' for Inactive)
ROOT
HETATM    1  O1  UNL     1      68.103 -15.594  19.226  1.00  0.00    -0.268 OA
HETATM    2  C1  UNL     1      68.339 -14.546  19.948  1.00  0.00     0.251 C 
HETATM    3  N1  UNL     1      69.419 -14.841  20.877  1.00  0.00    -0.351 N 
ATOM      4  H1  UNL     1      69.759 -15.800  20.957  1.00  0.00     0.163 HD
HETATM    5  C2  UNL     1      70.033 -13.791  21.703  1.00  0.00     0.179 C 
HETATM    6  C3  UNL     1      70.019 -14.163  23.136  1.00  0.00     0.026 A 
HETATM    7  C4  UNL     1      70.914 -14.297  24.116  1.00  0.00     0.027 A 
HETATM    8  C5  UNL     1      70.546 -14.667  25.455  1.00  0.00     0.011 A 
HETATM    9  C6  UNL     1      69.219 -14.895  25.744  1.00  0.00    -0.038 A 
HETATM   10  C7  UNL     1      68.291 -14.759  24.734  1.00  0.00     0.095 A 
HETATM   11  N2  UNL     1      68.748 -14.410  23.525  1.00  0.00    -0.367 N 
ATOM     12  H2  UNL     1      68.040 -14.316  22.797  1.00  0.00     0.165 HD
HETATM   13  C8  UNL     1      68.777 -15.243  27.160  1.00  0.00     0.078 C 
HETATM   14  C9  UNL     1      68.378 -13.965  27.891  1.00  0.00    -0.054 A 
HETATM   15  C10 UNL     1      69.313 -13.257  28.592  1.00  0.00     0.010 A 
HETATM   16  C11 UNL     1      68.951 -12.038  29.244  1.00  0.00     0.037 A 
HETATM   17  C12 UNL     1      67.685 -11.529  29.200  1.00  0.00     0.069 A 
HETATM   18  C13 UNL     1      66.769 -12.247  28.497  1.00  0.00     0.037 A 
HETATM   19  C14 UNL     1      67.098 -13.466  27.837  1.00  0.00     0.010 A 
HETATM   20  O2  UNL     1      67.376 -10.341  29.843  1.00  0.00    -0.347 OA
HETATM   21  C15 UNL     1      66.771 -10.074  31.061  1.00  0.00     0.214 C 
HETATM   22  C16 UNL     1      65.671  -9.037  30.973  1.00  0.00    -0.034 A 
HETATM   23  C17 UNL     1      64.406  -9.660  31.018  1.00  0.00     0.009 A 
HETATM   24  C18 UNL     1      63.217  -8.978  30.940  1.00  0.00     0.001 A 
HETATM   25  C19 UNL     1      63.355  -7.631  30.815  1.00  0.00     0.007 A 
HETATM   26  C20 UNL     1      64.617  -6.966  30.767  1.00  0.00    -0.052 A 
HETATM   27  C21 UNL     1      65.782  -7.670  30.846  1.00  0.00     0.016 A 
HETATM   28  C22 UNL     1      64.313  -5.499  30.624  1.00  0.00     0.097 C 
HETATM   29  C23 UNL     1      63.650  -5.386  29.292  1.00  0.00     0.043 A 
HETATM   30  N3  UNL     1      64.195  -6.114  28.302  1.00  0.00    -0.194 N 
ATOM     31  H3  UNL     1      65.019  -6.676  28.514  1.00  0.00     0.184 HD
HETATM   32  C24 UNL     1      63.714  -6.141  27.048  1.00  0.00     0.679 A 
HETATM   33  N4  UNL     1      62.629  -5.400  26.776  1.00  0.00    -0.191 N 
ATOM     34  H4  UNL     1      62.251  -5.409  25.828  1.00  0.00     0.184 HD
HETATM   35  C25 UNL     1      62.027  -4.651  27.701  1.00  0.00     0.061 A 
HETATM   36  C26 UNL     1      60.913  -3.879  27.440  1.00  0.00     0.031 A 
HETATM   37  C27 UNL     1      60.331  -3.119  28.426  1.00  0.00     0.002 A 
HETATM   38  C28 UNL     1      60.877  -3.127  29.716  1.00  0.00     0.001 A 
HETATM   39  C29 UNL     1      61.989  -3.892  29.994  1.00  0.00     0.016 A 
HETATM   40  C30 UNL     1      62.552  -4.640  29.001  1.00  0.00     0.015 A 
HETATM   41  N5  UNL     1      64.344  -6.930  26.058  1.00  0.00    -0.222 N 
ATOM     42  H5  UNL     1      63.739  -7.402  25.387  1.00  0.00     0.178 HD
HETATM   43  C31 UNL     1      65.771  -7.131  25.910  1.00  0.00     0.176 C 
HETATM   44  C32 UNL     1      66.238  -7.054  24.475  1.00  0.00    -0.037 A 
HETATM   45  C33 UNL     1      66.882  -5.811  24.248  1.00  0.00     0.009 A 
HETATM   46  C34 UNL     1      67.422  -5.449  23.046  1.00  0.00     0.003 A 
HETATM   47  C35 UNL     1      67.297  -6.389  22.053  1.00  0.00     0.037 A 
HETATM   48  C36 UNL     1      66.664  -7.637  22.228  1.00  0.00     0.069 A 
HETATM   49  C37 UNL     1      66.128  -7.964  23.469  1.00  0.00     0.045 A 
HETATM   50  O3  UNL     1      66.694  -8.354  21.072  1.00  0.00    -0.347 OA
HETATM   51  C38 UNL     1      66.006  -9.102  20.180  1.00  0.00     0.214 C 
HETATM   52  C39 UNL     1      66.615 -10.499  20.114  1.00  0.00    -0.034 A 
HETATM   53  C40 UNL     1      67.660 -10.794  19.278  1.00  0.00     0.010 A 
HETATM   54  C41 UNL     1      68.197 -12.108  19.240  1.00  0.00     0.017 A 
HETATM   55  C42 UNL     1      67.742 -13.165  20.003  1.00  0.00     0.032 A 
HETATM   56  C43 UNL     1      66.692 -12.818  20.827  1.00  0.00     0.017 A 
HETATM   57  C44 UNL     1      66.130 -11.519  20.893  1.00  0.00     0.010 A 
ENDROOT
TORSDOF 0
ENDMDL
MODEL 3
REMARK VINA RESULT: -10.811434349      2.048      2.946
REMARK  0 active torsions:
REMARK  status: ('A' for Active; 'I' for Inactive)
ROOT
HETATM    1  O1  UNL     1      66.516  -6.901  23.886  1.00  0.00    -0.268 OA
HETATM    2  C1  UNL     1      67.142  -7.281  22.819  1.00  0.00     0.251 C 
HETATM    3  N1  UNL     1      66.335  -8.268  22.119  1.00  0.00    -0.351 N 
ATOM      4  H1  UNL     1      65.496  -8.634  22.569  1.00  0.00     0.163 HD
HETATM    5  C2  UNL     1      66.700  -8.751  20.779  1.00  0.00     0.179 C 
HETATM    6  C3  UNL     1      66.771 -10.229  20.746  1.00  0.00     0.026 A 
HETATM    7  C4  UNL     1      66.215 -11.216  20.041  1.00  0.00     0.027 A 
HETATM    8  C5  UNL     1      66.536 -12.599  20.260  1.00  0.00     0.011 A 
HETATM    9  C6  UNL     1      67.450 -12.927  21.235  1.00  0.00    -0.038 A 
HETATM   10  C7  UNL     1      68.027 -11.912  21.968  1.00  0.00     0.095 A 
HETATM   11  N2  UNL     1      67.654 -10.659  21.676  1.00  0.00    -0.367 N 
ATOM     12  H2  UNL     1      68.096  -9.927  22.233  1.00  0.00     0.165 HD
HETATM   13  C8  UNL     1      67.856 -14.377  21.470  1.00  0.00     0.078 C 
HETATM   14  C9  UNL     1      69.106 -14.689  20.654  1.00  0.00    -0.054 A 
HETATM   15  C10 UNL     1      68.990 -15.159  19.376  1.00  0.00     0.010 A 
HETATM   16  C11 UNL     1      70.159 -15.413  18.594  1.00  0.00     0.037 A 
HETATM   17  C12 UNL     1      71.421 -15.203  19.070  1.00  0.00     0.069 A 
HETATM   18  C13 UNL     1      71.516 -14.735  20.343  1.00  0.00     0.037 A 
HETATM   19  C14 UNL     1      70.371 -14.473  21.149  1.00  0.00     0.010 A 
HETATM   20  O2  UNL     1      72.529 -15.459  18.278  1.00  0.00    -0.347 OA
HETATM   21  C15 UNL     1      73.401 -16.535  18.221  1.00  0.00     0.214 C 
HETATM   22  C16 UNL     1      74.860 -16.128  18.216  1.00  0.00    -0.034 A 
HETATM   23  C17 UNL     1      75.431 -16.341  19.489  1.00  0.00     0.009 A 
HETATM   24  C18 UNL     1      76.737 -16.049  19.797  1.00  0.00     0.001 A 
HETATM   25  C19 UNL     1      77.450 -15.529  18.763  1.00  0.00     0.007 A 
HETATM   26  C20 UNL     1      76.907 -15.300  17.462  1.00  0.00    -0.052 A 
HETATM   27  C21 UNL     1      75.606 -15.600  17.185  1.00  0.00     0.016 A 
HETATM   28  C22 UNL     1      78.024 -14.724  16.637  1.00  0.00     0.097 C 
HETATM   29  C23 UNL     1      78.321 -13.410  17.280  1.00  0.00     0.043 A 
HETATM   30  N3  UNL     1      77.252 -12.689  17.661  1.00  0.00    -0.194 N 
ATOM     31  H3  UNL     1      76.324 -13.069  17.478  1.00  0.00     0.184 HD
HETATM   32  C24 UNL     1      77.339 -11.494  18.269  1.00  0.00     0.679 A 
HETATM   33  N4  UNL     1      78.564 -11.000  18.508  1.00  0.00    -0.191 N 
ATOM     34  H4  UNL     1      78.648 -10.094  18.968  1.00  0.00     0.184 HD
HETATM   35  C25 UNL     1      79.675 -11.653  18.164  1.00  0.00     0.061 A 
HETATM   36  C26 UNL     1      80.943 -11.159  18.397  1.00  0.00     0.031 A 
HETATM   37  C27 UNL     1      82.059 -11.867  18.020  1.00  0.00     0.002 A 
HETATM   38  C28 UNL     1      81.908 -13.107  17.387  1.00  0.00     0.001 A 
HETATM   39  C29 UNL     1      80.649 -13.614  17.145  1.00  0.00     0.016 A 
HETATM   40  C30 UNL     1      79.554 -12.897  17.529  1.00  0.00     0.015 A 
HETATM   41  N5  UNL     1      76.168 -10.792  18.637  1.00  0.00    -0.222 N 
ATOM     42  H5  UNL     1      76.191 -10.285  19.521  1.00  0.00     0.178 HD
HETATM   43  C31 UNL     1      74.938 -10.729  17.874  1.00  0.00     0.176 C 
HETATM   44  C32 UNL     1      74.341  -9.341  17.822  1.00  0.00    -0.037 A 
HETATM   45  C33 UNL     1      74.588  -8.762  16.551  1.00  0.00     0.009 A 
HETATM   46  C34 UNL     1      74.160  -7.514  16.195  1.00  0.00     0.003 A 
HETATM   47  C35 UNL     1      73.463  -6.844  17.170  1.00  0.00     0.037 A 
HETATM   48  C36 UNL     1      73.194  -7.376  18.449  1.00  0.00     0.069 A 
HETATM   49  C37 UNL     1      73.648  -8.651  18.768  1.00  0.00     0.045 A 
HETATM   50  O3  UNL     1      72.486  -6.487  19.196  1.00  0.00    -0.347 OA
HETATM   51  C38 UNL     1      72.353  -5.850  20.381  1.00  0.00     0.214 C 
HETATM   52  C39 UNL     1      71.006  -6.211  21.002  1.00  0.00    -0.034 A 
HETATM   53  C40 UNL     1      69.863  -5.514  20.707  1.00  0.00     0.010 A 
HETATM   54  C41 UNL     1      68.630  -5.876  21.308  1.00  0.00     0.017 A 
HETATM   55  C42 UNL     1      68.467  -6.914  22.205  1.00  0.00     0.032 A 
HETATM   56  C43 UNL     1      69.643  -7.584  22.467  1.00  0.00     0.017 A 
HETATM   57  C44 UNL     1      70.893  -7.252  21.887  1.00  0.00     0.010 A 
ENDROOT
TORSDOF 0
ENDMDL
MODEL 4
REMARK VINA RESULT: -10.806135377      2.314      3.976
REMARK  0 active torsions:
REMARK  status: ('A' for Active; 'I' for Inactive)
ROOT
HETATM    1  O1  UNL     1      67.329  -5.377  24.832  1.00  0.00    -0.268 OA
HETATM    2  C1  UNL     1      67.693  -5.880  23.696  1.00  0.00     0.251 C 
HETATM    3  N1  UNL     1      66.635  -6.745  23.198  1.00  0.00    -0.351 N 
ATOM      4  H1  UNL     1      65.843  -6.962  23.802  1.00  0.00     0.163 HD
HETATM    5  C2  UNL     1      66.681  -7.316  21.844  1.00  0.00     0.179 C 
HETATM    6  C3  UNL     1      66.521  -8.788  21.879  1.00  0.00     0.026 A 
HETATM    7  C4  UNL     1      65.707  -9.692  21.333  1.00  0.00     0.027 A 
HETATM    8  C5  UNL     1      65.847 -11.103  21.570  1.00  0.00     0.011 A 
HETATM    9  C6  UNL     1      66.858 -11.545  22.392  1.00  0.00    -0.038 A 
HETATM   10  C7  UNL     1      67.702 -10.614  22.960  1.00  0.00     0.095 A 
HETATM   11  N2  UNL     1      67.477  -9.326  22.669  1.00  0.00    -0.367 N 
ATOM     12  H2  UNL     1      68.117  -8.660  23.102  1.00  0.00     0.165 HD
HETATM   13  C8  UNL     1      67.074 -13.034  22.633  1.00  0.00     0.078 C 
HETATM   14  C9  UNL     1      68.099 -13.563  21.635  1.00  0.00    -0.054 A 
HETATM   15  C10 UNL     1      67.690 -14.042  20.423  1.00  0.00     0.010 A 
HETATM   16  C11 UNL     1      68.652 -14.500  19.469  1.00  0.00     0.037 A 
HETATM   17  C12 UNL     1      69.994 -14.481  19.713  1.00  0.00     0.069 A 
HETATM   18  C13 UNL     1      70.382 -13.999  20.924  1.00  0.00     0.037 A 
HETATM   19  C14 UNL     1      69.449 -13.536  21.896  1.00  0.00     0.010 A 
HETATM   20  O2  UNL     1      70.894 -14.930  18.759  1.00  0.00    -0.347 OA
HETATM   21  C15 UNL     1      71.570 -16.132  18.614  1.00  0.00     0.214 C 
HETATM   22  C16 UNL     1      73.049 -15.962  18.341  1.00  0.00    -0.034 A 
HETATM   23  C17 UNL     1      73.796 -16.228  19.507  1.00  0.00     0.009 A 
HETATM   24  C18 UNL     1      75.165 -16.139  19.574  1.00  0.00     0.001 A 
HETATM   25  C19 UNL     1      75.756 -15.768  18.407  1.00  0.00     0.007 A 
HETATM   26  C20 UNL     1      75.033 -15.491  17.207  1.00  0.00    -0.052 A 
HETATM   27  C21 UNL     1      73.674 -15.588  17.171  1.00  0.00     0.016 A 
HETATM   28  C22 UNL     1      76.062 -15.122  16.174  1.00  0.00     0.097 C 
HETATM   29  C23 UNL     1      76.663 -13.855  16.686  1.00  0.00     0.043 A 
HETATM   30  N3  UNL     1      75.800 -12.963  17.202  1.00  0.00    -0.194 N 
ATOM     31  H3  UNL     1      74.807 -13.196  17.199  1.00  0.00     0.184 HD
HETATM   32  C24 UNL     1      76.173 -11.781  17.721  1.00  0.00     0.679 A 
HETATM   33  N4  UNL     1      77.481 -11.482  17.721  1.00  0.00    -0.191 N 
ATOM     34  H4  UNL     1      77.781 -10.588  18.112  1.00  0.00     0.184 HD
HETATM   35  C25 UNL     1      78.403 -12.312  17.230  1.00  0.00     0.061 A 
HETATM   36  C26 UNL     1      79.752 -12.020  17.219  1.00  0.00     0.031 A 
HETATM   37  C27 UNL     1      80.663 -12.905  16.697  1.00  0.00     0.002 A 
HETATM   38  C28 UNL     1      80.217 -14.122  16.167  1.00  0.00     0.001 A 
HETATM   39  C29 UNL     1      78.874 -14.430  16.170  1.00  0.00     0.016 A 
HETATM   40  C30 UNL     1      77.984 -13.537  16.693  1.00  0.00     0.015 A 
HETATM   41  N5  UNL     1      75.205 -10.893  18.243  1.00  0.00    -0.222 N 
ATOM     42  H5  UNL     1      75.460 -10.372  19.082  1.00  0.00     0.178 HD
HETATM   43  C31 UNL     1      73.884 -10.655  17.697  1.00  0.00     0.176 C 
HETATM   44  C32 UNL     1      73.505  -9.193  17.672  1.00  0.00    -0.037 A 
HETATM   45  C33 UNL     1      73.609  -8.694  16.348  1.00  0.00     0.009 A 
HETATM   46  C34 UNL     1      73.320  -7.404  16.002  1.00  0.00     0.003 A 
HETATM   47  C35 UNL     1      72.915  -6.606  17.043  1.00  0.00     0.037 A 
HETATM   48  C36 UNL     1      72.797  -7.054  18.376  1.00  0.00     0.069 A 
HETATM   49  C37 UNL     1      73.101  -8.376  18.683  1.00  0.00     0.045 A 
HETATM   50  O3  UNL     1      72.375  -6.043  19.183  1.00  0.00    -0.347 OA
HETATM   51  C38 UNL     1      72.550  -5.362  20.338  1.00  0.00     0.214 C 
HETATM   52  C39 UNL     1      71.295  -5.487  21.196  1.00  0.00    -0.034 A 
HETATM   53  C40 UNL     1      70.237  -4.626  21.061  1.00  0.00     0.010 A 
HETATM   54  C41 UNL     1      69.088  -4.771  21.882  1.00  0.00     0.017 A 
HETATM   55  C42 UNL     1      68.930  -5.745  22.848  1.00  0.00     0.032 A 
HETATM   56  C43 UNL     1      70.018  -6.586  22.943  1.00  0.00     0.017 A 
HETATM   57  C44 UNL     1      71.182  -6.473  22.142  1.00  0.00     0.010 A 
ENDROOT
TORSDOF 0
ENDMDL
MODEL 5
REMARK VINA RESULT: -10.748787199      1.293      1.799
REMARK  0 active torsions:
REMARK  status: ('A' for Active; 'I' for Inactive)
ROOT
HETATM    1  O1  UNL     1      65.460  -8.529  24.176  1.00  0.00    -0.268 OA
HETATM    2  C1  UNL     1      65.967  -8.817  23.020  1.00  0.00     0.251 C 
HETATM    3  N1  UNL     1      65.321 -10.013  22.501  1.00  0.00    -0.351 N 
ATOM      4  H1  UNL     1      64.689 -10.539  23.104  1.00  0.00     0.163 HD
HETATM    5  C2  UNL     1      65.557 -10.481  21.127  1.00  0.00     0.179 C 
HETATM    6  C3  UNL     1      65.985 -11.898  21.113  1.00  0.00     0.026 A 
HETATM    7  C4  UNL     1      65.577 -13.033  20.543  1.00  0.00     0.027 A 
HETATM    8  C5  UNL     1      66.262 -14.282  20.729  1.00  0.00     0.011 A 
HETATM    9  C6  UNL     1      67.383 -14.317  21.527  1.00  0.00    -0.038 A 
HETATM   10  C7  UNL     1      67.809 -13.148  22.120  1.00  0.00     0.095 A 
HETATM   11  N2  UNL     1      67.093 -12.042  21.875  1.00  0.00    -0.367 N 
ATOM     12  H2  UNL     1      67.430 -11.192  22.326  1.00  0.00     0.165 HD
HETATM   13  C8  UNL     1      68.169 -15.610  21.714  1.00  0.00     0.078 C 
HETATM   14  C9  UNL     1      69.297 -15.667  20.689  1.00  0.00    -0.054 A 
HETATM   15  C10 UNL     1      69.082 -16.233  19.465  1.00  0.00     0.010 A 
HETATM   16  C11 UNL     1      70.125 -16.251  18.488  1.00  0.00     0.037 A 
HETATM   17  C12 UNL     1      71.358 -15.715  18.720  1.00  0.00     0.069 A 
HETATM   18  C13 UNL     1      71.553 -15.155  19.944  1.00  0.00     0.037 A 
HETATM   19  C14 UNL     1      70.535 -15.122  20.940  1.00  0.00     0.010 A 
HETATM   20  O2  UNL     1      72.342 -15.749  17.744  1.00  0.00    -0.347 OA
HETATM   21  C15 UNL     1      73.430 -16.586  17.551  1.00  0.00     0.214 C 
HETATM   22  C16 UNL     1      74.719 -15.844  17.271  1.00  0.00    -0.034 A 
HETATM   23  C17 UNL     1      75.535 -15.830  18.421  1.00  0.00     0.009 A 
HETATM   24  C18 UNL     1      76.762 -15.215  18.479  1.00  0.00     0.001 A 
HETATM   25  C19 UNL     1      77.135 -14.608  17.320  1.00  0.00     0.007 A 
HETATM   26  C20 UNL     1      76.336 -14.602  16.137  1.00  0.00    -0.052 A 
HETATM   27  C21 UNL     1      75.122 -15.222  16.109  1.00  0.00     0.016 A 
HETATM   28  C22 UNL     1      77.117 -13.830  15.109  1.00  0.00     0.097 C 
HETATM   29  C23 UNL     1      77.186 -12.445  15.659  1.00  0.00     0.043 A 
HETATM   30  N3  UNL     1      76.054 -11.976  16.213  1.00  0.00    -0.194 N 
ATOM     31  H3  UNL     1      75.232 -12.579  16.211  1.00  0.00     0.184 HD
HETATM   32  C24 UNL     1      75.948 -10.758  16.770  1.00  0.00     0.679 A 
HETATM   33  N4  UNL     1      77.034  -9.971  16.770  1.00  0.00    -0.191 N 
ATOM     34  H4  UNL     1      76.970  -9.043  17.188  1.00  0.00     0.184 HD
HETATM   35  C25 UNL     1      78.196 -10.360  16.242  1.00  0.00     0.061 A 
HETATM   36  C26 UNL     1      79.323  -9.563  16.229  1.00  0.00     0.031 A 
HETATM   37  C27 UNL     1      80.497 -10.007  15.668  1.00  0.00     0.002 A 
HETATM   38  C28 UNL     1      80.550 -11.286  15.100  1.00  0.00     0.001 A 
HETATM   39  C29 UNL     1      79.434 -12.094  15.104  1.00  0.00     0.016 A 
HETATM   40  C30 UNL     1      78.278 -11.636  15.666  1.00  0.00     0.015 A 
HETATM   41  N5  UNL     1      74.721 -10.334  17.331  1.00  0.00    -0.222 N 
ATOM     42  H5  UNL     1      74.769  -9.779  18.185  1.00  0.00     0.178 HD
HETATM   43  C31 UNL     1      73.401 -10.617  16.805  1.00  0.00     0.176 C 
HETATM   44  C32 UNL     1      72.480  -9.419  16.834  1.00  0.00    -0.037 A 
HETATM   45  C33 UNL     1      72.352  -8.882  15.527  1.00  0.00     0.009 A 
HETATM   46  C34 UNL     1      71.575  -7.798  15.229  1.00  0.00     0.003 A 
HETATM   47  C35 UNL     1      70.913  -7.253  16.301  1.00  0.00     0.037 A 
HETATM   48  C36 UNL     1      71.008  -7.748  17.618  1.00  0.00     0.069 A 
HETATM   49  C37 UNL     1      71.811  -8.854  17.876  1.00  0.00     0.045 A 
HETATM   50  O3  UNL     1      70.242  -7.007  18.464  1.00  0.00    -0.347 OA
HETATM   51  C38 UNL     1      70.162  -6.345  19.639  1.00  0.00     0.214 C 
HETATM   52  C39 UNL     1      69.074  -6.976  20.504  1.00  0.00    -0.034 A 
HETATM   53  C40 UNL     1      67.762  -6.593  20.408  1.00  0.00     0.010 A 
HETATM   54  C41 UNL     1      66.778  -7.199  21.233  1.00  0.00     0.017 A 
HETATM   55  C42 UNL     1      67.034  -8.185  22.166  1.00  0.00     0.032 A 
HETATM   56  C43 UNL     1      68.366  -8.536  22.222  1.00  0.00     0.017 A 
HETATM   57  C44 UNL     1      69.376  -7.954  21.416  1.00  0.00     0.010 A 
ENDROOT
TORSDOF 0
ENDMDL
