MODEL 1
REMARK VINA RESULT: -11.176283794      0.000      0.000
REMARK  10 active torsions:
REMARK  status: ('A' for Active; 'I' for Inactive)
REMARK    1  A    between atoms: C2_2  and  C5_5 
REMARK    2  A    between atoms: C5_5  and  C6_7 
REMARK    3  A    between atoms: C9_10  and  N1_11 
REMARK    4  A    between atoms: C10_14  and  C11_15 
REMARK    5  A    between atoms: C15_20  and  N3_21 
REMARK    6  A    between atoms: N3_21  and  C16_23 
REMARK    7  A    between atoms: C16_23  and  O2_24 
REMARK    8  A    between atoms: C16_23  and  N4_26 
REMARK    9  A    between atoms: C21_31  and  C22_32 
REMARK   10  A    between atoms: C23_33  and  C24_34 
ROOT
HETATM    1  N4  UNL     1      67.325  -8.788  21.913  1.00  0.00    -0.272 N 
HETATM    2  C17 UNL     1      67.005  -7.479  22.048  1.00  0.00     0.059 A 
HETATM    3  C18 UNL     1      67.327  -6.582  21.064  1.00  0.00     0.031 A 
HETATM    4  C19 UNL     1      67.006  -5.217  21.105  1.00  0.00     0.004 A 
HETATM    5  C20 UNL     1      66.332  -4.743  22.179  1.00  0.00     0.022 A 
HETATM    6  C21 UNL     1      65.974  -5.607  23.208  1.00  0.00     0.034 A 
HETATM    7  C25 UNL     1      66.305  -6.940  23.137  1.00  0.00     0.062 A 
HETATM    8  C26 UNL     1      65.898  -7.756  24.143  1.00  0.00     0.214 A 
HETATM    9  O5  UNL     1      65.268  -7.423  25.172  1.00  0.00    -0.285 OA
HETATM   10  C27 UNL     1      66.220  -9.105  24.011  1.00  0.00     0.114 A 
HETATM   11  N5  UNL     1      65.960 -10.129  24.849  1.00  0.00    -0.349 N 
ATOM     12  H5  UNL     1      65.457 -10.045  25.732  1.00  0.00     0.166 HD
HETATM   13  C28 UNL     1      66.450 -11.262  24.363  1.00  0.00     0.063 A 
HETATM   14  C29 UNL     1      66.476 -12.574  24.812  1.00  0.00     0.045 A 
HETATM   15  C30 UNL     1      67.076 -13.604  24.118  1.00  0.00    -0.007 A 
HETATM   16  C31 UNL     1      67.107 -14.909  24.553  1.00  0.00     0.014 A 
HETATM   17  C32 UNL     1      67.712 -15.921  23.847  1.00  0.00     0.001 A 
HETATM   18  C33 UNL     1      68.324 -15.607  22.630  1.00  0.00     0.002 A 
HETATM   19  C34 UNL     1      68.288 -14.289  22.198  1.00  0.00     0.030 A 
HETATM   20  C35 UNL     1      67.677 -13.278  22.916  1.00  0.00     0.043 A 
HETATM   21  N6  UNL     1      67.643 -12.014  22.498  1.00  0.00    -0.352 N 
ATOM     22  H6  UNL     1      68.096 -11.811  21.607  1.00  0.00     0.166 HD
HETATM   23  C36 UNL     1      67.071 -10.982  23.138  1.00  0.00     0.089 A 
HETATM   24  C37 UNL     1      66.910  -9.613  22.938  1.00  0.00     0.103 A 
ENDROOT
BRANCH   1  25
HETATM   25  C16 UNL     1      68.133  -9.257  20.898  1.00  0.00     0.231 C 
BRANCH  25  26
HETATM   26  N3  UNL     1      69.450  -9.264  20.564  1.00  0.00    -0.300 N 
ATOM     27  H3  UNL     1      70.020  -9.724  21.273  1.00  0.00     0.171 HD
BRANCH  26  28
HETATM   28  C15 UNL     1      70.155  -8.839  19.587  1.00  0.00     0.175 A 
HETATM   29  N1  UNL     1      71.037  -7.789  19.666  1.00  0.00    -0.233 N 
HETATM   30  N2  UNL     1      71.698  -7.501  18.644  1.00  0.00    -0.288 N 
HETATM   31  C10 UNL     1      71.568  -8.169  17.511  1.00  0.00     0.078 A 
ATOM     32  H2  UNL     1      72.359  -6.725  18.686  1.00  0.00     0.188 HD
HETATM   33  S1  UNL     1      70.389  -9.310  17.959  1.00  0.00    -0.036 SA
BRANCH  29  34
HETATM   34  C9  UNL     1      71.101  -7.014  20.893  1.00  0.00     0.059 A 
HETATM   35  C8  UNL     1      71.480  -7.487  22.101  1.00  0.00     0.032 A 
HETATM   36  C7  UNL     1      71.490  -6.621  23.202  1.00  0.00     0.017 A 
HETATM   37  C6  UNL     1      71.128  -5.300  23.102  1.00  0.00     0.011 A 
HETATM   38  C39 UNL     1      70.746  -4.842  21.858  1.00  0.00     0.017 A 
HETATM   39  C38 UNL     1      70.728  -5.674  20.762  1.00  0.00     0.032 A 
BRANCH  37  40
HETATM   40  C5  UNL     1      71.122  -4.391  24.232  1.00  0.00     0.167 C 
HETATM   41  O1  UNL     1      71.872  -3.352  24.166  1.00  0.00    -0.292 OA
BRANCH  40  42
HETATM   42  C2  UNL     1      70.326  -4.562  25.459  1.00  0.00     0.014 C 
HETATM   43  C1  UNL     1      70.970  -5.604  26.371  1.00  0.00     0.023 C 
HETATM   44  C3  UNL     1      70.339  -3.260  26.244  1.00  0.00     0.023 C 
HETATM   45  C4  UNL     1      68.930  -5.062  25.183  1.00  0.00     0.023 C 
ENDBRANCH  40  42
ENDBRANCH  37  40
ENDBRANCH  29  34
BRANCH  31  46
HETATM   46  C11 UNL     1      72.283  -7.930  16.220  1.00  0.00    -0.001 C 
HETATM   47  C12 UNL     1      73.442  -7.017  16.424  1.00  0.00     0.021 C 
HETATM   48  C13 UNL     1      72.764  -9.252  15.626  1.00  0.00     0.021 C 
HETATM   49  C14 UNL     1      71.299  -7.300  15.252  1.00  0.00     0.021 C 
ENDBRANCH  31  46
ENDBRANCH  26  28
ENDBRANCH  25  26
BRANCH  25  50
HETATM   50  O2  UNL     1      67.439  -9.915  19.959  1.00  0.00    -0.332 OA
ATOM     51  H2  UNL     1      66.616 -10.210  20.330  1.00  0.00     0.221 HD
ENDBRANCH  25  50
ENDBRANCH   1  25
BRANCH   6  52
HETATM   52  C22 UNL     1      65.246  -5.095  24.346  1.00  0.00    -0.054 C 
HETATM   53  C23 UNL     1      64.610  -4.628  25.293  1.00  0.00     0.010 C 
BRANCH  53  54
HETATM   54  C24 UNL     1      63.866  -4.108  26.403  1.00  0.00     0.258 C 
HETATM   55  O3  UNL     1      64.316  -4.096  27.594  1.00  0.00    -0.637 OA
HETATM   56  O4  UNL     1      62.598  -3.594  26.171  1.00  0.00    -0.637 OA
ENDBRANCH  53  54
ENDBRANCH   6  52
TORSDOF 10
ENDMDL
MODEL 2
REMARK VINA RESULT: -10.991133439      3.638      6.453
REMARK  10 active torsions:
REMARK  status: ('A' for Active; 'I' for Inactive)
REMARK    1  A    between atoms: C2_2  and  C5_5 
REMARK    2  A    between atoms: C5_5  and  C6_7 
REMARK    3  A    between atoms: C9_10  and  N1_11 
REMARK    4  A    between atoms: C10_14  and  C11_15 
REMARK    5  A    between atoms: C15_20  and  N3_21 
REMARK    6  A    between atoms: N3_21  and  C16_23 
REMARK    7  A    between atoms: C16_23  and  O2_24 
REMARK    8  A    between atoms: C16_23  and  N4_26 
REMARK    9  A    between atoms: C21_31  and  C22_32 
REMARK   10  A    between atoms: C23_33  and  C24_34 
ROOT
HETATM    1  N4  UNL     1      70.838  -8.736  17.196  1.00  0.00    -0.272 N 
HETATM    2  C17 UNL     1      69.815  -8.124  17.838  1.00  0.00     0.059 A 
HETATM    3  C18 UNL     1      69.442  -6.852  17.495  1.00  0.00     0.031 A 
HETATM    4  C19 UNL     1      68.374  -6.156  18.081  1.00  0.00     0.004 A 
HETATM    5  C20 UNL     1      67.656  -6.771  19.050  1.00  0.00     0.022 A 
HETATM    6  C21 UNL     1      67.985  -8.065  19.439  1.00  0.00     0.034 A 
HETATM    7  C25 UNL     1      69.038  -8.719  18.842  1.00  0.00     0.062 A 
HETATM    8  C26 UNL     1      69.296  -9.997  19.222  1.00  0.00     0.214 A 
HETATM    9  O5  UNL     1      68.692 -10.657  20.098  1.00  0.00    -0.285 OA
HETATM   10  C27 UNL     1      70.346 -10.634  18.564  1.00  0.00     0.114 A 
HETATM   11  N5  UNL     1      70.830 -11.881  18.741  1.00  0.00    -0.349 N 
ATOM     12  H5  UNL     1      70.462 -12.559  19.409  1.00  0.00     0.166 HD
HETATM   13  C28 UNL     1      71.851 -12.102  17.924  1.00  0.00     0.063 A 
HETATM   14  C29 UNL     1      72.698 -13.178  17.705  1.00  0.00     0.045 A 
HETATM   15  C30 UNL     1      73.726 -13.164  16.786  1.00  0.00    -0.007 A 
HETATM   16  C31 UNL     1      74.571 -14.226  16.560  1.00  0.00     0.014 A 
HETATM   17  C32 UNL     1      75.591 -14.191  15.640  1.00  0.00     0.001 A 
HETATM   18  C33 UNL     1      75.776 -13.020  14.900  1.00  0.00     0.002 A 
HETATM   19  C34 UNL     1      74.919 -11.954  15.132  1.00  0.00     0.030 A 
HETATM   20  C35 UNL     1      73.896 -11.999  16.060  1.00  0.00     0.043 A 
HETATM   21  N6  UNL     1      73.075 -10.974  16.281  1.00  0.00    -0.352 N 
ATOM     22  H6  UNL     1      73.230 -10.132  15.727  1.00  0.00     0.166 HD
HETATM   23  C36 UNL     1      72.063 -10.944  17.162  1.00  0.00     0.089 A 
HETATM   24  C37 UNL     1      71.097 -10.033  17.586  1.00  0.00     0.103 A 
ENDROOT
BRANCH   1  25
HETATM   25  C16 UNL     1      71.667  -8.073  16.314  1.00  0.00     0.231 C 
BRANCH  25  26
HETATM   26  N3  UNL     1      72.867  -7.437  16.324  1.00  0.00    -0.300 N 
ATOM     27  H3  UNL     1      72.820  -6.529  15.861  1.00  0.00     0.171 HD
BRANCH  26  28
HETATM   28  C15 UNL     1      74.039  -7.688  16.766  1.00  0.00     0.175 A 
HETATM   29  N1  UNL     1      74.373  -7.728  18.097  1.00  0.00    -0.233 N 
HETATM   30  N2  UNL     1      75.550  -8.028  18.397  1.00  0.00    -0.288 N 
HETATM   31  C10 UNL     1      76.462  -8.299  17.481  1.00  0.00     0.078 A 
ATOM     32  H2  UNL     1      75.814  -8.065  19.382  1.00  0.00     0.188 HD
HETATM   33  S1  UNL     1      75.542  -8.103  16.063  1.00  0.00    -0.036 SA
BRANCH  29  34
HETATM   34  C9  UNL     1      73.379  -7.344  19.086  1.00  0.00     0.059 A 
HETATM   35  C8  UNL     1      72.844  -6.110  19.221  1.00  0.00     0.032 A 
HETATM   36  C7  UNL     1      71.895  -5.883  20.226  1.00  0.00     0.017 A 
HETATM   37  C6  UNL     1      71.484  -6.872  21.086  1.00  0.00     0.011 A 
HETATM   38  C39 UNL     1      72.046  -8.122  20.926  1.00  0.00     0.017 A 
HETATM   39  C38 UNL     1      72.979  -8.369  19.946  1.00  0.00     0.032 A 
BRANCH  37  40
HETATM   40  C5  UNL     1      70.510  -6.653  22.138  1.00  0.00     0.167 C 
HETATM   41  O1  UNL     1      70.035  -7.685  22.735  1.00  0.00    -0.292 OA
BRANCH  40  42
HETATM   42  C2  UNL     1      70.016  -5.339  22.582  1.00  0.00     0.014 C 
HETATM   43  C1  UNL     1      68.905  -5.511  23.616  1.00  0.00     0.023 C 
HETATM   44  C3  UNL     1      71.137  -4.603  23.297  1.00  0.00     0.023 C 
HETATM   45  C4  UNL     1      69.413  -4.534  21.459  1.00  0.00     0.023 C 
ENDBRANCH  40  42
ENDBRANCH  37  40
ENDBRANCH  29  34
BRANCH  31  46
HETATM   46  C11 UNL     1      77.897  -8.661  17.695  1.00  0.00    -0.001 C 
HETATM   47  C12 UNL     1      78.538  -7.718  18.653  1.00  0.00     0.021 C 
HETATM   48  C13 UNL     1      78.011 -10.091  18.222  1.00  0.00     0.021 C 
HETATM   49  C14 UNL     1      78.601  -8.588  16.354  1.00  0.00     0.021 C 
ENDBRANCH  31  46
ENDBRANCH  26  28
ENDBRANCH  25  26
BRANCH  25  50
HETATM   50  O2  UNL     1      71.167  -8.048  15.070  1.00  0.00    -0.332 OA
ATOM     51  H2  UNL     1      71.868  -8.215  14.450  1.00  0.00     0.221 HD
ENDBRANCH  25  50
ENDBRANCH   1  25
BRANCH   6  52
HETATM   52  C22 UNL     1      67.206  -8.718  20.465  1.00  0.00    -0.054 C 
HETATM   53  C23 UNL     1      66.510  -9.253  21.331  1.00  0.00     0.010 C 
BRANCH  53  54
HETATM   54  C24 UNL     1      65.711  -9.897  22.333  1.00  0.00     0.258 C 
HETATM   55  O3  UNL     1      65.835 -11.128  22.631  1.00  0.00    -0.637 OA
HETATM   56  O4  UNL     1      64.760  -9.145  23.008  1.00  0.00    -0.637 OA
ENDBRANCH  53  54
ENDBRANCH   6  52
TORSDOF 10
ENDMDL
MODEL 3
REMARK VINA RESULT: -10.978733497      3.659      6.486
REMARK  10 active torsions:
REMARK  status: ('A' for Active; 'I' for Inactive)
REMARK    1  A    between atoms: C2_2  and  C5_5 
REMARK    2  A    between atoms: C5_5  and  C6_7 
REMARK    3  A    between atoms: C9_10  and  N1_11 
REMARK    4  A    between atoms: C10_14  and  C11_15 
REMARK    5  A    between atoms: C15_20  and  N3_21 
REMARK    6  A    between atoms: N3_21  and  C16_23 
REMARK    7  A    between atoms: C16_23  and  O2_24 
REMARK    8  A    between atoms: C16_23  and  N4_26 
REMARK    9  A    between atoms: C21_31  and  C22_32 
REMARK   10  A    between atoms: C23_33  and  C24_34 
ROOT
HETATM    1  N4  UNL     1      70.749  -8.731  17.173  1.00  0.00    -0.272 N 
HETATM    2  C17 UNL     1      69.675  -8.173  17.779  1.00  0.00     0.059 A 
HETATM    3  C18 UNL     1      69.277  -6.903  17.455  1.00  0.00     0.031 A 
HETATM    4  C19 UNL     1      68.158  -6.261  18.007  1.00  0.00     0.004 A 
HETATM    5  C20 UNL     1      67.413  -6.929  18.919  1.00  0.00     0.022 A 
HETATM    6  C21 UNL     1      67.766  -8.224  19.285  1.00  0.00     0.034 A 
HETATM    7  C25 UNL     1      68.869  -8.824  18.724  1.00  0.00     0.062 A 
HETATM    8  C26 UNL     1      69.151 -10.104  19.078  1.00  0.00     0.214 A 
HETATM    9  O5  UNL     1      68.527 -10.811  19.902  1.00  0.00    -0.285 OA
HETATM   10  C27 UNL     1      70.254 -10.687  18.457  1.00  0.00     0.114 A 
HETATM   11  N5  UNL     1      70.770 -11.922  18.621  1.00  0.00    -0.349 N 
ATOM     12  H5  UNL     1      70.393 -12.632  19.248  1.00  0.00     0.166 HD
HETATM   13  C28 UNL     1      71.838 -12.084  17.851  1.00  0.00     0.063 A 
HETATM   14  C29 UNL     1      72.730 -13.125  17.644  1.00  0.00     0.045 A 
HETATM   15  C30 UNL     1      73.802 -13.049  16.780  1.00  0.00    -0.007 A 
HETATM   16  C31 UNL     1      74.693 -14.075  16.566  1.00  0.00     0.014 A 
HETATM   17  C32 UNL     1      75.756 -13.979  15.700  1.00  0.00     0.001 A 
HETATM   18  C33 UNL     1      75.938 -12.779  15.005  1.00  0.00     0.002 A 
HETATM   19  C34 UNL     1      75.035 -11.749  15.225  1.00  0.00     0.030 A 
HETATM   20  C35 UNL     1      73.969 -11.856  16.098  1.00  0.00     0.043 A 
HETATM   21  N6  UNL     1      73.103 -10.866  16.307  1.00  0.00    -0.352 N 
ATOM     22  H6  UNL     1      73.257 -10.002  15.787  1.00  0.00     0.166 HD
HETATM   23  C36 UNL     1      72.048 -10.896  17.136  1.00  0.00     0.089 A 
HETATM   24  C37 UNL     1      71.032 -10.031  17.536  1.00  0.00     0.103 A 
ENDROOT
BRANCH   1  25
HETATM   25  C16 UNL     1      71.598  -8.014  16.354  1.00  0.00     0.231 C 
BRANCH  25  26
HETATM   26  N3  UNL     1      72.760  -7.318  16.450  1.00  0.00    -0.300 N 
ATOM     27  H3  UNL     1      72.653  -6.354  16.135  1.00  0.00     0.171 HD
BRANCH  26  28
HETATM   28  C15 UNL     1      73.954  -7.565  16.834  1.00  0.00     0.175 A 
HETATM   29  N1  UNL     1      74.381  -7.484  18.137  1.00  0.00    -0.233 N 
HETATM   30  N2  UNL     1      75.567  -7.794  18.384  1.00  0.00    -0.288 N 
HETATM   31  C10 UNL     1      76.403  -8.187  17.440  1.00  0.00     0.078 A 
ATOM     32  H2  UNL     1      75.900  -7.741  19.347  1.00  0.00     0.188 HD
HETATM   33  S1  UNL     1      75.390  -8.102  16.076  1.00  0.00    -0.036 SA
BRANCH  29  34
HETATM   34  C9  UNL     1      73.472  -6.966  19.146  1.00  0.00     0.059 A 
HETATM   35  C8  UNL     1      72.689  -7.715  19.954  1.00  0.00     0.032 A 
HETATM   36  C7  UNL     1      71.856  -7.076  20.881  1.00  0.00     0.017 A 
HETATM   37  C6  UNL     1      71.803  -5.708  21.002  1.00  0.00     0.011 A 
HETATM   38  C39 UNL     1      72.611  -4.968  20.165  1.00  0.00     0.017 A 
HETATM   39  C38 UNL     1      73.438  -5.573  19.247  1.00  0.00     0.032 A 
BRANCH  37  40
HETATM   40  C5  UNL     1      70.939  -5.029  21.949  1.00  0.00     0.167 C 
HETATM   41  O1  UNL     1      71.402  -3.988  22.538  1.00  0.00    -0.292 OA
BRANCH  40  42
HETATM   42  C2  UNL     1      69.567  -5.438  22.296  1.00  0.00     0.014 C 
HETATM   43  C1  UNL     1      69.257  -5.078  23.748  1.00  0.00     0.023 C 
HETATM   44  C3  UNL     1      68.584  -4.641  21.453  1.00  0.00     0.023 C 
HETATM   45  C4  UNL     1      69.357  -6.927  22.186  1.00  0.00     0.023 C 
ENDBRANCH  40  42
ENDBRANCH  37  40
ENDBRANCH  29  34
BRANCH  31  46
HETATM   46  C11 UNL     1      77.838  -8.578  17.592  1.00  0.00    -0.001 C 
HETATM   47  C12 UNL     1      78.539  -8.520  16.280  1.00  0.00     0.021 C 
HETATM   48  C13 UNL     1      78.536  -7.658  18.592  1.00  0.00     0.021 C 
HETATM   49  C14 UNL     1      77.881  -9.994  18.134  1.00  0.00     0.021 C 
ENDBRANCH  31  46
ENDBRANCH  26  28
ENDBRANCH  25  26
BRANCH  25  50
HETATM   50  O2  UNL     1      71.180  -7.997  15.080  1.00  0.00    -0.332 OA
ATOM     51  H2  UNL     1      70.694  -8.794  14.902  1.00  0.00     0.221 HD
ENDBRANCH  25  50
ENDBRANCH   1  25
BRANCH   6  52
HETATM   52  C22 UNL     1      66.959  -8.934  20.251  1.00  0.00    -0.054 C 
HETATM   53  C23 UNL     1      66.241  -9.513  21.069  1.00  0.00     0.010 C 
BRANCH  53  54
HETATM   54  C24 UNL     1      65.415 -10.209  22.012  1.00  0.00     0.258 C 
HETATM   55  O3  UNL     1      64.859  -9.633  23.001  1.00  0.00    -0.637 OA
HETATM   56  O4  UNL     1      65.213 -11.570  21.840  1.00  0.00    -0.637 OA
ENDBRANCH  53  54
ENDBRANCH   6  52
TORSDOF 10
ENDMDL
MODEL 4
REMARK VINA RESULT: -10.822668799      3.680      6.546
REMARK  10 active torsions:
REMARK  status: ('A' for Active; 'I' for Inactive)
REMARK    1  A    between atoms: C2_2  and  C5_5 
REMARK    2  A    between atoms: C5_5  and  C6_7 
REMARK    3  A    between atoms: C9_10  and  N1_11 
REMARK    4  A    between atoms: C10_14  and  C11_15 
REMARK    5  A    between atoms: C15_20  and  N3_21 
REMARK    6  A    between atoms: N3_21  and  C16_23 
REMARK    7  A    between atoms: C16_23  and  O2_24 
REMARK    8  A    between atoms: C16_23  and  N4_26 
REMARK    9  A    between atoms: C21_31  and  C22_32 
REMARK   10  A    between atoms: C23_33  and  C24_34 
ROOT
HETATM    1  N4  UNL     1      70.787  -8.659  17.243  1.00  0.00    -0.272 N 
HETATM    2  C17 UNL     1      69.734  -8.121  17.903  1.00  0.00     0.059 A 
HETATM    3  C18 UNL     1      69.342  -6.833  17.651  1.00  0.00     0.031 A 
HETATM    4  C19 UNL     1      68.245  -6.208  18.262  1.00  0.00     0.004 A 
HETATM    5  C20 UNL     1      67.516  -6.912  19.160  1.00  0.00     0.022 A 
HETATM    6  C21 UNL     1      67.864  -8.227  19.454  1.00  0.00     0.034 A 
HETATM    7  C25 UNL     1      68.946  -8.810  18.837  1.00  0.00     0.062 A 
HETATM    8  C26 UNL     1      69.223 -10.108  19.121  1.00  0.00     0.214 A 
HETATM    9  O5  UNL     1      68.612 -10.848  19.926  1.00  0.00    -0.285 OA
HETATM   10  C27 UNL     1      70.303 -10.670  18.444  1.00  0.00     0.114 A 
HETATM   11  N5  UNL     1      70.810 -11.916  18.535  1.00  0.00    -0.349 N 
ATOM     12  H5  UNL     1      70.441 -12.653  19.137  1.00  0.00     0.166 HD
HETATM   13  C28 UNL     1      71.856 -12.051  17.731  1.00  0.00     0.063 A 
HETATM   14  C29 UNL     1      72.732 -13.089  17.450  1.00  0.00     0.045 A 
HETATM   15  C30 UNL     1      73.782 -12.982  16.563  1.00  0.00    -0.007 A 
HETATM   16  C31 UNL     1      74.656 -14.005  16.276  1.00  0.00     0.014 A 
HETATM   17  C32 UNL     1      75.697 -13.877  15.389  1.00  0.00     0.001 A 
HETATM   18  C33 UNL     1      75.874 -12.647  14.748  1.00  0.00     0.002 A 
HETATM   19  C34 UNL     1      74.988 -11.620  15.041  1.00  0.00     0.030 A 
HETATM   20  C35 UNL     1      73.944 -11.760  15.935  1.00  0.00     0.043 A 
HETATM   21  N6  UNL     1      73.095 -10.772  16.214  1.00  0.00    -0.352 N 
ATOM     22  H6  UNL     1      73.244  -9.886  15.733  1.00  0.00     0.166 HD
HETATM   23  C36 UNL     1      72.060 -10.833  17.068  1.00  0.00     0.089 A 
HETATM   24  C37 UNL     1      71.065  -9.978  17.536  1.00  0.00     0.103 A 
ENDROOT
BRANCH   1  25
HETATM   25  C16 UNL     1      71.622  -7.912  16.438  1.00  0.00     0.231 C 
BRANCH  25  26
HETATM   26  N3  UNL     1      72.820  -7.279  16.521  1.00  0.00    -0.300 N 
ATOM     27  H3  UNL     1      72.767  -6.317  16.186  1.00  0.00     0.171 HD
BRANCH  26  28
HETATM   28  C15 UNL     1      73.998  -7.583  16.913  1.00  0.00     0.175 A 
HETATM   29  N1  UNL     1      74.335  -7.851  18.218  1.00  0.00    -0.233 N 
HETATM   30  N2  UNL     1      75.518  -8.179  18.461  1.00  0.00    -0.288 N 
HETATM   31  C10 UNL     1      76.432  -8.267  17.513  1.00  0.00     0.078 A 
ATOM     32  H2  UNL     1      75.785  -8.383  19.425  1.00  0.00     0.188 HD
HETATM   33  S1  UNL     1      75.507  -7.841  16.151  1.00  0.00    -0.036 SA
BRANCH  29  34
HETATM   34  C9  UNL     1      73.337  -7.664  19.257  1.00  0.00     0.059 A 
HETATM   35  C8  UNL     1      72.913  -8.615  20.119  1.00  0.00     0.032 A 
HETATM   36  C7  UNL     1      71.938  -8.290  21.070  1.00  0.00     0.017 A 
HETATM   37  C6  UNL     1      71.390  -7.034  21.162  1.00  0.00     0.011 A 
HETATM   38  C39 UNL     1      71.839  -6.082  20.270  1.00  0.00     0.017 A 
HETATM   39  C38 UNL     1      72.797  -6.377  19.328  1.00  0.00     0.032 A 
BRANCH  37  40
HETATM   40  C5  UNL     1      70.372  -6.682  22.133  1.00  0.00     0.167 C 
HETATM   41  O1  UNL     1      69.707  -7.637  22.673  1.00  0.00    -0.292 OA
BRANCH  40  42
HETATM   42  C2  UNL     1      70.032  -5.312  22.553  1.00  0.00     0.014 C 
HETATM   43  C1  UNL     1      69.537  -4.497  21.359  1.00  0.00     0.023 C 
HETATM   44  C3  UNL     1      68.867  -5.367  23.528  1.00  0.00     0.023 C 
HETATM   45  C4  UNL     1      71.217  -4.560  23.103  1.00  0.00     0.023 C 
ENDBRANCH  40  42
ENDBRANCH  37  40
ENDBRANCH  29  34
BRANCH  31  46
HETATM   46  C11 UNL     1      77.874  -8.636  17.662  1.00  0.00    -0.001 C 
HETATM   47  C12 UNL     1      78.550  -7.728  18.628  1.00  0.00     0.021 C 
HETATM   48  C13 UNL     1      78.006 -10.084  18.133  1.00  0.00     0.021 C 
HETATM   49  C14 UNL     1      78.529  -8.515  16.299  1.00  0.00     0.021 C 
ENDBRANCH  31  46
ENDBRANCH  26  28
ENDBRANCH  25  26
BRANCH  25  50
HETATM   50  O2  UNL     1      71.133  -7.765  15.198  1.00  0.00    -0.332 OA
ATOM     51  H2  UNL     1      71.856  -7.663  14.589  1.00  0.00     0.221 HD
ENDBRANCH  25  50
ENDBRANCH   1  25
BRANCH   6  52
HETATM   52  C22 UNL     1      67.075  -8.974  20.405  1.00  0.00    -0.054 C 
HETATM   53  C23 UNL     1      66.374  -9.583  21.216  1.00  0.00     0.010 C 
BRANCH  53  54
HETATM   54  C24 UNL     1      65.565 -10.313  22.148  1.00  0.00     0.258 C 
HETATM   55  O3  UNL     1      65.162  -9.819  23.250  1.00  0.00    -0.637 OA
HETATM   56  O4  UNL     1      65.204 -11.617  21.837  1.00  0.00    -0.637 OA
ENDBRANCH  53  54
ENDBRANCH   6  52
TORSDOF 10
ENDMDL
MODEL 5
REMARK VINA RESULT: -10.798511253      0.646      1.209
REMARK  10 active torsions:
REMARK  status: ('A' for Active; 'I' for Inactive)
REMARK    1  A    between atoms: C2_2  and  C5_5 
REMARK    2  A    between atoms: C5_5  and  C6_7 
REMARK    3  A    between atoms: C9_10  and  N1_11 
REMARK    4  A    between atoms: C10_14  and  C11_15 
REMARK    5  A    between atoms: C15_20  and  N3_21 
REMARK    6  A    between atoms: N3_21  and  C16_23 
REMARK    7  A    between atoms: C16_23  and  O2_24 
REMARK    8  A    between atoms: C16_23  and  N4_26 
REMARK    9  A    between atoms: C21_31  and  C22_32 
REMARK   10  A    between atoms: C23_33  and  C24_34 
ROOT
HETATM    1  N4  UNL     1      67.544  -8.717  21.592  1.00  0.00    -0.272 N 
HETATM    2  C17 UNL     1      67.199  -7.421  21.778  1.00  0.00     0.059 A 
HETATM    3  C18 UNL     1      67.543  -6.472  20.852  1.00  0.00     0.031 A 
HETATM    4  C19 UNL     1      67.198  -5.115  20.946  1.00  0.00     0.004 A 
HETATM    5  C20 UNL     1      66.477  -4.704  22.016  1.00  0.00     0.022 A 
HETATM    6  C21 UNL     1      66.095  -5.623  22.987  1.00  0.00     0.034 A 
HETATM    7  C25 UNL     1      66.449  -6.946  22.864  1.00  0.00     0.062 A 
HETATM    8  C26 UNL     1      66.018  -7.816  23.813  1.00  0.00     0.214 A 
HETATM    9  O5  UNL     1      65.344  -7.543  24.832  1.00  0.00    -0.285 OA
HETATM   10  C27 UNL     1      66.366  -9.152  23.628  1.00  0.00     0.114 A 
HETATM   11  N5  UNL     1      66.091 -10.220  24.405  1.00  0.00    -0.349 N 
ATOM     12  H5  UNL     1      65.554 -10.186  25.271  1.00  0.00     0.166 HD
HETATM   13  C28 UNL     1      66.618 -11.320  23.884  1.00  0.00     0.063 A 
HETATM   14  C29 UNL     1      66.648 -12.652  24.269  1.00  0.00     0.045 A 
HETATM   15  C30 UNL     1      67.290 -13.638  23.550  1.00  0.00    -0.007 A 
HETATM   16  C31 UNL     1      67.326 -14.963  23.921  1.00  0.00     0.014 A 
HETATM   17  C32 UNL     1      67.972 -15.930  23.192  1.00  0.00     0.001 A 
HETATM   18  C33 UNL     1      68.625 -15.548  22.016  1.00  0.00     0.002 A 
HETATM   19  C34 UNL     1      68.584 -14.211  21.646  1.00  0.00     0.030 A 
HETATM   20  C35 UNL     1      67.930 -13.246  22.388  1.00  0.00     0.043 A 
HETATM   21  N6  UNL     1      67.892 -11.963  22.031  1.00  0.00    -0.352 N 
ATOM     22  H6  UNL     1      68.374 -11.710  21.169  1.00  0.00     0.166 HD
HETATM   23  C36 UNL     1      67.279 -10.972  22.698  1.00  0.00     0.089 A 
HETATM   24  C37 UNL     1      67.104  -9.597  22.559  1.00  0.00     0.103 A 
ENDROOT
BRANCH   1  25
HETATM   25  C16 UNL     1      68.397  -9.124  20.587  1.00  0.00     0.231 C 
BRANCH  25  26
HETATM   26  N3  UNL     1      69.708  -9.443  20.430  1.00  0.00    -0.300 N 
ATOM     27  H3  UNL     1      70.038 -10.068  21.165  1.00  0.00     0.171 HD
BRANCH  26  28
HETATM   28  C15 UNL     1      70.632  -9.158  19.595  1.00  0.00     0.175 A 
HETATM   29  N1  UNL     1      71.591  -8.196  19.799  1.00  0.00    -0.233 N 
HETATM   30  N2  UNL     1      72.466  -8.046  18.918  1.00  0.00    -0.288 N 
HETATM   31  C10 UNL     1      72.487  -8.774  17.816  1.00  0.00     0.078 A 
ATOM     32  H2  UNL     1      73.188  -7.337  19.054  1.00  0.00     0.188 HD
HETATM   33  S1  UNL     1      71.126  -9.762  18.073  1.00  0.00    -0.036 SA
BRANCH  29  34
HETATM   34  C9  UNL     1      71.500  -7.348  20.975  1.00  0.00     0.059 A 
HETATM   35  C8  UNL     1      71.728  -7.744  22.247  1.00  0.00     0.032 A 
HETATM   36  C7  UNL     1      71.598  -6.813  23.286  1.00  0.00     0.017 A 
HETATM   37  C6  UNL     1      71.245  -5.504  23.061  1.00  0.00     0.011 A 
HETATM   38  C39 UNL     1      71.019  -5.127  21.754  1.00  0.00     0.017 A 
HETATM   39  C38 UNL     1      71.141  -6.022  20.717  1.00  0.00     0.032 A 
BRANCH  37  40
HETATM   40  C5  UNL     1      71.096  -4.529  24.124  1.00  0.00     0.167 C 
HETATM   41  O1  UNL     1      71.667  -3.390  23.974  1.00  0.00    -0.292 OA
BRANCH  40  42
HETATM   42  C2  UNL     1      70.341  -4.737  25.371  1.00  0.00     0.014 C 
HETATM   43  C1  UNL     1      70.247  -3.433  26.160  1.00  0.00     0.023 C 
HETATM   44  C3  UNL     1      68.910  -5.117  25.028  1.00  0.00     0.023 C 
HETATM   45  C4  UNL     1      71.003  -5.730  26.294  1.00  0.00     0.023 C 
ENDBRANCH  40  42
ENDBRANCH  37  40
ENDBRANCH  29  34
BRANCH  31  46
HETATM   46  C11 UNL     1      73.462  -8.696  16.685  1.00  0.00    -0.001 C 
HETATM   47  C12 UNL     1      72.924  -9.387  15.480  1.00  0.00     0.021 C 
HETATM   48  C13 UNL     1      73.773  -7.238  16.350  1.00  0.00     0.021 C 
HETATM   49  C14 UNL     1      74.747  -9.369  17.130  1.00  0.00     0.021 C 
ENDBRANCH  31  46
ENDBRANCH  26  28
ENDBRANCH  25  26
BRANCH  25  50
HETATM   50  O2  UNL     1      67.767  -9.266  19.412  1.00  0.00    -0.332 OA
ATOM     51  H2  UNL     1      66.834  -9.150  19.544  1.00  0.00     0.221 HD
ENDBRANCH  25  50
ENDBRANCH   1  25
BRANCH   6  52
HETATM   52  C22 UNL     1      65.316  -5.178  24.119  1.00  0.00    -0.054 C 
HETATM   53  C23 UNL     1      64.655  -4.759  25.072  1.00  0.00     0.010 C 
BRANCH  53  54
HETATM   54  C24 UNL     1      63.871  -4.294  26.179  1.00  0.00     0.258 C 
HETATM   55  O3  UNL     1      62.643  -3.975  26.072  1.00  0.00    -0.637 OA
HETATM   56  O4  UNL     1      64.476  -4.186  27.423  1.00  0.00    -0.637 OA
ENDBRANCH  53  54
ENDBRANCH   6  52
TORSDOF 10
ENDMDL
