MODEL 1
REMARK VINA RESULT: -6.391701594      0.000      0.000
REMARK  11 active torsions:
REMARK  status: ('A' for Active; 'I' for Inactive)
REMARK    1  A    between atoms: C3_3  and  C4_4 
REMARK    2  A    between atoms: C4_4  and  C5_5 
REMARK    3  A    between atoms: C6_6  and  C7_7 
REMARK    4  A    between atoms: C7_7  and  N1_8 
REMARK    5  A    between atoms: N1_8  and  C9_10 
REMARK    6  A    between atoms: C9_10  and  C11_12 
REMARK    7  A    between atoms: C11_12  and  C12_13 
REMARK       I    between atoms: C12_13  and  N2_15 
REMARK    8  A    between atoms: N2_15  and  C13_17 
REMARK    9  A    between atoms: C13_17  and  O2_18 
REMARK   10  A    between atoms: C13_17  and  N3_20 
REMARK   11  A    between atoms: N3_20  and  C14_22 
ROOT
HETATM    1  C1  UNL     1      31.377  -5.383  -4.124  1.00  0.00     0.012 C 
HETATM    2  C2  UNL     1      32.224  -4.774  -3.495  1.00  0.00    -0.117 C 
HETATM    3  C3  UNL     1      33.255  -4.055  -2.761  1.00  0.00     0.105 C 
ENDROOT
BRANCH   3   4
HETATM    4  C4  UNL     1      32.957  -2.574  -2.625  1.00  0.00     0.106 C 
BRANCH   4   5
HETATM    5  C5  UNL     1      31.638  -2.364  -2.019  1.00  0.00    -0.100 C 
HETATM    6  C6  UNL     1      30.547  -2.213  -1.535  1.00  0.00    -0.062 C 
BRANCH   6   7
HETATM    7  C7  UNL     1      29.227  -2.061  -0.930  1.00  0.00     0.151 C 
BRANCH   7   8
HETATM    8  N1  UNL     1      28.382  -3.168  -1.022  1.00  0.00    -0.383 N 
HETATM    9  C8  UNL     1      27.316  -3.158  -1.934  1.00  0.00     0.150 C 
BRANCH   8  10
HETATM   10  C9  UNL     1      28.583  -4.315  -0.221  1.00  0.00     0.088 C 
HETATM   11  C10 UNL     1      28.775  -5.528  -1.103  1.00  0.00     0.033 C 
BRANCH  10  12
HETATM   12  C11 UNL     1      27.465  -4.438   0.756  1.00  0.00     0.128 C 
BRANCH  12  13
HETATM   13  C12 UNL     1      27.621  -3.491   1.912  1.00  0.00     0.226 C 
HETATM   14  O1  UNL     1      28.716  -3.456   2.517  1.00  0.00    -0.273 OA
HETATM   15  N2  UNL     1      26.560  -2.667   2.310  1.00  0.00    -0.293 N 
ATOM     16  H2  UNL     1      25.754  -2.659   1.685  1.00  0.00     0.172 HD
BRANCH  15  17
HETATM   17  C13 UNL     1      26.450  -1.862   3.433  1.00  0.00     0.220 C 
BRANCH  17  18
HETATM   18  O2  UNL     1      25.315  -1.981   4.066  1.00  0.00    -0.332 OA
ATOM     19  H2  UNL     1      25.393  -2.348   4.939  1.00  0.00     0.220 HD
ENDBRANCH  17  18
BRANCH  17  20
HETATM   20  N3  UNL     1      27.344  -0.970   3.994  1.00  0.00    -0.347 N 
ATOM     21  H3  UNL     1      27.698  -1.225   4.917  1.00  0.00     0.163 HD
BRANCH  20  22
HETATM   22  C14 UNL     1      27.846   0.267   3.458  1.00  0.00     0.035 C 
HETATM   23  C15 UNL     1      26.637   0.964   2.861  1.00  0.00     0.035 C 
HETATM   24  C16 UNL     1      27.019   2.358   2.496  1.00  0.00    -0.011 C 
HETATM   25  C17 UNL     1      28.125   2.387   1.501  1.00  0.00     0.010 C 
HETATM   26  C25 UNL     1      27.368   3.099   3.732  1.00  0.00     0.014 C 
HETATM   27  C18 UNL     1      29.256   1.447   1.786  1.00  0.00    -0.008 C 
HETATM   28  C19 UNL     1      28.875   0.130   2.402  1.00  0.00     0.036 C 
HETATM   29  C20 UNL     1      30.318   2.218   2.511  1.00  0.00    -0.014 C 
HETATM   30  C21 UNL     1      31.605   1.456   2.726  1.00  0.00     0.010 C 
HETATM   31  C22 UNL     1      29.863   2.983   3.690  1.00  0.00     0.014 C 
HETATM   32  C23 UNL     1      28.630   2.502   4.377  1.00  0.00    -0.041 C 
HETATM   33  C24 UNL     1      28.656   3.142   5.778  1.00  0.00     0.015 C 
HETATM   34  C26 UNL     1      28.491   1.049   4.582  1.00  0.00     0.040 C 
ENDBRANCH  20  22
ENDBRANCH  17  20
ENDBRANCH  15  17
ENDBRANCH  12  13
ENDBRANCH  10  12
ENDBRANCH   8  10
ENDBRANCH   7   8
ENDBRANCH   6   7
ENDBRANCH   4   5
ENDBRANCH   3   4
TORSDOF 11
ENDMDL
MODEL 2
REMARK VINA RESULT: -6.341519360      6.275      8.977
REMARK  11 active torsions:
REMARK  status: ('A' for Active; 'I' for Inactive)
REMARK    1  A    between atoms: C3_3  and  C4_4 
REMARK    2  A    between atoms: C4_4  and  C5_5 
REMARK    3  A    between atoms: C6_6  and  C7_7 
REMARK    4  A    between atoms: C7_7  and  N1_8 
REMARK    5  A    between atoms: N1_8  and  C9_10 
REMARK    6  A    between atoms: C9_10  and  C11_12 
REMARK    7  A    between atoms: C11_12  and  C12_13 
REMARK       I    between atoms: C12_13  and  N2_15 
REMARK    8  A    between atoms: N2_15  and  C13_17 
REMARK    9  A    between atoms: C13_17  and  O2_18 
REMARK   10  A    between atoms: C13_17  and  N3_20 
REMARK   11  A    between atoms: N3_20  and  C14_22 
ROOT
HETATM    1  C1  UNL     1      28.378  -2.995   2.018  1.00  0.00     0.012 C 
HETATM    2  C2  UNL     1      27.946  -4.082   1.679  1.00  0.00    -0.117 C 
HETATM    3  C3  UNL     1      27.408  -5.369   1.262  1.00  0.00     0.105 C 
ENDROOT
BRANCH   3   4
HETATM    4  C4  UNL     1      28.378  -6.163   0.406  1.00  0.00     0.106 C 
BRANCH   4   5
HETATM    5  C5  UNL     1      28.757  -5.402  -0.789  1.00  0.00    -0.100 C 
HETATM    6  C6  UNL     1      29.089  -4.769  -1.756  1.00  0.00    -0.062 C 
BRANCH   6   7
HETATM    7  C7  UNL     1      29.521  -4.023  -2.934  1.00  0.00     0.151 C 
BRANCH   7   8
HETATM    8  N1  UNL     1      30.552  -3.103  -2.730  1.00  0.00    -0.383 N 
HETATM    9  C8  UNL     1      31.887  -3.512  -2.856  1.00  0.00     0.150 C 
BRANCH   8  10
HETATM   10  C9  UNL     1      30.278  -1.754  -2.408  1.00  0.00     0.088 C 
HETATM   11  C10 UNL     1      30.215  -1.589  -0.907  1.00  0.00     0.033 C 
BRANCH  10  12
HETATM   12  C11 UNL     1      29.048  -1.314  -3.126  1.00  0.00     0.128 C 
BRANCH  12  13
HETATM   13  C12 UNL     1      29.369  -0.475  -4.330  1.00  0.00     0.226 C 
HETATM   14  O1  UNL     1      29.767  -1.044  -5.371  1.00  0.00    -0.273 OA
HETATM   15  N2  UNL     1      29.232   0.919  -4.287  1.00  0.00    -0.293 N 
ATOM     16  H2  UNL     1      28.777   1.288  -3.452  1.00  0.00     0.172 HD
BRANCH  15  17
HETATM   17  C13 UNL     1      29.627   1.867  -5.218  1.00  0.00     0.220 C 
BRANCH  17  18
HETATM   18  O2  UNL     1      30.874   1.762  -5.590  1.00  0.00    -0.332 OA
ATOM     19  H2  UNL     1      31.487   1.664  -4.870  1.00  0.00     0.220 HD
ENDBRANCH  17  18
BRANCH  17  20
HETATM   20  N3  UNL     1      28.919   2.888  -5.821  1.00  0.00    -0.347 N 
ATOM     21  H3  UNL     1      29.275   3.829  -5.651  1.00  0.00     0.163 HD
BRANCH  20  22
HETATM   22  C14 UNL     1      27.749   2.809  -6.656  1.00  0.00     0.035 C 
HETATM   23  C15 UNL     1      27.922   1.536  -7.465  1.00  0.00     0.035 C 
HETATM   24  C16 UNL     1      26.647   1.249  -8.183  1.00  0.00    -0.011 C 
HETATM   25  C17 UNL     1      26.269   2.353  -9.105  1.00  0.00     0.010 C 
HETATM   26  C25 UNL     1      25.586   0.975  -7.184  1.00  0.00     0.014 C 
HETATM   27  C18 UNL     1      26.405   3.730  -8.532  1.00  0.00    -0.008 C 
HETATM   28  C19 UNL     1      27.562   3.938  -7.594  1.00  0.00     0.036 C 
HETATM   29  C20 UNL     1      25.063   4.140  -8.006  1.00  0.00    -0.014 C 
HETATM   30  C21 UNL     1      24.986   5.577  -7.543  1.00  0.00     0.010 C 
HETATM   31  C22 UNL     1      24.408   3.175  -7.098  1.00  0.00     0.014 C 
HETATM   32  C23 UNL     1      25.294   2.236  -6.353  1.00  0.00    -0.041 C 
HETATM   33  C24 UNL     1      24.446   1.706  -5.180  1.00  0.00     0.015 C 
HETATM   34  C26 UNL     1      26.526   2.788  -5.764  1.00  0.00     0.040 C 
ENDBRANCH  20  22
ENDBRANCH  17  20
ENDBRANCH  15  17
ENDBRANCH  12  13
ENDBRANCH  10  12
ENDBRANCH   8  10
ENDBRANCH   7   8
ENDBRANCH   6   7
ENDBRANCH   4   5
ENDBRANCH   3   4
TORSDOF 11
ENDMDL
MODEL 3
REMARK VINA RESULT: -6.211169983      6.091      8.925
REMARK  11 active torsions:
REMARK  status: ('A' for Active; 'I' for Inactive)
REMARK    1  A    between atoms: C3_3  and  C4_4 
REMARK    2  A    between atoms: C4_4  and  C5_5 
REMARK    3  A    between atoms: C6_6  and  C7_7 
REMARK    4  A    between atoms: C7_7  and  N1_8 
REMARK    5  A    between atoms: N1_8  and  C9_10 
REMARK    6  A    between atoms: C9_10  and  C11_12 
REMARK    7  A    between atoms: C11_12  and  C12_13 
REMARK       I    between atoms: C12_13  and  N2_15 
REMARK    8  A    between atoms: N2_15  and  C13_17 
REMARK    9  A    between atoms: C13_17  and  O2_18 
REMARK   10  A    between atoms: C13_17  and  N3_20 
REMARK   11  A    between atoms: N3_20  and  C14_22 
ROOT
HETATM    1  C1  UNL     1      28.257  -3.116   1.869  1.00  0.00     0.012 C 
HETATM    2  C2  UNL     1      27.880  -4.247   1.622  1.00  0.00    -0.117 C 
HETATM    3  C3  UNL     1      27.406  -5.589   1.315  1.00  0.00     0.105 C 
ENDROOT
BRANCH   3   4
HETATM    4  C4  UNL     1      28.387  -6.381   0.471  1.00  0.00     0.106 C 
BRANCH   4   5
HETATM    5  C5  UNL     1      28.735  -5.645  -0.748  1.00  0.00    -0.100 C 
HETATM    6  C6  UNL     1      29.003  -5.022  -1.742  1.00  0.00    -0.062 C 
BRANCH   6   7
HETATM    7  C7  UNL     1      29.343  -4.240  -2.927  1.00  0.00     0.151 C 
BRANCH   7   8
HETATM    8  N1  UNL     1      30.700  -4.187  -3.254  1.00  0.00    -0.383 N 
HETATM    9  C8  UNL     1      31.408  -5.375  -3.488  1.00  0.00     0.150 C 
BRANCH   8  10
HETATM   10  C9  UNL     1      31.379  -2.953  -3.369  1.00  0.00     0.088 C 
HETATM   11  C10 UNL     1      32.609  -2.963  -2.491  1.00  0.00     0.033 C 
BRANCH  10  12
HETATM   12  C11 UNL     1      30.431  -1.839  -3.084  1.00  0.00     0.128 C 
BRANCH  12  13
HETATM   13  C12 UNL     1      30.145  -1.017  -4.309  1.00  0.00     0.226 C 
HETATM   14  O1  UNL     1      29.884  -1.606  -5.381  1.00  0.00    -0.273 OA
HETATM   15  N2  UNL     1      30.175   0.383  -4.254  1.00  0.00    -0.293 N 
ATOM     16  H2  UNL     1      30.261   0.782  -3.319  1.00  0.00     0.172 HD
BRANCH  15  17
HETATM   17  C13 UNL     1      30.105   1.302  -5.289  1.00  0.00     0.220 C 
BRANCH  17  18
HETATM   18  O2  UNL     1      31.079   1.209  -6.153  1.00  0.00    -0.332 OA
ATOM     19  H2  UNL     1      31.640   1.975  -6.189  1.00  0.00     0.220 HD
ENDBRANCH  17  18
BRANCH  17  20
HETATM   20  N3  UNL     1      29.172   2.284  -5.561  1.00  0.00    -0.347 N 
ATOM     21  H3  UNL     1      29.400   3.216  -5.213  1.00  0.00     0.163 HD
BRANCH  20  22
HETATM   22  C14 UNL     1      27.922   2.176  -6.267  1.00  0.00     0.035 C 
HETATM   23  C15 UNL     1      26.898   1.801  -5.211  1.00  0.00     0.035 C 
HETATM   24  C16 UNL     1      25.536   1.901  -5.810  1.00  0.00    -0.011 C 
HETATM   25  C17 UNL     1      25.374   0.992  -6.975  1.00  0.00     0.010 C 
HETATM   26  C25 UNL     1      25.274   3.315  -6.171  1.00  0.00     0.014 C 
HETATM   27  C18 UNL     1      26.518   0.993  -7.942  1.00  0.00    -0.008 C 
HETATM   28  C19 UNL     1      27.886   1.155  -7.338  1.00  0.00     0.036 C 
HETATM   29  C20 UNL     1      26.181   1.948  -9.047  1.00  0.00    -0.014 C 
HETATM   30  C21 UNL     1      27.161   1.942 -10.197  1.00  0.00     0.010 C 
HETATM   31  C22 UNL     1      25.755   3.297  -8.622  1.00  0.00     0.014 C 
HETATM   32  C23 UNL     1      26.228   3.768  -7.289  1.00  0.00    -0.041 C 
HETATM   33  C24 UNL     1      26.062   5.301  -7.305  1.00  0.00     0.015 C 
HETATM   34  C26 UNL     1      27.634   3.504  -6.934  1.00  0.00     0.040 C 
ENDBRANCH  20  22
ENDBRANCH  17  20
ENDBRANCH  15  17
ENDBRANCH  12  13
ENDBRANCH  10  12
ENDBRANCH   8  10
ENDBRANCH   7   8
ENDBRANCH   6   7
ENDBRANCH   4   5
ENDBRANCH   3   4
TORSDOF 11
ENDMDL
MODEL 4
REMARK VINA RESULT: -6.210352407      6.097      8.761
REMARK  11 active torsions:
REMARK  status: ('A' for Active; 'I' for Inactive)
REMARK    1  A    between atoms: C3_3  and  C4_4 
REMARK    2  A    between atoms: C4_4  and  C5_5 
REMARK    3  A    between atoms: C6_6  and  C7_7 
REMARK    4  A    between atoms: C7_7  and  N1_8 
REMARK    5  A    between atoms: N1_8  and  C9_10 
REMARK    6  A    between atoms: C9_10  and  C11_12 
REMARK    7  A    between atoms: C11_12  and  C12_13 
REMARK       I    between atoms: C12_13  and  N2_15 
REMARK    8  A    between atoms: N2_15  and  C13_17 
REMARK    9  A    between atoms: C13_17  and  O2_18 
REMARK   10  A    between atoms: C13_17  and  N3_20 
REMARK   11  A    between atoms: N3_20  and  C14_22 
ROOT
HETATM    1  C1  UNL     1      28.376  -6.135   0.498  1.00  0.00     0.012 C 
HETATM    2  C2  UNL     1      27.792  -5.209   1.031  1.00  0.00    -0.117 C 
HETATM    3  C3  UNL     1      27.082  -4.119   1.686  1.00  0.00     0.105 C 
ENDROOT
BRANCH   3   4
HETATM    4  C4  UNL     1      28.015  -3.056   2.237  1.00  0.00     0.106 C 
BRANCH   4   5
HETATM    5  C5  UNL     1      28.848  -2.493   1.169  1.00  0.00    -0.100 C 
HETATM    6  C6  UNL     1      29.520  -2.008   0.298  1.00  0.00    -0.062 C 
BRANCH   6   7
HETATM    7  C7  UNL     1      30.358  -1.402  -0.733  1.00  0.00     0.151 C 
BRANCH   7   8
HETATM    8  N1  UNL     1      30.697  -2.227  -1.807  1.00  0.00    -0.383 N 
HETATM    9  C8  UNL     1      32.045  -2.512  -2.069  1.00  0.00     0.150 C 
BRANCH   8  10
HETATM   10  C9  UNL     1      29.705  -2.798  -2.636  1.00  0.00     0.088 C 
HETATM   11  C10 UNL     1      29.673  -4.296  -2.439  1.00  0.00     0.033 C 
BRANCH  10  12
HETATM   12  C11 UNL     1      29.933  -2.369  -4.045  1.00  0.00     0.128 C 
BRANCH  12  13
HETATM   13  C12 UNL     1      29.544  -0.935  -4.267  1.00  0.00     0.226 C 
HETATM   14  O1  UNL     1      28.501  -0.504  -3.727  1.00  0.00    -0.273 OA
HETATM   15  N2  UNL     1      30.330  -0.096  -5.068  1.00  0.00    -0.293 N 
ATOM     16  H2  UNL     1      31.227  -0.484  -5.358  1.00  0.00     0.172 HD
BRANCH  15  17
HETATM   17  C13 UNL     1      30.061   1.185  -5.523  1.00  0.00     0.220 C 
BRANCH  17  18
HETATM   18  O2  UNL     1      30.998   1.692  -6.278  1.00  0.00    -0.332 OA
ATOM     19  H2  UNL     1      31.187   2.606  -6.102  1.00  0.00     0.220 HD
ENDBRANCH  17  18
BRANCH  17  20
HETATM   20  N3  UNL     1      28.965   2.003  -5.320  1.00  0.00    -0.347 N 
ATOM     21  H3  UNL     1      29.016   2.609  -4.501  1.00  0.00     0.163 HD
BRANCH  20  22
HETATM   22  C14 UNL     1      27.763   2.117  -6.103  1.00  0.00     0.035 C 
HETATM   23  C15 UNL     1      26.626   2.071  -5.098  1.00  0.00     0.035 C 
HETATM   24  C16 UNL     1      25.356   2.422  -5.797  1.00  0.00    -0.011 C 
HETATM   25  C17 UNL     1      25.053   1.478  -6.905  1.00  0.00     0.010 C 
HETATM   26  C25 UNL     1      25.444   3.824  -6.273  1.00  0.00     0.014 C 
HETATM   27  C18 UNL     1      26.217   1.142  -7.786  1.00  0.00    -0.008 C 
HETATM   28  C19 UNL     1      27.551   1.044  -7.100  1.00  0.00     0.036 C 
HETATM   29  C20 UNL     1      26.165   2.052  -8.976  1.00  0.00    -0.014 C 
HETATM   30  C21 UNL     1      27.178   1.731 -10.051  1.00  0.00     0.010 C 
HETATM   31  C22 UNL     1      26.037   3.493  -8.676  1.00  0.00     0.014 C 
HETATM   32  C23 UNL     1      26.534   3.957  -7.349  1.00  0.00    -0.041 C 
HETATM   33  C24 UNL     1      26.723   5.481  -7.484  1.00  0.00     0.015 C 
HETATM   34  C26 UNL     1      27.821   3.416  -6.879  1.00  0.00     0.040 C 
ENDBRANCH  20  22
ENDBRANCH  17  20
ENDBRANCH  15  17
ENDBRANCH  12  13
ENDBRANCH  10  12
ENDBRANCH   8  10
ENDBRANCH   7   8
ENDBRANCH   6   7
ENDBRANCH   4   5
ENDBRANCH   3   4
TORSDOF 11
ENDMDL
MODEL 5
REMARK VINA RESULT: -6.170892884      2.959      6.203
REMARK  11 active torsions:
REMARK  status: ('A' for Active; 'I' for Inactive)
REMARK    1  A    between atoms: C3_3  and  C4_4 
REMARK    2  A    between atoms: C4_4  and  C5_5 
REMARK    3  A    between atoms: C6_6  and  C7_7 
REMARK    4  A    between atoms: C7_7  and  N1_8 
REMARK    5  A    between atoms: N1_8  and  C9_10 
REMARK    6  A    between atoms: C9_10  and  C11_12 
REMARK    7  A    between atoms: C11_12  and  C12_13 
REMARK       I    between atoms: C12_13  and  N2_15 
REMARK    8  A    between atoms: N2_15  and  C13_17 
REMARK    9  A    between atoms: C13_17  and  O2_18 
REMARK   10  A    between atoms: C13_17  and  N3_20 
REMARK   11  A    between atoms: N3_20  and  C14_22 
ROOT
HETATM    1  C1  UNL     1      31.140  -5.140  -3.600  1.00  0.00     0.012 C 
HETATM    2  C2  UNL     1      30.217  -5.233  -2.811  1.00  0.00    -0.117 C 
HETATM    3  C3  UNL     1      29.131  -5.351  -1.848  1.00  0.00     0.105 C 
ENDROOT
BRANCH   3   4
HETATM    4  C4  UNL     1      28.268  -4.104  -1.779  1.00  0.00     0.106 C 
BRANCH   4   5
HETATM    5  C5  UNL     1      27.797  -3.875  -0.409  1.00  0.00    -0.100 C 
HETATM    6  C6  UNL     1      27.386  -3.692   0.706  1.00  0.00    -0.062 C 
BRANCH   6   7
HETATM    7  C7  UNL     1      26.881  -3.508   2.063  1.00  0.00     0.151 C 
BRANCH   7   8
HETATM    8  N1  UNL     1      27.356  -2.385   2.744  1.00  0.00    -0.383 N 
HETATM    9  C8  UNL     1      26.487  -1.641   3.555  1.00  0.00     0.150 C 
BRANCH   8  10
HETATM   10  C9  UNL     1      28.708  -1.984   2.645  1.00  0.00     0.088 C 
HETATM   11  C10 UNL     1      29.551  -2.785   3.610  1.00  0.00     0.033 C 
BRANCH  10  12
HETATM   12  C11 UNL     1      28.800  -0.508   2.828  1.00  0.00     0.128 C 
BRANCH  12  13
HETATM   13  C12 UNL     1      29.505   0.159   1.682  1.00  0.00     0.226 C 
HETATM   14  O1  UNL     1      30.732  -0.040   1.533  1.00  0.00    -0.273 OA
HETATM   15  N2  UNL     1      28.806   0.993   0.799  1.00  0.00    -0.293 N 
ATOM     16  H2  UNL     1      27.792   0.993   0.910  1.00  0.00     0.172 HD
BRANCH  15  17
HETATM   17  C13 UNL     1      29.297   1.816  -0.202  1.00  0.00     0.220 C 
BRANCH  17  18
HETATM   18  O2  UNL     1      30.012   2.818   0.233  1.00  0.00    -0.332 OA
ATOM     19  H2  UNL     1      30.931   2.612   0.359  1.00  0.00     0.220 HD
ENDBRANCH  17  18
BRANCH  17  20
HETATM   20  N3  UNL     1      29.163   1.744  -1.575  1.00  0.00    -0.347 N 
ATOM     21  H3  UNL     1      28.536   2.431  -1.993  1.00  0.00     0.163 HD
BRANCH  20  22
HETATM   22  C14 UNL     1      29.788   0.833  -2.499  1.00  0.00     0.035 C 
HETATM   23  C15 UNL     1      28.940   0.895  -3.756  1.00  0.00     0.035 C 
HETATM   24  C16 UNL     1      29.647   0.166  -4.848  1.00  0.00    -0.011 C 
HETATM   25  C17 UNL     1      29.881  -1.261  -4.500  1.00  0.00     0.010 C 
HETATM   26  C25 UNL     1      30.913   0.875  -5.155  1.00  0.00     0.014 C 
HETATM   27  C18 UNL     1      30.391  -1.498  -3.111  1.00  0.00    -0.008 C 
HETATM   28  C19 UNL     1      29.858  -0.576  -2.051  1.00  0.00     0.036 C 
HETATM   29  C20 UNL     1      31.884  -1.605  -3.187  1.00  0.00    -0.014 C 
HETATM   30  C21 UNL     1      32.546  -2.013  -1.890  1.00  0.00     0.010 C 
HETATM   31  C22 UNL     1      32.571  -0.507  -3.897  1.00  0.00     0.014 C 
HETATM   32  C23 UNL     1      31.870   0.808  -3.953  1.00  0.00    -0.041 C 
HETATM   33  C24 UNL     1      32.956   1.845  -4.299  1.00  0.00     0.015 C 
HETATM   34  C26 UNL     1      31.216   1.282  -2.720  1.00  0.00     0.040 C 
ENDBRANCH  20  22
ENDBRANCH  17  20
ENDBRANCH  15  17
ENDBRANCH  12  13
ENDBRANCH  10  12
ENDBRANCH   8  10
ENDBRANCH   7   8
ENDBRANCH   6   7
ENDBRANCH   4   5
ENDBRANCH   3   4
TORSDOF 11
ENDMDL
