MODEL 1
REMARK VINA RESULT: -9.592027975      0.000      0.000
REMARK  15 active torsions:
REMARK  status: ('A' for Active; 'I' for Inactive)
REMARK    1  A    between atoms: O1_1  and  C1_3 
REMARK    2  A    between atoms: C1_3  and  C2_4 
REMARK    3  A    between atoms: C3_6  and  O3_7 
REMARK    4  A    between atoms: O3_7  and  C4_8 
REMARK    5  A    between atoms: C4_8  and  C5_9 
REMARK    6  A    between atoms: C6_11  and  O5_12 
REMARK    7  A    between atoms: O5_12  and  C7_13 
REMARK    8  A    between atoms: C10_16  and  O6_17 
REMARK    9  A    between atoms: O6_17  and  C11_18 
REMARK   10  A    between atoms: C11_18  and  C12_19 
REMARK   11  A    between atoms: C12_19  and  C13_20 
REMARK   12  A    between atoms: C21_28  and  O7_29 
REMARK   13  A    between atoms: C27_36  and  O8_37 
REMARK   14  A    between atoms: C28_39  and  O9_40 
REMARK   15  A    between atoms: C29_42  and  O10_43 
ROOT
HETATM    1  C5  UNL     1      -6.455  -0.669   6.617  1.00  0.00     0.156 C 
HETATM    2  O4  UNL     1      -5.554  -1.787   6.544  1.00  0.00    -0.350 OA
HETATM    3  C6  UNL     1      -4.537  -1.664   5.665  1.00  0.00     0.295 C 
HETATM    4  C21 UNL     1      -3.805  -0.351   5.600  1.00  0.00     0.178 C 
HETATM    5  C22 UNL     1      -4.758   0.762   5.701  1.00  0.00     0.033 C 
HETATM    6  C23 UNL     1      -4.695   1.761   4.566  1.00  0.00     0.035 C 
HETATM    7  C24 UNL     1      -6.111   2.242   4.548  1.00  0.00    -0.030 C 
HETATM    8  C25 UNL     1      -6.907   1.309   5.066  1.00  0.00    -0.023 C 
HETATM    9  C26 UNL     1      -6.132   0.177   5.455  1.00  0.00     0.046 C 
ENDROOT
BRANCH   1  10
HETATM   10  C4  UNL     1      -6.240  -0.188   7.984  1.00  0.00     0.203 C 
BRANCH  10  11
HETATM   11  O3  UNL     1      -7.008  -0.465   9.044  1.00  0.00    -0.356 OA
BRANCH  11  12
HETATM   12  C3  UNL     1      -6.452  -0.647  10.262  1.00  0.00     0.291 C 
HETATM   13  O2  UNL     1      -5.353   0.315  10.412  1.00  0.00    -0.348 OA
HETATM   14  C2  UNL     1      -4.593  -0.270  11.439  1.00  0.00     0.179 C 
HETATM   15  C29 UNL     1      -5.340  -0.098  12.739  1.00  0.00     0.180 C 
HETATM   16  C28 UNL     1      -6.687  -0.836  12.686  1.00  0.00     0.183 C 
HETATM   17  C27 UNL     1      -7.339  -0.313  11.398  1.00  0.00     0.204 C 
BRANCH  14  18
HETATM   18  C1  UNL     1      -3.299   0.508  11.562  1.00  0.00     0.198 C 
BRANCH  18  19
HETATM   19  O1  UNL     1      -2.229  -0.368  11.611  1.00  0.00    -0.398 OA
ATOM     20  H1  UNL     1      -2.348  -0.981  12.327  1.00  0.00     0.209 HD
ENDBRANCH  18  19
ENDBRANCH  14  18
BRANCH  15  21
HETATM   21  O10 UNL     1      -4.587  -0.499  13.820  1.00  0.00    -0.390 OA
ATOM     22  H10 UNL     1      -5.109  -0.969  14.460  1.00  0.00     0.210 HD
ENDBRANCH  15  21
BRANCH  16  23
HETATM   23  O9  UNL     1      -7.453  -0.468  13.768  1.00  0.00    -0.390 OA
ATOM     24  H9  UNL     1      -7.144  -0.921  14.543  1.00  0.00     0.210 HD
ENDBRANCH  16  23
BRANCH  17  25
HETATM   25  O8  UNL     1      -8.637  -0.679  11.266  1.00  0.00    -0.388 OA
ATOM     26  H8  UNL     1      -9.242   0.012  11.025  1.00  0.00     0.210 HD
ENDBRANCH  17  25
ENDBRANCH  11  12
ENDBRANCH  10  11
ENDBRANCH   1  10
BRANCH   3  27
HETATM   27  O5  UNL     1      -3.544  -2.579   6.161  1.00  0.00    -0.318 OA
BRANCH  27  28
HETATM   28  C7  UNL     1      -3.744  -3.778   6.741  1.00  0.00     0.072 A 
HETATM   29  C8  UNL     1      -4.076  -4.969   6.143  1.00  0.00     0.039 A 
HETATM   30  C9  UNL     1      -4.252  -6.142   6.879  1.00  0.00     0.039 A 
HETATM   31  C10 UNL     1      -4.101  -6.157   8.235  1.00  0.00     0.068 A 
HETATM   32  C19 UNL     1      -3.768  -4.978   8.865  1.00  0.00     0.039 A 
HETATM   33  C20 UNL     1      -3.595  -3.824   8.133  1.00  0.00     0.039 A 
BRANCH  31  34
HETATM   34  O6  UNL     1      -4.283  -7.341   8.931  1.00  0.00    -0.351 OA
BRANCH  34  35
HETATM   35  C11 UNL     1      -3.510  -7.548  10.097  1.00  0.00     0.180 C 
BRANCH  35  36
HETATM   36  C12 UNL     1      -4.471  -7.521  11.276  1.00  0.00     0.065 C 
BRANCH  36  37
HETATM   37  C13 UNL     1      -3.836  -8.295  12.368  1.00  0.00    -0.056 A 
HETATM   38  C14 UNL     1      -3.167  -9.446  12.052  1.00  0.00     0.007 A 
HETATM   39  C15 UNL     1      -2.560 -10.193  13.066  1.00  0.00     0.001 A 
HETATM   40  C16 UNL     1      -2.643  -9.757  14.379  1.00  0.00     0.000 A 
HETATM   41  C17 UNL     1      -3.317  -8.600  14.682  1.00  0.00     0.001 A 
HETATM   42  C18 UNL     1      -3.922  -7.857  13.664  1.00  0.00     0.007 A 
ENDBRANCH  36  37
ENDBRANCH  35  36
ENDBRANCH  34  35
ENDBRANCH  31  34
ENDBRANCH  27  28
ENDBRANCH   3  27
BRANCH   4  43
HETATM   43  O7  UNL     1      -2.750  -0.291   6.509  1.00  0.00    -0.390 OA
ATOM     44  H7  UNL     1      -3.045  -0.378   7.408  1.00  0.00     0.210 HD
ENDBRANCH   4  43
TORSDOF 15
ENDMDL
MODEL 2
REMARK VINA RESULT: -9.561711677      0.971      1.820
REMARK  15 active torsions:
REMARK  status: ('A' for Active; 'I' for Inactive)
REMARK    1  A    between atoms: O1_1  and  C1_3 
REMARK    2  A    between atoms: C1_3  and  C2_4 
REMARK    3  A    between atoms: C3_6  and  O3_7 
REMARK    4  A    between atoms: O3_7  and  C4_8 
REMARK    5  A    between atoms: C4_8  and  C5_9 
REMARK    6  A    between atoms: C6_11  and  O5_12 
REMARK    7  A    between atoms: O5_12  and  C7_13 
REMARK    8  A    between atoms: C10_16  and  O6_17 
REMARK    9  A    between atoms: O6_17  and  C11_18 
REMARK   10  A    between atoms: C11_18  and  C12_19 
REMARK   11  A    between atoms: C12_19  and  C13_20 
REMARK   12  A    between atoms: C21_28  and  O7_29 
REMARK   13  A    between atoms: C27_36  and  O8_37 
REMARK   14  A    between atoms: C28_39  and  O9_40 
REMARK   15  A    between atoms: C29_42  and  O10_43 
ROOT
HETATM    1  C5  UNL     1      -6.620  -0.794   6.452  1.00  0.00     0.156 C 
HETATM    2  O4  UNL     1      -5.681  -1.882   6.405  1.00  0.00    -0.350 OA
HETATM    3  C6  UNL     1      -4.724  -1.790   5.458  1.00  0.00     0.295 C 
HETATM    4  C21 UNL     1      -4.050  -0.462   5.250  1.00  0.00     0.178 C 
HETATM    5  C22 UNL     1      -5.039   0.622   5.327  1.00  0.00     0.033 C 
HETATM    6  C23 UNL     1      -5.083   1.533   4.119  1.00  0.00     0.035 C 
HETATM    7  C24 UNL     1      -6.517   1.961   4.155  1.00  0.00    -0.030 C 
HETATM    8  C25 UNL     1      -7.243   1.043   4.788  1.00  0.00    -0.023 C 
HETATM    9  C26 UNL     1      -6.401  -0.029   5.211  1.00  0.00     0.046 C 
ENDROOT
BRANCH   1  10
HETATM   10  C4  UNL     1      -6.344  -0.202   7.762  1.00  0.00     0.203 C 
BRANCH  10  11
HETATM   11  O3  UNL     1      -6.286  -0.861   8.925  1.00  0.00    -0.356 OA
BRANCH  11  12
HETATM   12  C3  UNL     1      -5.167  -0.819   9.680  1.00  0.00     0.291 C 
HETATM   13  O2  UNL     1      -4.210   0.086   9.031  1.00  0.00    -0.348 OA
HETATM   14  C2  UNL     1      -2.992  -0.319   9.605  1.00  0.00     0.179 C 
HETATM   15  C29 UNL     1      -2.959   0.164  11.035  1.00  0.00     0.180 C 
HETATM   16  C28 UNL     1      -4.090  -0.487  11.848  1.00  0.00     0.183 C 
HETATM   17  C27 UNL     1      -5.347  -0.205  11.014  1.00  0.00     0.204 C 
BRANCH  14  18
HETATM   18  C1  UNL     1      -1.873   0.389   8.870  1.00  0.00     0.198 C 
BRANCH  18  19
HETATM   19  O1  UNL     1      -0.863  -0.509   8.578  1.00  0.00    -0.398 OA
ATOM     20  H1  UNL     1      -0.020  -0.075   8.634  1.00  0.00     0.209 HD
ENDBRANCH  18  19
ENDBRANCH  14  18
BRANCH  15  21
HETATM   21  O10 UNL     1      -1.731  -0.049  11.619  1.00  0.00    -0.390 OA
ATOM     22  H10 UNL     1      -1.053  -0.204  10.971  1.00  0.00     0.210 HD
ENDBRANCH  15  21
BRANCH  16  23
HETATM   23  O9  UNL     1      -4.198   0.143  13.066  1.00  0.00    -0.390 OA
ATOM     24  H9  UNL     1      -3.499   0.779  13.156  1.00  0.00     0.210 HD
ENDBRANCH  16  23
BRANCH  17  25
HETATM   25  O8  UNL     1      -6.499  -0.512  11.659  1.00  0.00    -0.388 OA
ATOM     26  H8  UNL     1      -7.225   0.086  11.522  1.00  0.00     0.210 HD
ENDBRANCH  17  25
ENDBRANCH  11  12
ENDBRANCH  10  11
ENDBRANCH   1  10
BRANCH   3  27
HETATM   27  O5  UNL     1      -3.668  -2.629   5.958  1.00  0.00    -0.318 OA
BRANCH  27  28
HETATM   28  C7  UNL     1      -3.780  -3.708   6.757  1.00  0.00     0.072 A 
HETATM   29  C8  UNL     1      -3.608  -3.782   8.117  1.00  0.00     0.039 A 
HETATM   30  C9  UNL     1      -3.758  -4.980   8.818  1.00  0.00     0.039 A 
HETATM   31  C10 UNL     1      -4.085  -6.139   8.177  1.00  0.00     0.068 A 
HETATM   32  C19 UNL     1      -4.264  -6.098   6.811  1.00  0.00     0.039 A 
HETATM   33  C20 UNL     1      -4.115  -4.913   6.126  1.00  0.00     0.039 A 
BRANCH  31  34
HETATM   34  O6  UNL     1      -4.226  -7.308   8.907  1.00  0.00    -0.351 OA
BRANCH  34  35
HETATM   35  C11 UNL     1      -3.480  -7.436  10.102  1.00  0.00     0.180 C 
BRANCH  35  36
HETATM   36  C12 UNL     1      -4.482  -7.508  11.244  1.00  0.00     0.065 C 
BRANCH  36  37
HETATM   37  C13 UNL     1      -3.847  -8.296  12.326  1.00  0.00    -0.056 A 
HETATM   38  C14 UNL     1      -3.956  -7.847  13.614  1.00  0.00     0.007 A 
HETATM   39  C15 UNL     1      -3.365  -8.574  14.651  1.00  0.00     0.001 A 
HETATM   40  C16 UNL     1      -2.676  -9.741  14.362  1.00  0.00     0.000 A 
HETATM   41  C17 UNL     1      -2.574 -10.180  13.065  1.00  0.00     0.001 A 
HETATM   42  C18 UNL     1      -3.167  -9.449  12.032  1.00  0.00     0.007 A 
ENDBRANCH  36  37
ENDBRANCH  35  36
ENDBRANCH  34  35
ENDBRANCH  31  34
ENDBRANCH  27  28
ENDBRANCH   3  27
BRANCH   4  43
HETATM   43  O7  UNL     1      -2.946  -0.295   6.085  1.00  0.00    -0.390 OA
ATOM     44  H7  UNL     1      -3.098   0.362   6.754  1.00  0.00     0.210 HD
ENDBRANCH   4  43
TORSDOF 15
ENDMDL
MODEL 3
REMARK VINA RESULT: -9.548512659      0.970      1.472
REMARK  15 active torsions:
REMARK  status: ('A' for Active; 'I' for Inactive)
REMARK    1  A    between atoms: O1_1  and  C1_3 
REMARK    2  A    between atoms: C1_3  and  C2_4 
REMARK    3  A    between atoms: C3_6  and  O3_7 
REMARK    4  A    between atoms: O3_7  and  C4_8 
REMARK    5  A    between atoms: C4_8  and  C5_9 
REMARK    6  A    between atoms: C6_11  and  O5_12 
REMARK    7  A    between atoms: O5_12  and  C7_13 
REMARK    8  A    between atoms: C10_16  and  O6_17 
REMARK    9  A    between atoms: O6_17  and  C11_18 
REMARK   10  A    between atoms: C11_18  and  C12_19 
REMARK   11  A    between atoms: C12_19  and  C13_20 
REMARK   12  A    between atoms: C21_28  and  O7_29 
REMARK   13  A    between atoms: C27_36  and  O8_37 
REMARK   14  A    between atoms: C28_39  and  O9_40 
REMARK   15  A    between atoms: C29_42  and  O10_43 
ROOT
HETATM    1  C5  UNL     1      -6.561  -0.759   6.585  1.00  0.00     0.156 C 
HETATM    2  O4  UNL     1      -5.667  -1.876   6.454  1.00  0.00    -0.350 OA
HETATM    3  C6  UNL     1      -4.700  -1.748   5.520  1.00  0.00     0.295 C 
HETATM    4  C21 UNL     1      -3.971  -0.435   5.424  1.00  0.00     0.178 C 
HETATM    5  C22 UNL     1      -4.916   0.678   5.585  1.00  0.00     0.033 C 
HETATM    6  C23 UNL     1      -4.915   1.685   4.455  1.00  0.00     0.035 C 
HETATM    7  C24 UNL     1      -6.330   2.167   4.520  1.00  0.00    -0.030 C 
HETATM    8  C25 UNL     1      -7.097   1.231   5.074  1.00  0.00    -0.023 C 
HETATM    9  C26 UNL     1      -6.303   0.095   5.411  1.00  0.00     0.046 C 
ENDROOT
BRANCH   1  10
HETATM   10  C4  UNL     1      -6.270  -0.287   7.940  1.00  0.00     0.203 C 
BRANCH  10  11
HETATM   11  O3  UNL     1      -6.074  -1.058   9.015  1.00  0.00    -0.356 OA
BRANCH  11  12
HETATM   12  C3  UNL     1      -4.991  -0.873   9.801  1.00  0.00     0.291 C 
HETATM   13  O2  UNL     1      -4.071   0.036   9.107  1.00  0.00    -0.348 OA
HETATM   14  C2  UNL     1      -2.853  -0.231   9.756  1.00  0.00     0.179 C 
HETATM   15  C29 UNL     1      -2.909   0.375  11.137  1.00  0.00     0.180 C 
HETATM   16  C28 UNL     1      -4.026  -0.280  11.966  1.00  0.00     0.183 C 
HETATM   17  C27 UNL     1      -5.265  -0.159  11.068  1.00  0.00     0.204 C 
BRANCH  14  18
HETATM   18  C1  UNL     1      -1.754   0.486   8.999  1.00  0.00     0.198 C 
BRANCH  18  19
HETATM   19  O1  UNL     1      -0.754  -0.409   8.665  1.00  0.00    -0.398 OA
ATOM     20  H1  UNL     1       0.022   0.064   8.388  1.00  0.00     0.209 HD
ENDBRANCH  18  19
ENDBRANCH  14  18
BRANCH  15  21
HETATM   21  O10 UNL     1      -1.694   0.300  11.780  1.00  0.00    -0.390 OA
ATOM     22  H10 UNL     1      -1.412  -0.599  11.899  1.00  0.00     0.210 HD
ENDBRANCH  15  21
BRANCH  16  23
HETATM   23  O9  UNL     1      -4.225   0.444  13.119  1.00  0.00    -0.390 OA
ATOM     24  H9  UNL     1      -4.595  -0.120  13.787  1.00  0.00     0.210 HD
ENDBRANCH  16  23
BRANCH  17  25
HETATM   25  O8  UNL     1      -6.419  -0.488  11.698  1.00  0.00    -0.388 OA
ATOM     26  H8  UNL     1      -6.957   0.239  11.988  1.00  0.00     0.210 HD
ENDBRANCH  17  25
ENDBRANCH  11  12
ENDBRANCH  10  11
ENDBRANCH   1  10
BRANCH   3  27
HETATM   27  O5  UNL     1      -3.682  -2.667   5.954  1.00  0.00    -0.318 OA
BRANCH  27  28
HETATM   28  C7  UNL     1      -3.848  -3.833   6.608  1.00  0.00     0.072 A 
HETATM   29  C8  UNL     1      -4.175  -5.062   6.090  1.00  0.00     0.039 A 
HETATM   30  C9  UNL     1      -4.313  -6.192   6.897  1.00  0.00     0.039 A 
HETATM   31  C10 UNL     1      -4.129  -6.125   8.247  1.00  0.00     0.068 A 
HETATM   32  C19 UNL     1      -3.800  -4.905   8.798  1.00  0.00     0.039 A 
HETATM   33  C20 UNL     1      -3.664  -3.794   7.996  1.00  0.00     0.039 A 
BRANCH  31  34
HETATM   34  O6  UNL     1      -4.274  -7.268   9.015  1.00  0.00    -0.351 OA
BRANCH  34  35
HETATM   35  C11 UNL     1      -3.511  -7.369  10.202  1.00  0.00     0.180 C 
BRANCH  35  36
HETATM   36  C12 UNL     1      -4.496  -7.469  11.356  1.00  0.00     0.065 C 
BRANCH  36  37
HETATM   37  C13 UNL     1      -3.841  -8.272  12.414  1.00  0.00    -0.056 A 
HETATM   38  C14 UNL     1      -3.166  -9.406  12.053  1.00  0.00     0.007 A 
HETATM   39  C15 UNL     1      -2.539 -10.180  13.035  1.00  0.00     0.001 A 
HETATM   40  C16 UNL     1      -2.609  -9.788  14.362  1.00  0.00     0.000 A 
HETATM   41  C17 UNL     1      -3.290  -8.647  14.711  1.00  0.00     0.001 A 
HETATM   42  C18 UNL     1      -3.914  -7.878  13.725  1.00  0.00     0.007 A 
ENDBRANCH  36  37
ENDBRANCH  35  36
ENDBRANCH  34  35
ENDBRANCH  31  34
ENDBRANCH  27  28
ENDBRANCH   3  27
BRANCH   4  43
HETATM   43  O7  UNL     1      -2.867  -0.382   6.273  1.00  0.00    -0.390 OA
ATOM     44  H7  UNL     1      -2.048  -0.485   5.804  1.00  0.00     0.210 HD
ENDBRANCH   4  43
TORSDOF 15
ENDMDL
MODEL 4
REMARK VINA RESULT: -9.403661322      4.717      8.045
REMARK  15 active torsions:
REMARK  status: ('A' for Active; 'I' for Inactive)
REMARK    1  A    between atoms: O1_1  and  C1_3 
REMARK    2  A    between atoms: C1_3  and  C2_4 
REMARK    3  A    between atoms: C3_6  and  O3_7 
REMARK    4  A    between atoms: O3_7  and  C4_8 
REMARK    5  A    between atoms: C4_8  and  C5_9 
REMARK    6  A    between atoms: C6_11  and  O5_12 
REMARK    7  A    between atoms: O5_12  and  C7_13 
REMARK    8  A    between atoms: C10_16  and  O6_17 
REMARK    9  A    between atoms: O6_17  and  C11_18 
REMARK   10  A    between atoms: C11_18  and  C12_19 
REMARK   11  A    between atoms: C12_19  and  C13_20 
REMARK   12  A    between atoms: C21_28  and  O7_29 
REMARK   13  A    between atoms: C27_36  and  O8_37 
REMARK   14  A    between atoms: C28_39  and  O9_40 
REMARK   15  A    between atoms: C29_42  and  O10_43 
ROOT
HETATM    1  C5  UNL     1      -8.609   1.566   2.420  1.00  0.00     0.156 C 
HETATM    2  O4  UNL     1      -7.759   0.972   3.415  1.00  0.00    -0.350 OA
HETATM    3  C6  UNL     1      -8.278   0.894   4.659  1.00  0.00     0.295 C 
HETATM    4  C21 UNL     1      -9.707   0.451   4.809  1.00  0.00     0.178 C 
HETATM    5  C22 UNL     1     -10.537   1.062   3.762  1.00  0.00     0.033 C 
HETATM    6  C23 UNL     1     -11.728   1.846   4.267  1.00  0.00     0.035 C 
HETATM    7  C24 UNL     1     -11.873   2.855   3.171  1.00  0.00    -0.030 C 
HETATM    8  C25 UNL     1     -10.702   3.025   2.561  1.00  0.00    -0.023 C 
HETATM    9  C26 UNL     1      -9.718   2.187   3.166  1.00  0.00     0.046 C 
ENDROOT
BRANCH   1  10
HETATM   10  C4  UNL     1      -8.848   0.445   1.508  1.00  0.00     0.203 C 
BRANCH  10  11
HETATM   11  O3  UNL     1      -7.990  -0.546   1.241  1.00  0.00    -0.356 OA
BRANCH  11  12
HETATM   12  C3  UNL     1      -7.882  -1.601   2.078  1.00  0.00     0.291 C 
HETATM   13  O2  UNL     1      -8.251  -2.814   1.336  1.00  0.00    -0.348 OA
HETATM   14  C2  UNL     1      -8.560  -3.707   2.376  1.00  0.00     0.179 C 
HETATM   15  C29 UNL     1      -7.271  -4.126   3.041  1.00  0.00     0.180 C 
HETATM   16  C28 UNL     1      -6.572  -2.911   3.671  1.00  0.00     0.183 C 
HETATM   17  C27 UNL     1      -6.502  -1.895   2.523  1.00  0.00     0.204 C 
BRANCH  14  18
HETATM   18  C1  UNL     1      -9.167  -4.950   1.758  1.00  0.00     0.198 C 
BRANCH  18  19
HETATM   19  O1  UNL     1      -8.198  -5.644   1.055  1.00  0.00    -0.398 OA
ATOM     20  H1  UNL     1      -7.986  -6.451   1.510  1.00  0.00     0.209 HD
ENDBRANCH  18  19
ENDBRANCH  14  18
BRANCH  15  21
HETATM   21  O10 UNL     1      -7.472  -5.128   3.964  1.00  0.00    -0.390 OA
ATOM     22  H10 UNL     1      -6.805  -5.125   4.640  1.00  0.00     0.210 HD
ENDBRANCH  15  21
BRANCH  16  23
HETATM   23  O9  UNL     1      -5.297  -3.262   4.050  1.00  0.00    -0.390 OA
ATOM     24  H9  UNL     1      -5.173  -3.058   4.969  1.00  0.00     0.210 HD
ENDBRANCH  16  23
BRANCH  17  25
HETATM   25  O8  UNL     1      -5.727  -0.819   2.804  1.00  0.00    -0.388 OA
ATOM     26  H8  UNL     1      -5.835  -0.443   3.670  1.00  0.00     0.210 HD
ENDBRANCH  17  25
ENDBRANCH  11  12
ENDBRANCH  10  11
ENDBRANCH   1  10
BRANCH   3  27
HETATM   27  O5  UNL     1      -7.529  -0.169   5.275  1.00  0.00    -0.318 OA
BRANCH  27  28
HETATM   28  C7  UNL     1      -6.499  -0.060   6.136  1.00  0.00     0.072 A 
HETATM   29  C8  UNL     1      -5.575   0.951   6.237  1.00  0.00     0.039 A 
HETATM   30  C9  UNL     1      -4.553   0.927   7.187  1.00  0.00     0.039 A 
HETATM   31  C10 UNL     1      -4.426  -0.109   8.065  1.00  0.00     0.068 A 
HETATM   32  C19 UNL     1      -5.338  -1.140   7.990  1.00  0.00     0.039 A 
HETATM   33  C20 UNL     1      -6.344  -1.110   7.050  1.00  0.00     0.039 A 
BRANCH  31  34
HETATM   34  O6  UNL     1      -3.399  -0.096   8.995  1.00  0.00    -0.351 OA
BRANCH  34  35
HETATM   35  C11 UNL     1      -3.580  -0.834  10.189  1.00  0.00     0.180 C 
BRANCH  35  36
HETATM   36  C12 UNL     1      -3.720   0.177  11.317  1.00  0.00     0.065 C 
BRANCH  36  37
HETATM   37  C13 UNL     1      -4.973  -0.149  12.035  1.00  0.00    -0.056 A 
HETATM   38  C14 UNL     1      -6.157  -0.082  11.351  1.00  0.00     0.007 A 
HETATM   39  C15 UNL     1      -7.353  -0.385  12.009  1.00  0.00     0.001 A 
HETATM   40  C16 UNL     1      -7.324  -0.752  13.345  1.00  0.00     0.000 A 
HETATM   41  C17 UNL     1      -6.130  -0.815  14.019  1.00  0.00     0.001 A 
HETATM   42  C18 UNL     1      -4.937  -0.511  13.357  1.00  0.00     0.007 A 
ENDBRANCH  36  37
ENDBRANCH  35  36
ENDBRANCH  34  35
ENDBRANCH  31  34
ENDBRANCH  27  28
ENDBRANCH   3  27
BRANCH   4  43
HETATM   43  O7  UNL     1      -9.823  -0.936   4.901  1.00  0.00    -0.390 OA
ATOM     44  H7  UNL     1      -9.681  -1.250   5.786  1.00  0.00     0.210 HD
ENDBRANCH   4  43
TORSDOF 15
ENDMDL
MODEL 5
REMARK VINA RESULT: -9.368987736      0.747      1.945
REMARK  15 active torsions:
REMARK  status: ('A' for Active; 'I' for Inactive)
REMARK    1  A    between atoms: O1_1  and  C1_3 
REMARK    2  A    between atoms: C1_3  and  C2_4 
REMARK    3  A    between atoms: C3_6  and  O3_7 
REMARK    4  A    between atoms: O3_7  and  C4_8 
REMARK    5  A    between atoms: C4_8  and  C5_9 
REMARK    6  A    between atoms: C6_11  and  O5_12 
REMARK    7  A    between atoms: O5_12  and  C7_13 
REMARK    8  A    between atoms: C10_16  and  O6_17 
REMARK    9  A    between atoms: O6_17  and  C11_18 
REMARK   10  A    between atoms: C11_18  and  C12_19 
REMARK   11  A    between atoms: C12_19  and  C13_20 
REMARK   12  A    between atoms: C21_28  and  O7_29 
REMARK   13  A    between atoms: C27_36  and  O8_37 
REMARK   14  A    between atoms: C28_39  and  O9_40 
REMARK   15  A    between atoms: C29_42  and  O10_43 
ROOT
HETATM    1  C5  UNL     1      -6.616  -0.730   6.226  1.00  0.00     0.156 C 
HETATM    2  O4  UNL     1      -5.684  -1.823   6.296  1.00  0.00    -0.350 OA
HETATM    3  C6  UNL     1      -4.636  -1.755   5.449  1.00  0.00     0.295 C 
HETATM    4  C21 UNL     1      -3.935  -0.434   5.285  1.00  0.00     0.178 C 
HETATM    5  C22 UNL     1      -4.920   0.656   5.240  1.00  0.00     0.033 C 
HETATM    6  C23 UNL     1      -4.835   1.542   4.017  1.00  0.00     0.035 C 
HETATM    7  C24 UNL     1      -6.262   1.978   3.899  1.00  0.00    -0.030 C 
HETATM    8  C25 UNL     1      -7.055   1.076   4.474  1.00  0.00    -0.023 C 
HETATM    9  C26 UNL     1      -6.267   0.009   5.000  1.00  0.00     0.046 C 
ENDROOT
BRANCH   1  10
HETATM   10  C4  UNL     1      -6.469  -0.113   7.546  1.00  0.00     0.203 C 
BRANCH  10  11
HETATM   11  O3  UNL     1      -6.592  -0.738   8.723  1.00  0.00    -0.356 OA
BRANCH  11  12
HETATM   12  C3  UNL     1      -5.919  -0.294   9.807  1.00  0.00     0.291 C 
HETATM   13  O2  UNL     1      -6.521  -0.902  11.000  1.00  0.00    -0.348 OA
HETATM   14  C2  UNL     1      -6.087  -0.034  12.018  1.00  0.00     0.179 C 
HETATM   15  C29 UNL     1      -4.615  -0.275  12.252  1.00  0.00     0.180 C 
HETATM   16  C28 UNL     1      -3.809   0.059  10.987  1.00  0.00     0.183 C 
HETATM   17  C27 UNL     1      -4.512  -0.743   9.883  1.00  0.00     0.204 C 
BRANCH  14  18
HETATM   18  C1  UNL     1      -6.809  -0.416  13.294  1.00  0.00     0.198 C 
BRANCH  18  19
HETATM   19  O1  UNL     1      -8.062  -0.917  12.991  1.00  0.00    -0.398 OA
ATOM     20  H1  UNL     1      -7.976  -1.695  12.454  1.00  0.00     0.209 HD
ENDBRANCH  18  19
ENDBRANCH  14  18
BRANCH  15  21
HETATM   21  O10 UNL     1      -4.150   0.418  13.345  1.00  0.00    -0.390 OA
ATOM     22  H10 UNL     1      -3.256   0.716  13.222  1.00  0.00     0.210 HD
ENDBRANCH  15  21
BRANCH  16  23
HETATM   23  O9  UNL     1      -2.519  -0.396  11.133  1.00  0.00    -0.390 OA
ATOM     24  H9  UNL     1      -1.992  -0.092  10.404  1.00  0.00     0.210 HD
ENDBRANCH  16  23
BRANCH  17  25
HETATM   25  O8  UNL     1      -3.828  -0.759   8.712  1.00  0.00    -0.388 OA
ATOM     26  H8  UNL     1      -2.940  -1.092   8.753  1.00  0.00     0.210 HD
ENDBRANCH  17  25
ENDBRANCH  11  12
ENDBRANCH  10  11
ENDBRANCH   1  10
BRANCH   3  27
HETATM   27  O5  UNL     1      -3.641  -2.589   6.069  1.00  0.00    -0.318 OA
BRANCH  27  28
HETATM   28  C7  UNL     1      -3.817  -3.797   6.638  1.00  0.00     0.072 A 
HETATM   29  C8  UNL     1      -4.161  -4.982   6.035  1.00  0.00     0.039 A 
HETATM   30  C9  UNL     1      -4.307  -6.165   6.760  1.00  0.00     0.039 A 
HETATM   31  C10 UNL     1      -4.113  -6.198   8.110  1.00  0.00     0.068 A 
HETATM   32  C19 UNL     1      -3.766  -5.025   8.745  1.00  0.00     0.039 A 
HETATM   33  C20 UNL     1      -3.623  -3.861   8.024  1.00  0.00     0.039 A 
BRANCH  31  34
HETATM   34  O6  UNL     1      -4.266  -7.393   8.795  1.00  0.00    -0.351 OA
BRANCH  34  35
HETATM   35  C11 UNL     1      -3.496  -7.587   9.966  1.00  0.00     0.180 C 
BRANCH  35  36
HETATM   36  C12 UNL     1      -4.453  -7.497  11.145  1.00  0.00     0.065 C 
BRANCH  36  37
HETATM   37  C13 UNL     1      -3.852  -8.283  12.248  1.00  0.00    -0.056 A 
HETATM   38  C14 UNL     1      -3.172  -9.429  11.941  1.00  0.00     0.007 A 
HETATM   39  C15 UNL     1      -2.597 -10.187  12.966  1.00  0.00     0.001 A 
HETATM   40  C16 UNL     1      -2.723  -9.766  14.280  1.00  0.00     0.000 A 
HETATM   41  C17 UNL     1      -3.408  -8.614  14.574  1.00  0.00     0.001 A 
HETATM   42  C18 UNL     1      -3.981  -7.860  13.546  1.00  0.00     0.007 A 
ENDBRANCH  36  37
ENDBRANCH  35  36
ENDBRANCH  34  35
ENDBRANCH  31  34
ENDBRANCH  27  28
ENDBRANCH   3  27
BRANCH   4  43
HETATM   43  O7  UNL     1      -2.920  -0.256   6.223  1.00  0.00    -0.390 OA
ATOM     44  H7  UNL     1      -2.100   0.003   5.819  1.00  0.00     0.210 HD
ENDBRANCH   4  43
TORSDOF 15
ENDMDL
