MODEL 1
REMARK VINA RESULT: -7.776337180      0.000      0.000
REMARK  18 active torsions:
REMARK  status: ('A' for Active; 'I' for Inactive)
REMARK       I    between atoms: N1_2  and  C2_4 
REMARK    1  A    between atoms: C2_4  and  O2_6 
REMARK    2  A    between atoms: O2_6  and  C3_7 
REMARK    3  A    between atoms: C3_7  and  C4_8 
REMARK    4  A    between atoms: C4_8  and  O3_9 
REMARK    5  A    between atoms: C5_11  and  O4_12 
REMARK    6  A    between atoms: O4_12  and  C6_13 
REMARK    7  A    between atoms: C6_13  and  C7_15 
REMARK    8  A    between atoms: C10_18  and  N2_19 
REMARK    9  A    between atoms: C13_24  and  O8_25 
REMARK   10  A    between atoms: C13_24  and  C14_27 
REMARK   11  A    between atoms: C15_30  and  C16_31 
REMARK   12  A    between atoms: C16_31  and  O11_32 
REMARK   13  A    between atoms: C16_31  and  C17_34 
REMARK   14  A    between atoms: C17_34  and  O12_35 
REMARK   15  A    between atoms: C18_38  and  C20_40 
REMARK   16  A    between atoms: C20_40  and  O14_41 
REMARK   17  A    between atoms: O14_41  and  C21_42 
REMARK   18  A    between atoms: C21_42  and  C22_44 
ROOT
HETATM    1  C4  UNL     1      -4.742  -1.073   6.589  1.00  0.00     0.142 C 
HETATM    2  C5  UNL     1      -3.745   0.047   6.962  1.00  0.00     0.219 C 
HETATM    3  C13 UNL     1      -3.563   0.926   5.777  1.00  0.00     0.204 C 
HETATM    4  C15 UNL     1      -4.871   1.289   5.107  1.00  0.00     0.201 C 
HETATM    5  O13 UNL     1      -5.628   0.183   4.872  1.00  0.00    -0.363 OA
HETATM    6  C18 UNL     1      -5.990  -0.543   6.006  1.00  0.00     0.115 C 
HETATM    7  C19 UNL     1      -6.912   0.197   6.912  1.00  0.00     0.052 C 
ENDROOT
BRANCH   2   8
HETATM    8  O4  UNL     1      -4.013   0.510   8.182  1.00  0.00    -0.305 OA
BRANCH   8   9
HETATM    9  C6  UNL     1      -3.530   0.216   9.418  1.00  0.00     0.293 C 
HETATM   10  O5  UNL     1      -2.299   0.146   9.376  1.00  0.00    -0.259 OA
BRANCH   9  11
HETATM   11  C7  UNL     1      -4.319   0.011  10.623  1.00  0.00     0.039 A 
HETATM   12  C8  UNL     1      -5.679  -0.049  10.526  1.00  0.00     0.020 A 
HETATM   13  C9  UNL     1      -6.468  -0.244  11.652  1.00  0.00     0.037 A 
HETATM   14  C10 UNL     1      -5.904  -0.383  12.900  1.00  0.00     0.102 A 
HETATM   15  C11 UNL     1      -4.530  -0.321  12.987  1.00  0.00     0.037 A 
HETATM   16  C12 UNL     1      -3.740  -0.127  11.862  1.00  0.00     0.020 A 
BRANCH  14  17
HETATM   17  N2  UNL     1      -6.694  -0.583  14.067  1.00  0.00    -0.116 N 
HETATM   18  O6  UNL     1      -7.854  -0.169  14.102  1.00  0.00    -0.532 OA
HETATM   19  O7  UNL     1      -6.202  -1.230  15.174  1.00  0.00    -0.532 OA
ENDBRANCH  14  17
ENDBRANCH   9  11
ENDBRANCH   8   9
ENDBRANCH   2   8
BRANCH   1  20
HETATM   20  C3  UNL     1      -4.858  -2.052   7.707  1.00  0.00     0.224 C 
BRANCH  20  21
HETATM   21  O2  UNL     1      -3.704  -2.794   7.896  1.00  0.00    -0.301 OA
BRANCH  21  22
HETATM   22  C2  UNL     1      -3.542  -4.130   7.675  1.00  0.00     0.360 C 
HETATM   23  N1  UNL     1      -4.150  -5.103   8.516  1.00  0.00    -0.341 N 
HETATM   24  C1  UNL     1      -3.982  -6.523   8.284  1.00  0.00     0.151 C 
ATOM     25  H1  UNL     1      -4.721  -4.792   9.303  1.00  0.00     0.164 HD
HETATM   26  O1  UNL     1      -2.829  -4.481   6.688  1.00  0.00    -0.239 OA
ENDBRANCH  21  22
ENDBRANCH  20  21
ENDBRANCH   1  20
BRANCH   1  27
HETATM   27  O3  UNL     1      -4.067  -1.764   5.546  1.00  0.00    -0.382 OA
ATOM     28  H3  UNL     1      -4.657  -2.459   5.278  1.00  0.00     0.211 HD
ENDBRANCH   1  27
BRANCH   3  29
HETATM   29  O8  UNL     1      -2.913   0.147   4.816  1.00  0.00    -0.374 OA
ATOM     30  H8  UNL     1      -3.458   0.182   4.039  1.00  0.00     0.211 HD
ENDBRANCH   3  29
BRANCH   3  31
HETATM   31  C14 UNL     1      -2.688   2.060   6.016  1.00  0.00     0.214 C 
HETATM   32  O9  UNL     1      -1.481   1.987   5.669  1.00  0.00    -0.646 OA
HETATM   33  O10 UNL     1      -3.037   3.264   6.606  1.00  0.00    -0.646 OA
ENDBRANCH   3  31
BRANCH   6  34
HETATM   34  C20 UNL     1      -6.815  -1.691   5.444  1.00  0.00     0.219 C 
BRANCH  34  35
HETATM   35  O14 UNL     1      -6.527  -1.625   4.020  1.00  0.00    -0.318 OA
BRANCH  35  36
HETATM   36  C21 UNL     1      -6.473  -2.799   3.271  1.00  0.00     0.262 C 
HETATM   37  O15 UNL     1      -5.739  -3.712   3.730  1.00  0.00    -0.265 OA
BRANCH  36  38
HETATM   38  C22 UNL     1      -7.241  -2.960   2.001  1.00  0.00     0.077 C 
HETATM   39  C23 UNL     1      -8.313  -4.000   2.120  1.00  0.00     0.020 C 
HETATM   40  C24 UNL     1      -7.880  -1.636   1.669  1.00  0.00     0.020 C 
ENDBRANCH  36  38
ENDBRANCH  35  36
ENDBRANCH  34  35
ENDBRANCH   6  34
BRANCH   4  41
HETATM   41  C16 UNL     1      -4.756   2.027   3.825  1.00  0.00     0.174 C 
BRANCH  41  42
HETATM   42  O11 UNL     1      -5.626   3.146   3.974  1.00  0.00    -0.391 OA
ATOM     43  H11 UNL     1      -5.940   3.325   3.095  1.00  0.00     0.210 HD
ENDBRANCH  41  42
BRANCH  41  44
HETATM   44  C17 UNL     1      -5.208   1.342   2.588  1.00  0.00     0.198 C 
BRANCH  44  45
HETATM   45  O12 UNL     1      -4.616   0.110   2.357  1.00  0.00    -0.398 OA
ATOM     46  H12 UNL     1      -4.138   0.045   1.539  1.00  0.00     0.209 HD
ENDBRANCH  44  45
ENDBRANCH  41  44
ENDBRANCH   4  41
TORSDOF 18
ENDMDL
MODEL 2
REMARK VINA RESULT: -7.525267088      2.980      7.797
REMARK  18 active torsions:
REMARK  status: ('A' for Active; 'I' for Inactive)
REMARK       I    between atoms: N1_2  and  C2_4 
REMARK    1  A    between atoms: C2_4  and  O2_6 
REMARK    2  A    between atoms: O2_6  and  C3_7 
REMARK    3  A    between atoms: C3_7  and  C4_8 
REMARK    4  A    between atoms: C4_8  and  O3_9 
REMARK    5  A    between atoms: C5_11  and  O4_12 
REMARK    6  A    between atoms: O4_12  and  C6_13 
REMARK    7  A    between atoms: C6_13  and  C7_15 
REMARK    8  A    between atoms: C10_18  and  N2_19 
REMARK    9  A    between atoms: C13_24  and  O8_25 
REMARK   10  A    between atoms: C13_24  and  C14_27 
REMARK   11  A    between atoms: C15_30  and  C16_31 
REMARK   12  A    between atoms: C16_31  and  O11_32 
REMARK   13  A    between atoms: C16_31  and  C17_34 
REMARK   14  A    between atoms: C17_34  and  O12_35 
REMARK   15  A    between atoms: C18_38  and  C20_40 
REMARK   16  A    between atoms: C20_40  and  O14_41 
REMARK   17  A    between atoms: O14_41  and  C21_42 
REMARK   18  A    between atoms: C21_42  and  C22_44 
ROOT
HETATM    1  C4  UNL     1      -3.931  -1.344   7.071  1.00  0.00     0.142 C 
HETATM    2  C5  UNL     1      -4.437  -2.320   5.986  1.00  0.00     0.219 C 
HETATM    3  C13 UNL     1      -4.001  -3.693   6.350  1.00  0.00     0.204 C 
HETATM    4  C15 UNL     1      -4.237  -4.017   7.810  1.00  0.00     0.201 C 
HETATM    5  O13 UNL     1      -3.743  -3.041   8.619  1.00  0.00    -0.363 OA
HETATM    6  C18 UNL     1      -4.300  -1.776   8.433  1.00  0.00     0.115 C 
HETATM    7  C19 UNL     1      -5.740  -1.703   8.810  1.00  0.00     0.052 C 
ENDROOT
BRANCH   2   8
HETATM    8  O4  UNL     1      -5.688  -2.016   5.646  1.00  0.00    -0.305 OA
BRANCH   8   9
HETATM    9  C6  UNL     1      -6.260  -1.564   4.498  1.00  0.00     0.293 C 
HETATM   10  O5  UNL     1      -5.572  -1.903   3.532  1.00  0.00    -0.259 OA
BRANCH   9  11
HETATM   11  C7  UNL     1      -7.493  -0.797   4.396  1.00  0.00     0.039 A 
HETATM   12  C8  UNL     1      -7.782  -0.156   3.227  1.00  0.00     0.020 A 
HETATM   13  C9  UNL     1      -8.948   0.586   3.089  1.00  0.00     0.037 A 
HETATM   14  C10 UNL     1      -9.847   0.697   4.125  1.00  0.00     0.102 A 
HETATM   15  C11 UNL     1      -9.545   0.046   5.301  1.00  0.00     0.037 A 
HETATM   16  C12 UNL     1      -8.379  -0.696   5.441  1.00  0.00     0.020 A 
BRANCH  14  17
HETATM   17  N2  UNL     1     -11.047   1.453   4.005  1.00  0.00    -0.116 N 
HETATM   18  O6  UNL     1     -12.136   0.877   3.976  1.00  0.00    -0.532 OA
HETATM   19  O7  UNL     1     -11.035   2.823   3.917  1.00  0.00    -0.532 OA
ENDBRANCH  14  17
ENDBRANCH   9  11
ENDBRANCH   8   9
ENDBRANCH   2   8
BRANCH   1  20
HETATM   20  C3  UNL     1      -4.237   0.063   6.682  1.00  0.00     0.224 C 
BRANCH  20  21
HETATM   21  O2  UNL     1      -3.196   0.672   6.000  1.00  0.00    -0.301 OA
BRANCH  21  22
HETATM   22  C2  UNL     1      -3.075   0.818   4.649  1.00  0.00     0.360 C 
HETATM   23  N1  UNL     1      -4.216   0.938   3.808  1.00  0.00    -0.341 N 
HETATM   24  C1  UNL     1      -4.092   1.095   2.373  1.00  0.00     0.151 C 
ATOM     25  H1  UNL     1      -5.146   0.914   4.226  1.00  0.00     0.164 HD
HETATM   26  O1  UNL     1      -1.905   0.846   4.163  1.00  0.00    -0.239 OA
ENDBRANCH  21  22
ENDBRANCH  20  21
ENDBRANCH   1  20
BRANCH   1  27
HETATM   27  O3  UNL     1      -2.518  -1.467   6.975  1.00  0.00    -0.382 OA
ATOM     28  H3  UNL     1      -2.303  -2.282   7.413  1.00  0.00     0.211 HD
ENDBRANCH   1  27
BRANCH   3  29
HETATM   29  O8  UNL     1      -2.608  -3.696   6.240  1.00  0.00    -0.374 OA
ATOM     30  H8  UNL     1      -2.309  -4.457   6.725  1.00  0.00     0.211 HD
ENDBRANCH   3  29
BRANCH   3  31
HETATM   31  C14 UNL     1      -4.465  -4.720   5.435  1.00  0.00     0.214 C 
HETATM   32  O9  UNL     1      -3.748  -5.034   4.451  1.00  0.00    -0.646 OA
HETATM   33  O10 UNL     1      -5.656  -5.425   5.518  1.00  0.00    -0.646 OA
ENDBRANCH   3  31
BRANCH   6  34
HETATM   34  C20 UNL     1      -3.573  -0.914   9.455  1.00  0.00     0.219 C 
BRANCH  34  35
HETATM   35  O14 UNL     1      -4.659  -0.421  10.286  1.00  0.00    -0.318 OA
BRANCH  35  36
HETATM   36  C21 UNL     1      -4.466  -0.276  11.659  1.00  0.00     0.262 C 
HETATM   37  O15 UNL     1      -3.291  -0.456  12.073  1.00  0.00    -0.265 OA
BRANCH  36  38
HETATM   38  C22 UNL     1      -5.589   0.073  12.580  1.00  0.00     0.077 C 
HETATM   39  C23 UNL     1      -6.925  -0.251  11.986  1.00  0.00     0.020 C 
HETATM   40  C24 UNL     1      -5.414  -0.718  13.851  1.00  0.00     0.020 C 
ENDBRANCH  36  38
ENDBRANCH  35  36
ENDBRANCH  34  35
ENDBRANCH   6  34
BRANCH   4  41
HETATM   41  C16 UNL     1      -3.677  -5.308   8.283  1.00  0.00     0.174 C 
BRANCH  41  42
HETATM   42  O11 UNL     1      -3.356  -6.019   7.090  1.00  0.00    -0.391 OA
ATOM     43  H11 UNL     1      -2.818  -6.747   7.382  1.00  0.00     0.210 HD
ENDBRANCH  41  42
BRANCH  41  44
HETATM   44  C17 UNL     1      -4.570  -6.212   9.050  1.00  0.00     0.198 C 
BRANCH  44  45
HETATM   45  O12 UNL     1      -5.743  -6.559   8.398  1.00  0.00    -0.398 OA
ATOM     46  H12 UNL     1      -6.452  -6.828   8.971  1.00  0.00     0.209 HD
ENDBRANCH  44  45
ENDBRANCH  41  44
ENDBRANCH   4  41
TORSDOF 18
ENDMDL
MODEL 3
REMARK VINA RESULT: -7.399030336      2.518      5.888
REMARK  18 active torsions:
REMARK  status: ('A' for Active; 'I' for Inactive)
REMARK       I    between atoms: N1_2  and  C2_4 
REMARK    1  A    between atoms: C2_4  and  O2_6 
REMARK    2  A    between atoms: O2_6  and  C3_7 
REMARK    3  A    between atoms: C3_7  and  C4_8 
REMARK    4  A    between atoms: C4_8  and  O3_9 
REMARK    5  A    between atoms: C5_11  and  O4_12 
REMARK    6  A    between atoms: O4_12  and  C6_13 
REMARK    7  A    between atoms: C6_13  and  C7_15 
REMARK    8  A    between atoms: C10_18  and  N2_19 
REMARK    9  A    between atoms: C13_24  and  O8_25 
REMARK   10  A    between atoms: C13_24  and  C14_27 
REMARK   11  A    between atoms: C15_30  and  C16_31 
REMARK   12  A    between atoms: C16_31  and  O11_32 
REMARK   13  A    between atoms: C16_31  and  C17_34 
REMARK   14  A    between atoms: C17_34  and  O12_35 
REMARK   15  A    between atoms: C18_38  and  C20_40 
REMARK   16  A    between atoms: C20_40  and  O14_41 
REMARK   17  A    between atoms: O14_41  and  C21_42 
REMARK   18  A    between atoms: C21_42  and  C22_44 
ROOT
HETATM    1  C4  UNL     1      -6.411   0.239   5.864  1.00  0.00     0.142 C 
HETATM    2  C5  UNL     1      -5.979  -1.197   5.493  1.00  0.00     0.219 C 
HETATM    3  C13 UNL     1      -6.829  -1.667   4.368  1.00  0.00     0.204 C 
HETATM    4  C15 UNL     1      -6.982  -0.631   3.275  1.00  0.00     0.201 C 
HETATM    5  O13 UNL     1      -7.347   0.576   3.786  1.00  0.00    -0.363 OA
HETATM    6  C18 UNL     1      -6.448   1.135   4.693  1.00  0.00     0.115 C 
HETATM    7  C19 UNL     1      -5.145   1.514   4.076  1.00  0.00     0.052 C 
ENDROOT
BRANCH   2   8
HETATM    8  O4  UNL     1      -4.651  -1.289   5.494  1.00  0.00    -0.305 OA
BRANCH   8   9
HETATM    9  C6  UNL     1      -3.755  -1.860   6.343  1.00  0.00     0.293 C 
HETATM   10  O5  UNL     1      -2.861  -1.051   6.607  1.00  0.00    -0.259 OA
BRANCH   9  11
HETATM   11  C7  UNL     1      -3.817  -3.213   6.876  1.00  0.00     0.039 A 
HETATM   12  C8  UNL     1      -3.860  -4.267   6.011  1.00  0.00     0.020 A 
HETATM   13  C9  UNL     1      -3.919  -5.573   6.479  1.00  0.00     0.037 A 
HETATM   14  C10 UNL     1      -3.935  -5.845   7.828  1.00  0.00     0.102 A 
HETATM   15  C11 UNL     1      -3.891  -4.773   8.693  1.00  0.00     0.037 A 
HETATM   16  C12 UNL     1      -3.831  -3.467   8.226  1.00  0.00     0.020 A 
BRANCH  14  17
HETATM   17  N2  UNL     1      -3.995  -7.176   8.328  1.00  0.00    -0.116 N 
HETATM   18  O6  UNL     1      -4.838  -7.477   9.177  1.00  0.00    -0.532 OA
HETATM   19  O7  UNL     1      -3.134  -8.154   7.894  1.00  0.00    -0.532 OA
ENDBRANCH  14  17
ENDBRANCH   9  11
ENDBRANCH   8   9
ENDBRANCH   2   8
BRANCH   1  20
HETATM   20  C3  UNL     1      -5.671   0.703   7.072  1.00  0.00     0.224 C 
BRANCH  20  21
HETATM   21  O2  UNL     1      -6.186   0.189   8.251  1.00  0.00    -0.301 OA
BRANCH  21  22
HETATM   22  C2  UNL     1      -5.495  -0.102   9.390  1.00  0.00     0.360 C 
HETATM   23  N1  UNL     1      -4.073  -0.056   9.431  1.00  0.00    -0.341 N 
HETATM   24  C1  UNL     1      -3.335  -0.364  10.639  1.00  0.00     0.151 C 
ATOM     25  H1  UNL     1      -3.560   0.203   8.588  1.00  0.00     0.164 HD
HETATM   26  O1  UNL     1      -6.163  -0.416  10.419  1.00  0.00    -0.239 OA
ENDBRANCH  21  22
ENDBRANCH  20  21
ENDBRANCH   1  20
BRANCH   1  27
HETATM   27  O3  UNL     1      -7.757   0.066   6.286  1.00  0.00    -0.382 OA
ATOM     28  H3  UNL     1      -8.225  -0.251   5.522  1.00  0.00     0.211 HD
ENDBRANCH   1  27
BRANCH   3  29
HETATM   29  O8  UNL     1      -8.122  -1.783   4.885  1.00  0.00    -0.374 OA
ATOM     30  H8  UNL     1      -8.681  -1.278   4.307  1.00  0.00     0.211 HD
ENDBRANCH   3  29
BRANCH   3  31
HETATM   31  C14 UNL     1      -6.484  -2.991   3.882  1.00  0.00     0.214 C 
HETATM   32  O9  UNL     1      -5.768  -3.100   2.854  1.00  0.00    -0.646 OA
HETATM   33  O10 UNL     1      -6.866  -4.201   4.439  1.00  0.00    -0.646 OA
ENDBRANCH   3  31
BRANCH   6  34
HETATM   34  C20 UNL     1      -7.106   2.451   5.081  1.00  0.00     0.219 C 
BRANCH  34  35
HETATM   35  O14 UNL     1      -8.364   2.405   4.354  1.00  0.00    -0.318 OA
BRANCH  35  36
HETATM   36  C21 UNL     1      -8.648   3.381   3.401  1.00  0.00     0.262 C 
HETATM   37  O15 UNL     1      -9.860   3.505   3.083  1.00  0.00    -0.265 OA
BRANCH  36  38
HETATM   38  C22 UNL     1      -7.577   4.228   2.797  1.00  0.00     0.077 C 
HETATM   39  C23 UNL     1      -7.075   3.662   1.504  1.00  0.00     0.020 C 
HETATM   40  C24 UNL     1      -8.152   5.597   2.540  1.00  0.00     0.020 C 
ENDBRANCH  36  38
ENDBRANCH  35  36
ENDBRANCH  34  35
ENDBRANCH   6  34
BRANCH   4  41
HETATM   41  C16 UNL     1      -7.948  -0.966   2.199  1.00  0.00     0.174 C 
BRANCH  41  42
HETATM   42  O11 UNL     1      -7.136  -1.262   1.066  1.00  0.00    -0.391 OA
ATOM     43  H11 UNL     1      -7.041  -2.207   1.078  1.00  0.00     0.210 HD
ENDBRANCH  41  42
BRANCH  41  44
HETATM   44  C17 UNL     1      -8.878   0.099   1.747  1.00  0.00     0.198 C 
BRANCH  44  45
HETATM   45  O12 UNL     1      -9.866   0.433   2.659  1.00  0.00    -0.398 OA
ATOM     46  H12 UNL     1      -9.704   1.232   3.147  1.00  0.00     0.209 HD
ENDBRANCH  44  45
ENDBRANCH  41  44
ENDBRANCH   4  41
TORSDOF 18
ENDMDL
MODEL 4
REMARK VINA RESULT: -7.252532510      2.656      5.952
REMARK  18 active torsions:
REMARK  status: ('A' for Active; 'I' for Inactive)
REMARK       I    between atoms: N1_2  and  C2_4 
REMARK    1  A    between atoms: C2_4  and  O2_6 
REMARK    2  A    between atoms: O2_6  and  C3_7 
REMARK    3  A    between atoms: C3_7  and  C4_8 
REMARK    4  A    between atoms: C4_8  and  O3_9 
REMARK    5  A    between atoms: C5_11  and  O4_12 
REMARK    6  A    between atoms: O4_12  and  C6_13 
REMARK    7  A    between atoms: C6_13  and  C7_15 
REMARK    8  A    between atoms: C10_18  and  N2_19 
REMARK    9  A    between atoms: C13_24  and  O8_25 
REMARK   10  A    between atoms: C13_24  and  C14_27 
REMARK   11  A    between atoms: C15_30  and  C16_31 
REMARK   12  A    between atoms: C16_31  and  O11_32 
REMARK   13  A    between atoms: C16_31  and  C17_34 
REMARK   14  A    between atoms: C17_34  and  O12_35 
REMARK   15  A    between atoms: C18_38  and  C20_40 
REMARK   16  A    between atoms: C20_40  and  O14_41 
REMARK   17  A    between atoms: O14_41  and  C21_42 
REMARK   18  A    between atoms: C21_42  and  C22_44 
ROOT
HETATM    1  C4  UNL     1      -6.434   0.362   5.756  1.00  0.00     0.142 C 
HETATM    2  C5  UNL     1      -6.009  -1.085   5.420  1.00  0.00     0.219 C 
HETATM    3  C13 UNL     1      -6.842  -1.567   4.287  1.00  0.00     0.204 C 
HETATM    4  C15 UNL     1      -6.965  -0.550   3.173  1.00  0.00     0.201 C 
HETATM    5  O13 UNL     1      -7.328   0.669   3.655  1.00  0.00    -0.363 OA
HETATM    6  C18 UNL     1      -6.440   1.236   4.568  1.00  0.00     0.115 C 
HETATM    7  C19 UNL     1      -5.123   1.591   3.969  1.00  0.00     0.052 C 
ENDROOT
BRANCH   2   8
HETATM    8  O4  UNL     1      -4.681  -1.189   5.447  1.00  0.00    -0.305 OA
BRANCH   8   9
HETATM    9  C6  UNL     1      -3.808  -1.773   6.311  1.00  0.00     0.293 C 
HETATM   10  O5  UNL     1      -2.938  -0.960   6.632  1.00  0.00    -0.259 OA
BRANCH   9  11
HETATM   11  C7  UNL     1      -3.868  -3.143   6.798  1.00  0.00     0.039 A 
HETATM   12  C8  UNL     1      -3.894  -3.370   8.143  1.00  0.00     0.020 A 
HETATM   13  C9  UNL     1      -3.950  -4.663   8.648  1.00  0.00     0.037 A 
HETATM   14  C10 UNL     1      -3.982  -5.754   7.809  1.00  0.00     0.102 A 
HETATM   15  C11 UNL     1      -3.954  -5.513   6.452  1.00  0.00     0.037 A 
HETATM   16  C12 UNL     1      -3.898  -4.221   5.946  1.00  0.00     0.020 A 
BRANCH  14  17
HETATM   17  N2  UNL     1      -4.039  -7.086   8.305  1.00  0.00    -0.116 N 
HETATM   18  O6  UNL     1      -4.866  -7.386   9.169  1.00  0.00    -0.532 OA
HETATM   19  O7  UNL     1      -3.192  -8.067   7.850  1.00  0.00    -0.532 OA
ENDBRANCH  14  17
ENDBRANCH   9  11
ENDBRANCH   8   9
ENDBRANCH   2   8
BRANCH   1  20
HETATM   20  C3  UNL     1      -5.711   0.841   6.969  1.00  0.00     0.224 C 
BRANCH  20  21
HETATM   21  O2  UNL     1      -6.134   0.217   8.131  1.00  0.00    -0.301 OA
BRANCH  21  22
HETATM   22  C2  UNL     1      -5.401   0.006   9.262  1.00  0.00     0.360 C 
HETATM   23  N1  UNL     1      -4.039   0.406   9.352  1.00  0.00    -0.341 N 
HETATM   24  C1  UNL     1      -3.257   0.185  10.552  1.00  0.00     0.151 C 
ATOM     25  H1  UNL     1      -3.600   0.860   8.550  1.00  0.00     0.164 HD
HETATM   26  O1  UNL     1      -5.977  -0.558  10.239  1.00  0.00    -0.239 OA
ENDBRANCH  21  22
ENDBRANCH  20  21
ENDBRANCH   1  20
BRANCH   1  27
HETATM   27  O3  UNL     1      -7.789   0.209   6.157  1.00  0.00    -0.382 OA
ATOM     28  H3  UNL     1      -8.232  -0.179   5.411  1.00  0.00     0.211 HD
ENDBRANCH   1  27
BRANCH   3  29
HETATM   29  O8  UNL     1      -8.145  -1.662   4.783  1.00  0.00    -0.374 OA
ATOM     30  H8  UNL     1      -8.709  -1.307   4.106  1.00  0.00     0.211 HD
ENDBRANCH   3  29
BRANCH   3  31
HETATM   31  C14 UNL     1      -6.500  -2.903   3.833  1.00  0.00     0.214 C 
HETATM   32  O9  UNL     1      -5.773  -3.038   2.816  1.00  0.00    -0.646 OA
HETATM   33  O10 UNL     1      -6.898  -4.100   4.410  1.00  0.00    -0.646 OA
ENDBRANCH   3  31
BRANCH   6  34
HETATM   34  C20 UNL     1      -7.093   2.566   4.919  1.00  0.00     0.219 C 
BRANCH  34  35
HETATM   35  O14 UNL     1      -8.207   2.630   3.988  1.00  0.00    -0.318 OA
BRANCH  35  36
HETATM   36  C21 UNL     1      -8.282   3.676   3.071  1.00  0.00     0.262 C 
HETATM   37  O15 UNL     1      -7.191   4.232   2.779  1.00  0.00    -0.265 OA
BRANCH  36  38
HETATM   38  C22 UNL     1      -9.580   4.109   2.472  1.00  0.00     0.077 C 
HETATM   39  C23 UNL     1      -9.777   5.591   2.567  1.00  0.00     0.020 C 
HETATM   40  C24 UNL     1      -9.582   3.708   1.019  1.00  0.00     0.020 C 
ENDBRANCH  36  38
ENDBRANCH  35  36
ENDBRANCH  34  35
ENDBRANCH   6  34
BRANCH   4  41
HETATM   41  C16 UNL     1      -7.914  -0.896   2.086  1.00  0.00     0.174 C 
BRANCH  41  42
HETATM   42  O11 UNL     1      -7.090  -1.118   0.945  1.00  0.00    -0.391 OA
ATOM     43  H11 UNL     1      -7.590  -0.771   0.216  1.00  0.00     0.210 HD
ENDBRANCH  41  42
BRANCH  41  44
HETATM   44  C17 UNL     1      -8.894   0.137   1.667  1.00  0.00     0.198 C 
BRANCH  44  45
HETATM   45  O12 UNL     1      -9.822   0.484   2.635  1.00  0.00    -0.398 OA
ATOM     46  H12 UNL     1     -10.704   0.621   2.310  1.00  0.00     0.209 HD
ENDBRANCH  44  45
ENDBRANCH  41  44
ENDBRANCH   4  41
TORSDOF 18
ENDMDL
MODEL 5
REMARK VINA RESULT: -7.248939637      2.791      7.794
REMARK  18 active torsions:
REMARK  status: ('A' for Active; 'I' for Inactive)
REMARK       I    between atoms: N1_2  and  C2_4 
REMARK    1  A    between atoms: C2_4  and  O2_6 
REMARK    2  A    between atoms: O2_6  and  C3_7 
REMARK    3  A    between atoms: C3_7  and  C4_8 
REMARK    4  A    between atoms: C4_8  and  O3_9 
REMARK    5  A    between atoms: C5_11  and  O4_12 
REMARK    6  A    between atoms: O4_12  and  C6_13 
REMARK    7  A    between atoms: C6_13  and  C7_15 
REMARK    8  A    between atoms: C10_18  and  N2_19 
REMARK    9  A    between atoms: C13_24  and  O8_25 
REMARK   10  A    between atoms: C13_24  and  C14_27 
REMARK   11  A    between atoms: C15_30  and  C16_31 
REMARK   12  A    between atoms: C16_31  and  O11_32 
REMARK   13  A    between atoms: C16_31  and  C17_34 
REMARK   14  A    between atoms: C17_34  and  O12_35 
REMARK   15  A    between atoms: C18_38  and  C20_40 
REMARK   16  A    between atoms: C20_40  and  O14_41 
REMARK   17  A    between atoms: O14_41  and  C21_42 
REMARK   18  A    between atoms: C21_42  and  C22_44 
ROOT
HETATM    1  C4  UNL     1      -5.416   0.124   7.368  1.00  0.00     0.142 C 
HETATM    2  C5  UNL     1      -4.649   0.604   6.115  1.00  0.00     0.219 C 
HETATM    3  C13 UNL     1      -3.322   1.117   6.545  1.00  0.00     0.204 C 
HETATM    4  C15 UNL     1      -2.631   0.204   7.535  1.00  0.00     0.201 C 
HETATM    5  O13 UNL     1      -3.461  -0.130   8.561  1.00  0.00    -0.363 OA
HETATM    6  C18 UNL     1      -4.621  -0.808   8.190  1.00  0.00     0.115 C 
HETATM    7  C19 UNL     1      -4.360  -2.165   7.632  1.00  0.00     0.052 C 
ENDROOT
BRANCH   2   8
HETATM    8  O4  UNL     1      -4.808  -0.267   5.120  1.00  0.00    -0.305 OA
BRANCH   8   9
HETATM    9  C6  UNL     1      -5.571  -0.270   3.995  1.00  0.00     0.293 C 
HETATM   10  O5  UNL     1      -5.519   0.839   3.457  1.00  0.00    -0.259 OA
BRANCH   9  11
HETATM   11  C7  UNL     1      -6.340  -1.393   3.480  1.00  0.00     0.039 A 
HETATM   12  C8  UNL     1      -6.284  -2.591   4.130  1.00  0.00     0.020 A 
HETATM   13  C9  UNL     1      -7.004  -3.687   3.671  1.00  0.00     0.037 A 
HETATM   14  C10 UNL     1      -7.796  -3.598   2.548  1.00  0.00     0.102 A 
HETATM   15  C11 UNL     1      -7.845  -2.383   1.900  1.00  0.00     0.037 A 
HETATM   16  C12 UNL     1      -7.126  -1.287   2.358  1.00  0.00     0.020 A 
BRANCH  14  17
HETATM   17  N2  UNL     1      -8.541  -4.708   2.061  1.00  0.00    -0.116 N 
HETATM   18  O6  UNL     1      -9.358  -4.550   1.152  1.00  0.00    -0.532 OA
HETATM   19  O7  UNL     1      -8.381  -5.971   2.576  1.00  0.00    -0.532 OA
ENDBRANCH  14  17
ENDBRANCH   9  11
ENDBRANCH   8   9
ENDBRANCH   2   8
BRANCH   1  20
HETATM   20  C3  UNL     1      -6.802  -0.282   6.998  1.00  0.00     0.224 C 
BRANCH  20  21
HETATM   21  O2  UNL     1      -7.669   0.793   6.893  1.00  0.00    -0.301 OA
BRANCH  21  22
HETATM   22  C2  UNL     1      -8.285   1.242   5.762  1.00  0.00     0.360 C 
HETATM   23  N1  UNL     1      -7.792   2.366   5.041  1.00  0.00    -0.341 N 
HETATM   24  C1  UNL     1      -8.443   2.846   3.839  1.00  0.00     0.151 C 
ATOM     25  H1  UNL     1      -6.958   2.846   5.380  1.00  0.00     0.164 HD
HETATM   26  O1  UNL     1      -9.316   0.621   5.367  1.00  0.00    -0.239 OA
ENDBRANCH  21  22
ENDBRANCH  20  21
ENDBRANCH   1  20
BRANCH   1  27
HETATM   27  O3  UNL     1      -5.559   1.317   8.128  1.00  0.00    -0.382 OA
ATOM     28  H3  UNL     1      -4.712   1.461   8.536  1.00  0.00     0.211 HD
ENDBRANCH   1  27
BRANCH   3  29
HETATM   29  O8  UNL     1      -3.580   2.269   7.294  1.00  0.00    -0.374 OA
ATOM     30  H8  UNL     1      -3.118   2.155   8.116  1.00  0.00     0.211 HD
ENDBRANCH   3  29
BRANCH   3  31
HETATM   31  C14 UNL     1      -2.474   1.549   5.448  1.00  0.00     0.214 C 
HETATM   32  O9  UNL     1      -2.345   2.778   5.220  1.00  0.00    -0.646 OA
HETATM   33  O10 UNL     1      -1.761   0.732   4.585  1.00  0.00    -0.646 OA
ENDBRANCH   3  31
BRANCH   6  34
HETATM   34  C20 UNL     1      -5.331  -1.048   9.515  1.00  0.00     0.219 C 
BRANCH  34  35
HETATM   35  O14 UNL     1      -4.781  -0.005  10.365  1.00  0.00    -0.318 OA
BRANCH  35  36
HETATM   36  C21 UNL     1      -4.744  -0.187  11.746  1.00  0.00     0.262 C 
HETATM   37  O15 UNL     1      -3.656  -0.610  12.217  1.00  0.00    -0.265 OA
BRANCH  36  38
HETATM   38  C22 UNL     1      -5.925   0.104  12.612  1.00  0.00     0.077 C 
HETATM   39  C23 UNL     1      -7.215  -0.278  11.952  1.00  0.00     0.020 C 
HETATM   40  C24 UNL     1      -5.777  -0.685  13.888  1.00  0.00     0.020 C 
ENDBRANCH  36  38
ENDBRANCH  35  36
ENDBRANCH  34  35
ENDBRANCH   6  34
BRANCH   4  41
HETATM   41  C16 UNL     1      -1.380   0.731   8.134  1.00  0.00     0.174 C 
BRANCH  41  42
HETATM   42  O11 UNL     1      -0.494  -0.384   8.157  1.00  0.00    -0.391 OA
ATOM     43  H11 UNL     1       0.272  -0.095   7.674  1.00  0.00     0.210 HD
ENDBRANCH  41  42
BRANCH  41  44
HETATM   44  C17 UNL     1      -1.433   1.218   9.535  1.00  0.00     0.198 C 
BRANCH  44  45
HETATM   45  O12 UNL     1      -1.590   0.226  10.489  1.00  0.00    -0.398 OA
ATOM     46  H12 UNL     1      -0.779  -0.161  10.799  1.00  0.00     0.209 HD
ENDBRANCH  44  45
ENDBRANCH  41  44
ENDBRANCH   4  41
TORSDOF 18
ENDMDL
