MODEL 1
REMARK VINA RESULT: -7.779573294      0.000      0.000
REMARK  16 active torsions:
REMARK  status: ('A' for Active; 'I' for Inactive)
REMARK    1  A    between atoms: C2_2  and  C4_4 
REMARK    2  A    between atoms: C5_5  and  C6_6 
REMARK    3  A    between atoms: C10_10  and  O1_11 
REMARK    4  A    between atoms: C10_10  and  C11_13 
REMARK    5  A    between atoms: C11_13  and  O2_14 
REMARK    6  A    between atoms: C11_13  and  C12_16 
REMARK    7  A    between atoms: C12_16  and  O3_17 
REMARK    8  A    between atoms: C12_16  and  C13_19 
REMARK    9  A    between atoms: C13_19  and  N1_20 
REMARK   10  A    between atoms: C13_19  and  C18_31 
REMARK   11  A    between atoms: N1_20  and  N2_21 
REMARK   12  A    between atoms: N2_21  and  S1_23 
REMARK   13  A    between atoms: S1_23  and  O6_26 
REMARK   14  A    between atoms: O6_26  and  C14_27 
REMARK   15  A    between atoms: C22_41  and  C24_43 
REMARK   16  A    between atoms: C24_43  and  O9_44 
ROOT
HETATM    1  C11 UNL     1      -5.243  -2.931   5.518  1.00  0.00     0.109 C 
ENDROOT
BRANCH   1   2
HETATM    2  C10 UNL     1      -6.221  -2.705   4.438  1.00  0.00     0.120 C 
HETATM    3  C6  UNL     1      -7.076  -1.447   4.805  1.00  0.00     0.112 C 
HETATM    4  C7  UNL     1      -6.813  -0.494   3.663  1.00  0.00     0.174 C 
HETATM    5  C8  UNL     1      -6.712  -1.440   2.503  1.00  0.00     0.073 C 
HETATM    6  O8  UNL     1      -7.881   0.369   3.587  1.00  0.00    -0.353 OA
HETATM    7  O10 UNL     1      -5.600   0.092   3.873  1.00  0.00    -0.353 OA
HETATM    8  C9  UNL     1      -5.661  -2.405   3.078  1.00  0.00     0.051 C 
HETATM    9  C21 UNL     1      -7.746   1.376   2.663  1.00  0.00     0.185 C 
HETATM   10  C22 UNL     1      -6.427   2.091   2.765  1.00  0.00     0.021 C 
HETATM   11  C23 UNL     1      -5.940   2.341   1.347  1.00  0.00     0.022 C 
HETATM   12  C25 UNL     1      -5.424   1.395   3.602  1.00  0.00     0.185 C 
BRANCH   3  13
HETATM   13  C5  UNL     1      -8.514  -1.771   4.776  1.00  0.00    -0.013 C 
HETATM   14  C4  UNL     1      -9.541  -1.189   5.264  1.00  0.00     0.002 C 
BRANCH  14  15
HETATM   15  C2  UNL     1      -9.753  -0.007   6.024  1.00  0.00    -0.072 C 
HETATM   16  C1  UNL     1     -10.930   0.643   5.908  1.00  0.00     0.018 C 
HETATM   17  C3  UNL     1      -8.759   0.562   6.936  1.00  0.00     0.047 C 
ENDBRANCH  14  15
ENDBRANCH   3  13
BRANCH  10  18
HETATM   18  C24 UNL     1      -6.658   3.482   3.375  1.00  0.00     0.177 C 
BRANCH  18  19
HETATM   19  O9  UNL     1      -7.195   3.404   4.645  1.00  0.00    -0.400 OA
ATOM     20  H9  UNL     1      -8.114   3.647   4.657  1.00  0.00     0.209 HD
ENDBRANCH  18  19
ENDBRANCH  10  18
BRANCH   2  21
HETATM   21  O1  UNL     1      -7.174  -3.696   4.287  1.00  0.00    -0.382 OA
ATOM     22  H1  UNL     1      -7.251  -4.053   5.164  1.00  0.00     0.211 HD
ENDBRANCH   2  21
ENDBRANCH   1   2
BRANCH   1  23
HETATM   23  O2  UNL     1      -4.253  -1.932   5.447  1.00  0.00    -0.359 OA
ATOM     24  H2  UNL     1      -3.910  -1.781   6.320  1.00  0.00     0.217 HD
ENDBRANCH   1  23
BRANCH   1  25
HETATM   25  C12 UNL     1      -4.762  -4.250   5.913  1.00  0.00     0.103 C 
BRANCH  25  26
HETATM   26  O3  UNL     1      -4.358  -5.157   4.992  1.00  0.00    -0.360 OA
ATOM     27  H3  UNL     1      -3.456  -5.451   4.951  1.00  0.00     0.217 HD
ENDBRANCH  25  26
BRANCH  25  28
HETATM   28  C13 UNL     1      -3.916  -4.345   7.154  1.00  0.00     0.228 C 
BRANCH  28  29
HETATM   29  N1  UNL     1      -4.186  -3.246   8.105  1.00  0.00    -0.110 NA
BRANCH  29  30
HETATM   30  N2  UNL     1      -3.063  -2.423   8.172  1.00  0.00    -0.207 N 
ATOM     31  H2  UNL     1      -2.131  -2.701   7.864  1.00  0.00     0.197 HD
BRANCH  30  32
HETATM   32  S1  UNL     1      -3.439  -0.882   8.836  1.00  0.00     0.373 S 
HETATM   33  O4  UNL     1      -2.255   0.045   8.659  1.00  0.00    -0.174 OA
HETATM   34  O5  UNL     1      -4.559  -0.281   8.017  1.00  0.00    -0.174 OA
BRANCH  32  35
HETATM   35  O6  UNL     1      -3.841  -1.079  10.430  1.00  0.00    -0.248 OA
BRANCH  35  36
HETATM   36  C14 UNL     1      -4.597  -0.071  10.972  1.00  0.00     0.071 C 
HETATM   37  C15 UNL     1      -6.003  -0.058  10.430  1.00  0.00     0.047 C 
HETATM   38  C16 UNL     1      -3.938   1.288  10.859  1.00  0.00     0.047 C 
HETATM   39  C17 UNL     1      -4.705  -0.355  12.473  1.00  0.00     0.047 C 
ENDBRANCH  35  36
ENDBRANCH  32  35
ENDBRANCH  30  32
ENDBRANCH  29  30
ENDBRANCH  28  29
BRANCH  28  40
HETATM   40  C18 UNL     1      -4.234  -5.561   7.989  1.00  0.00     0.131 A 
HETATM   41  N3  UNL     1      -5.063  -6.562   7.565  1.00  0.00    -0.245 N 
HETATM   42  O7  UNL     1      -5.110  -7.471   8.491  1.00  0.00    -0.223 OA
ATOM     43  H3  UNL     1      -5.559  -6.590   6.674  1.00  0.00     0.196 HD
HETATM   44  C19 UNL     1      -4.365  -7.143   9.506  1.00  0.00     0.144 A 
HETATM   45  C20 UNL     1      -4.128  -7.882  10.769  1.00  0.00     0.100 C 
HETATM   46  N4  UNL     1      -3.829  -5.961   9.186  1.00  0.00    -0.325 N 
ATOM     47  H4  UNL     1      -3.192  -5.435   9.784  1.00  0.00     0.169 HD
ENDBRANCH  28  40
ENDBRANCH  25  28
ENDBRANCH   1  25
TORSDOF 16
ENDMDL
MODEL 2
REMARK VINA RESULT: -7.546654519      3.470      7.708
REMARK  16 active torsions:
REMARK  status: ('A' for Active; 'I' for Inactive)
REMARK    1  A    between atoms: C2_2  and  C4_4 
REMARK    2  A    between atoms: C5_5  and  C6_6 
REMARK    3  A    between atoms: C10_10  and  O1_11 
REMARK    4  A    between atoms: C10_10  and  C11_13 
REMARK    5  A    between atoms: C11_13  and  O2_14 
REMARK    6  A    between atoms: C11_13  and  C12_16 
REMARK    7  A    between atoms: C12_16  and  O3_17 
REMARK    8  A    between atoms: C12_16  and  C13_19 
REMARK    9  A    between atoms: C13_19  and  N1_20 
REMARK   10  A    between atoms: C13_19  and  C18_31 
REMARK   11  A    between atoms: N1_20  and  N2_21 
REMARK   12  A    between atoms: N2_21  and  S1_23 
REMARK   13  A    between atoms: S1_23  and  O6_26 
REMARK   14  A    between atoms: O6_26  and  C14_27 
REMARK   15  A    between atoms: C22_41  and  C24_43 
REMARK   16  A    between atoms: C24_43  and  O9_44 
ROOT
HETATM    1  C11 UNL     1      -5.693   1.254   6.009  1.00  0.00     0.109 C 
ENDROOT
BRANCH   1   2
HETATM    2  C10 UNL     1      -4.631   0.785   6.917  1.00  0.00     0.120 C 
HETATM    3  C6  UNL     1      -5.195  -0.408   7.758  1.00  0.00     0.112 C 
HETATM    4  C7  UNL     1      -4.278  -1.555   7.406  1.00  0.00     0.174 C 
HETATM    5  C8  UNL     1      -2.960  -0.851   7.264  1.00  0.00     0.073 C 
HETATM    6  O8  UNL     1      -4.321  -2.456   8.444  1.00  0.00    -0.353 OA
HETATM    7  O10 UNL     1      -4.660  -2.043   6.191  1.00  0.00    -0.353 OA
HETATM    8  C9  UNL     1      -3.386   0.246   6.274  1.00  0.00     0.051 C 
HETATM    9  C21 UNL     1      -3.621  -3.617   8.231  1.00  0.00     0.185 C 
HETATM   10  C22 UNL     1      -3.927  -4.250   6.901  1.00  0.00     0.021 C 
HETATM   11  C23 UNL     1      -2.612  -4.754   6.328  1.00  0.00     0.022 C 
HETATM   12  C25 UNL     1      -4.660  -3.366   5.966  1.00  0.00     0.185 C 
BRANCH   3  13
HETATM   13  C5  UNL     1      -5.031  -0.149   9.200  1.00  0.00    -0.013 C 
HETATM   14  C4  UNL     1      -5.868  -0.034  10.158  1.00  0.00     0.002 C 
BRANCH  14  15
HETATM   15  C2  UNL     1      -7.285  -0.104  10.261  1.00  0.00    -0.072 C 
HETATM   16  C1  UNL     1      -7.832  -0.720  11.329  1.00  0.00     0.018 C 
HETATM   17  C3  UNL     1      -8.200   0.455   9.266  1.00  0.00     0.047 C 
ENDBRANCH  14  15
ENDBRANCH   3  13
BRANCH  10  18
HETATM   18  C24 UNL     1      -4.787  -5.502   7.129  1.00  0.00     0.177 C 
BRANCH  18  19
HETATM   19  O9  UNL     1      -4.032  -6.576   7.557  1.00  0.00    -0.400 OA
ATOM     20  H9  UNL     1      -4.363  -7.400   7.219  1.00  0.00     0.209 HD
ENDBRANCH  18  19
ENDBRANCH  10  18
BRANCH   2  21
HETATM   21  O1  UNL     1      -4.240   1.691   7.886  1.00  0.00    -0.382 OA
ATOM     22  H1  UNL     1      -4.562   2.519   7.547  1.00  0.00     0.211 HD
ENDBRANCH   2  21
ENDBRANCH   1   2
BRANCH   1  23
HETATM   23  O2  UNL     1      -6.675   1.919   6.768  1.00  0.00    -0.359 OA
ATOM     24  H2  UNL     1      -6.266   2.646   7.223  1.00  0.00     0.217 HD
ENDBRANCH   1  23
BRANCH   1  25
HETATM   25  C12 UNL     1      -6.203   0.473   4.887  1.00  0.00     0.103 C 
BRANCH  25  26
HETATM   26  O3  UNL     1      -5.389  -0.327   4.158  1.00  0.00    -0.360 OA
ATOM     27  H3  UNL     1      -5.579  -1.250   4.042  1.00  0.00     0.217 HD
ENDBRANCH  25  26
BRANCH  25  28
HETATM   28  C13 UNL     1      -7.566  -0.149   5.029  1.00  0.00     0.228 C 
BRANCH  28  29
HETATM   29  N1  UNL     1      -8.651   0.854   4.975  1.00  0.00    -0.110 NA
BRANCH  29  30
HETATM   30  N2  UNL     1      -9.549   0.602   6.010  1.00  0.00    -0.207 N 
ATOM     31  H2  UNL     1      -9.316   0.676   7.001  1.00  0.00     0.197 HD
BRANCH  30  32
HETATM   32  S1  UNL     1     -11.098   0.151   5.416  1.00  0.00     0.373 S 
HETATM   33  O4  UNL     1     -11.240  -1.356   5.474  1.00  0.00    -0.174 OA
HETATM   34  O5  UNL     1     -12.140   0.698   6.366  1.00  0.00    -0.174 OA
BRANCH  32  35
HETATM   35  O6  UNL     1     -11.263   0.732   3.875  1.00  0.00    -0.248 OA
BRANCH  35  36
HETATM   36  C14 UNL     1     -12.471   1.317   3.596  1.00  0.00     0.071 C 
HETATM   37  C15 UNL     1     -12.631   2.651   4.276  1.00  0.00     0.047 C 
HETATM   38  C16 UNL     1     -13.647   0.402   3.868  1.00  0.00     0.047 C 
HETATM   39  C17 UNL     1     -12.496   1.584   2.087  1.00  0.00     0.047 C 
ENDBRANCH  35  36
ENDBRANCH  32  35
ENDBRANCH  30  32
ENDBRANCH  29  30
ENDBRANCH  28  29
BRANCH  28  40
HETATM   40  C18 UNL     1      -7.922  -1.052   3.873  1.00  0.00     0.131 A 
HETATM   41  N3  UNL     1      -8.457  -0.591   2.704  1.00  0.00    -0.245 N 
HETATM   42  O7  UNL     1      -8.623  -1.603   1.906  1.00  0.00    -0.223 OA
ATOM     43  H3  UNL     1      -8.688   0.380   2.493  1.00  0.00     0.196 HD
HETATM   44  C19 UNL     1      -8.231  -2.709   2.466  1.00  0.00     0.144 A 
HETATM   45  C20 UNL     1      -8.239  -4.088   1.922  1.00  0.00     0.100 C 
HETATM   46  N4  UNL     1      -7.800  -2.357   3.683  1.00  0.00    -0.325 N 
ATOM     47  H4  UNL     1      -7.426  -3.008   4.374  1.00  0.00     0.169 HD
ENDBRANCH  28  40
ENDBRANCH  25  28
ENDBRANCH   1  25
TORSDOF 16
ENDMDL
MODEL 3
REMARK VINA RESULT: -7.454953863      3.063      5.899
REMARK  16 active torsions:
REMARK  status: ('A' for Active; 'I' for Inactive)
REMARK    1  A    between atoms: C2_2  and  C4_4 
REMARK    2  A    between atoms: C5_5  and  C6_6 
REMARK    3  A    between atoms: C10_10  and  O1_11 
REMARK    4  A    between atoms: C10_10  and  C11_13 
REMARK    5  A    between atoms: C11_13  and  O2_14 
REMARK    6  A    between atoms: C11_13  and  C12_16 
REMARK    7  A    between atoms: C12_16  and  O3_17 
REMARK    8  A    between atoms: C12_16  and  C13_19 
REMARK    9  A    between atoms: C13_19  and  N1_20 
REMARK   10  A    between atoms: C13_19  and  C18_31 
REMARK   11  A    between atoms: N1_20  and  N2_21 
REMARK   12  A    between atoms: N2_21  and  S1_23 
REMARK   13  A    between atoms: S1_23  and  O6_26 
REMARK   14  A    between atoms: O6_26  and  C14_27 
REMARK   15  A    between atoms: C22_41  and  C24_43 
REMARK   16  A    between atoms: C24_43  and  O9_44 
ROOT
HETATM    1  C11 UNL     1      -4.149  -1.095   8.985  1.00  0.00     0.109 C 
ENDROOT
BRANCH   1   2
HETATM    2  C10 UNL     1      -3.634  -1.285   7.617  1.00  0.00     0.120 C 
HETATM    3  C6  UNL     1      -4.541  -2.336   6.894  1.00  0.00     0.112 C 
HETATM    4  C7  UNL     1      -5.090  -1.576   5.711  1.00  0.00     0.174 C 
HETATM    5  C8  UNL     1      -3.920  -0.711   5.342  1.00  0.00     0.073 C 
HETATM    6  O8  UNL     1      -5.430  -2.495   4.746  1.00  0.00    -0.353 OA
HETATM    7  O10 UNL     1      -6.111  -0.787   6.153  1.00  0.00    -0.353 OA
HETATM    8  C9  UNL     1      -3.651  -0.082   6.720  1.00  0.00     0.051 C 
HETATM    9  C21 UNL     1      -6.051  -1.970   3.640  1.00  0.00     0.185 C 
HETATM   10  C22 UNL     1      -7.187  -1.048   3.989  1.00  0.00     0.021 C 
HETATM   11  C23 UNL     1      -7.115   0.136   3.038  1.00  0.00     0.022 C 
HETATM   12  C25 UNL     1      -7.220  -0.641   5.411  1.00  0.00     0.185 C 
BRANCH   3  13
HETATM   13  C5  UNL     1      -3.726  -3.442   6.358  1.00  0.00    -0.013 C 
HETATM   14  C4  UNL     1      -3.504  -4.630   6.770  1.00  0.00     0.002 C 
BRANCH  14  15
HETATM   15  C2  UNL     1      -3.930  -5.395   7.891  1.00  0.00    -0.072 C 
HETATM   16  C1  UNL     1      -3.561  -5.001   9.128  1.00  0.00     0.018 C 
HETATM   17  C3  UNL     1      -4.751  -6.601   7.787  1.00  0.00     0.047 C 
ENDBRANCH  14  15
ENDBRANCH   3  13
BRANCH  10  18
HETATM   18  C24 UNL     1      -8.516  -1.752   3.674  1.00  0.00     0.177 C 
BRANCH  18  19
HETATM   19  O9  UNL     1      -9.195  -2.108   4.823  1.00  0.00    -0.400 OA
ATOM     20  H9  UNL     1      -9.165  -3.046   4.977  1.00  0.00     0.209 HD
ENDBRANCH  18  19
ENDBRANCH  10  18
BRANCH   2  21
HETATM   21  O1  UNL     1      -2.375  -1.850   7.533  1.00  0.00    -0.382 OA
ATOM     22  H1  UNL     1      -1.957  -1.339   6.850  1.00  0.00     0.211 HD
ENDBRANCH   2  21
ENDBRANCH   1   2
BRANCH   1  23
HETATM   23  O2  UNL     1      -5.542  -1.298   8.976  1.00  0.00    -0.359 OA
ATOM     24  H2  UNL     1      -5.767  -1.893   9.681  1.00  0.00     0.217 HD
ENDBRANCH   1  23
BRANCH   1  25
HETATM   25  C12 UNL     1      -3.683  -0.047   9.888  1.00  0.00     0.103 C 
BRANCH  25  26
HETATM   26  O3  UNL     1      -4.131   1.226   9.779  1.00  0.00    -0.360 OA
ATOM     27  H3  UNL     1      -3.860   1.900  10.391  1.00  0.00     0.217 HD
ENDBRANCH  25  26
BRANCH  25  28
HETATM   28  C13 UNL     1      -3.470  -0.410  11.332  1.00  0.00     0.228 C 
BRANCH  28  29
HETATM   29  N1  UNL     1      -2.711   0.623  12.067  1.00  0.00    -0.110 NA
BRANCH  29  30
HETATM   30  N2  UNL     1      -1.400   0.640  11.593  1.00  0.00    -0.207 N 
ATOM     31  H2  UNL     1      -0.826  -0.195  11.469  1.00  0.00     0.197 HD
BRANCH  30  32
HETATM   32  S1  UNL     1      -0.867   2.237  11.243  1.00  0.00     0.373 S 
HETATM   33  O4  UNL     1      -1.058   3.110  12.466  1.00  0.00    -0.174 OA
HETATM   34  O5  UNL     1       0.625   2.189  11.002  1.00  0.00    -0.174 OA
BRANCH  32  35
HETATM   35  O6  UNL     1      -1.713   2.801   9.937  1.00  0.00    -0.248 OA
BRANCH  35  36
HETATM   36  C14 UNL     1      -1.045   2.753   8.741  1.00  0.00     0.071 C 
HETATM   37  C15 UNL     1      -0.596   1.357   8.394  1.00  0.00     0.047 C 
HETATM   38  C16 UNL     1       0.096   3.747   8.662  1.00  0.00     0.047 C 
HETATM   39  C17 UNL     1      -2.041   3.180   7.659  1.00  0.00     0.047 C 
ENDBRANCH  35  36
ENDBRANCH  32  35
ENDBRANCH  30  32
ENDBRANCH  29  30
ENDBRANCH  28  29
BRANCH  28  40
HETATM   40  C18 UNL     1      -4.757  -0.465  12.119  1.00  0.00     0.131 A 
HETATM   41  N3  UNL     1      -4.800  -0.702  13.464  1.00  0.00    -0.245 N 
HETATM   42  O7  UNL     1      -6.041  -0.659  13.846  1.00  0.00    -0.223 OA
ATOM     43  H3  UNL     1      -3.996  -0.881  14.066  1.00  0.00     0.196 HD
HETATM   44  C19 UNL     1      -6.830  -0.408  12.842  1.00  0.00     0.144 A 
HETATM   45  C20 UNL     1      -8.306  -0.273  12.823  1.00  0.00     0.100 C 
HETATM   46  N4  UNL     1      -6.026  -0.291  11.779  1.00  0.00    -0.325 N 
ATOM     47  H4  UNL     1      -6.347  -0.093  10.832  1.00  0.00     0.169 HD
ENDBRANCH  28  40
ENDBRANCH  25  28
ENDBRANCH   1  25
TORSDOF 16
ENDMDL
MODEL 4
REMARK VINA RESULT: -7.434025410      4.158      8.981
REMARK  16 active torsions:
REMARK  status: ('A' for Active; 'I' for Inactive)
REMARK    1  A    between atoms: C2_2  and  C4_4 
REMARK    2  A    between atoms: C5_5  and  C6_6 
REMARK    3  A    between atoms: C10_10  and  O1_11 
REMARK    4  A    between atoms: C10_10  and  C11_13 
REMARK    5  A    between atoms: C11_13  and  O2_14 
REMARK    6  A    between atoms: C11_13  and  C12_16 
REMARK    7  A    between atoms: C12_16  and  O3_17 
REMARK    8  A    between atoms: C12_16  and  C13_19 
REMARK    9  A    between atoms: C13_19  and  N1_20 
REMARK   10  A    between atoms: C13_19  and  C18_31 
REMARK   11  A    between atoms: N1_20  and  N2_21 
REMARK   12  A    between atoms: N2_21  and  S1_23 
REMARK   13  A    between atoms: S1_23  and  O6_26 
REMARK   14  A    between atoms: O6_26  and  C14_27 
REMARK   15  A    between atoms: C22_41  and  C24_43 
REMARK   16  A    between atoms: C24_43  and  O9_44 
ROOT
HETATM    1  C11 UNL     1      -7.431   0.169   6.163  1.00  0.00     0.109 C 
ENDROOT
BRANCH   1   2
HETATM    2  C10 UNL     1      -6.132   0.230   6.857  1.00  0.00     0.120 C 
HETATM    3  C6  UNL     1      -6.087  -0.921   7.917  1.00  0.00     0.112 C 
HETATM    4  C7  UNL     1      -4.901  -1.751   7.487  1.00  0.00     0.174 C 
HETATM    5  C8  UNL     1      -3.961  -0.693   6.989  1.00  0.00     0.073 C 
HETATM    6  O8  UNL     1      -4.444  -2.428   8.594  1.00  0.00    -0.353 OA
HETATM    7  O10 UNL     1      -5.291  -2.535   6.441  1.00  0.00    -0.353 OA
HETATM    8  C9  UNL     1      -4.909   0.022   6.012  1.00  0.00     0.051 C 
HETATM    9  C21 UNL     1      -3.429  -3.319   8.348  1.00  0.00     0.185 C 
HETATM   10  C22 UNL     1      -3.719  -4.232   7.188  1.00  0.00     0.021 C 
HETATM   11  C23 UNL     1      -2.431  -4.373   6.393  1.00  0.00     0.022 C 
HETATM   12  C25 UNL     1      -4.865  -3.805   6.355  1.00  0.00     0.185 C 
BRANCH   3  13
HETATM   13  C5  UNL     1      -5.777  -0.382   9.254  1.00  0.00    -0.013 C 
HETATM   14  C4  UNL     1      -6.512  -0.066  10.249  1.00  0.00     0.002 C 
BRANCH  14  15
HETATM   15  C2  UNL     1      -7.910  -0.092  10.507  1.00  0.00    -0.072 C 
HETATM   16  C1  UNL     1      -8.732   0.643   9.728  1.00  0.00     0.018 C 
HETATM   17  C3  UNL     1      -8.524  -0.872  11.582  1.00  0.00     0.047 C 
ENDBRANCH  14  15
ENDBRANCH   3  13
BRANCH  10  18
HETATM   18  C24 UNL     1      -4.031  -5.637   7.725  1.00  0.00     0.177 C 
BRANCH  18  19
HETATM   19  O9  UNL     1      -5.071  -5.623   8.633  1.00  0.00    -0.400 OA
ATOM     20  H9  UNL     1      -4.892  -5.050   9.369  1.00  0.00     0.209 HD
ENDBRANCH  18  19
ENDBRANCH  10  18
BRANCH   2  21
HETATM   21  O1  UNL     1      -5.923   1.364   7.621  1.00  0.00    -0.382 OA
ATOM     22  H1  UNL     1      -6.790   1.555   7.962  1.00  0.00     0.211 HD
ENDBRANCH   2  21
ENDBRANCH   1   2
BRANCH   1  23
HETATM   23  O2  UNL     1      -7.620  -1.138   5.674  1.00  0.00    -0.359 OA
ATOM     24  H2  UNL     1      -7.352  -1.755   6.345  1.00  0.00     0.217 HD
ENDBRANCH   1  23
BRANCH   1  25
HETATM   25  C12 UNL     1      -7.941   1.231   5.302  1.00  0.00     0.103 C 
BRANCH  25  26
HETATM   26  O3  UNL     1      -7.441   2.488   5.363  1.00  0.00    -0.360 OA
ATOM     27  H3  UNL     1      -8.010   3.247   5.343  1.00  0.00     0.217 HD
ENDBRANCH  25  26
BRANCH  25  28
HETATM   28  C13 UNL     1      -8.299   0.872   3.885  1.00  0.00     0.228 C 
BRANCH  28  29
HETATM   29  N1  UNL     1      -9.620   0.217   3.787  1.00  0.00    -0.110 NA
BRANCH  29  30
HETATM   30  N2  UNL     1     -10.369   0.542   4.916  1.00  0.00    -0.207 N 
ATOM     31  H2  UNL     1      -9.984   0.611   5.859  1.00  0.00     0.197 HD
BRANCH  30  32
HETATM   32  S1  UNL     1     -12.022   0.815   4.529  1.00  0.00     0.373 S 
HETATM   33  O4  UNL     1     -12.837  -0.402   4.916  1.00  0.00    -0.174 OA
HETATM   34  O5  UNL     1     -12.527   1.941   5.403  1.00  0.00    -0.174 OA
BRANCH  32  35
HETATM   35  O6  UNL     1     -12.138   1.152   2.913  1.00  0.00    -0.248 OA
BRANCH  35  36
HETATM   36  C14 UNL     1     -13.216   1.917   2.550  1.00  0.00     0.071 C 
HETATM   37  C15 UNL     1     -13.127   3.321   3.088  1.00  0.00     0.047 C 
HETATM   38  C16 UNL     1     -14.542   1.267   2.888  1.00  0.00     0.047 C 
HETATM   39  C17 UNL     1     -13.188   2.026   1.022  1.00  0.00     0.047 C 
ENDBRANCH  35  36
ENDBRANCH  32  35
ENDBRANCH  30  32
ENDBRANCH  29  30
ENDBRANCH  28  29
BRANCH  28  40
HETATM   40  C18 UNL     1      -8.488   2.083   3.004  1.00  0.00     0.131 A 
HETATM   41  N3  UNL     1      -7.520   2.551   2.162  1.00  0.00    -0.245 N 
HETATM   42  O7  UNL     1      -7.995   3.580   1.526  1.00  0.00    -0.223 OA
ATOM     43  H3  UNL     1      -6.583   2.160   2.051  1.00  0.00     0.196 HD
HETATM   44  C19 UNL     1      -9.219   3.828   1.889  1.00  0.00     0.144 A 
HETATM   45  C20 UNL     1     -10.134   4.897   1.424  1.00  0.00     0.100 C 
HETATM   46  N4  UNL     1      -9.514   2.897   2.804  1.00  0.00    -0.325 N 
ATOM     47  H4  UNL     1     -10.411   2.824   3.284  1.00  0.00     0.169 HD
ENDBRANCH  28  40
ENDBRANCH  25  28
ENDBRANCH   1  25
TORSDOF 16
ENDMDL
MODEL 5
REMARK VINA RESULT: -7.427257566      3.492      6.075
REMARK  16 active torsions:
REMARK  status: ('A' for Active; 'I' for Inactive)
REMARK    1  A    between atoms: C2_2  and  C4_4 
REMARK    2  A    between atoms: C5_5  and  C6_6 
REMARK    3  A    between atoms: C10_10  and  O1_11 
REMARK    4  A    between atoms: C10_10  and  C11_13 
REMARK    5  A    between atoms: C11_13  and  O2_14 
REMARK    6  A    between atoms: C11_13  and  C12_16 
REMARK    7  A    between atoms: C12_16  and  O3_17 
REMARK    8  A    between atoms: C12_16  and  C13_19 
REMARK    9  A    between atoms: C13_19  and  N1_20 
REMARK   10  A    between atoms: C13_19  and  C18_31 
REMARK   11  A    between atoms: N1_20  and  N2_21 
REMARK   12  A    between atoms: N2_21  and  S1_23 
REMARK   13  A    between atoms: S1_23  and  O6_26 
REMARK   14  A    between atoms: O6_26  and  C14_27 
REMARK   15  A    between atoms: C22_41  and  C24_43 
REMARK   16  A    between atoms: C24_43  and  O9_44 
ROOT
HETATM    1  C11 UNL     1      -4.204  -1.177   8.914  1.00  0.00     0.109 C 
ENDROOT
BRANCH   1   2
HETATM    2  C10 UNL     1      -3.690  -1.378   7.547  1.00  0.00     0.120 C 
HETATM    3  C6  UNL     1      -4.610  -2.416   6.823  1.00  0.00     0.112 C 
HETATM    4  C7  UNL     1      -5.145  -1.649   5.638  1.00  0.00     0.174 C 
HETATM    5  C8  UNL     1      -3.963  -0.802   5.271  1.00  0.00     0.073 C 
HETATM    6  O8  UNL     1      -5.497  -2.565   4.674  1.00  0.00    -0.353 OA
HETATM    7  O10 UNL     1      -6.156  -0.845   6.077  1.00  0.00    -0.353 OA
HETATM    8  C9  UNL     1      -3.687  -0.175   6.648  1.00  0.00     0.051 C 
HETATM    9  C21 UNL     1      -6.108  -2.033   3.566  1.00  0.00     0.185 C 
HETATM   10  C22 UNL     1      -7.231  -1.094   3.911  1.00  0.00     0.021 C 
HETATM   11  C23 UNL     1      -7.140   0.087   2.959  1.00  0.00     0.022 C 
HETATM   12  C25 UNL     1      -7.262  -0.685   5.333  1.00  0.00     0.185 C 
BRANCH   3  13
HETATM   13  C5  UNL     1      -3.810  -3.534   6.290  1.00  0.00    -0.013 C 
HETATM   14  C4  UNL     1      -3.574  -4.712   6.725  1.00  0.00     0.002 C 
BRANCH  14  15
HETATM   15  C2  UNL     1      -3.965  -5.449   7.876  1.00  0.00    -0.072 C 
HETATM   16  C1  UNL     1      -3.592  -5.003   9.095  1.00  0.00     0.018 C 
HETATM   17  C3  UNL     1      -4.753  -6.680   7.825  1.00  0.00     0.047 C 
ENDBRANCH  14  15
ENDBRANCH   3  13
BRANCH  10  18
HETATM   18  C24 UNL     1      -8.570  -1.779   3.595  1.00  0.00     0.177 C 
BRANCH  18  19
HETATM   19  O9  UNL     1      -9.238  -2.160   4.742  1.00  0.00    -0.400 OA
ATOM     20  H9  UNL     1      -9.986  -2.713   4.550  1.00  0.00     0.209 HD
ENDBRANCH  18  19
ENDBRANCH  10  18
BRANCH   2  21
HETATM   21  O1  UNL     1      -2.438  -1.961   7.466  1.00  0.00    -0.382 OA
ATOM     22  H1  UNL     1      -2.119  -1.665   6.622  1.00  0.00     0.211 HD
ENDBRANCH   2  21
ENDBRANCH   1   2
BRANCH   1  23
HETATM   23  O2  UNL     1      -5.604  -1.329   8.896  1.00  0.00    -0.359 OA
ATOM     24  H2  UNL     1      -5.971  -0.688   8.298  1.00  0.00     0.217 HD
ENDBRANCH   1  23
BRANCH   1  25
HETATM   25  C12 UNL     1      -3.705  -0.154   9.826  1.00  0.00     0.103 C 
BRANCH  25  26
HETATM   26  O3  UNL     1      -4.156   1.121   9.768  1.00  0.00    -0.360 OA
ATOM     27  H3  UNL     1      -3.668   1.836  10.159  1.00  0.00     0.217 HD
ENDBRANCH  25  26
BRANCH  25  28
HETATM   28  C13 UNL     1      -3.439  -0.556  11.251  1.00  0.00     0.228 C 
BRANCH  28  29
HETATM   29  N1  UNL     1      -2.563   0.406  11.953  1.00  0.00    -0.110 NA
BRANCH  29  30
HETATM   30  N2  UNL     1      -1.514   0.761  11.106  1.00  0.00    -0.207 N 
ATOM     31  H2  UNL     1      -1.516   0.605  10.097  1.00  0.00     0.197 HD
BRANCH  30  32
HETATM   32  S1  UNL     1      -0.218   1.492  11.966  1.00  0.00     0.373 S 
HETATM   33  O4  UNL     1       0.824   1.985  10.983  1.00  0.00    -0.174 OA
HETATM   34  O5  UNL     1      -0.752   2.729  12.653  1.00  0.00    -0.174 OA
BRANCH  32  35
HETATM   35  O6  UNL     1       0.404   0.384  13.027  1.00  0.00    -0.248 OA
BRANCH  35  36
HETATM   36  C14 UNL     1       1.647   0.682  13.523  1.00  0.00     0.071 C 
HETATM   37  C15 UNL     1       1.695   2.045  14.163  1.00  0.00     0.047 C 
HETATM   38  C16 UNL     1       2.750   0.501  12.500  1.00  0.00     0.047 C 
HETATM   39  C17 UNL     1       1.939  -0.337  14.630  1.00  0.00     0.047 C 
ENDBRANCH  35  36
ENDBRANCH  32  35
ENDBRANCH  30  32
ENDBRANCH  29  30
ENDBRANCH  28  29
BRANCH  28  40
HETATM   40  C18 UNL     1      -4.679  -0.527  12.110  1.00  0.00     0.131 A 
HETATM   41  N3  UNL     1      -4.655  -0.717  13.463  1.00  0.00    -0.245 N 
HETATM   42  O7  UNL     1      -5.869  -0.606  13.912  1.00  0.00    -0.223 OA
ATOM     43  H3  UNL     1      -3.825  -0.912  14.025  1.00  0.00     0.196 HD
HETATM   44  C19 UNL     1      -6.702  -0.354  12.946  1.00  0.00     0.144 A 
HETATM   45  C20 UNL     1      -8.170  -0.154  13.005  1.00  0.00     0.100 C 
HETATM   46  N4  UNL     1      -5.957  -0.308  11.836  1.00  0.00    -0.325 N 
ATOM     47  H4  UNL     1      -6.323  -0.128  10.901  1.00  0.00     0.169 HD
ENDBRANCH  28  40
ENDBRANCH  25  28
ENDBRANCH   1  25
TORSDOF 16
ENDMDL
