MODEL 1
REMARK VINA RESULT: -6.810319013      0.000      0.000
REMARK  17 active torsions:
REMARK  status: ('A' for Active; 'I' for Inactive)
REMARK    1  A    between atoms: C2_2  and  C3_3 
REMARK    2  A    between atoms: C2_2  and  O6_23 
REMARK    3  A    between atoms: C3_3  and  C4_4 
REMARK    4  A    between atoms: C4_4  and  C5_5 
REMARK    5  A    between atoms: C5_5  and  O1_7 
REMARK    6  A    between atoms: O1_7  and  C7_8 
REMARK    7  A    between atoms: C10_12  and  O3_13 
REMARK    8  A    between atoms: C11_15  and  C12_17 
REMARK    9  A    between atoms: C12_17  and  O4_18 
REMARK   10  A    between atoms: C13_20  and  O5_21 
REMARK   11  A    between atoms: O6_23  and  C14_24 
REMARK   12  A    between atoms: C14_24  and  C15_25 
REMARK   13  A    between atoms: C20_31  and  C21_32 
REMARK   14  A    between atoms: C21_32  and  O8_33 
REMARK   15  A    between atoms: C21_32  and  C22_35 
REMARK   16  A    between atoms: C22_35  and  O9_36 
REMARK   17  A    between atoms: C25_41  and  O11_42 
ROOT
HETATM    1  O6  UNL     1      -5.607   3.611   4.103  1.00  0.00    -0.382 OA
ENDROOT
BRANCH   1   2
HETATM    2  C2  UNL     1      -4.722   3.277   3.104  1.00  0.00     0.117 C 
HETATM    3  C1  UNL     1      -3.324   3.788   3.338  1.00  0.00     0.039 C 
BRANCH   2   4
HETATM    4  C3  UNL     1      -5.283   3.730   1.778  1.00  0.00     0.034 C 
BRANCH   4   5
HETATM    5  C4  UNL     1      -5.794   2.608   0.940  1.00  0.00     0.034 C 
BRANCH   5   6
HETATM    6  C5  UNL     1      -7.289   2.517   1.095  1.00  0.00     0.120 C 
HETATM    7  C6  UNL     1      -7.926   3.868   1.307  1.00  0.00     0.039 C 
BRANCH   6   8
HETATM    8  O1  UNL     1      -7.708   1.585   2.012  1.00  0.00    -0.354 OA
BRANCH   8   9
HETATM    9  C7  UNL     1      -8.825   0.868   1.597  1.00  0.00     0.292 C 
HETATM   10  O2  UNL     1      -9.703   0.817   2.681  1.00  0.00    -0.351 OA
HETATM   11  C8  UNL     1      -8.953   0.540   3.811  1.00  0.00     0.152 C 
HETATM   12  C9  UNL     1      -9.871   0.618   5.012  1.00  0.00     0.042 C 
HETATM   13  C10 UNL     1      -8.327  -0.837   3.765  1.00  0.00     0.191 C 
HETATM   14  C11 UNL     1      -7.659  -1.104   2.434  1.00  0.00     0.182 C 
HETATM   15  F1  UNL     1      -6.415  -0.499   2.391  1.00  0.00    -0.235 F 
HETATM   16  C13 UNL     1      -8.477  -0.581   1.278  1.00  0.00     0.217 C 
BRANCH  13  17
HETATM   17  O3  UNL     1      -9.295  -1.767   4.081  1.00  0.00    -0.389 OA
ATOM     18  H3  UNL     1      -8.968  -2.630   3.856  1.00  0.00     0.210 HD
ENDBRANCH  13  17
BRANCH  14  19
HETATM   19  C12 UNL     1      -7.528  -2.605   2.285  1.00  0.00     0.213 C 
BRANCH  19  20
HETATM   20  O4  UNL     1      -8.555  -3.105   1.489  1.00  0.00    -0.397 OA
ATOM     21  H4  UNL     1      -8.424  -2.854   0.583  1.00  0.00     0.209 HD
ENDBRANCH  19  20
ENDBRANCH  14  19
BRANCH  16  22
HETATM   22  O5  UNL     1      -7.762  -0.706   0.111  1.00  0.00    -0.387 OA
ATOM     23  H5  UNL     1      -7.877  -1.556  -0.296  1.00  0.00     0.210 HD
ENDBRANCH  16  22
ENDBRANCH   8   9
ENDBRANCH   6   8
ENDBRANCH   5   6
ENDBRANCH   4   5
ENDBRANCH   2   4
ENDBRANCH   1   2
BRANCH   1  24
HETATM   24  C14 UNL     1      -5.037   3.675   5.363  1.00  0.00     0.202 C 
BRANCH  24  25
HETATM   25  C15 UNL     1      -5.300   2.411   6.070  1.00  0.00    -0.053 C 
HETATM   26  C16 UNL     1      -6.580   1.990   6.199  1.00  0.00    -0.021 C 
HETATM   27  C17 UNL     1      -6.725   0.688   6.939  1.00  0.00     0.035 C 
HETATM   28  C18 UNL     1      -5.854  -0.309   6.214  1.00  0.00     0.024 C 
HETATM   29  C19 UNL     1      -5.892  -1.675   6.811  1.00  0.00     0.176 C 
HETATM   30  C27 UNL     1      -4.453   0.140   6.059  1.00  0.00    -0.002 C 
HETATM   31  O7  UNL     1      -5.145  -2.521   6.037  1.00  0.00    -0.358 OA
HETATM   32  C20 UNL     1      -3.877  -2.803   6.460  1.00  0.00     0.290 C 
HETATM   33  O10 UNL     1      -2.991  -1.760   6.435  1.00  0.00    -0.352 OA
HETATM   34  C23 UNL     1      -3.439  -0.571   6.925  1.00  0.00     0.136 C 
HETATM   35  C24 UNL     1      -2.269   0.423   6.848  1.00  0.00     0.065 C 
HETATM   36  C25 UNL     1      -2.902   1.790   6.543  1.00  0.00     0.129 C 
HETATM   37  C26 UNL     1      -4.327   1.525   6.670  1.00  0.00     0.056 C 
HETATM   38  C28 UNL     1      -3.984   0.060   4.644  1.00  0.00     0.019 C 
BRANCH  32  39
HETATM   39  C21 UNL     1      -3.850  -3.576   7.784  1.00  0.00     0.196 C 
BRANCH  39  40
HETATM   40  O8  UNL     1      -2.628  -3.360   8.406  1.00  0.00    -0.389 OA
ATOM     41  H8  UNL     1      -2.391  -2.445   8.313  1.00  0.00     0.210 HD
ENDBRANCH  39  40
BRANCH  39  42
HETATM   42  C22 UNL     1      -3.877  -5.050   7.392  1.00  0.00     0.200 C 
BRANCH  42  43
HETATM   43  O9  UNL     1      -4.785  -5.314   6.387  1.00  0.00    -0.398 OA
ATOM     44  H9  UNL     1      -4.760  -6.219   6.103  1.00  0.00     0.209 HD
ENDBRANCH  42  43
ENDBRANCH  39  42
ENDBRANCH  32  39
BRANCH  36  45
HETATM   45  O11 UNL     1      -2.501   2.692   7.555  1.00  0.00    -0.395 OA
ATOM     46  H11 UNL     1      -2.612   3.575   7.222  1.00  0.00     0.210 HD
ENDBRANCH  36  45
ENDBRANCH  24  25
ENDBRANCH   1  24
TORSDOF 17
ENDMDL
MODEL 2
REMARK VINA RESULT: -6.424840698      3.400      8.217
REMARK  17 active torsions:
REMARK  status: ('A' for Active; 'I' for Inactive)
REMARK    1  A    between atoms: C2_2  and  C3_3 
REMARK    2  A    between atoms: C2_2  and  O6_23 
REMARK    3  A    between atoms: C3_3  and  C4_4 
REMARK    4  A    between atoms: C4_4  and  C5_5 
REMARK    5  A    between atoms: C5_5  and  O1_7 
REMARK    6  A    between atoms: O1_7  and  C7_8 
REMARK    7  A    between atoms: C10_12  and  O3_13 
REMARK    8  A    between atoms: C11_15  and  C12_17 
REMARK    9  A    between atoms: C12_17  and  O4_18 
REMARK   10  A    between atoms: C13_20  and  O5_21 
REMARK   11  A    between atoms: O6_23  and  C14_24 
REMARK   12  A    between atoms: C14_24  and  C15_25 
REMARK   13  A    between atoms: C20_31  and  C21_32 
REMARK   14  A    between atoms: C21_32  and  O8_33 
REMARK   15  A    between atoms: C21_32  and  C22_35 
REMARK   16  A    between atoms: C22_35  and  O9_36 
REMARK   17  A    between atoms: C25_41  and  O11_42 
ROOT
HETATM    1  O6  UNL     1      -3.485   0.381  10.331  1.00  0.00    -0.382 OA
ENDROOT
BRANCH   1   2
HETATM    2  C2  UNL     1      -3.141   0.289  11.661  1.00  0.00     0.117 C 
HETATM    3  C1  UNL     1      -4.313   0.414  12.599  1.00  0.00     0.039 C 
BRANCH   2   4
HETATM    4  C3  UNL     1      -2.059   1.297  11.960  1.00  0.00     0.034 C 
BRANCH   4   5
HETATM    5  C4  UNL     1      -0.712   0.877  11.479  1.00  0.00     0.034 C 
BRANCH   5   6
HETATM    6  C5  UNL     1       0.058   2.094  11.040  1.00  0.00     0.120 C 
HETATM    7  C6  UNL     1      -0.632   3.379  11.427  1.00  0.00     0.039 C 
BRANCH   6   8
HETATM    8  O1  UNL     1       0.442   2.077   9.721  1.00  0.00    -0.354 OA
BRANCH   8   9
HETATM    9  C7  UNL     1      -0.225   1.118   8.967  1.00  0.00     0.292 C 
HETATM   10  O2  UNL     1       0.743   0.426   8.238  1.00  0.00    -0.351 OA
HETATM   11  C8  UNL     1       1.630   1.361   7.732  1.00  0.00     0.152 C 
HETATM   12  C9  UNL     1       2.761   0.615   7.056  1.00  0.00     0.042 C 
HETATM   13  C10 UNL     1       0.983   2.284   6.723  1.00  0.00     0.191 C 
HETATM   14  C11 UNL     1      -0.342   2.818   7.222  1.00  0.00     0.182 C 
HETATM   15  F1  UNL     1      -0.139   3.865   8.102  1.00  0.00    -0.235 F 
HETATM   16  C13 UNL     1      -1.146   1.755   7.933  1.00  0.00     0.217 C 
BRANCH  13  17
HETATM   17  O3  UNL     1       0.880   1.615   5.522  1.00  0.00    -0.389 OA
ATOM     18  H3  UNL     1       1.756   1.401   5.222  1.00  0.00     0.210 HD
ENDBRANCH  13  17
BRANCH  14  19
HETATM   19  C12 UNL     1      -1.129   3.281   6.014  1.00  0.00     0.213 C 
BRANCH  19  20
HETATM   20  O4  UNL     1      -1.961   2.262   5.557  1.00  0.00    -0.397 OA
ATOM     21  H4  UNL     1      -1.478   1.665   4.999  1.00  0.00     0.209 HD
ENDBRANCH  19  20
ENDBRANCH  14  19
BRANCH  16  22
HETATM   22  O5  UNL     1      -2.262   2.321   8.500  1.00  0.00    -0.387 OA
ATOM     23  H5  UNL     1      -2.045   2.996   9.132  1.00  0.00     0.210 HD
ENDBRANCH  16  22
ENDBRANCH   8   9
ENDBRANCH   6   8
ENDBRANCH   5   6
ENDBRANCH   4   5
ENDBRANCH   2   4
ENDBRANCH   1   2
BRANCH   1  24
HETATM   24  C14 UNL     1      -3.386  -0.815   9.641  1.00  0.00     0.202 C 
BRANCH  24  25
HETATM   25  C15 UNL     1      -4.580  -0.978   8.796  1.00  0.00    -0.053 C 
HETATM   26  C16 UNL     1      -5.611  -0.115   8.950  1.00  0.00    -0.021 C 
HETATM   27  C17 UNL     1      -6.775  -0.381   8.033  1.00  0.00     0.035 C 
HETATM   28  C18 UNL     1      -6.217  -0.379   6.631  1.00  0.00     0.024 C 
HETATM   29  C19 UNL     1      -7.250  -0.614   5.581  1.00  0.00     0.176 C 
HETATM   30  C27 UNL     1      -5.084  -1.313   6.449  1.00  0.00    -0.002 C 
HETATM   31  O7  UNL     1      -6.665  -0.507   4.349  1.00  0.00    -0.358 OA
HETATM   32  C20 UNL     1      -6.326  -1.668   3.713  1.00  0.00     0.290 C 
HETATM   33  O10 UNL     1      -5.320  -2.396   4.290  1.00  0.00    -0.352 OA
HETATM   34  C23 UNL     1      -5.384  -2.555   5.641  1.00  0.00     0.136 C 
HETATM   35  C24 UNL     1      -4.199  -3.441   6.052  1.00  0.00     0.065 C 
HETATM   36  C25 UNL     1      -3.758  -2.935   7.434  1.00  0.00     0.129 C 
HETATM   37  C26 UNL     1      -4.804  -1.985   7.782  1.00  0.00     0.056 C 
HETATM   38  C28 UNL     1      -3.891  -0.650   5.845  1.00  0.00     0.019 C 
BRANCH  32  39
HETATM   39  C21 UNL     1      -7.545  -2.522   3.346  1.00  0.00     0.196 C 
BRANCH  39  40
HETATM   40  O8  UNL     1      -7.199  -3.863   3.440  1.00  0.00    -0.389 OA
ATOM     41  H8  UNL     1      -7.624  -4.238   4.203  1.00  0.00     0.210 HD
ENDBRANCH  39  40
BRANCH  39  42
HETATM   42  C22 UNL     1      -7.799  -2.249   1.866  1.00  0.00     0.200 C 
BRANCH  42  43
HETATM   43  O9  UNL     1      -8.545  -3.242   1.265  1.00  0.00    -0.398 OA
ATOM     44  H9  UNL     1      -8.377  -3.310   0.333  1.00  0.00     0.209 HD
ENDBRANCH  42  43
ENDBRANCH  39  42
ENDBRANCH  32  39
BRANCH  36  45
HETATM   45  O11 UNL     1      -3.799  -4.027   8.332  1.00  0.00    -0.395 OA
ATOM     46  H11 UNL     1      -3.666  -3.690   9.210  1.00  0.00     0.210 HD
ENDBRANCH  36  45
ENDBRANCH  24  25
ENDBRANCH   1  24
TORSDOF 17
ENDMDL
MODEL 3
REMARK VINA RESULT: -6.422833074      1.300      2.305
REMARK  17 active torsions:
REMARK  status: ('A' for Active; 'I' for Inactive)
REMARK    1  A    between atoms: C2_2  and  C3_3 
REMARK    2  A    between atoms: C2_2  and  O6_23 
REMARK    3  A    between atoms: C3_3  and  C4_4 
REMARK    4  A    between atoms: C4_4  and  C5_5 
REMARK    5  A    between atoms: C5_5  and  O1_7 
REMARK    6  A    between atoms: O1_7  and  C7_8 
REMARK    7  A    between atoms: C10_12  and  O3_13 
REMARK    8  A    between atoms: C11_15  and  C12_17 
REMARK    9  A    between atoms: C12_17  and  O4_18 
REMARK   10  A    between atoms: C13_20  and  O5_21 
REMARK   11  A    between atoms: O6_23  and  C14_24 
REMARK   12  A    between atoms: C14_24  and  C15_25 
REMARK   13  A    between atoms: C20_31  and  C21_32 
REMARK   14  A    between atoms: C21_32  and  O8_33 
REMARK   15  A    between atoms: C21_32  and  C22_35 
REMARK   16  A    between atoms: C22_35  and  O9_36 
REMARK   17  A    between atoms: C25_41  and  O11_42 
ROOT
HETATM    1  O6  UNL     1      -3.624   3.140   4.549  1.00  0.00    -0.382 OA
ENDROOT
BRANCH   1   2
HETATM    2  C2  UNL     1      -4.671   3.849   4.004  1.00  0.00     0.117 C 
HETATM    3  C1  UNL     1      -5.999   3.564   4.653  1.00  0.00     0.039 C 
BRANCH   2   4
HETATM    4  C3  UNL     1      -4.699   3.616   2.513  1.00  0.00     0.034 C 
BRANCH   4   5
HETATM    5  C4  UNL     1      -6.068   3.358   1.982  1.00  0.00     0.034 C 
BRANCH   5   6
HETATM    6  C5  UNL     1      -6.056   2.081   1.184  1.00  0.00     0.120 C 
HETATM    7  C6  UNL     1      -6.604   2.272  -0.208  1.00  0.00     0.039 C 
BRANCH   6   8
HETATM    8  O1  UNL     1      -6.615   1.005   1.829  1.00  0.00    -0.354 OA
BRANCH   8   9
HETATM    9  C7  UNL     1      -7.963   0.827   1.535  1.00  0.00     0.292 C 
HETATM   10  O2  UNL     1      -8.672   1.063   2.713  1.00  0.00    -0.351 OA
HETATM   11  C8  UNL     1      -7.992   0.436   3.742  1.00  0.00     0.152 C 
HETATM   12  C9  UNL     1      -8.674   0.800   5.044  1.00  0.00     0.042 C 
HETATM   13  C10 UNL     1      -7.989  -1.070   3.598  1.00  0.00     0.191 C 
HETATM   14  C11 UNL     1      -7.623  -1.497   2.194  1.00  0.00     0.182 C 
HETATM   15  F1  UNL     1      -6.252  -1.443   2.016  1.00  0.00    -0.235 F 
HETATM   16  C13 UNL     1      -8.269  -0.617   1.151  1.00  0.00     0.217 C 
BRANCH  13  17
HETATM   17  O3  UNL     1      -9.215  -1.550   4.009  1.00  0.00    -0.389 OA
ATOM     18  H3  UNL     1      -9.079  -2.378   4.455  1.00  0.00     0.210 HD
ENDBRANCH  13  17
BRANCH  14  19
HETATM   19  C12 UNL     1      -8.130  -2.911   2.003  1.00  0.00     0.213 C 
BRANCH  19  20
HETATM   20  O4  UNL     1      -7.584  -3.757   2.966  1.00  0.00    -0.397 OA
ATOM     21  H4  UNL     1      -7.978  -4.619   2.910  1.00  0.00     0.209 HD
ENDBRANCH  19  20
ENDBRANCH  14  19
BRANCH  16  22
HETATM   22  O5  UNL     1      -7.787  -0.943  -0.093  1.00  0.00    -0.387 OA
ATOM     23  H5  UNL     1      -8.044  -0.316  -0.758  1.00  0.00     0.210 HD
ENDBRANCH  16  22
ENDBRANCH   8   9
ENDBRANCH   6   8
ENDBRANCH   5   6
ENDBRANCH   4   5
ENDBRANCH   2   4
ENDBRANCH   1   2
BRANCH   1  24
HETATM   24  C14 UNL     1      -3.758   2.891   5.904  1.00  0.00     0.202 C 
BRANCH  24  25
HETATM   25  C15 UNL     1      -3.125   1.600   6.217  1.00  0.00    -0.053 C 
HETATM   26  C16 UNL     1      -2.078   1.577   7.075  1.00  0.00    -0.021 C 
HETATM   27  C17 UNL     1      -1.514   0.203   7.317  1.00  0.00     0.035 C 
HETATM   28  C18 UNL     1      -2.668  -0.651   7.782  1.00  0.00     0.024 C 
HETATM   29  C19 UNL     1      -2.280  -2.058   8.088  1.00  0.00     0.176 C 
HETATM   30  C27 UNL     1      -3.823  -0.631   6.857  1.00  0.00    -0.002 C 
HETATM   31  O7  UNL     1      -3.368  -2.724   8.582  1.00  0.00    -0.358 OA
HETATM   32  C20 UNL     1      -4.061  -3.523   7.716  1.00  0.00     0.290 C 
HETATM   33  O10 UNL     1      -4.728  -2.878   6.709  1.00  0.00    -0.352 OA
HETATM   34  C23 UNL     1      -4.044  -1.896   6.060  1.00  0.00     0.136 C 
HETATM   35  C24 UNL     1      -4.960  -1.361   4.948  1.00  0.00     0.065 C 
HETATM   36  C25 UNL     1      -4.649   0.139   4.837  1.00  0.00     0.129 C 
HETATM   37  C26 UNL     1      -3.491   0.298   5.703  1.00  0.00     0.056 C 
HETATM   38  C28 UNL     1      -5.102  -0.298   7.552  1.00  0.00     0.019 C 
BRANCH  32  39
HETATM   39  C21 UNL     1      -3.236  -4.714   7.217  1.00  0.00     0.196 C 
BRANCH  39  40
HETATM   40  O8  UNL     1      -2.602  -4.360   6.034  1.00  0.00    -0.389 OA
ATOM     41  H8  UNL     1      -1.756  -3.979   6.240  1.00  0.00     0.210 HD
ENDBRANCH  39  40
BRANCH  39  42
HETATM   42  C22 UNL     1      -4.257  -5.788   6.851  1.00  0.00     0.200 C 
BRANCH  42  43
HETATM   43  O9  UNL     1      -4.942  -5.492   5.691  1.00  0.00    -0.398 OA
ATOM     44  H9  UNL     1      -5.880  -5.438   5.826  1.00  0.00     0.209 HD
ENDBRANCH  42  43
ENDBRANCH  39  42
ENDBRANCH  32  39
BRANCH  36  45
HETATM   45  O11 UNL     1      -4.276   0.410   3.500  1.00  0.00    -0.395 OA
ATOM     46  H11 UNL     1      -3.910   1.286   3.469  1.00  0.00     0.210 HD
ENDBRANCH  36  45
ENDBRANCH  24  25
ENDBRANCH   1  24
TORSDOF 17
ENDMDL
MODEL 4
REMARK VINA RESULT: -6.394596762      3.583      8.511
REMARK  17 active torsions:
REMARK  status: ('A' for Active; 'I' for Inactive)
REMARK    1  A    between atoms: C2_2  and  C3_3 
REMARK    2  A    between atoms: C2_2  and  O6_23 
REMARK    3  A    between atoms: C3_3  and  C4_4 
REMARK    4  A    between atoms: C4_4  and  C5_5 
REMARK    5  A    between atoms: C5_5  and  O1_7 
REMARK    6  A    between atoms: O1_7  and  C7_8 
REMARK    7  A    between atoms: C10_12  and  O3_13 
REMARK    8  A    between atoms: C11_15  and  C12_17 
REMARK    9  A    between atoms: C12_17  and  O4_18 
REMARK   10  A    between atoms: C13_20  and  O5_21 
REMARK   11  A    between atoms: O6_23  and  C14_24 
REMARK   12  A    between atoms: C14_24  and  C15_25 
REMARK   13  A    between atoms: C20_31  and  C21_32 
REMARK   14  A    between atoms: C21_32  and  O8_33 
REMARK   15  A    between atoms: C21_32  and  C22_35 
REMARK   16  A    between atoms: C22_35  and  O9_36 
REMARK   17  A    between atoms: C25_41  and  O11_42 
ROOT
HETATM    1  O6  UNL     1      -3.299  -0.848  10.668  1.00  0.00    -0.382 OA
ENDROOT
BRANCH   1   2
HETATM    2  C2  UNL     1      -3.244  -0.014  11.761  1.00  0.00     0.117 C 
HETATM    3  C1  UNL     1      -4.562   0.137  12.475  1.00  0.00     0.039 C 
BRANCH   2   4
HETATM    4  C3  UNL     1      -2.667   1.314  11.338  1.00  0.00     0.034 C 
BRANCH   4   5
HETATM    5  C4  UNL     1      -1.387   1.648  12.025  1.00  0.00     0.034 C 
BRANCH   5   6
HETATM    6  C5  UNL     1      -0.269   0.856  11.401  1.00  0.00     0.120 C 
HETATM    7  C6  UNL     1       1.002   0.926  12.211  1.00  0.00     0.039 C 
BRANCH   6   8
HETATM    8  O1  UNL     1      -0.063   1.117  10.069  1.00  0.00    -0.354 OA
BRANCH   8   9
HETATM    9  C7  UNL     1       0.957   2.035   9.841  1.00  0.00     0.292 C 
HETATM   10  O2  UNL     1       0.349   3.246   9.508  1.00  0.00    -0.351 OA
HETATM   11  C8  UNL     1      -0.683   2.967   8.629  1.00  0.00     0.152 C 
HETATM   12  C9  UNL     1      -1.437   4.253   8.368  1.00  0.00     0.042 C 
HETATM   13  C10 UNL     1      -0.184   2.418   7.310  1.00  0.00     0.191 C 
HETATM   14  C11 UNL     1       0.841   1.324   7.510  1.00  0.00     0.182 C 
HETATM   15  F1  UNL     1       0.216   0.128   7.811  1.00  0.00    -0.235 F 
HETATM   16  C13 UNL     1       1.800   1.650   8.631  1.00  0.00     0.217 C 
BRANCH  13  17
HETATM   17  O3  UNL     1       0.285   3.469   6.550  1.00  0.00    -0.389 OA
ATOM     18  H3  UNL     1       0.706   3.116   5.776  1.00  0.00     0.210 HD
ENDBRANCH  13  17
BRANCH  14  19
HETATM   19  C12 UNL     1       1.634   1.205   6.226  1.00  0.00     0.213 C 
BRANCH  19  20
HETATM   20  O4  UNL     1       2.795   1.970   6.298  1.00  0.00    -0.397 OA
ATOM     21  H4  UNL     1       3.487   1.482   6.726  1.00  0.00     0.209 HD
ENDBRANCH  19  20
ENDBRANCH  14  19
BRANCH  16  22
HETATM   22  O5  UNL     1       2.608   0.566   8.877  1.00  0.00    -0.387 OA
ATOM     23  H5  UNL     1       3.366   0.791   9.404  1.00  0.00     0.210 HD
ENDBRANCH  16  22
ENDBRANCH   8   9
ENDBRANCH   6   8
ENDBRANCH   5   6
ENDBRANCH   4   5
ENDBRANCH   2   4
ENDBRANCH   1   2
BRANCH   1  24
HETATM   24  C14 UNL     1      -3.314  -0.184   9.453  1.00  0.00     0.202 C 
BRANCH  24  25
HETATM   25  C15 UNL     1      -4.507  -0.598   8.698  1.00  0.00    -0.053 C 
HETATM   26  C16 UNL     1      -5.640   0.133   8.815  1.00  0.00    -0.021 C 
HETATM   27  C17 UNL     1      -6.792  -0.386   7.997  1.00  0.00     0.035 C 
HETATM   28  C18 UNL     1      -6.296  -0.469   6.575  1.00  0.00     0.024 C 
HETATM   29  C19 UNL     1      -7.328  -0.955   5.614  1.00  0.00     0.176 C 
HETATM   30  C27 UNL     1      -5.054  -1.260   6.431  1.00  0.00    -0.002 C 
HETATM   31  O7  UNL     1      -6.814  -0.912   4.347  1.00  0.00    -0.358 OA
HETATM   32  C20 UNL     1      -6.344  -2.082   3.821  1.00  0.00     0.290 C 
HETATM   33  O10 UNL     1      -5.225  -2.601   4.416  1.00  0.00    -0.352 OA
HETATM   34  C23 UNL     1      -5.213  -2.614   5.778  1.00  0.00     0.136 C 
HETATM   35  C24 UNL     1      -3.902  -3.284   6.215  1.00  0.00     0.065 C 
HETATM   36  C25 UNL     1      -3.480  -2.571   7.509  1.00  0.00     0.129 C 
HETATM   37  C26 UNL     1      -4.631  -1.734   7.810  1.00  0.00     0.056 C 
HETATM   38  C28 UNL     1      -3.989  -0.518   5.695  1.00  0.00     0.019 C 
BRANCH  32  39
HETATM   39  C21 UNL     1      -7.447  -3.126   3.614  1.00  0.00     0.196 C 
BRANCH  39  40
HETATM   40  O8  UNL     1      -7.055  -4.320   4.203  1.00  0.00    -0.389 OA
ATOM     41  H8  UNL     1      -6.794  -4.929   3.523  1.00  0.00     0.210 HD
ENDBRANCH  39  40
BRANCH  39  42
HETATM   42  C22 UNL     1      -7.484  -3.383   2.110  1.00  0.00     0.200 C 
BRANCH  42  43
HETATM   43  O9  UNL     1      -8.571  -2.792   1.499  1.00  0.00    -0.398 OA
ATOM     44  H9  UNL     1      -8.319  -2.202   0.799  1.00  0.00     0.209 HD
ENDBRANCH  42  43
ENDBRANCH  39  42
ENDBRANCH  32  39
BRANCH  36  45
HETATM   45  O11 UNL     1      -3.335  -3.550   8.519  1.00  0.00    -0.395 OA
ATOM     46  H11 UNL     1      -4.203  -3.821   8.792  1.00  0.00     0.210 HD
ENDBRANCH  36  45
ENDBRANCH  24  25
ENDBRANCH   1  24
TORSDOF 17
ENDMDL
MODEL 5
REMARK VINA RESULT: -6.313648440      6.346     11.257
REMARK  17 active torsions:
REMARK  status: ('A' for Active; 'I' for Inactive)
REMARK    1  A    between atoms: C2_2  and  C3_3 
REMARK    2  A    between atoms: C2_2  and  O6_23 
REMARK    3  A    between atoms: C3_3  and  C4_4 
REMARK    4  A    between atoms: C4_4  and  C5_5 
REMARK    5  A    between atoms: C5_5  and  O1_7 
REMARK    6  A    between atoms: O1_7  and  C7_8 
REMARK    7  A    between atoms: C10_12  and  O3_13 
REMARK    8  A    between atoms: C11_15  and  C12_17 
REMARK    9  A    between atoms: C12_17  and  O4_18 
REMARK   10  A    between atoms: C13_20  and  O5_21 
REMARK   11  A    between atoms: O6_23  and  C14_24 
REMARK   12  A    between atoms: C14_24  and  C15_25 
REMARK   13  A    between atoms: C20_31  and  C21_32 
REMARK   14  A    between atoms: C21_32  and  O8_33 
REMARK   15  A    between atoms: C21_32  and  C22_35 
REMARK   16  A    between atoms: C22_35  and  O9_36 
REMARK   17  A    between atoms: C25_41  and  O11_42 
ROOT
HETATM    1  O6  UNL     1      -3.001   0.968  10.376  1.00  0.00    -0.382 OA
ENDROOT
BRANCH   1   2
HETATM    2  C2  UNL     1      -1.660   1.272  10.334  1.00  0.00     0.117 C 
HETATM    3  C1  UNL     1      -0.944   0.692   9.142  1.00  0.00     0.039 C 
BRANCH   2   4
HETATM    4  C3  UNL     1      -1.022   0.863  11.639  1.00  0.00     0.034 C 
BRANCH   4   5
HETATM    5  C4  UNL     1       0.468   0.870  11.596  1.00  0.00     0.034 C 
BRANCH   5   6
HETATM    6  C5  UNL     1       1.000   1.295  12.940  1.00  0.00     0.120 C 
HETATM    7  C6  UNL     1       0.785   2.766  13.201  1.00  0.00     0.039 C 
BRANCH   6   8
HETATM    8  O1  UNL     1       2.289   0.896  13.191  1.00  0.00    -0.354 OA
BRANCH   8   9
HETATM    9  C7  UNL     1       2.474   0.414  14.482  1.00  0.00     0.292 C 
HETATM   10  O2  UNL     1       3.259   1.349  15.158  1.00  0.00    -0.351 OA
HETATM   11  C8  UNL     1       4.273   1.739  14.301  1.00  0.00     0.152 C 
HETATM   12  C9  UNL     1       5.050   2.854  14.970  1.00  0.00     0.042 C 
HETATM   13  C10 UNL     1       5.225   0.607  13.980  1.00  0.00     0.191 C 
HETATM   14  C11 UNL     1       4.483  -0.659  13.611  1.00  0.00     0.182 C 
HETATM   15  F1  UNL     1       4.055  -0.601  12.297  1.00  0.00    -0.235 F 
HETATM   16  C13 UNL     1       3.276  -0.882  14.491  1.00  0.00     0.217 C 
BRANCH  13  17
HETATM   17  O3  UNL     1       6.082   0.442  15.047  1.00  0.00    -0.389 OA
ATOM     18  H3  UNL     1       6.970   0.587  14.744  1.00  0.00     0.210 HD
ENDBRANCH  13  17
BRANCH  14  19
HETATM   19  C12 UNL     1       5.438  -1.818  13.810  1.00  0.00     0.213 C 
BRANCH  19  20
HETATM   20  O4  UNL     1       5.022  -2.923  13.072  1.00  0.00    -0.397 OA
ATOM     21  H4  UNL     1       5.591  -3.054  12.323  1.00  0.00     0.209 HD
ENDBRANCH  19  20
ENDBRANCH  14  19
BRANCH  16  22
HETATM   22  O5  UNL     1       2.553  -1.951  14.021  1.00  0.00    -0.387 OA
ATOM     23  H5  UNL     1       1.627  -1.879  14.220  1.00  0.00     0.210 HD
ENDBRANCH  16  22
ENDBRANCH   8   9
ENDBRANCH   6   8
ENDBRANCH   5   6
ENDBRANCH   4   5
ENDBRANCH   2   4
ENDBRANCH   1   2
BRANCH   1  24
HETATM   24  C14 UNL     1      -3.269  -0.386  10.479  1.00  0.00     0.202 C 
BRANCH  24  25
HETATM   25  C15 UNL     1      -4.382  -0.722   9.576  1.00  0.00    -0.053 C 
HETATM   26  C16 UNL     1      -5.585  -0.133   9.775  1.00  0.00    -0.021 C 
HETATM   27  C17 UNL     1      -6.644  -0.554   8.792  1.00  0.00     0.035 C 
HETATM   28  C18 UNL     1      -6.079  -0.278   7.420  1.00  0.00     0.024 C 
HETATM   29  C19 UNL     1      -7.015  -0.625   6.312  1.00  0.00     0.176 C 
HETATM   30  C27 UNL     1      -4.761  -0.910   7.190  1.00  0.00    -0.002 C 
HETATM   31  O7  UNL     1      -6.451  -0.259   5.120  1.00  0.00    -0.358 OA
HETATM   32  C20 UNL     1      -5.848  -1.240   4.385  1.00  0.00     0.290 C 
HETATM   33  O10 UNL     1      -4.712  -1.781   4.925  1.00  0.00    -0.352 OA
HETATM   34  C23 UNL     1      -4.759  -2.094   6.250  1.00  0.00     0.136 C 
HETATM   35  C24 UNL     1      -3.410  -2.731   6.616  1.00  0.00     0.065 C 
HETATM   36  C25 UNL     1      -3.117  -2.289   8.058  1.00  0.00     0.129 C 
HETATM   37  C26 UNL     1      -4.356  -1.640   8.458  1.00  0.00     0.056 C 
HETATM   38  C28 UNL     1      -3.741   0.064   6.701  1.00  0.00     0.019 C 
BRANCH  32  39
HETATM   39  C21 UNL     1      -6.835  -2.301   3.887  1.00  0.00     0.196 C 
BRANCH  39  40
HETATM   40  O8  UNL     1      -6.128  -3.307   3.242  1.00  0.00    -0.389 OA
ATOM     41  H8  UNL     1      -6.216  -4.112   3.738  1.00  0.00     0.210 HD
ENDBRANCH  39  40
BRANCH  39  42
HETATM   42  C22 UNL     1      -7.668  -1.607   2.813  1.00  0.00     0.200 C 
BRANCH  42  43
HETATM   43  O9  UNL     1      -8.815  -1.034   3.321  1.00  0.00    -0.398 OA
ATOM     44  H9  UNL     1      -9.546  -1.640   3.344  1.00  0.00     0.209 HD
ENDBRANCH  42  43
ENDBRANCH  39  42
ENDBRANCH  32  39
BRANCH  36  45
HETATM   45  O11 UNL     1      -2.923  -3.452   8.839  1.00  0.00    -0.395 OA
ATOM     46  H11 UNL     1      -3.166  -3.247   9.735  1.00  0.00     0.210 HD
ENDBRANCH  36  45
ENDBRANCH  24  25
ENDBRANCH   1  24
TORSDOF 17
ENDMDL
