MODEL 1
REMARK VINA RESULT: -6.896573490      0.000      0.000
REMARK  17 active torsions:
REMARK  status: ('A' for Active; 'I' for Inactive)
REMARK    1  A    between atoms: C2_2  and  C3_3 
REMARK    2  A    between atoms: C4_4  and  C5_5 
REMARK    3  A    between atoms: C5_5  and  C6_7 
REMARK    4  A    between atoms: C7_9  and  O3_10 
REMARK    5  A    between atoms: O3_10  and  C8_11 
REMARK    6  A    between atoms: C9_12  and  O4_13 
REMARK    7  A    between atoms: C11_16  and  O5_17 
REMARK    8  A    between atoms: C13_19  and  O6_20 
REMARK    9  A    between atoms: C14_22  and  O7_23 
REMARK   10  A    between atoms: O7_23  and  C15_24 
REMARK   11  A    between atoms: C16_25  and  O8_26 
REMARK   12  A    between atoms: C18_29  and  O9_30 
REMARK   13  A    between atoms: C20_32  and  O10_33 
REMARK   14  A    between atoms: O10_33  and  C21_34 
REMARK   15  A    between atoms: C23_37  and  O12_38 
REMARK   16  A    between atoms: C24_40  and  O13_41 
REMARK   17  A    between atoms: C27_45  and  O14_46 
ROOT
HETATM    1  C8  UNL     1      -4.919   1.545   6.025  1.00  0.00     0.185 C 
HETATM    2  C9  UNL     1      -4.705   3.057   6.041  1.00  0.00     0.152 C 
HETATM    3  C10 UNL     1      -3.852   3.328   4.795  1.00  0.00     0.069 C 
HETATM    4  C11 UNL     1      -2.522   2.689   5.025  1.00  0.00     0.154 C 
HETATM    5  C13 UNL     1      -2.717   1.185   5.066  1.00  0.00     0.178 C 
HETATM    6  C14 UNL     1      -3.590   0.845   6.286  1.00  0.00     0.185 C 
ENDROOT
BRANCH   1   7
HETATM    7  O3  UNL     1      -5.910   1.221   6.906  1.00  0.00    -0.348 OA
BRANCH   7   8
HETATM    8  C7  UNL     1      -6.718   0.179   6.502  1.00  0.00     0.290 C 
HETATM    9  O2  UNL     1      -6.203  -0.404   5.351  1.00  0.00    -0.343 OA
HETATM   10  C6  UNL     1      -7.002  -1.480   4.928  1.00  0.00     0.227 C 
HETATM   11  C27 UNL     1      -8.274  -0.807   4.424  1.00  0.00     0.161 C 
HETATM   12  C25 UNL     1      -9.007  -0.339   5.664  1.00  0.00     0.047 C 
HETATM   13  C24 UNL     1      -8.120   0.712   6.311  1.00  0.00     0.179 C 
HETATM   14  C26 UNL     1     -10.294   0.307   5.262  1.00  0.00     0.015 C 
BRANCH  10  15
HETATM   15  C5  UNL     1      -6.266  -2.183   3.864  1.00  0.00     0.180 C 
HETATM   16  O1  UNL     1      -5.229  -1.658   3.327  1.00  0.00    -0.290 OA
BRANCH  15  17
HETATM   17  C4  UNL     1      -6.671  -3.485   3.378  1.00  0.00     0.049 C 
HETATM   18  C3  UNL     1      -7.450  -3.713   2.343  1.00  0.00    -0.023 C 
BRANCH  18  19
HETATM   19  C2  UNL     1      -7.835  -5.068   1.885  1.00  0.00     0.023 C 
HETATM   20  C1  UNL     1      -9.348  -5.260   1.968  1.00  0.00     0.009 C 
ENDBRANCH  18  19
ENDBRANCH  15  17
ENDBRANCH  10  15
BRANCH  11  21
HETATM   21  O14 UNL     1      -7.852   0.327   3.710  1.00  0.00    -0.392 OA
ATOM     22  H14 UNL     1      -7.888   1.050   4.324  1.00  0.00     0.210 HD
ENDBRANCH  11  21
BRANCH  13  23
HETATM   23  O13 UNL     1      -8.179   1.836   5.518  1.00  0.00    -0.390 OA
ATOM     24  H13 UNL     1      -8.784   2.496   5.838  1.00  0.00     0.210 HD
ENDBRANCH  13  23
ENDBRANCH   7   8
ENDBRANCH   1   7
BRANCH   2  25
HETATM   25  O4  UNL     1      -5.936   3.662   5.807  1.00  0.00    -0.393 OA
ATOM     26  H4  UNL     1      -5.834   4.595   5.956  1.00  0.00     0.210 HD
ENDBRANCH   2  25
BRANCH   6  27
HETATM   27  O7  UNL     1      -2.915   1.320   7.370  1.00  0.00    -0.370 OA
BRANCH  27  28
HETATM   28  C15 UNL     1      -2.601   0.423   8.352  1.00  0.00     0.186 C 
HETATM   29  C16 UNL     1      -3.109   0.806   9.717  1.00  0.00     0.175 C 
HETATM   30  C17 UNL     1      -4.520   0.433   9.957  1.00  0.00     0.042 C 
HETATM   31  C18 UNL     1      -4.939  -0.742   9.546  1.00  0.00     0.076 C 
HETATM   32  C20 UNL     1      -3.989  -1.629   8.869  1.00  0.00     0.219 C 
HETATM   33  C23 UNL     1      -3.063  -0.938   7.902  1.00  0.00     0.186 C 
BRANCH  29  34
HETATM   34  O8  UNL     1      -2.283   0.197  10.666  1.00  0.00    -0.389 OA
ATOM     35  H8  UNL     1      -1.408   0.552  10.559  1.00  0.00     0.210 HD
ENDBRANCH  29  34
BRANCH  31  36
HETATM   36  O9  UNL     1      -6.261  -1.162   9.740  1.00  0.00    -0.358 OA
HETATM   37  C19 UNL     1      -7.205  -0.355  10.420  1.00  0.00     0.209 C 
ENDBRANCH  31  36
BRANCH  32  38
HETATM   38  O10 UNL     1      -4.750  -2.560   8.090  1.00  0.00    -0.307 OA
BRANCH  38  39
HETATM   39  C21 UNL     1      -4.183  -3.642   7.455  1.00  0.00     0.255 C 
HETATM   40  C22 UNL     1      -3.841  -4.852   8.241  1.00  0.00     0.126 C 
HETATM   41  O11 UNL     1      -3.951  -3.621   6.232  1.00  0.00    -0.266 OA
ENDBRANCH  38  39
ENDBRANCH  32  38
BRANCH  33  42
HETATM   42  O12 UNL     1      -1.979  -1.821   7.708  1.00  0.00    -0.390 OA
ATOM     43  H12 UNL     1      -2.273  -2.714   7.571  1.00  0.00     0.210 HD
ENDBRANCH  33  42
ENDBRANCH  27  28
ENDBRANCH   6  27
BRANCH   5  44
HETATM   44  O6  UNL     1      -3.286   0.709   3.894  1.00  0.00    -0.390 OA
ATOM     45  H6  UNL     1      -3.816  -0.065   4.048  1.00  0.00     0.210 HD
ENDBRANCH   5  44
BRANCH   4  46
HETATM   46  O5  UNL     1      -1.889   3.090   6.172  1.00  0.00    -0.388 OA
HETATM   47  C12 UNL     1      -0.652   3.667   5.961  1.00  0.00     0.202 C 
ENDBRANCH   4  46
TORSDOF 17
ENDMDL
MODEL 2
REMARK VINA RESULT: -6.872810727      2.527      7.542
REMARK  17 active torsions:
REMARK  status: ('A' for Active; 'I' for Inactive)
REMARK    1  A    between atoms: C2_2  and  C3_3 
REMARK    2  A    between atoms: C4_4  and  C5_5 
REMARK    3  A    between atoms: C5_5  and  C6_7 
REMARK    4  A    between atoms: C7_9  and  O3_10 
REMARK    5  A    between atoms: O3_10  and  C8_11 
REMARK    6  A    between atoms: C9_12  and  O4_13 
REMARK    7  A    between atoms: C11_16  and  O5_17 
REMARK    8  A    between atoms: C13_19  and  O6_20 
REMARK    9  A    between atoms: C14_22  and  O7_23 
REMARK   10  A    between atoms: O7_23  and  C15_24 
REMARK   11  A    between atoms: C16_25  and  O8_26 
REMARK   12  A    between atoms: C18_29  and  O9_30 
REMARK   13  A    between atoms: C20_32  and  O10_33 
REMARK   14  A    between atoms: O10_33  and  C21_34 
REMARK   15  A    between atoms: C23_37  and  O12_38 
REMARK   16  A    between atoms: C24_40  and  O13_41 
REMARK   17  A    between atoms: C27_45  and  O14_46 
ROOT
HETATM    1  C8  UNL     1      -6.989  -0.124   5.368  1.00  0.00     0.185 C 
HETATM    2  C9  UNL     1      -7.691   1.206   5.631  1.00  0.00     0.152 C 
HETATM    3  C10 UNL     1      -9.163   0.925   5.300  1.00  0.00     0.069 C 
HETATM    4  C11 UNL     1      -9.242   0.664   3.832  1.00  0.00     0.154 C 
HETATM    5  C13 UNL     1      -8.504  -0.629   3.539  1.00  0.00     0.178 C 
HETATM    6  C14 UNL     1      -7.017  -0.422   3.873  1.00  0.00     0.185 C 
ENDROOT
BRANCH   1   7
HETATM    7  O3  UNL     1      -5.738  -0.089   5.913  1.00  0.00    -0.348 OA
BRANCH   7   8
HETATM    8  C7  UNL     1      -5.577  -0.881   7.030  1.00  0.00     0.290 C 
HETATM    9  O2  UNL     1      -5.127  -0.112   8.097  1.00  0.00    -0.343 OA
HETATM   10  C6  UNL     1      -4.970  -0.895   9.254  1.00  0.00     0.227 C 
HETATM   11  C27 UNL     1      -3.761  -1.768   8.935  1.00  0.00     0.161 C 
HETATM   12  C25 UNL     1      -4.249  -2.788   7.928  1.00  0.00     0.047 C 
HETATM   13  C24 UNL     1      -4.630  -2.008   6.682  1.00  0.00     0.179 C 
HETATM   14  C26 UNL     1      -3.127  -3.716   7.584  1.00  0.00     0.015 C 
BRANCH  10  15
HETATM   15  C5  UNL     1      -4.732   0.025  10.378  1.00  0.00     0.180 C 
HETATM   16  O1  UNL     1      -3.863   0.960  10.288  1.00  0.00    -0.290 OA
BRANCH  15  17
HETATM   17  C4  UNL     1      -5.460  -0.079  11.626  1.00  0.00     0.049 C 
HETATM   18  C3  UNL     1      -6.747  -0.323  11.748  1.00  0.00    -0.023 C 
BRANCH  18  19
HETATM   19  C2  UNL     1      -7.446  -0.421  13.050  1.00  0.00     0.023 C 
HETATM   20  C1  UNL     1      -6.477  -0.823  14.160  1.00  0.00     0.009 C 
ENDBRANCH  18  19
ENDBRANCH  15  17
ENDBRANCH  10  15
BRANCH  11  21
HETATM   21  O14 UNL     1      -2.837  -0.926   8.295  1.00  0.00    -0.392 OA
ATOM     22  H14 UNL     1      -2.636  -1.343   7.465  1.00  0.00     0.210 HD
ENDBRANCH  11  21
BRANCH  13  23
HETATM   23  O13 UNL     1      -3.459  -1.583   6.095  1.00  0.00    -0.390 OA
ATOM     24  H13 UNL     1      -3.257  -2.029   5.281  1.00  0.00     0.210 HD
ENDBRANCH  13  23
ENDBRANCH   7   8
ENDBRANCH   1   7
BRANCH   2  25
HETATM   25  O4  UNL     1      -7.641   1.448   7.000  1.00  0.00    -0.393 OA
ATOM     26  H4  UNL     1      -6.919   0.944   7.357  1.00  0.00     0.210 HD
ENDBRANCH   2  25
BRANCH   6  27
HETATM   27  O7  UNL     1      -6.600   0.612   3.092  1.00  0.00    -0.370 OA
BRANCH  27  28
HETATM   28  C15 UNL     1      -5.842   0.303   1.998  1.00  0.00     0.186 C 
HETATM   29  C16 UNL     1      -6.134   1.155   0.791  1.00  0.00     0.175 C 
HETATM   30  C17 UNL     1      -5.432   2.457   0.793  1.00  0.00     0.042 C 
HETATM   31  C18 UNL     1      -4.177   2.494   1.177  1.00  0.00     0.076 C 
HETATM   32  C20 UNL     1      -3.530   1.245   1.586  1.00  0.00     0.219 C 
HETATM   33  C23 UNL     1      -4.395   0.330   2.413  1.00  0.00     0.186 C 
BRANCH  29  34
HETATM   34  O8  UNL     1      -5.780   0.421  -0.345  1.00  0.00    -0.389 OA
ATOM     35  H8  UNL     1      -5.280   0.993  -0.916  1.00  0.00     0.210 HD
ENDBRANCH  29  34
BRANCH  31  36
HETATM   36  O9  UNL     1      -3.450   3.691   1.204  1.00  0.00    -0.358 OA
HETATM   37  C19 UNL     1      -3.962   4.858   1.823  1.00  0.00     0.209 C 
ENDBRANCH  31  36
BRANCH  32  38
HETATM   38  O10 UNL     1      -2.414   1.589   2.415  1.00  0.00    -0.307 OA
BRANCH  38  39
HETATM   39  C21 UNL     1      -1.148   1.085   2.213  1.00  0.00     0.255 C 
HETATM   40  C22 UNL     1       0.008   1.728   2.882  1.00  0.00     0.126 C 
HETATM   41  O11 UNL     1      -0.959   0.099   1.478  1.00  0.00    -0.266 OA
ENDBRANCH  38  39
ENDBRANCH  32  38
BRANCH  33  42
HETATM   42  O12 UNL     1      -3.801  -0.947   2.324  1.00  0.00    -0.390 OA
ATOM     43  H12 UNL     1      -4.243  -1.579   2.878  1.00  0.00     0.210 HD
ENDBRANCH  33  42
ENDBRANCH  27  28
ENDBRANCH   6  27
BRANCH   5  44
HETATM   44  O6  UNL     1      -9.035  -1.696   4.248  1.00  0.00    -0.390 OA
ATOM     45  H6  UNL     1      -9.981  -1.741   4.161  1.00  0.00     0.210 HD
ENDBRANCH   5  44
BRANCH   4  46
HETATM   46  O5  UNL     1      -8.726   1.661   3.049  1.00  0.00    -0.388 OA
HETATM   47  C12 UNL     1      -9.600   2.132   2.088  1.00  0.00     0.202 C 
ENDBRANCH   4  46
TORSDOF 17
ENDMDL
MODEL 3
REMARK VINA RESULT: -6.840257809      2.207      7.276
REMARK  17 active torsions:
REMARK  status: ('A' for Active; 'I' for Inactive)
REMARK    1  A    between atoms: C2_2  and  C3_3 
REMARK    2  A    between atoms: C4_4  and  C5_5 
REMARK    3  A    between atoms: C5_5  and  C6_7 
REMARK    4  A    between atoms: C7_9  and  O3_10 
REMARK    5  A    between atoms: O3_10  and  C8_11 
REMARK    6  A    between atoms: C9_12  and  O4_13 
REMARK    7  A    between atoms: C11_16  and  O5_17 
REMARK    8  A    between atoms: C13_19  and  O6_20 
REMARK    9  A    between atoms: C14_22  and  O7_23 
REMARK   10  A    between atoms: O7_23  and  C15_24 
REMARK   11  A    between atoms: C16_25  and  O8_26 
REMARK   12  A    between atoms: C18_29  and  O9_30 
REMARK   13  A    between atoms: C20_32  and  O10_33 
REMARK   14  A    between atoms: O10_33  and  C21_34 
REMARK   15  A    between atoms: C23_37  and  O12_38 
REMARK   16  A    between atoms: C24_40  and  O13_41 
REMARK   17  A    between atoms: C27_45  and  O14_46 
ROOT
HETATM    1  C8  UNL     1      -7.092  -0.040   5.460  1.00  0.00     0.185 C 
HETATM    2  C9  UNL     1      -7.884   1.237   5.732  1.00  0.00     0.152 C 
HETATM    3  C10 UNL     1      -9.327   0.869   5.360  1.00  0.00     0.069 C 
HETATM    4  C11 UNL     1      -9.355   0.634   3.886  1.00  0.00     0.154 C 
HETATM    5  C13 UNL     1      -8.528  -0.603   3.586  1.00  0.00     0.178 C 
HETATM    6  C14 UNL     1      -7.066  -0.308   3.960  1.00  0.00     0.185 C 
ENDROOT
BRANCH   1   7
HETATM    7  O3  UNL     1      -5.858   0.064   6.036  1.00  0.00    -0.348 OA
BRANCH   7   8
HETATM    8  C7  UNL     1      -5.667  -0.748   7.133  1.00  0.00     0.290 C 
HETATM    9  O2  UNL     1      -5.188   0.000   8.202  1.00  0.00    -0.343 OA
HETATM   10  C6  UNL     1      -5.000  -0.805   9.339  1.00  0.00     0.227 C 
HETATM   11  C27 UNL     1      -3.801  -1.672   8.971  1.00  0.00     0.161 C 
HETATM   12  C25 UNL     1      -4.316  -2.673   7.959  1.00  0.00     0.047 C 
HETATM   13  C24 UNL     1      -4.731  -1.869   6.738  1.00  0.00     0.179 C 
HETATM   14  C26 UNL     1      -3.205  -3.594   7.566  1.00  0.00     0.015 C 
BRANCH  10  15
HETATM   15  C5  UNL     1      -4.731   0.094  10.474  1.00  0.00     0.180 C 
HETATM   16  O1  UNL     1      -3.847   1.015  10.386  1.00  0.00    -0.290 OA
BRANCH  15  17
HETATM   17  C4  UNL     1      -5.444  -0.017  11.729  1.00  0.00     0.049 C 
HETATM   18  C3  UNL     1      -6.714  -0.328  11.868  1.00  0.00    -0.023 C 
BRANCH  18  19
HETATM   19  C2  UNL     1      -7.399  -0.429  13.178  1.00  0.00     0.023 C 
HETATM   20  C1  UNL     1      -6.423  -0.865  14.269  1.00  0.00     0.009 C 
ENDBRANCH  18  19
ENDBRANCH  15  17
ENDBRANCH  10  15
BRANCH  11  21
HETATM   21  O14 UNL     1      -2.894  -0.818   8.321  1.00  0.00    -0.392 OA
ATOM     22  H14 UNL     1      -2.028  -1.111   8.581  1.00  0.00     0.210 HD
ENDBRANCH  11  21
BRANCH  13  23
HETATM   23  O13 UNL     1      -3.576  -1.433   6.128  1.00  0.00    -0.390 OA
ATOM     24  H13 UNL     1      -3.241  -0.618   6.485  1.00  0.00     0.210 HD
ENDBRANCH  13  23
ENDBRANCH   7   8
ENDBRANCH   1   7
BRANCH   2  25
HETATM   25  O4  UNL     1      -7.881   1.454   7.106  1.00  0.00    -0.393 OA
ATOM     26  H4  UNL     1      -8.081   2.371   7.255  1.00  0.00     0.210 HD
ENDBRANCH   2  25
BRANCH   6  27
HETATM   27  O7  UNL     1      -6.699   0.767   3.209  1.00  0.00    -0.370 OA
BRANCH  27  28
HETATM   28  C15 UNL     1      -5.605   0.621   2.402  1.00  0.00     0.186 C 
HETATM   29  C16 UNL     1      -5.624   1.503   1.182  1.00  0.00     0.175 C 
HETATM   30  C17 UNL     1      -5.143   2.879   1.428  1.00  0.00     0.042 C 
HETATM   31  C18 UNL     1      -4.085   3.048   2.188  1.00  0.00     0.076 C 
HETATM   32  C20 UNL     1      -3.431   1.867   2.756  1.00  0.00     0.219 C 
HETATM   33  C23 UNL     1      -4.375   0.803   3.251  1.00  0.00     0.186 C 
BRANCH  29  34
HETATM   34  O8  UNL     1      -4.840   0.889   0.200  1.00  0.00    -0.389 OA
ATOM     35  H8  UNL     1      -5.150  -0.004   0.098  1.00  0.00     0.210 HD
ENDBRANCH  29  34
BRANCH  31  36
HETATM   36  O9  UNL     1      -3.573   4.322   2.464  1.00  0.00    -0.358 OA
HETATM   37  C19 UNL     1      -4.419   5.406   2.805  1.00  0.00     0.209 C 
ENDBRANCH  31  36
BRANCH  32  38
HETATM   38  O10 UNL     1      -2.683   2.296   3.900  1.00  0.00    -0.307 OA
BRANCH  38  39
HETATM   39  C21 UNL     1      -3.127   2.121   5.191  1.00  0.00     0.255 C 
HETATM   40  C22 UNL     1      -4.091   3.088   5.768  1.00  0.00     0.126 C 
HETATM   41  O11 UNL     1      -2.732   1.164   5.883  1.00  0.00    -0.266 OA
ENDBRANCH  38  39
ENDBRANCH  32  38
BRANCH  33  42
HETATM   42  O12 UNL     1      -3.614  -0.383   3.329  1.00  0.00    -0.390 OA
ATOM     43  H12 UNL     1      -2.878  -0.291   3.922  1.00  0.00     0.210 HD
ENDBRANCH  33  42
ENDBRANCH  27  28
ENDBRANCH   6  27
BRANCH   5  44
HETATM   44  O6  UNL     1      -9.006  -1.716   4.262  1.00  0.00    -0.390 OA
ATOM     45  H6  UNL     1      -8.305  -2.196   4.689  1.00  0.00     0.210 HD
ENDBRANCH   5  44
BRANCH   4  46
HETATM   46  O5  UNL     1      -8.887   1.678   3.134  1.00  0.00    -0.388 OA
HETATM   47  C12 UNL     1      -9.757   2.097   2.147  1.00  0.00     0.202 C 
ENDBRANCH   4  46
TORSDOF 17
ENDMDL
MODEL 4
REMARK VINA RESULT: -6.768023627      2.746      6.710
REMARK  17 active torsions:
REMARK  status: ('A' for Active; 'I' for Inactive)
REMARK    1  A    between atoms: C2_2  and  C3_3 
REMARK    2  A    between atoms: C4_4  and  C5_5 
REMARK    3  A    between atoms: C5_5  and  C6_7 
REMARK    4  A    between atoms: C7_9  and  O3_10 
REMARK    5  A    between atoms: O3_10  and  C8_11 
REMARK    6  A    between atoms: C9_12  and  O4_13 
REMARK    7  A    between atoms: C11_16  and  O5_17 
REMARK    8  A    between atoms: C13_19  and  O6_20 
REMARK    9  A    between atoms: C14_22  and  O7_23 
REMARK   10  A    between atoms: O7_23  and  C15_24 
REMARK   11  A    between atoms: C16_25  and  O8_26 
REMARK   12  A    between atoms: C18_29  and  O9_30 
REMARK   13  A    between atoms: C20_32  and  O10_33 
REMARK   14  A    between atoms: O10_33  and  C21_34 
REMARK   15  A    between atoms: C23_37  and  O12_38 
REMARK   16  A    between atoms: C24_40  and  O13_41 
REMARK   17  A    between atoms: C27_45  and  O14_46 
ROOT
HETATM    1  C8  UNL     1      -4.451   0.447   3.630  1.00  0.00     0.185 C 
HETATM    2  C9  UNL     1      -4.533  -0.484   2.423  1.00  0.00     0.152 C 
HETATM    3  C10 UNL     1      -3.486   0.072   1.449  1.00  0.00     0.069 C 
HETATM    4  C11 UNL     1      -3.965   1.415   1.008  1.00  0.00     0.154 C 
HETATM    5  C13 UNL     1      -3.942   2.346   2.206  1.00  0.00     0.178 C 
HETATM    6  C14 UNL     1      -4.959   1.829   3.238  1.00  0.00     0.185 C 
ENDROOT
BRANCH   1   7
HETATM    7  O3  UNL     1      -5.113  -0.119   4.682  1.00  0.00    -0.348 OA
BRANCH   7   8
HETATM    8  C7  UNL     1      -4.297  -0.558   5.704  1.00  0.00     0.290 C 
HETATM    9  O2  UNL     1      -4.463  -1.925   5.892  1.00  0.00    -0.343 OA
HETATM   10  C6  UNL     1      -3.629  -2.399   6.920  1.00  0.00     0.227 C 
HETATM   11  C27 UNL     1      -4.245  -1.807   8.183  1.00  0.00     0.161 C 
HETATM   12  C25 UNL     1      -3.900  -0.333   8.154  1.00  0.00     0.047 C 
HETATM   13  C24 UNL     1      -4.616   0.246   6.944  1.00  0.00     0.179 C 
HETATM   14  C26 UNL     1      -4.439   0.324   9.385  1.00  0.00     0.015 C 
BRANCH  10  15
HETATM   15  C5  UNL     1      -3.686  -3.870   6.889  1.00  0.00     0.180 C 
HETATM   16  O1  UNL     1      -3.662  -4.504   5.777  1.00  0.00    -0.290 OA
BRANCH  15  17
HETATM   17  C4  UNL     1      -3.771  -4.663   8.097  1.00  0.00     0.049 C 
HETATM   18  C3  UNL     1      -4.414  -5.803   8.226  1.00  0.00    -0.023 C 
BRANCH  18  19
HETATM   19  C2  UNL     1      -4.471  -6.578   9.487  1.00  0.00     0.023 C 
HETATM   20  C1  UNL     1      -3.759  -7.920   9.333  1.00  0.00     0.009 C 
ENDBRANCH  18  19
ENDBRANCH  15  17
ENDBRANCH  10  15
BRANCH  11  21
HETATM   21  O14 UNL     1      -5.635  -1.937   8.031  1.00  0.00    -0.392 OA
ATOM     22  H14 UNL     1      -6.019  -1.214   8.513  1.00  0.00     0.210 HD
ENDBRANCH  11  21
BRANCH  13  23
HETATM   23  O13 UNL     1      -5.958   0.285   7.247  1.00  0.00    -0.390 OA
ATOM     24  H13 UNL     1      -6.383   1.095   6.988  1.00  0.00     0.210 HD
ENDBRANCH  13  23
ENDBRANCH   7   8
ENDBRANCH   1   7
BRANCH   2  25
HETATM   25  O4  UNL     1      -4.069  -1.735   2.819  1.00  0.00    -0.393 OA
ATOM     26  H4  UNL     1      -4.745  -2.372   2.618  1.00  0.00     0.210 HD
ENDBRANCH   2  25
BRANCH   6  27
HETATM   27  O7  UNL     1      -6.163   1.818   2.600  1.00  0.00    -0.370 OA
BRANCH  27  28
HETATM   28  C15 UNL     1      -7.158   2.589   3.132  1.00  0.00     0.186 C 
HETATM   29  C16 UNL     1      -7.978   3.324   2.104  1.00  0.00     0.175 C 
HETATM   30  C17 UNL     1      -9.057   2.509   1.506  1.00  0.00     0.042 C 
HETATM   31  C18 UNL     1      -9.765   1.729   2.289  1.00  0.00     0.076 C 
HETATM   32  C20 UNL     1      -9.453   1.701   3.721  1.00  0.00     0.219 C 
HETATM   33  C23 UNL     1      -7.982   1.720   4.044  1.00  0.00     0.186 C 
BRANCH  29  34
HETATM   34  O8  UNL     1      -8.517   4.457   2.720  1.00  0.00    -0.389 OA
ATOM     35  H8  UNL     1      -9.128   4.855   2.111  1.00  0.00     0.210 HD
ENDBRANCH  29  34
BRANCH  31  36
HETATM   36  O9  UNL     1     -10.802   0.930   1.791  1.00  0.00    -0.358 OA
HETATM   37  C19 UNL     1     -11.997   1.495   1.282  1.00  0.00     0.209 C 
ENDBRANCH  31  36
BRANCH  32  38
HETATM   38  O10 UNL     1      -9.958   0.469   4.248  1.00  0.00    -0.307 OA
BRANCH  38  39
HETATM   39  C21 UNL     1     -10.595   0.381   5.465  1.00  0.00     0.255 C 
HETATM   40  C22 UNL     1     -12.076   0.351   5.512  1.00  0.00     0.126 C 
HETATM   41  O11 UNL     1      -9.947   0.328   6.527  1.00  0.00    -0.266 OA
ENDBRANCH  38  39
ENDBRANCH  32  38
BRANCH  33  42
HETATM   42  O12 UNL     1      -7.888   2.136   5.389  1.00  0.00    -0.390 OA
ATOM     43  H12 UNL     1      -8.503   1.672   5.945  1.00  0.00     0.210 HD
ENDBRANCH  33  42
ENDBRANCH  27  28
ENDBRANCH   6  27
BRANCH   5  44
HETATM   44  O6  UNL     1      -2.672   2.442   2.757  1.00  0.00    -0.390 OA
ATOM     45  H6  UNL     1      -2.682   2.283   3.694  1.00  0.00     0.210 HD
ENDBRANCH   5  44
BRANCH   4  46
HETATM   46  O5  UNL     1      -5.220   1.420   0.461  1.00  0.00    -0.388 OA
HETATM   47  C12 UNL     1      -5.404   2.373  -0.522  1.00  0.00     0.202 C 
ENDBRANCH   4  46
TORSDOF 17
ENDMDL
MODEL 5
REMARK VINA RESULT: -6.729358368      2.611      7.815
REMARK  17 active torsions:
REMARK  status: ('A' for Active; 'I' for Inactive)
REMARK    1  A    between atoms: C2_2  and  C3_3 
REMARK    2  A    between atoms: C4_4  and  C5_5 
REMARK    3  A    between atoms: C5_5  and  C6_7 
REMARK    4  A    between atoms: C7_9  and  O3_10 
REMARK    5  A    between atoms: O3_10  and  C8_11 
REMARK    6  A    between atoms: C9_12  and  O4_13 
REMARK    7  A    between atoms: C11_16  and  O5_17 
REMARK    8  A    between atoms: C13_19  and  O6_20 
REMARK    9  A    between atoms: C14_22  and  O7_23 
REMARK   10  A    between atoms: O7_23  and  C15_24 
REMARK   11  A    between atoms: C16_25  and  O8_26 
REMARK   12  A    between atoms: C18_29  and  O9_30 
REMARK   13  A    between atoms: C20_32  and  O10_33 
REMARK   14  A    between atoms: O10_33  and  C21_34 
REMARK   15  A    between atoms: C23_37  and  O12_38 
REMARK   16  A    between atoms: C24_40  and  O13_41 
REMARK   17  A    between atoms: C27_45  and  O14_46 
ROOT
HETATM    1  C8  UNL     1      -6.677  -0.067   6.194  1.00  0.00     0.185 C 
HETATM    2  C9  UNL     1      -7.989   0.656   5.899  1.00  0.00     0.152 C 
HETATM    3  C10 UNL     1      -8.927  -0.456   5.411  1.00  0.00     0.069 C 
HETATM    4  C11 UNL     1      -8.387  -0.946   4.108  1.00  0.00     0.154 C 
HETATM    5  C13 UNL     1      -7.055  -1.623   4.369  1.00  0.00     0.178 C 
HETATM    6  C14 UNL     1      -6.069  -0.563   4.888  1.00  0.00     0.185 C 
ENDROOT
BRANCH   1   7
HETATM    7  O3  UNL     1      -5.862   0.754   6.919  1.00  0.00    -0.348 OA
BRANCH   7   8
HETATM    8  C7  UNL     1      -4.822   0.113   7.557  1.00  0.00     0.290 C 
HETATM    9  O2  UNL     1      -4.917   0.302   8.931  1.00  0.00    -0.343 OA
HETATM   10  C6  UNL     1      -3.874  -0.356   9.606  1.00  0.00     0.227 C 
HETATM   11  C27 UNL     1      -2.638   0.458   9.239  1.00  0.00     0.161 C 
HETATM   12  C25 UNL     1      -2.341   0.119   7.793  1.00  0.00     0.047 C 
HETATM   13  C24 UNL     1      -3.521   0.631   6.984  1.00  0.00     0.179 C 
HETATM   14  C26 UNL     1      -1.112   0.852   7.357  1.00  0.00     0.015 C 
BRANCH  10  15
HETATM   15  C5  UNL     1      -4.184  -0.311  11.044  1.00  0.00     0.180 C 
HETATM   16  O1  UNL     1      -3.252  -0.200  11.914  1.00  0.00    -0.290 OA
BRANCH  15  17
HETATM   17  C4  UNL     1      -5.542  -0.388  11.541  1.00  0.00     0.049 C 
HETATM   18  C3  UNL     1      -5.905  -0.318  12.804  1.00  0.00    -0.023 C 
BRANCH  18  19
HETATM   19  C2  UNL     1      -7.311  -0.401  13.263  1.00  0.00     0.023 C 
HETATM   20  C1  UNL     1      -8.241  -0.748  12.103  1.00  0.00     0.009 C 
ENDBRANCH  18  19
ENDBRANCH  15  17
ENDBRANCH  10  15
BRANCH  11  21
HETATM   21  O14 UNL     1      -3.032   1.805   9.302  1.00  0.00    -0.392 OA
ATOM     22  H14 UNL     1      -3.981   1.797   9.334  1.00  0.00     0.210 HD
ENDBRANCH  11  21
BRANCH  13  23
HETATM   23  O13 UNL     1      -3.435   2.005   6.966  1.00  0.00    -0.390 OA
ATOM     24  H13 UNL     1      -2.550   2.333   7.081  1.00  0.00     0.210 HD
ENDBRANCH  13  23
ENDBRANCH   7   8
ENDBRANCH   1   7
BRANCH   2  25
HETATM   25  O4  UNL     1      -8.511   1.099   7.111  1.00  0.00    -0.393 OA
ATOM     26  H4  UNL     1      -8.020   1.869   7.373  1.00  0.00     0.210 HD
ENDBRANCH   2  25
BRANCH   6  27
HETATM   27  O7  UNL     1      -5.996   0.386   3.913  1.00  0.00    -0.370 OA
BRANCH  27  28
HETATM   28  C15 UNL     1      -4.789   0.556   3.296  1.00  0.00     0.186 C 
HETATM   29  C16 UNL     1      -4.683  -0.131   1.960  1.00  0.00     0.175 C 
HETATM   30  C17 UNL     1      -5.260   0.644   0.840  1.00  0.00     0.042 C 
HETATM   31  C18 UNL     1      -5.037   1.937   0.790  1.00  0.00     0.076 C 
HETATM   32  C20 UNL     1      -4.228   2.552   1.846  1.00  0.00     0.219 C 
HETATM   33  C23 UNL     1      -4.504   2.033   3.233  1.00  0.00     0.186 C 
BRANCH  29  34
HETATM   34  O8  UNL     1      -3.330  -0.389   1.719  1.00  0.00    -0.389 OA
ATOM     35  H8  UNL     1      -3.222  -0.516   0.783  1.00  0.00     0.210 HD
ENDBRANCH  29  34
BRANCH  31  36
HETATM   36  O9  UNL     1      -5.551   2.734  -0.241  1.00  0.00    -0.358 OA
HETATM   37  C19 UNL     1      -6.942   2.964  -0.379  1.00  0.00     0.209 C 
ENDBRANCH  31  36
BRANCH  32  38
HETATM   38  O10 UNL     1      -4.548   3.948   1.876  1.00  0.00    -0.307 OA
BRANCH  38  39
HETATM   39  C21 UNL     1      -3.596   4.936   1.764  1.00  0.00     0.255 C 
HETATM   40  C22 UNL     1      -3.898   6.154   0.975  1.00  0.00     0.126 C 
HETATM   41  O11 UNL     1      -2.485   4.823   2.314  1.00  0.00    -0.266 OA
ENDBRANCH  38  39
ENDBRANCH  32  38
BRANCH  33  42
HETATM   42  O12 UNL     1      -3.376   2.381   4.006  1.00  0.00    -0.390 OA
ATOM     43  H12 UNL     1      -3.258   3.323   4.052  1.00  0.00     0.210 HD
ENDBRANCH  33  42
ENDBRANCH  27  28
ENDBRANCH   6  27
BRANCH   5  44
HETATM   44  O6  UNL     1      -7.181  -2.674   5.267  1.00  0.00    -0.390 OA
ATOM     45  H6  UNL     1      -6.386  -3.194   5.314  1.00  0.00     0.210 HD
ENDBRANCH   5  44
BRANCH   4  46
HETATM   46  O5  UNL     1      -8.216   0.028   3.160  1.00  0.00    -0.388 OA
HETATM   47  C12 UNL     1      -8.612  -0.344   1.890  1.00  0.00     0.202 C 
ENDBRANCH   4  46
TORSDOF 17
ENDMDL
