MODEL 1
REMARK VINA RESULT: -7.106053072      0.000      0.000
REMARK  13 active torsions:
REMARK  status: ('A' for Active; 'I' for Inactive)
REMARK    1  A    between atoms: O1_2  and  C2_3 
REMARK    2  A    between atoms: C2_3  and  O2_4 
REMARK    3  A    between atoms: O2_4  and  C3_5 
REMARK    4  A    between atoms: C3_5  and  C4_6 
REMARK    5  A    between atoms: C5_10  and  O6_11 
REMARK    6  A    between atoms: C5_10  and  C20_37 
REMARK    7  A    between atoms: O6_11  and  C6_12 
REMARK    8  A    between atoms: C7_13  and  O7_14 
REMARK    9  A    between atoms: C9_17  and  O8_18 
REMARK   10  A    between atoms: C11_20  and  O9_21 
REMARK   11  A    between atoms: C12_23  and  N1_24 
REMARK       I    between atoms: N1_24  and  C13_26 
REMARK   12  A    between atoms: C18_33  and  C19_34 
REMARK   13  A    between atoms: C19_34  and  O11_35 
ROOT
HETATM    1  C6  UNL     1      -8.934  -0.318   4.491  1.00  0.00     0.164 C 
HETATM    2  C7  UNL     1     -10.318   0.068   5.149  1.00  0.00     0.154 C 
HETATM    3  C8  UNL     1     -10.927   1.243   4.527  1.00  0.00     0.056 C 
HETATM    4  C9  UNL     1     -12.420   1.228   4.378  1.00  0.00     0.158 C 
HETATM    5  C11 UNL     1     -12.704   1.618   2.940  1.00  0.00     0.170 C 
HETATM    6  C12 UNL     1     -11.507   2.452   2.655  1.00  0.00     0.121 C 
HETATM    7  C15 UNL     1     -10.353   1.654   3.181  1.00  0.00     0.038 C 
HETATM    8  C16 UNL     1      -9.842   0.578   2.348  1.00  0.00     0.108 C 
HETATM    9  C17 UNL     1      -8.629   0.939   1.603  1.00  0.00     0.065 C 
HETATM   10  N2  UNL     1      -7.667   1.244   0.996  1.00  0.00    -0.197 NA
HETATM   11  C18 UNL     1      -9.444  -0.693   3.113  1.00  0.00     0.059 C 
ENDROOT
BRANCH  11  12
HETATM   12  C19 UNL     1      -8.535  -1.546   2.302  1.00  0.00     0.172 C 
BRANCH  12  13
HETATM   13  O11 UNL     1      -9.232  -2.663   1.898  1.00  0.00    -0.400 OA
ATOM     14  H11 UNL     1      -9.614  -2.487   1.047  1.00  0.00     0.209 HD
ENDBRANCH  12  13
ENDBRANCH  11  12
BRANCH   6  15
HETATM   15  N1  UNL     1     -11.393   2.969   1.345  1.00  0.00    -0.354 N 
HETATM   16  C13 UNL     1     -10.672   4.097   0.921  1.00  0.00     0.214 C 
HETATM   17  C14 UNL     1     -10.649   4.513  -0.484  1.00  0.00     0.117 C 
HETATM   18  O10 UNL     1     -10.039   4.750   1.774  1.00  0.00    -0.274 OA
ATOM     19  H1  UNL     1     -11.897   2.461   0.619  1.00  0.00     0.163 HD
ENDBRANCH   6  15
BRANCH   1  20
HETATM   20  O6  UNL     1      -8.440  -1.383   5.104  1.00  0.00    -0.324 OA
BRANCH  20  21
HETATM   21  C5  UNL     1      -7.313  -1.479   5.844  1.00  0.00     0.289 C 
HETATM   22  O5  UNL     1      -6.873  -2.684   6.240  1.00  0.00    -0.282 OA
HETATM   23  C3  UNL     1      -5.741  -3.107   5.440  1.00  0.00     0.293 C 
HETATM   24  C23 UNL     1      -5.330  -1.881   4.801  1.00  0.00     0.127 C 
HETATM   25  O12 UNL     1      -6.289  -0.897   5.075  1.00  0.00    -0.316 OA
HETATM   26  C24 UNL     1      -4.017  -1.278   5.204  1.00  0.00     0.052 C 
HETATM   27  C25 UNL     1      -5.290  -1.926   3.270  1.00  0.00     0.052 C 
BRANCH  23  28
HETATM   28  O2  UNL     1      -4.962  -3.681   6.361  1.00  0.00    -0.319 OA
BRANCH  28  29
HETATM   29  C2  UNL     1      -5.115  -3.832   7.649  1.00  0.00     0.341 C 
BRANCH  29  30
HETATM   30  O1  UNL     1      -5.100  -4.988   8.354  1.00  0.00    -0.372 OA
HETATM   31  C1  UNL     1      -4.696  -6.022   7.506  1.00  0.00     0.204 C 
ENDBRANCH  29  30
ENDBRANCH  28  29
ENDBRANCH  23  28
BRANCH  23  32
HETATM   32  C4  UNL     1      -6.300  -4.139   4.512  1.00  0.00     0.242 C 
HETATM   33  O3  UNL     1      -5.551  -5.095   4.223  1.00  0.00    -0.644 OA
HETATM   34  O4  UNL     1      -7.541  -4.136   3.946  1.00  0.00    -0.644 OA
ENDBRANCH  23  32
BRANCH  21  35
HETATM   35  C20 UNL     1      -7.415  -0.546   7.063  1.00  0.00     0.071 C 
HETATM   36  C21 UNL     1      -6.472   0.666   6.919  1.00  0.00     0.017 C 
HETATM   37  C22 UNL     1      -6.974  -1.198   8.350  1.00  0.00     0.017 C 
ENDBRANCH  21  35
ENDBRANCH  20  21
ENDBRANCH   1  20
BRANCH   2  38
HETATM   38  O7  UNL     1     -11.006  -1.132   5.082  1.00  0.00    -0.392 OA
ATOM     39  H7  UNL     1     -11.527  -1.099   5.876  1.00  0.00     0.210 HD
ENDBRANCH   2  38
BRANCH   4  40
HETATM   40  O8  UNL     1     -13.030   0.045   4.738  1.00  0.00    -0.388 OA
HETATM   41  C10 UNL     1     -14.409   0.127   4.830  1.00  0.00     0.202 C 
ENDBRANCH   4  40
BRANCH   5  42
HETATM   42  O9  UNL     1     -12.895   0.533   2.132  1.00  0.00    -0.391 OA
ATOM     43  H9  UNL     1     -13.215   0.772   1.270  1.00  0.00     0.210 HD
ENDBRANCH   5  42
TORSDOF 13
ENDMDL
MODEL 2
REMARK VINA RESULT: -7.000561337      4.023      8.353
REMARK  13 active torsions:
REMARK  status: ('A' for Active; 'I' for Inactive)
REMARK    1  A    between atoms: O1_2  and  C2_3 
REMARK    2  A    between atoms: C2_3  and  O2_4 
REMARK    3  A    between atoms: O2_4  and  C3_5 
REMARK    4  A    between atoms: C3_5  and  C4_6 
REMARK    5  A    between atoms: C5_10  and  O6_11 
REMARK    6  A    between atoms: C5_10  and  C20_37 
REMARK    7  A    between atoms: O6_11  and  C6_12 
REMARK    8  A    between atoms: C7_13  and  O7_14 
REMARK    9  A    between atoms: C9_17  and  O8_18 
REMARK   10  A    between atoms: C11_20  and  O9_21 
REMARK   11  A    between atoms: C12_23  and  N1_24 
REMARK       I    between atoms: N1_24  and  C13_26 
REMARK   12  A    between atoms: C18_33  and  C19_34 
REMARK   13  A    between atoms: C19_34  and  O11_35 
ROOT
HETATM    1  C6  UNL     1      -5.590  -1.182   7.491  1.00  0.00     0.164 C 
HETATM    2  C7  UNL     1      -5.934  -1.599   8.976  1.00  0.00     0.154 C 
HETATM    3  C8  UNL     1      -4.749  -1.666   9.829  1.00  0.00     0.056 C 
HETATM    4  C9  UNL     1      -4.911  -1.196  11.245  1.00  0.00     0.158 C 
HETATM    5  C11 UNL     1      -3.759  -0.244  11.507  1.00  0.00     0.170 C 
HETATM    6  C12 UNL     1      -2.749  -0.791  10.563  1.00  0.00     0.121 C 
HETATM    7  C15 UNL     1      -3.498  -0.998   9.282  1.00  0.00     0.038 C 
HETATM    8  C16 UNL     1      -3.713   0.162   8.432  1.00  0.00     0.108 C 
HETATM    9  C17 UNL     1      -2.773   0.246   7.307  1.00  0.00     0.065 C 
HETATM   10  N2  UNL     1      -2.003   0.314   6.418  1.00  0.00    -0.197 NA
HETATM   11  C18 UNL     1      -5.096   0.225   7.767  1.00  0.00     0.059 C 
ENDROOT
BRANCH  11  12
HETATM   12  C19 UNL     1      -5.089   1.144   6.598  1.00  0.00     0.172 C 
BRANCH  12  13
HETATM   13  O11 UNL     1      -6.271   1.850   6.594  1.00  0.00    -0.400 OA
ATOM     14  H11 UNL     1      -6.133   2.663   6.123  1.00  0.00     0.209 HD
ENDBRANCH  12  13
ENDBRANCH  11  12
BRANCH   6  15
HETATM   15  N1  UNL     1      -1.516  -0.107  10.489  1.00  0.00    -0.354 N 
HETATM   16  C13 UNL     1      -0.567   0.077  11.507  1.00  0.00     0.214 C 
HETATM   17  C14 UNL     1       0.677   0.817  11.277  1.00  0.00     0.117 C 
HETATM   18  O10 UNL     1      -0.803  -0.409  12.631  1.00  0.00    -0.274 OA
ATOM     19  H1  UNL     1      -1.287   0.305   9.584  1.00  0.00     0.163 HD
ENDBRANCH   6  15
BRANCH   1  20
HETATM   20  O6  UNL     1      -6.706  -1.146   6.777  1.00  0.00    -0.324 OA
BRANCH  20  21
HETATM   21  C5  UNL     1      -6.930  -1.652   5.544  1.00  0.00     0.289 C 
HETATM   22  O5  UNL     1      -8.044  -2.363   5.305  1.00  0.00    -0.282 OA
HETATM   23  C3  UNL     1      -9.012  -1.572   4.571  1.00  0.00     0.293 C 
HETATM   24  C23 UNL     1      -8.215  -0.474   4.078  1.00  0.00     0.127 C 
HETATM   25  O12 UNL     1      -6.946  -0.552   4.667  1.00  0.00    -0.316 OA
HETATM   26  C24 UNL     1      -7.963  -0.388   2.602  1.00  0.00     0.052 C 
HETATM   27  C25 UNL     1      -8.711   0.919   4.477  1.00  0.00     0.052 C 
BRANCH  23  28
HETATM   28  O2  UNL     1      -9.509  -2.477   3.723  1.00  0.00    -0.319 OA
BRANCH  28  29
HETATM   29  C2  UNL     1      -8.921  -3.338   2.936  1.00  0.00     0.341 C 
BRANCH  29  30
HETATM   30  O1  UNL     1      -9.492  -4.111   1.982  1.00  0.00    -0.372 OA
HETATM   31  C1  UNL     1      -9.076  -5.432   2.170  1.00  0.00     0.204 C 
ENDBRANCH  29  30
ENDBRANCH  28  29
ENDBRANCH  23  28
BRANCH  23  32
HETATM   32  C4  UNL     1     -10.039  -1.193   5.590  1.00  0.00     0.242 C 
HETATM   33  O3  UNL     1     -11.230  -1.210   5.216  1.00  0.00    -0.644 OA
HETATM   34  O4  UNL     1      -9.805  -0.823   6.881  1.00  0.00    -0.644 OA
ENDBRANCH  23  32
BRANCH  21  35
HETATM   35  C20 UNL     1      -5.702  -2.455   5.083  1.00  0.00     0.071 C 
HETATM   36  C21 UNL     1      -5.026  -1.792   3.865  1.00  0.00     0.017 C 
HETATM   37  C22 UNL     1      -6.045  -3.841   4.599  1.00  0.00     0.017 C 
ENDBRANCH  21  35
ENDBRANCH  20  21
ENDBRANCH   1  20
BRANCH   2  38
HETATM   38  O7  UNL     1      -6.920  -0.682   9.304  1.00  0.00    -0.392 OA
ATOM     39  H7  UNL     1      -6.415   0.117   9.398  1.00  0.00     0.210 HD
ENDBRANCH   2  38
BRANCH   4  40
HETATM   40  O8  UNL     1      -6.137  -0.638  11.537  1.00  0.00    -0.388 OA
HETATM   41  C10 UNL     1      -6.622  -0.969  12.791  1.00  0.00     0.202 C 
ENDBRANCH   4  40
BRANCH   5  42
HETATM   42  O9  UNL     1      -4.110   1.064  11.330  1.00  0.00    -0.391 OA
ATOM     43  H9  UNL     1      -4.012   1.349  10.429  1.00  0.00     0.210 HD
ENDBRANCH   5  42
TORSDOF 13
ENDMDL
MODEL 3
REMARK VINA RESULT: -6.720705260      3.778      8.074
REMARK  13 active torsions:
REMARK  status: ('A' for Active; 'I' for Inactive)
REMARK    1  A    between atoms: O1_2  and  C2_3 
REMARK    2  A    between atoms: C2_3  and  O2_4 
REMARK    3  A    between atoms: O2_4  and  C3_5 
REMARK    4  A    between atoms: C3_5  and  C4_6 
REMARK    5  A    between atoms: C5_10  and  O6_11 
REMARK    6  A    between atoms: C5_10  and  C20_37 
REMARK    7  A    between atoms: O6_11  and  C6_12 
REMARK    8  A    between atoms: C7_13  and  O7_14 
REMARK    9  A    between atoms: C9_17  and  O8_18 
REMARK   10  A    between atoms: C11_20  and  O9_21 
REMARK   11  A    between atoms: C12_23  and  N1_24 
REMARK       I    between atoms: N1_24  and  C13_26 
REMARK   12  A    between atoms: C18_33  and  C19_34 
REMARK   13  A    between atoms: C19_34  and  O11_35 
ROOT
HETATM    1  C6  UNL     1      -5.589  -0.241   6.465  1.00  0.00     0.164 C 
HETATM    2  C7  UNL     1      -6.116  -0.976   7.761  1.00  0.00     0.154 C 
HETATM    3  C8  UNL     1      -5.036  -1.356   8.669  1.00  0.00     0.056 C 
HETATM    4  C9  UNL     1      -5.318  -1.235  10.138  1.00  0.00     0.158 C 
HETATM    5  C11 UNL     1      -4.141  -0.484  10.732  1.00  0.00     0.170 C 
HETATM    6  C12 UNL     1      -3.074  -0.872   9.772  1.00  0.00     0.121 C 
HETATM    7  C15 UNL     1      -3.693  -0.690   8.421  1.00  0.00     0.038 C 
HETATM    8  C16 UNL     1      -3.740   0.658   7.876  1.00  0.00     0.108 C 
HETATM    9  C17 UNL     1      -2.681   0.929   6.895  1.00  0.00     0.065 C 
HETATM   10  N2  UNL     1      -1.818   1.144   6.123  1.00  0.00    -0.197 NA
HETATM   11  C18 UNL     1      -5.036   1.005   7.130  1.00  0.00     0.059 C 
ENDROOT
BRANCH  11  12
HETATM   12  C19 UNL     1      -4.844   2.178   6.237  1.00  0.00     0.172 C 
BRANCH  12  13
HETATM   13  O11 UNL     1      -5.969   2.969   6.310  1.00  0.00    -0.400 OA
ATOM     14  H11 UNL     1      -6.423   2.922   5.477  1.00  0.00     0.209 HD
ENDBRANCH  12  13
ENDBRANCH  11  12
BRANCH   6  15
HETATM   15  N1  UNL     1      -1.797  -0.304   9.982  1.00  0.00    -0.354 N 
HETATM   16  C13 UNL     1      -1.159  -0.039  11.204  1.00  0.00     0.214 C 
HETATM   17  C14 UNL     1       0.177   0.559  11.262  1.00  0.00     0.117 C 
HETATM   18  O10 UNL     1      -1.759  -0.326  12.259  1.00  0.00    -0.274 OA
ATOM     19  H1  UNL     1      -1.276  -0.056   9.141  1.00  0.00     0.163 HD
ENDBRANCH   6  15
BRANCH   1  20
HETATM   20  O6  UNL     1      -6.617   0.069   5.689  1.00  0.00    -0.324 OA
BRANCH  20  21
HETATM   21  C5  UNL     1      -7.009  -0.522   4.539  1.00  0.00     0.289 C 
HETATM   22  O5  UNL     1      -7.795  -1.609   4.581  1.00  0.00    -0.282 OA
HETATM   23  C3  UNL     1      -9.163  -1.269   4.243  1.00  0.00     0.293 C 
HETATM   24  C23 UNL     1      -9.025   0.032   3.636  1.00  0.00     0.127 C 
HETATM   25  O12 UNL     1      -7.702   0.461   3.809  1.00  0.00    -0.316 OA
HETATM   26  C24 UNL     1      -9.294   0.161   2.166  1.00  0.00     0.052 C 
HETATM   27  C25 UNL     1      -9.851   1.146   4.289  1.00  0.00     0.052 C 
BRANCH  23  28
HETATM   28  O2  UNL     1      -9.526  -2.322   3.505  1.00  0.00    -0.319 OA
BRANCH  28  29
HETATM   29  C2  UNL     1      -8.819  -3.238   2.900  1.00  0.00     0.341 C 
BRANCH  29  30
HETATM   30  O1  UNL     1      -9.178  -3.987   1.830  1.00  0.00    -0.372 OA
HETATM   31  C1  UNL     1      -9.197  -5.331   2.213  1.00  0.00     0.204 C 
ENDBRANCH  29  30
ENDBRANCH  28  29
ENDBRANCH  23  28
BRANCH  23  32
HETATM   32  C4  UNL     1      -9.887  -1.276   5.553  1.00  0.00     0.242 C 
HETATM   33  O3  UNL     1     -11.021  -1.798   5.562  1.00  0.00    -0.644 OA
HETATM   34  O4  UNL     1      -9.436  -0.763   6.733  1.00  0.00    -0.644 OA
ENDBRANCH  23  32
BRANCH  21  35
HETATM   35  C20 UNL     1      -5.779  -0.813   3.662  1.00  0.00     0.071 C 
HETATM   36  C21 UNL     1      -6.018  -0.375   2.202  1.00  0.00     0.017 C 
HETATM   37  C22 UNL     1      -5.461  -2.283   3.553  1.00  0.00     0.017 C 
ENDBRANCH  21  35
ENDBRANCH  20  21
ENDBRANCH   1  20
BRANCH   2  38
HETATM   38  O7  UNL     1      -7.069  -0.082   8.223  1.00  0.00    -0.392 OA
ATOM     39  H7  UNL     1      -7.867  -0.590   8.134  1.00  0.00     0.210 HD
ENDBRANCH   2  38
BRANCH   4  40
HETATM   40  O8  UNL     1      -6.529  -0.657  10.454  1.00  0.00    -0.388 OA
HETATM   41  C10 UNL     1      -7.093  -1.135  11.625  1.00  0.00     0.202 C 
ENDBRANCH   4  40
BRANCH   5  42
HETATM   42  O9  UNL     1      -4.385   0.854  10.861  1.00  0.00    -0.391 OA
ATOM     43  H9  UNL     1      -4.452   1.294  10.023  1.00  0.00     0.210 HD
ENDBRANCH   5  42
TORSDOF 13
ENDMDL
MODEL 4
REMARK VINA RESULT: -6.692669700      1.736      2.153
REMARK  13 active torsions:
REMARK  status: ('A' for Active; 'I' for Inactive)
REMARK    1  A    between atoms: O1_2  and  C2_3 
REMARK    2  A    between atoms: C2_3  and  O2_4 
REMARK    3  A    between atoms: O2_4  and  C3_5 
REMARK    4  A    between atoms: C3_5  and  C4_6 
REMARK    5  A    between atoms: C5_10  and  O6_11 
REMARK    6  A    between atoms: C5_10  and  C20_37 
REMARK    7  A    between atoms: O6_11  and  C6_12 
REMARK    8  A    between atoms: C7_13  and  O7_14 
REMARK    9  A    between atoms: C9_17  and  O8_18 
REMARK   10  A    between atoms: C11_20  and  O9_21 
REMARK   11  A    between atoms: C12_23  and  N1_24 
REMARK       I    between atoms: N1_24  and  C13_26 
REMARK   12  A    between atoms: C18_33  and  C19_34 
REMARK   13  A    between atoms: C19_34  and  O11_35 
ROOT
HETATM    1  C6  UNL     1      -7.602  -0.978   5.408  1.00  0.00     0.164 C 
HETATM    2  C7  UNL     1      -8.946  -0.222   5.753  1.00  0.00     0.154 C 
HETATM    3  C8  UNL     1      -9.201   0.905   4.858  1.00  0.00     0.056 C 
HETATM    4  C9  UNL     1     -10.629   1.142   4.463  1.00  0.00     0.158 C 
HETATM    5  C11 UNL     1     -10.628   1.298   2.955  1.00  0.00     0.170 C 
HETATM    6  C12 UNL     1      -9.253   1.824   2.747  1.00  0.00     0.121 C 
HETATM    7  C15 UNL     1      -8.378   0.939   3.581  1.00  0.00     0.038 C 
HETATM    8  C16 UNL     1      -8.003  -0.353   3.028  1.00  0.00     0.108 C 
HETATM    9  C17 UNL     1      -6.652  -0.373   2.452  1.00  0.00     0.065 C 
HETATM   10  N2  UNL     1      -5.575  -0.374   1.975  1.00  0.00    -0.197 NA
HETATM   11  C18 UNL     1      -7.992  -1.507   4.041  1.00  0.00     0.059 C 
ENDROOT
BRANCH  11  12
HETATM   12  C19 UNL     1      -7.187  -2.653   3.542  1.00  0.00     0.172 C 
BRANCH  12  13
HETATM   13  O11 UNL     1      -7.921  -3.806   3.710  1.00  0.00    -0.400 OA
ATOM     14  H11 UNL     1      -8.357  -4.005   2.890  1.00  0.00     0.209 HD
ENDBRANCH  12  13
ENDBRANCH  11  12
BRANCH   6  15
HETATM   15  N1  UNL     1      -8.858   2.052   1.410  1.00  0.00    -0.354 N 
HETATM   16  C13 UNL     1      -7.802   2.853   0.946  1.00  0.00     0.214 C 
HETATM   17  C14 UNL     1      -7.512   2.993  -0.483  1.00  0.00     0.117 C 
HETATM   18  O10 UNL     1      -7.102   3.454   1.785  1.00  0.00    -0.274 OA
ATOM     19  H1  UNL     1      -9.407   1.576   0.695  1.00  0.00     0.163 HD
ENDBRANCH   6  15
BRANCH   1  20
HETATM   20  O6  UNL     1      -7.433  -1.981   6.258  1.00  0.00    -0.324 OA
BRANCH  20  21
HETATM   21  C5  UNL     1      -6.520  -2.099   7.247  1.00  0.00     0.289 C 
HETATM   22  O5  UNL     1      -6.126  -3.317   7.651  1.00  0.00    -0.282 OA
HETATM   23  C3  UNL     1      -4.810  -3.632   7.129  1.00  0.00     0.293 C 
HETATM   24  C23 UNL     1      -4.321  -2.343   6.705  1.00  0.00     0.127 C 
HETATM   25  O12 UNL     1      -5.371  -1.419   6.803  1.00  0.00    -0.316 OA
HETATM   26  C24 UNL     1      -3.183  -1.730   7.466  1.00  0.00     0.052 C 
HETATM   27  C25 UNL     1      -3.904  -2.257   5.233  1.00  0.00     0.052 C 
BRANCH  23  28
HETATM   28  O2  UNL     1      -4.251  -4.255   8.171  1.00  0.00    -0.319 OA
BRANCH  28  29
HETATM   29  C2  UNL     1      -4.379  -5.475   8.618  1.00  0.00     0.341 C 
BRANCH  29  30
HETATM   30  O1  UNL     1      -5.527  -6.154   8.850  1.00  0.00    -0.372 OA
HETATM   31  C1  UNL     1      -5.233  -7.518   8.921  1.00  0.00     0.204 C 
ENDBRANCH  29  30
ENDBRANCH  28  29
ENDBRANCH  23  28
BRANCH  23  32
HETATM   32  C4  UNL     1      -5.067  -4.601   6.019  1.00  0.00     0.242 C 
HETATM   33  O3  UNL     1      -4.063  -5.124   5.491  1.00  0.00    -0.644 OA
HETATM   34  O4  UNL     1      -6.284  -4.964   5.522  1.00  0.00    -0.644 OA
ENDBRANCH  23  32
BRANCH  21  35
HETATM   35  C20 UNL     1      -6.969  -1.276   8.466  1.00  0.00     0.071 C 
HETATM   36  C21 UNL     1      -6.115  -0.001   8.625  1.00  0.00     0.017 C 
HETATM   37  C22 UNL     1      -6.784  -2.003   9.775  1.00  0.00     0.017 C 
ENDBRANCH  21  35
ENDBRANCH  20  21
ENDBRANCH   1  20
BRANCH   2  38
HETATM   38  O7  UNL     1      -9.860  -1.263   5.763  1.00  0.00    -0.392 OA
ATOM     39  H7  UNL     1      -9.752  -1.621   4.890  1.00  0.00     0.210 HD
ENDBRANCH   2  38
BRANCH   4  40
HETATM   40  O8  UNL     1     -11.520   0.185   4.898  1.00  0.00    -0.388 OA
HETATM   41  C10 UNL     1     -12.683   0.703   5.442  1.00  0.00     0.202 C 
ENDBRANCH   4  40
BRANCH   5  42
HETATM   42  O9  UNL     1     -10.938   0.134   2.309  1.00  0.00    -0.391 OA
ATOM     43  H9  UNL     1     -11.545   0.267   1.590  1.00  0.00     0.210 HD
ENDBRANCH   5  42
TORSDOF 13
ENDMDL
MODEL 5
REMARK VINA RESULT: -6.514108088      3.608      7.865
REMARK  13 active torsions:
REMARK  status: ('A' for Active; 'I' for Inactive)
REMARK    1  A    between atoms: O1_2  and  C2_3 
REMARK    2  A    between atoms: C2_3  and  O2_4 
REMARK    3  A    between atoms: O2_4  and  C3_5 
REMARK    4  A    between atoms: C3_5  and  C4_6 
REMARK    5  A    between atoms: C5_10  and  O6_11 
REMARK    6  A    between atoms: C5_10  and  C20_37 
REMARK    7  A    between atoms: O6_11  and  C6_12 
REMARK    8  A    between atoms: C7_13  and  O7_14 
REMARK    9  A    between atoms: C9_17  and  O8_18 
REMARK   10  A    between atoms: C11_20  and  O9_21 
REMARK   11  A    between atoms: C12_23  and  N1_24 
REMARK       I    between atoms: N1_24  and  C13_26 
REMARK   12  A    between atoms: C18_33  and  C19_34 
REMARK   13  A    between atoms: C19_34  and  O11_35 
ROOT
HETATM    1  C6  UNL     1      -5.639   0.610   5.652  1.00  0.00     0.164 C 
HETATM    2  C7  UNL     1      -5.611  -0.343   6.913  1.00  0.00     0.154 C 
HETATM    3  C8  UNL     1      -4.270  -0.497   7.472  1.00  0.00     0.056 C 
HETATM    4  C9  UNL     1      -4.168  -0.576   8.967  1.00  0.00     0.158 C 
HETATM    5  C11 UNL     1      -3.087   0.408   9.368  1.00  0.00     0.170 C 
HETATM    6  C12 UNL     1      -2.255   0.399   8.136  1.00  0.00     0.121 C 
HETATM    7  C15 UNL     1      -3.239   0.521   7.013  1.00  0.00     0.038 C 
HETATM    8  C16 UNL     1      -3.745   1.848   6.701  1.00  0.00     0.108 C 
HETATM    9  C17 UNL     1      -3.083   2.472   5.548  1.00  0.00     0.065 C 
HETATM   10  N2  UNL     1      -2.533   2.971   4.634  1.00  0.00    -0.197 NA
HETATM   11  C18 UNL     1      -5.238   1.899   6.344  1.00  0.00     0.059 C 
ENDROOT
BRANCH  11  12
HETATM   12  C19 UNL     1      -5.574   3.150   5.615  1.00  0.00     0.172 C 
BRANCH  12  13
HETATM   13  O11 UNL     1      -6.869   3.501   5.927  1.00  0.00    -0.400 OA
ATOM     14  H11 UNL     1      -7.162   4.152   5.301  1.00  0.00     0.209 HD
ENDBRANCH  12  13
ENDBRANCH  11  12
BRANCH   6  15
HETATM   15  N1  UNL     1      -1.141   1.267   8.118  1.00  0.00    -0.354 N 
HETATM   16  C13 UNL     1       0.215   0.936   8.273  1.00  0.00     0.214 C 
HETATM   17  C14 UNL     1       1.267   1.956   8.231  1.00  0.00     0.117 C 
HETATM   18  O10 UNL     1       0.515  -0.262   8.450  1.00  0.00    -0.274 OA
ATOM     19  H1  UNL     1      -1.346   2.256   7.976  1.00  0.00     0.163 HD
ENDBRANCH   6  15
BRANCH   1  20
HETATM   20  O6  UNL     1      -6.879   0.699   5.197  1.00  0.00    -0.324 OA
BRANCH  20  21
HETATM   21  C5  UNL     1      -7.373   0.270   4.014  1.00  0.00     0.289 C 
HETATM   22  O5  UNL     1      -7.796  -0.997   3.885  1.00  0.00    -0.282 OA
HETATM   23  C3  UNL     1      -9.244  -1.059   3.900  1.00  0.00     0.293 C 
HETATM   24  C23 UNL     1      -9.623   0.313   3.668  1.00  0.00     0.127 C 
HETATM   25  O12 UNL     1      -8.467   1.104   3.721  1.00  0.00    -0.316 OA
HETATM   26  C24 UNL     1     -10.278   0.657   2.363  1.00  0.00     0.052 C 
HETATM   27  C25 UNL     1     -10.529   0.929   4.739  1.00  0.00     0.052 C 
BRANCH  23  28
HETATM   28  O2  UNL     1      -9.482  -1.990   2.971  1.00  0.00    -0.319 OA
BRANCH  28  29
HETATM   29  C2  UNL     1      -8.879  -3.118   2.705  1.00  0.00     0.341 C 
BRANCH  29  30
HETATM   30  O1  UNL     1      -9.265  -4.074   1.827  1.00  0.00    -0.372 OA
HETATM   31  C1  UNL     1      -8.743  -5.301   2.245  1.00  0.00     0.204 C 
ENDBRANCH  29  30
ENDBRANCH  28  29
ENDBRANCH  23  28
BRANCH  23  32
HETATM   32  C4  UNL     1      -9.585  -1.581   5.260  1.00  0.00     0.242 C 
HETATM   33  O3  UNL     1     -10.782  -1.877   5.462  1.00  0.00    -0.644 OA
HETATM   34  O4  UNL     1      -8.723  -1.759   6.302  1.00  0.00    -0.644 OA
ENDBRANCH  23  32
BRANCH  21  35
HETATM   35  C20 UNL     1      -6.372   0.592   2.891  1.00  0.00     0.071 C 
HETATM   36  C21 UNL     1      -6.692   1.949   2.230  1.00  0.00     0.017 C 
HETATM   37  C22 UNL     1      -6.426  -0.391   1.748  1.00  0.00     0.017 C 
ENDBRANCH  21  35
ENDBRANCH  20  21
ENDBRANCH   1  20
BRANCH   2  38
HETATM   38  O7  UNL     1      -6.589   0.223   7.715  1.00  0.00    -0.392 OA
ATOM     39  H7  UNL     1      -6.238   0.068   8.584  1.00  0.00     0.210 HD
ENDBRANCH   2  38
BRANCH   4  40
HETATM   40  O8  UNL     1      -5.352  -0.370   9.643  1.00  0.00    -0.388 OA
HETATM   41  C10 UNL     1      -5.475  -1.116  10.803  1.00  0.00     0.202 C 
ENDBRANCH   4  40
BRANCH   5  42
HETATM   42  O9  UNL     1      -3.596   1.618   9.749  1.00  0.00    -0.391 OA
ATOM     43  H9  UNL     1      -2.925   2.284   9.837  1.00  0.00     0.210 HD
ENDBRANCH   5  42
TORSDOF 13
ENDMDL
