MODEL 1
REMARK VINA RESULT: -6.340846356      0.000      0.000
REMARK  15 active torsions:
REMARK  status: ('A' for Active; 'I' for Inactive)
REMARK    1  A    between atoms: O1_2  and  C2_3 
REMARK    2  A    between atoms: C3_4  and  C4_5 
REMARK    3  A    between atoms: C4_5  and  O2_6 
REMARK    4  A    between atoms: C7_12  and  O5_13 
REMARK    5  A    between atoms: O5_13  and  C8_14 
REMARK    6  A    between atoms: C11_17  and  O6_18 
REMARK    7  A    between atoms: C12_20  and  N1_21 
REMARK    8  A    between atoms: C12_20  and  O7_32 
REMARK    9  A    between atoms: N1_21  and  C13_23 
REMARK   10  A    between atoms: C15_25  and  C16_26 
REMARK   11  A    between atoms: C16_26  and  N2_27 
REMARK   12  A    between atoms: N2_27  and  N3_28 
REMARK   13  A    between atoms: O7_32  and  C18_33 
REMARK   14  A    between atoms: C21_37  and  C22_38 
REMARK   15  A    between atoms: C24_43  and  O12_44 
ROOT
HETATM    1  C2  UNL     1      -8.686  -1.107   3.212  1.00  0.00     0.183 C 
HETATM    2  C3  UNL     1      -8.642  -2.522   3.714  1.00  0.00     0.179 C 
HETATM    3  O3  UNL     1      -7.535  -2.731   4.547  1.00  0.00    -0.348 OA
HETATM    4  C5  UNL     1      -7.783  -1.939   5.707  1.00  0.00     0.292 C 
HETATM    5  O4  UNL     1      -6.980  -2.480   6.693  1.00  0.00    -0.350 OA
HETATM    6  C6  UNL     1      -5.689  -1.999   6.597  1.00  0.00     0.168 C 
HETATM    7  C7  UNL     1      -4.676  -2.910   7.227  1.00  0.00     0.185 C 
HETATM    8  C11 UNL     1      -4.294  -2.260   8.528  1.00  0.00     0.205 C 
HETATM    9  C12 UNL     1      -4.477  -0.747   8.294  1.00  0.00     0.177 C 
HETATM   10  C20 UNL     1      -5.522  -0.654   7.212  1.00  0.00     0.115 C 
HETATM   11  C21 UNL     1      -6.738   0.104   7.467  1.00  0.00     0.234 C 
HETATM   12  O11 UNL     1      -7.356   0.413   6.256  1.00  0.00    -0.362 OA
HETATM   13  C23 UNL     1      -7.483  -0.547   5.333  1.00  0.00     0.209 C 
HETATM   14  C24 UNL     1      -8.616  -0.118   4.377  1.00  0.00     0.183 C 
ENDROOT
BRANCH   9  15
HETATM   15  N1  UNL     1      -3.196  -0.271   7.942  1.00  0.00    -0.384 N 
ATOM     16  H1  UNL     1      -2.404  -0.565   8.514  1.00  0.00     0.156 HD
BRANCH  15  17
HETATM   17  C13 UNL     1      -2.947   0.567   6.874  1.00  0.00     0.081 C 
HETATM   18  C14 UNL     1      -1.730   1.456   6.866  1.00  0.00     0.036 C 
HETATM   19  C15 UNL     1      -0.928   0.443   6.080  1.00  0.00     0.044 C 
HETATM   20  C17 UNL     1      -2.271  -0.211   5.730  1.00  0.00     0.036 C 
BRANCH  19  21
HETATM   21  C16 UNL     1      -0.237   0.960   4.883  1.00  0.00     0.185 C 
BRANCH  21  22
HETATM   22  N2  UNL     1       0.964   0.674   4.658  1.00  0.00    -0.350 NA
BRANCH  22  23
HETATM   23  N3  UNL     1       2.065   0.085   4.588  1.00  0.00    -0.281 N 
ATOM     24  H32 UNL     1       1.720  -0.769   5.027  1.00  0.00     0.191 HD
ATOM     25  H31 UNL     1       3.042  -0.146   4.408  1.00  0.00     0.191 HD
ENDBRANCH  22  23
ENDBRANCH  21  22
ENDBRANCH  19  21
ENDBRANCH  15  17
ENDBRANCH   9  15
BRANCH   9  26
HETATM   26  O7  UNL     1      -4.853  -0.084   9.483  1.00  0.00    -0.286 OA
BRANCH  26  27
HETATM   27  C18 UNL     1      -3.964   0.369  10.406  1.00  0.00     0.257 C 
HETATM   28  C19 UNL     1      -3.753  -0.379  11.668  1.00  0.00     0.126 C 
HETATM   29  O8  UNL     1      -3.315   1.417  10.202  1.00  0.00    -0.266 OA
ENDBRANCH  26  27
ENDBRANCH   9  26
BRANCH   8  30
HETATM   30  O6  UNL     1      -4.935  -2.730   9.637  1.00  0.00    -0.388 OA
ATOM     31  H6  UNL     1      -4.382  -2.919  10.386  1.00  0.00     0.210 HD
ENDBRANCH   8  30
BRANCH   7  32
HETATM   32  O5  UNL     1      -5.199  -4.169   7.328  1.00  0.00    -0.376 OA
BRANCH  32  33
HETATM   33  C8  UNL     1      -4.251  -5.178   7.206  1.00  0.00     0.114 C 
HETATM   34  C9  UNL     1      -4.680  -6.367   8.037  1.00  0.00     0.039 C 
HETATM   35  C10 UNL     1      -4.004  -5.627   5.811  1.00  0.00     0.039 C 
ENDBRANCH  32  33
ENDBRANCH   7  32
BRANCH  11  36
HETATM   36  C22 UNL     1      -7.747  -0.291   8.409  1.00  0.00     0.203 C 
HETATM   37  O9  UNL     1      -8.935   0.087   8.209  1.00  0.00    -0.646 OA
HETATM   38  O10 UNL     1      -7.638  -1.055   9.559  1.00  0.00    -0.646 OA
ENDBRANCH  11  36
BRANCH  14  39
HETATM   39  O12 UNL     1      -8.466   1.163   3.923  1.00  0.00    -0.390 OA
ATOM     40  H12 UNL     1      -8.288   1.759   4.641  1.00  0.00     0.210 HD
ENDBRANCH  14  39
BRANCH   2  41
HETATM   41  C4  UNL     1      -8.571  -3.512   2.584  1.00  0.00     0.198 C 
BRANCH  41  42
HETATM   42  O2  UNL     1      -9.626  -3.356   1.703  1.00  0.00    -0.398 OA
ATOM     43  H2  UNL     1      -9.330  -3.044   0.856  1.00  0.00     0.209 HD
ENDBRANCH  41  42
ENDBRANCH   2  41
BRANCH   1  44
HETATM   44  O1  UNL     1      -7.692  -0.801   2.294  1.00  0.00    -0.385 OA
HETATM   45  C1  UNL     1      -8.127  -0.332   1.085  1.00  0.00     0.202 C 
ENDBRANCH   1  44
TORSDOF 15
ENDMDL
MODEL 2
REMARK VINA RESULT: -6.277560506      2.591      4.843
REMARK  15 active torsions:
REMARK  status: ('A' for Active; 'I' for Inactive)
REMARK    1  A    between atoms: O1_2  and  C2_3 
REMARK    2  A    between atoms: C3_4  and  C4_5 
REMARK    3  A    between atoms: C4_5  and  O2_6 
REMARK    4  A    between atoms: C7_12  and  O5_13 
REMARK    5  A    between atoms: O5_13  and  C8_14 
REMARK    6  A    between atoms: C11_17  and  O6_18 
REMARK    7  A    between atoms: C12_20  and  N1_21 
REMARK    8  A    between atoms: C12_20  and  O7_32 
REMARK    9  A    between atoms: N1_21  and  C13_23 
REMARK   10  A    between atoms: C15_25  and  C16_26 
REMARK   11  A    between atoms: C16_26  and  N2_27 
REMARK   12  A    between atoms: N2_27  and  N3_28 
REMARK   13  A    between atoms: O7_32  and  C18_33 
REMARK   14  A    between atoms: C21_37  and  C22_38 
REMARK   15  A    between atoms: C24_43  and  O12_44 
ROOT
HETATM    1  C2  UNL     1      -8.786  -0.921   3.722  1.00  0.00     0.183 C 
HETATM    2  C3  UNL     1      -9.387  -0.320   4.960  1.00  0.00     0.179 C 
HETATM    3  O3  UNL     1      -8.601  -0.589   6.087  1.00  0.00    -0.348 OA
HETATM    4  C5  UNL     1      -7.388   0.132   5.882  1.00  0.00     0.292 C 
HETATM    5  O4  UNL     1      -6.826   0.261   7.137  1.00  0.00    -0.350 OA
HETATM    6  C6  UNL     1      -6.129  -0.879   7.486  1.00  0.00     0.168 C 
HETATM    7  C7  UNL     1      -5.980  -1.043   8.970  1.00  0.00     0.185 C 
HETATM    8  C11 UNL     1      -4.555  -0.676   9.281  1.00  0.00     0.205 C 
HETATM    9  C12 UNL     1      -3.759  -1.030   8.009  1.00  0.00     0.177 C 
HETATM   10  C20 UNL     1      -4.767  -0.934   6.892  1.00  0.00     0.115 C 
HETATM   11  C21 UNL     1      -4.502  -0.035   5.777  1.00  0.00     0.234 C 
HETATM   12  O11 UNL     1      -5.306  -0.390   4.695  1.00  0.00    -0.362 OA
HETATM   13  C23 UNL     1      -6.602  -0.644   4.908  1.00  0.00     0.209 C 
HETATM   14  C24 UNL     1      -7.331  -0.481   3.558  1.00  0.00     0.183 C 
ENDROOT
BRANCH   9  15
HETATM   15  N1  UNL     1      -3.239  -2.320   8.247  1.00  0.00    -0.384 N 
ATOM     16  H1  UNL     1      -2.797  -2.498   9.149  1.00  0.00     0.156 HD
BRANCH  15  17
HETATM   17  C13 UNL     1      -3.289  -3.356   7.336  1.00  0.00     0.081 C 
HETATM   18  C14 UNL     1      -2.819  -4.736   7.719  1.00  0.00     0.036 C 
HETATM   19  C15 UNL     1      -4.220  -5.172   8.083  1.00  0.00     0.044 C 
HETATM   20  C17 UNL     1      -4.707  -3.955   7.285  1.00  0.00     0.036 C 
BRANCH  19  21
HETATM   21  C16 UNL     1      -4.673  -6.442   7.486  1.00  0.00     0.185 C 
BRANCH  21  22
HETATM   22  N2  UNL     1      -4.785  -7.480   8.183  1.00  0.00    -0.350 NA
BRANCH  22  23
HETATM   23  N3  UNL     1      -4.576  -8.579   8.740  1.00  0.00    -0.281 N 
ATOM     24  H32 UNL     1      -5.198  -8.384   9.525  1.00  0.00     0.191 HD
ATOM     25  H31 UNL     1      -4.235  -9.514   8.965  1.00  0.00     0.191 HD
ENDBRANCH  22  23
ENDBRANCH  21  22
ENDBRANCH  19  21
ENDBRANCH  15  17
ENDBRANCH   9  15
BRANCH   9  26
HETATM   26  O7  UNL     1      -2.656  -0.165   7.834  1.00  0.00    -0.286 OA
BRANCH  26  27
HETATM   27  C18 UNL     1      -1.484  -0.293   8.510  1.00  0.00     0.257 C 
HETATM   28  C19 UNL     1      -0.194  -0.234   7.783  1.00  0.00     0.126 C 
HETATM   29  O8  UNL     1      -1.479  -0.462   9.748  1.00  0.00    -0.266 OA
ENDBRANCH  26  27
ENDBRANCH   9  26
BRANCH   8  30
HETATM   30  O6  UNL     1      -4.353   0.600   9.723  1.00  0.00    -0.388 OA
ATOM     31  H6  UNL     1      -3.833   0.686  10.513  1.00  0.00     0.210 HD
ENDBRANCH   8  30
BRANCH   7  32
HETATM   32  O5  UNL     1      -6.932  -0.298   9.608  1.00  0.00    -0.376 OA
BRANCH  32  33
HETATM   33  C8  UNL     1      -7.688  -1.023  10.522  1.00  0.00     0.114 C 
HETATM   34  C9  UNL     1      -6.952  -1.079  11.842  1.00  0.00     0.039 C 
HETATM   35  C10 UNL     1      -9.056  -0.491  10.752  1.00  0.00     0.039 C 
ENDBRANCH  32  33
ENDBRANCH   7  32
BRANCH  11  36
HETATM   36  C22 UNL     1      -4.486   1.396   5.887  1.00  0.00     0.203 C 
HETATM   37  O9  UNL     1      -4.627   2.080   4.835  1.00  0.00    -0.646 OA
HETATM   38  O10 UNL     1      -4.334   2.199   7.006  1.00  0.00    -0.646 OA
ENDBRANCH  11  36
BRANCH  14  39
HETATM   39  O12 UNL     1      -6.723  -1.168   2.544  1.00  0.00    -0.390 OA
ATOM     40  H12 UNL     1      -5.777  -1.127   2.625  1.00  0.00     0.210 HD
ENDBRANCH  14  39
BRANCH   2  41
HETATM   41  C4  UNL     1     -10.772  -0.843   5.219  1.00  0.00     0.198 C 
BRANCH  41  42
HETATM   42  O2  UNL     1     -10.749  -2.168   5.620  1.00  0.00    -0.398 OA
ATOM     43  H2  UNL     1     -11.619  -2.548   5.618  1.00  0.00     0.209 HD
ENDBRANCH  41  42
ENDBRANCH   2  41
BRANCH   1  44
HETATM   44  O1  UNL     1      -8.852  -2.306   3.676  1.00  0.00    -0.385 OA
HETATM   45  C1  UNL     1      -9.156  -2.845   2.456  1.00  0.00     0.202 C 
ENDBRANCH   1  44
TORSDOF 15
ENDMDL
MODEL 3
REMARK VINA RESULT: -6.208680815      2.824      6.018
REMARK  15 active torsions:
REMARK  status: ('A' for Active; 'I' for Inactive)
REMARK    1  A    between atoms: O1_2  and  C2_3 
REMARK    2  A    between atoms: C3_4  and  C4_5 
REMARK    3  A    between atoms: C4_5  and  O2_6 
REMARK    4  A    between atoms: C7_12  and  O5_13 
REMARK    5  A    between atoms: O5_13  and  C8_14 
REMARK    6  A    between atoms: C11_17  and  O6_18 
REMARK    7  A    between atoms: C12_20  and  N1_21 
REMARK    8  A    between atoms: C12_20  and  O7_32 
REMARK    9  A    between atoms: N1_21  and  C13_23 
REMARK   10  A    between atoms: C15_25  and  C16_26 
REMARK   11  A    between atoms: C16_26  and  N2_27 
REMARK   12  A    between atoms: N2_27  and  N3_28 
REMARK   13  A    between atoms: O7_32  and  C18_33 
REMARK   14  A    between atoms: C21_37  and  C22_38 
REMARK   15  A    between atoms: C24_43  and  O12_44 
ROOT
HETATM    1  C2  UNL     1      -9.958  -0.005   4.236  1.00  0.00     0.183 C 
HETATM    2  C3  UNL     1      -8.953   0.994   3.739  1.00  0.00     0.179 C 
HETATM    3  O3  UNL     1      -7.842   1.063   4.588  1.00  0.00    -0.348 OA
HETATM    4  C5  UNL     1      -7.194  -0.201   4.462  1.00  0.00     0.292 C 
HETATM    5  O4  UNL     1      -5.899   0.010   4.898  1.00  0.00    -0.350 OA
HETATM    6  C6  UNL     1      -5.826  -0.050   6.276  1.00  0.00     0.168 C 
HETATM    7  C7  UNL     1      -4.646   0.692   6.833  1.00  0.00     0.185 C 
HETATM    8  C11 UNL     1      -3.649  -0.363   7.228  1.00  0.00     0.205 C 
HETATM    9  C12 UNL     1      -4.494  -1.601   7.592  1.00  0.00     0.177 C 
HETATM   10  C20 UNL     1      -5.763  -1.442   6.795  1.00  0.00     0.115 C 
HETATM   11  C21 UNL     1      -6.159  -2.502   5.878  1.00  0.00     0.234 C 
HETATM   12  O11 UNL     1      -7.511  -2.367   5.569  1.00  0.00    -0.362 OA
HETATM   13  C23 UNL     1      -7.985  -1.156   5.257  1.00  0.00     0.209 C 
HETATM   14  C24 UNL     1      -9.298  -1.364   4.472  1.00  0.00     0.183 C 
ENDROOT
BRANCH   9  15
HETATM   15  N1  UNL     1      -4.647  -1.543   8.994  1.00  0.00    -0.384 N 
ATOM     16  H1  UNL     1      -4.052  -2.144   9.565  1.00  0.00     0.156 HD
BRANCH  15  17
HETATM   17  C13 UNL     1      -5.551  -0.725   9.642  1.00  0.00     0.081 C 
HETATM   18  C14 UNL     1      -6.740  -1.314  10.357  1.00  0.00     0.036 C 
HETATM   19  C15 UNL     1      -6.010  -1.321  11.680  1.00  0.00     0.044 C 
HETATM   20  C17 UNL     1      -5.021  -0.341  11.036  1.00  0.00     0.036 C 
BRANCH  19  21
HETATM   21  C16 UNL     1      -6.730  -0.714  12.816  1.00  0.00     0.185 C 
BRANCH  21  22
HETATM   22  N2  UNL     1      -6.997  -1.383  13.843  1.00  0.00    -0.350 NA
BRANCH  22  23
HETATM   23  N3  UNL     1      -7.033  -1.823  15.013  1.00  0.00    -0.281 N 
ATOM     24  H32 UNL     1      -6.137  -2.306  14.939  1.00  0.00     0.191 HD
ATOM     25  H31 UNL     1      -7.314  -2.039  15.969  1.00  0.00     0.191 HD
ENDBRANCH  22  23
ENDBRANCH  21  22
ENDBRANCH  19  21
ENDBRANCH  15  17
ENDBRANCH   9  15
BRANCH   9  26
HETATM   26  O7  UNL     1      -3.804  -2.799   7.300  1.00  0.00    -0.286 OA
BRANCH  26  27
HETATM   27  C18 UNL     1      -4.247  -4.031   7.667  1.00  0.00     0.257 C 
HETATM   28  C19 UNL     1      -3.820  -5.231   6.910  1.00  0.00     0.126 C 
HETATM   29  O8  UNL     1      -5.015  -4.166   8.643  1.00  0.00    -0.266 OA
ENDBRANCH  26  27
ENDBRANCH   9  26
BRANCH   8  30
HETATM   30  O6  UNL     1      -2.660  -0.615   6.323  1.00  0.00    -0.388 OA
ATOM     31  H6  UNL     1      -2.918  -0.585   5.409  1.00  0.00     0.210 HD
ENDBRANCH   8  30
BRANCH   7  32
HETATM   32  O5  UNL     1      -4.206   1.602   5.912  1.00  0.00    -0.376 OA
BRANCH  32  33
HETATM   33  C8  UNL     1      -4.584   2.909   6.195  1.00  0.00     0.114 C 
HETATM   34  C9  UNL     1      -3.355   3.715   6.553  1.00  0.00     0.039 C 
HETATM   35  C10 UNL     1      -5.308   3.594   5.094  1.00  0.00     0.039 C 
ENDBRANCH  32  33
ENDBRANCH   7  32
BRANCH  11  36
HETATM   36  C22 UNL     1      -5.444  -2.830   4.677  1.00  0.00     0.203 C 
HETATM   37  O9  UNL     1      -5.859  -3.796   3.978  1.00  0.00    -0.646 OA
HETATM   38  O10 UNL     1      -4.320  -2.241   4.123  1.00  0.00    -0.646 OA
ENDBRANCH  11  36
BRANCH  14  39
HETATM   39  O12 UNL     1     -10.156  -2.223   5.099  1.00  0.00    -0.390 OA
ATOM     40  H12 UNL     1     -10.430  -2.919   4.514  1.00  0.00     0.210 HD
ENDBRANCH  14  39
BRANCH   2  41
HETATM   41  C4  UNL     1      -9.544   2.373   3.629  1.00  0.00     0.198 C 
BRANCH  41  42
HETATM   42  O2  UNL     1      -8.563   3.348   3.619  1.00  0.00    -0.398 OA
ATOM     43  H2  UNL     1      -8.677   3.965   4.332  1.00  0.00     0.209 HD
ENDBRANCH  41  42
ENDBRANCH   2  41
BRANCH   1  44
HETATM   44  O1  UNL     1     -10.621   0.387   5.391  1.00  0.00    -0.385 OA
HETATM   45  C1  UNL     1     -11.964   0.607   5.256  1.00  0.00     0.202 C 
ENDBRANCH   1  44
TORSDOF 15
ENDMDL
MODEL 4
REMARK VINA RESULT: -6.199100394      3.268      6.955
REMARK  15 active torsions:
REMARK  status: ('A' for Active; 'I' for Inactive)
REMARK    1  A    between atoms: O1_2  and  C2_3 
REMARK    2  A    between atoms: C3_4  and  C4_5 
REMARK    3  A    between atoms: C4_5  and  O2_6 
REMARK    4  A    between atoms: C7_12  and  O5_13 
REMARK    5  A    between atoms: O5_13  and  C8_14 
REMARK    6  A    between atoms: C11_17  and  O6_18 
REMARK    7  A    between atoms: C12_20  and  N1_21 
REMARK    8  A    between atoms: C12_20  and  O7_32 
REMARK    9  A    between atoms: N1_21  and  C13_23 
REMARK   10  A    between atoms: C15_25  and  C16_26 
REMARK   11  A    between atoms: C16_26  and  N2_27 
REMARK   12  A    between atoms: N2_27  and  N3_28 
REMARK   13  A    between atoms: O7_32  and  C18_33 
REMARK   14  A    between atoms: C21_37  and  C22_38 
REMARK   15  A    between atoms: C24_43  and  O12_44 
ROOT
HETATM    1  C2  UNL     1      -1.282   2.056   7.652  1.00  0.00     0.183 C 
HETATM    2  C3  UNL     1      -0.901   0.767   6.982  1.00  0.00     0.179 C 
HETATM    3  O3  UNL     1      -1.916  -0.189   7.106  1.00  0.00    -0.348 OA
HETATM    4  C5  UNL     1      -3.004   0.317   6.335  1.00  0.00     0.292 C 
HETATM    5  O4  UNL     1      -3.798  -0.782   6.064  1.00  0.00    -0.350 OA
HETATM    6  C6  UNL     1      -4.635  -1.059   7.127  1.00  0.00     0.168 C 
HETATM    7  C7  UNL     1      -5.095  -2.488   7.153  1.00  0.00     0.185 C 
HETATM    8  C11 UNL     1      -6.521  -2.469   6.676  1.00  0.00     0.205 C 
HETATM    9  C12 UNL     1      -7.066  -1.087   7.091  1.00  0.00     0.177 C 
HETATM   10  C20 UNL     1      -5.849  -0.200   7.152  1.00  0.00     0.115 C 
HETATM   11  C21 UNL     1      -5.813   1.007   6.339  1.00  0.00     0.234 C 
HETATM   12  O11 UNL     1      -4.837   1.870   6.833  1.00  0.00    -0.362 OA
HETATM   13  C23 UNL     1      -3.634   1.373   7.145  1.00  0.00     0.209 C 
HETATM   14  C24 UNL     1      -2.636   2.551   7.143  1.00  0.00     0.183 C 
ENDROOT
BRANCH   9  15
HETATM   15  N1  UNL     1      -7.721  -1.305   8.323  1.00  0.00    -0.384 N 
ATOM     16  H1  UNL     1      -8.319  -2.126   8.407  1.00  0.00     0.156 HD
BRANCH  15  17
HETATM   17  C13 UNL     1      -7.602  -0.475   9.420  1.00  0.00     0.081 C 
HETATM   18  C14 UNL     1      -8.671  -0.455  10.483  1.00  0.00     0.036 C 
HETATM   19  C15 UNL     1      -7.921  -1.456  11.332  1.00  0.00     0.044 C 
HETATM   20  C17 UNL     1      -6.690  -1.119  10.481  1.00  0.00     0.036 C 
BRANCH  19  21
HETATM   21  C16 UNL     1      -7.732  -1.084  12.748  1.00  0.00     0.185 C 
BRANCH  21  22
HETATM   22  N2  UNL     1      -6.713  -1.450  13.381  1.00  0.00    -0.350 NA
BRANCH  22  23
HETATM   23  N3  UNL     1      -5.769  -1.522  14.198  1.00  0.00    -0.281 N 
ATOM     24  H32 UNL     1      -5.895  -2.520  14.369  1.00  0.00     0.191 HD
ATOM     25  H31 UNL     1      -4.979  -1.300  14.804  1.00  0.00     0.191 HD
ENDBRANCH  22  23
ENDBRANCH  21  22
ENDBRANCH  19  21
ENDBRANCH  15  17
ENDBRANCH   9  15
BRANCH   9  26
HETATM   26  O7  UNL     1      -8.042  -0.624   6.180  1.00  0.00    -0.286 OA
BRANCH  26  27
HETATM   27  C18 UNL     1      -9.381  -0.734   6.391  1.00  0.00     0.257 C 
HETATM   28  C19 UNL     1     -10.170  -1.751   5.658  1.00  0.00     0.126 C 
HETATM   29  O8  UNL     1      -9.960   0.019   7.203  1.00  0.00    -0.266 OA
ENDBRANCH  26  27
ENDBRANCH   9  26
BRANCH   8  30
HETATM   30  O6  UNL     1      -6.710  -2.765   5.357  1.00  0.00    -0.388 OA
ATOM     31  H6  UNL     1      -7.326  -2.210   4.893  1.00  0.00     0.210 HD
ENDBRANCH   8  30
BRANCH   7  32
HETATM   32  O5  UNL     1      -4.237  -3.254   6.413  1.00  0.00    -0.376 OA
BRANCH  32  33
HETATM   33  C8  UNL     1      -3.935  -4.478   7.000  1.00  0.00     0.114 C 
HETATM   34  C9  UNL     1      -4.292  -4.426   8.469  1.00  0.00     0.039 C 
HETATM   35  C10 UNL     1      -4.614  -5.644   6.378  1.00  0.00     0.039 C 
ENDBRANCH  32  33
ENDBRANCH   7  32
BRANCH  11  36
HETATM   36  C22 UNL     1      -5.743   1.007   4.905  1.00  0.00     0.203 C 
HETATM   37  O9  UNL     1      -5.464   2.089   4.318  1.00  0.00    -0.646 OA
HETATM   38  O10 UNL     1      -5.939  -0.029   4.007  1.00  0.00    -0.646 OA
ENDBRANCH  11  36
BRANCH  14  39
HETATM   39  O12 UNL     1      -3.076   3.616   7.877  1.00  0.00    -0.390 OA
ATOM     40  H12 UNL     1      -3.543   3.326   8.651  1.00  0.00     0.210 HD
ENDBRANCH  14  39
BRANCH   2  41
HETATM   41  C4  UNL     1       0.360   0.188   7.563  1.00  0.00     0.198 C 
BRANCH  41  42
HETATM   42  O2  UNL     1       0.112  -0.488   8.745  1.00  0.00    -0.398 OA
ATOM     43  H2  UNL     1       0.907  -0.609   9.251  1.00  0.00     0.209 HD
ENDBRANCH  41  42
ENDBRANCH   2  41
BRANCH   1  44
HETATM   44  O1  UNL     1      -1.313   1.987   9.038  1.00  0.00    -0.385 OA
HETATM   45  C1  UNL     1      -0.506   2.875   9.693  1.00  0.00     0.202 C 
ENDBRANCH   1  44
TORSDOF 15
ENDMDL
MODEL 5
REMARK VINA RESULT: -6.152887202      0.945      1.048
REMARK  15 active torsions:
REMARK  status: ('A' for Active; 'I' for Inactive)
REMARK    1  A    between atoms: O1_2  and  C2_3 
REMARK    2  A    between atoms: C3_4  and  C4_5 
REMARK    3  A    between atoms: C4_5  and  O2_6 
REMARK    4  A    between atoms: C7_12  and  O5_13 
REMARK    5  A    between atoms: O5_13  and  C8_14 
REMARK    6  A    between atoms: C11_17  and  O6_18 
REMARK    7  A    between atoms: C12_20  and  N1_21 
REMARK    8  A    between atoms: C12_20  and  O7_32 
REMARK    9  A    between atoms: N1_21  and  C13_23 
REMARK   10  A    between atoms: C15_25  and  C16_26 
REMARK   11  A    between atoms: C16_26  and  N2_27 
REMARK   12  A    between atoms: N2_27  and  N3_28 
REMARK   13  A    between atoms: O7_32  and  C18_33 
REMARK   14  A    between atoms: C21_37  and  C22_38 
REMARK   15  A    between atoms: C24_43  and  O12_44 
ROOT
HETATM    1  C2  UNL     1      -8.624  -1.160   3.045  1.00  0.00     0.183 C 
HETATM    2  C3  UNL     1      -8.624  -2.564   3.579  1.00  0.00     0.179 C 
HETATM    3  O3  UNL     1      -7.530  -2.785   4.425  1.00  0.00    -0.348 OA
HETATM    4  C5  UNL     1      -7.764  -1.960   5.565  1.00  0.00     0.292 C 
HETATM    5  O4  UNL     1      -6.984  -2.500   6.570  1.00  0.00    -0.350 OA
HETATM    6  C6  UNL     1      -5.680  -2.057   6.474  1.00  0.00     0.168 C 
HETATM    7  C7  UNL     1      -4.697  -2.982   7.132  1.00  0.00     0.185 C 
HETATM    8  C11 UNL     1      -4.307  -2.314   8.422  1.00  0.00     0.205 C 
HETATM    9  C12 UNL     1      -4.446  -0.802   8.151  1.00  0.00     0.177 C 
HETATM   10  C20 UNL     1      -5.479  -0.704   7.059  1.00  0.00     0.115 C 
HETATM   11  C21 UNL     1      -6.676   0.094   7.286  1.00  0.00     0.234 C 
HETATM   12  O11 UNL     1      -7.274   0.392   6.064  1.00  0.00    -0.362 OA
HETATM   13  C23 UNL     1      -7.421  -0.586   5.162  1.00  0.00     0.209 C 
HETATM   14  C24 UNL     1      -8.535  -0.147   4.187  1.00  0.00     0.183 C 
ENDROOT
BRANCH   9  15
HETATM   15  N1  UNL     1      -3.149  -0.370   7.800  1.00  0.00    -0.384 N 
ATOM     16  H1  UNL     1      -2.394  -0.534   8.465  1.00  0.00     0.156 HD
BRANCH  15  17
HETATM   17  C13 UNL     1      -2.837   0.260   6.612  1.00  0.00     0.081 C 
HETATM   18  C14 UNL     1      -2.790   1.765   6.533  1.00  0.00     0.036 C 
HETATM   19  C15 UNL     1      -1.298   1.785   6.774  1.00  0.00     0.044 C 
HETATM   20  C17 UNL     1      -1.311   0.295   6.408  1.00  0.00     0.036 C 
BRANCH  19  21
HETATM   21  C16 UNL     1      -0.504   2.581   5.820  1.00  0.00     0.185 C 
BRANCH  21  22
HETATM   22  N2  UNL     1       0.282   3.474   6.221  1.00  0.00    -0.350 NA
BRANCH  22  23
HETATM   23  N3  UNL     1       1.190   4.095   6.815  1.00  0.00    -0.281 N 
ATOM     24  H32 UNL     1       0.777   3.964   7.739  1.00  0.00     0.191 HD
ATOM     25  H31 UNL     1       2.032   4.629   7.031  1.00  0.00     0.191 HD
ENDBRANCH  22  23
ENDBRANCH  21  22
ENDBRANCH  19  21
ENDBRANCH  15  17
ENDBRANCH   9  15
BRANCH   9  26
HETATM   26  O7  UNL     1      -4.812  -0.101   9.322  1.00  0.00    -0.286 OA
BRANCH  26  27
HETATM   27  C18 UNL     1      -3.916   0.367  10.231  1.00  0.00     0.257 C 
HETATM   28  C19 UNL     1      -3.718  -0.342  11.516  1.00  0.00     0.126 C 
HETATM   29  O8  UNL     1      -3.250   1.398   9.994  1.00  0.00    -0.266 OA
ENDBRANCH  26  27
ENDBRANCH   9  26
BRANCH   8  30
HETATM   30  O6  UNL     1      -4.970  -2.740   9.536  1.00  0.00    -0.388 OA
ATOM     31  H6  UNL     1      -5.209  -2.063  10.159  1.00  0.00     0.210 HD
ENDBRANCH   8  30
BRANCH   7  32
HETATM   32  O5  UNL     1      -5.256  -4.223   7.258  1.00  0.00    -0.376 OA
BRANCH  32  33
HETATM   33  C8  UNL     1      -4.341  -5.262   7.139  1.00  0.00     0.114 C 
HETATM   34  C9  UNL     1      -4.672  -6.335   8.152  1.00  0.00     0.039 C 
HETATM   35  C10 UNL     1      -4.276  -5.876   5.788  1.00  0.00     0.039 C 
ENDBRANCH  32  33
ENDBRANCH   7  32
BRANCH  11  36
HETATM   36  C22 UNL     1      -7.702  -0.251   8.229  1.00  0.00     0.203 C 
HETATM   37  O9  UNL     1      -8.878   0.152   8.009  1.00  0.00    -0.646 OA
HETATM   38  O10 UNL     1      -7.622  -0.988   9.399  1.00  0.00    -0.646 OA
ENDBRANCH  11  36
BRANCH  14  39
HETATM   39  O12 UNL     1      -8.345   1.118   3.705  1.00  0.00    -0.390 OA
ATOM     40  H12 UNL     1      -8.637   1.768   4.334  1.00  0.00     0.210 HD
ENDBRANCH  14  39
BRANCH   2  41
HETATM   41  C4  UNL     1      -8.572  -3.582   2.473  1.00  0.00     0.198 C 
BRANCH  41  42
HETATM   42  O2  UNL     1      -9.752  -3.611   1.752  1.00  0.00    -0.398 OA
ATOM     43  H2  UNL     1      -9.793  -4.368   1.180  1.00  0.00     0.209 HD
ENDBRANCH  41  42
ENDBRANCH   2  41
BRANCH   1  44
HETATM   44  O1  UNL     1      -7.614  -0.903   2.127  1.00  0.00    -0.385 OA
HETATM   45  C1  UNL     1      -8.026  -0.437   0.910  1.00  0.00     0.202 C 
ENDBRANCH   1  44
TORSDOF 15
ENDMDL
