MODEL 1
REMARK VINA RESULT: -7.332983064      0.000      0.000
REMARK  17 active torsions:
REMARK  status: ('A' for Active; 'I' for Inactive)
REMARK    1  A    between atoms: C2_2  and  C3_3 
REMARK    2  A    between atoms: C3_3  and  O1_4 
REMARK    3  A    between atoms: O1_4  and  C4_5 
REMARK    4  A    between atoms: C10_11  and  O2_12 
REMARK    5  A    between atoms: O2_12  and  C11_13 
REMARK    6  A    between atoms: C12_15  and  C13_16 
REMARK    7  A    between atoms: C13_16  and  O4_17 
REMARK    8  A    between atoms: C13_16  and  C14_19 
REMARK    9  A    between atoms: C14_19  and  O5_20 
REMARK   10  A    between atoms: O5_20  and  C15_21 
REMARK   11  A    between atoms: C17_23  and  O6_24 
REMARK   12  A    between atoms: C19_26  and  O7_27 
REMARK   13  A    between atoms: C20_29  and  C21_30 
REMARK   14  A    between atoms: C21_30  and  O8_31 
REMARK   15  A    between atoms: C22_34  and  O10_35 
REMARK   16  A    between atoms: C23_37  and  O11_38 
REMARK   17  A    between atoms: C24_40  and  O12_41 
ROOT
HETATM    1  C11 UNL     1      -5.759  -2.158   4.757  1.00  0.00     0.292 C 
HETATM    2  O3  UNL     1      -5.632  -1.483   3.534  1.00  0.00    -0.348 OA
HETATM    3  C12 UNL     1      -6.897  -1.162   3.030  1.00  0.00     0.186 C 
HETATM    4  C22 UNL     1      -7.564  -2.425   2.572  1.00  0.00     0.181 C 
HETATM    5  C23 UNL     1      -6.868  -3.629   3.086  1.00  0.00     0.183 C 
HETATM    6  C24 UNL     1      -6.349  -3.536   4.501  1.00  0.00     0.204 C 
ENDROOT
BRANCH   3   7
HETATM    7  C13 UNL     1      -6.660  -0.259   1.827  1.00  0.00     0.173 C 
BRANCH   7   8
HETATM    8  O4  UNL     1      -5.429   0.434   2.009  1.00  0.00    -0.391 OA
ATOM      9  H4  UNL     1      -4.837   0.191   1.308  1.00  0.00     0.210 HD
ENDBRANCH   7   8
BRANCH   7  10
HETATM   10  C14 UNL     1      -7.680   0.839   1.696  1.00  0.00     0.205 C 
BRANCH  10  11
HETATM   11  O5  UNL     1      -8.253   1.257   2.869  1.00  0.00    -0.359 OA
BRANCH  11  12
HETATM   12  C15 UNL     1      -9.645   1.163   2.751  1.00  0.00     0.262 C 
HETATM   13  C16 UNL     1     -10.302   2.493   3.046  1.00  0.00     0.095 C 
HETATM   14  C17 UNL     1     -11.719   2.222   3.493  1.00  0.00     0.156 C 
HETATM   15  C19 UNL     1     -11.649   1.584   4.877  1.00  0.00     0.178 C 
HETATM   16  C20 UNL     1     -10.378   0.757   4.895  1.00  0.00     0.179 C 
HETATM   17  O9  UNL     1     -10.144   0.196   3.633  1.00  0.00    -0.351 OA
BRANCH  14  18
HETATM   18  O6  UNL     1     -12.453   3.406   3.529  1.00  0.00    -0.388 OA
HETATM   19  C18 UNL     1     -11.719   4.420   2.956  1.00  0.00     0.202 C 
ENDBRANCH  14  18
BRANCH  15  20
HETATM   20  O7  UNL     1     -12.741   0.727   5.065  1.00  0.00    -0.390 OA
ATOM     21  H7  UNL     1     -12.437  -0.165   5.183  1.00  0.00     0.210 HD
ENDBRANCH  15  20
BRANCH  16  22
HETATM   22  C21 UNL     1     -10.495  -0.360   5.886  1.00  0.00     0.198 C 
BRANCH  22  23
HETATM   23  O8  UNL     1     -10.836  -1.568   5.298  1.00  0.00    -0.398 OA
ATOM     24  H8  UNL     1     -11.183  -2.197   5.921  1.00  0.00     0.209 HD
ENDBRANCH  22  23
ENDBRANCH  16  22
ENDBRANCH  11  12
ENDBRANCH  10  11
ENDBRANCH   7  10
ENDBRANCH   3   7
BRANCH   4  25
HETATM   25  O10 UNL     1      -8.914  -2.389   2.960  1.00  0.00    -0.390 OA
ATOM     26  H10 UNL     1      -9.313  -3.227   2.756  1.00  0.00     0.210 HD
ENDBRANCH   4  25
BRANCH   1  27
HETATM   27  O2  UNL     1      -4.618  -2.153   5.498  1.00  0.00    -0.350 OA
BRANCH  27  28
HETATM   28  C10 UNL     1      -4.784  -1.933   6.850  1.00  0.00     0.163 C 
HETATM   29  C4  UNL     1      -5.451  -0.625   7.093  1.00  0.00     0.156 C 
HETATM   30  C5  UNL     1      -4.410   0.291   7.762  1.00  0.00     0.026 C 
HETATM   31  C6  UNL     1      -4.361  -0.132   9.200  1.00  0.00     0.009 C 
HETATM   32  C25 UNL     1      -3.126  -0.324   7.239  1.00  0.00    -0.032 C 
HETATM   33  C7  UNL     1      -3.875  -1.568   9.071  1.00  0.00     0.013 C 
HETATM   34  C8  UNL     1      -3.480  -1.749   7.599  1.00  0.00    -0.008 C 
HETATM   35  C9  UNL     1      -2.443  -2.752   7.402  1.00  0.00     0.019 C 
HETATM   36  C26 UNL     1      -1.927   0.165   8.029  1.00  0.00     0.016 C 
HETATM   37  C27 UNL     1      -2.908  -0.073   5.792  1.00  0.00     0.016 C 
BRANCH  29  38
HETATM   38  O1  UNL     1      -6.480  -0.692   8.060  1.00  0.00    -0.379 OA
BRANCH  38  39
HETATM   39  C3  UNL     1      -7.464   0.219   7.826  1.00  0.00     0.195 C 
BRANCH  39  40
HETATM   40  C2  UNL     1      -8.338   0.577   8.942  1.00  0.00    -0.011 C 
HETATM   41  C1  UNL     1      -8.038   0.198  10.179  1.00  0.00     0.009 C 
ENDBRANCH  39  40
ENDBRANCH  38  39
ENDBRANCH  29  38
ENDBRANCH  27  28
ENDBRANCH   1  27
BRANCH   5  42
HETATM   42  O11 UNL     1      -7.787  -4.699   3.069  1.00  0.00    -0.390 OA
ATOM     43  H11 UNL     1      -7.428  -5.399   3.602  1.00  0.00     0.210 HD
ENDBRANCH   5  42
BRANCH   6  44
HETATM   44  O12 UNL     1      -5.307  -4.458   4.602  1.00  0.00    -0.388 OA
ATOM     45  H12 UNL     1      -5.699  -5.317   4.707  1.00  0.00     0.210 HD
ENDBRANCH   6  44
TORSDOF 17
ENDMDL
MODEL 2
REMARK VINA RESULT: -7.149394988      2.192      6.857
REMARK  17 active torsions:
REMARK  status: ('A' for Active; 'I' for Inactive)
REMARK    1  A    between atoms: C2_2  and  C3_3 
REMARK    2  A    between atoms: C3_3  and  O1_4 
REMARK    3  A    between atoms: O1_4  and  C4_5 
REMARK    4  A    between atoms: C10_11  and  O2_12 
REMARK    5  A    between atoms: O2_12  and  C11_13 
REMARK    6  A    between atoms: C12_15  and  C13_16 
REMARK    7  A    between atoms: C13_16  and  O4_17 
REMARK    8  A    between atoms: C13_16  and  C14_19 
REMARK    9  A    between atoms: C14_19  and  O5_20 
REMARK   10  A    between atoms: O5_20  and  C15_21 
REMARK   11  A    between atoms: C17_23  and  O6_24 
REMARK   12  A    between atoms: C19_26  and  O7_27 
REMARK   13  A    between atoms: C20_29  and  C21_30 
REMARK   14  A    between atoms: C21_30  and  O8_31 
REMARK   15  A    between atoms: C22_34  and  O10_35 
REMARK   16  A    between atoms: C23_37  and  O11_38 
REMARK   17  A    between atoms: C24_40  and  O12_41 
ROOT
HETATM    1  C11 UNL     1      -5.489  -2.711   4.292  1.00  0.00     0.292 C 
HETATM    2  O3  UNL     1      -5.225  -2.114   5.535  1.00  0.00    -0.348 OA
HETATM    3  C12 UNL     1      -3.935  -2.444   5.961  1.00  0.00     0.186 C 
HETATM    4  C22 UNL     1      -3.914  -3.893   6.348  1.00  0.00     0.181 C 
HETATM    5  C23 UNL     1      -5.117  -4.608   5.857  1.00  0.00     0.183 C 
HETATM    6  C24 UNL     1      -5.600  -4.216   4.482  1.00  0.00     0.204 C 
ENDROOT
BRANCH   3   7
HETATM    7  C13 UNL     1      -3.662  -1.594   7.195  1.00  0.00     0.173 C 
BRANCH   7   8
HETATM    8  O4  UNL     1      -2.390  -1.952   7.725  1.00  0.00    -0.391 OA
ATOM      9  H4  UNL     1      -2.468  -2.045   8.667  1.00  0.00     0.210 HD
ENDBRANCH   7   8
BRANCH   7  10
HETATM   10  C14 UNL     1      -4.618  -1.861   8.326  1.00  0.00     0.205 C 
BRANCH  10  11
HETATM   11  O5  UNL     1      -5.738  -1.071   8.353  1.00  0.00    -0.359 OA
BRANCH  11  12
HETATM   12  C15 UNL     1      -5.580  -0.097   9.345  1.00  0.00     0.262 C 
HETATM   13  C16 UNL     1      -4.555  -0.531  10.369  1.00  0.00     0.095 C 
HETATM   14  C17 UNL     1      -4.847   0.199  11.658  1.00  0.00     0.156 C 
HETATM   15  C19 UNL     1      -6.138  -0.380  12.230  1.00  0.00     0.178 C 
HETATM   16  C20 UNL     1      -6.991  -0.763  11.037  1.00  0.00     0.179 C 
HETATM   17  O9  UNL     1      -6.800   0.147   9.989  1.00  0.00    -0.351 OA
BRANCH  14  18
HETATM   18  O6  UNL     1      -3.793   0.043  12.556  1.00  0.00    -0.388 OA
HETATM   19  C18 UNL     1      -2.612   0.405  11.947  1.00  0.00     0.202 C 
ENDBRANCH  14  18
BRANCH  15  20
HETATM   20  O7  UNL     1      -6.816   0.601  12.967  1.00  0.00    -0.390 OA
ATOM     21  H7  UNL     1      -7.097   1.301  12.392  1.00  0.00     0.210 HD
ENDBRANCH  15  20
BRANCH  16  22
HETATM   22  C21 UNL     1      -8.443  -0.747  11.406  1.00  0.00     0.198 C 
BRANCH  22  23
HETATM   23  O8  UNL     1      -8.768  -1.704  12.355  1.00  0.00    -0.398 OA
ATOM     24  H8  UNL     1      -9.706  -1.819  12.458  1.00  0.00     0.209 HD
ENDBRANCH  22  23
ENDBRANCH  16  22
ENDBRANCH  11  12
ENDBRANCH  10  11
ENDBRANCH   7  10
ENDBRANCH   3   7
BRANCH   4  25
HETATM   25  O10 UNL     1      -2.725  -4.471   5.872  1.00  0.00    -0.390 OA
ATOM     26  H10 UNL     1      -2.404  -5.088   6.521  1.00  0.00     0.210 HD
ENDBRANCH   4  25
BRANCH   1  27
HETATM   27  O2  UNL     1      -6.530  -2.139   3.629  1.00  0.00    -0.350 OA
BRANCH  27  28
HETATM   28  C10 UNL     1      -6.926  -0.901   4.092  1.00  0.00     0.163 C 
HETATM   29  C4  UNL     1      -8.410  -0.803   4.134  1.00  0.00     0.156 C 
HETATM   30  C5  UNL     1      -8.822   0.221   3.061  1.00  0.00     0.026 C 
HETATM   31  C6  UNL     1      -8.557   1.568   3.662  1.00  0.00     0.009 C 
HETATM   32  C25 UNL     1      -7.652   0.101   2.102  1.00  0.00    -0.032 C 
HETATM   33  C7  UNL     1      -7.051   1.513   3.865  1.00  0.00     0.013 C 
HETATM   34  C8  UNL     1      -6.576   0.238   3.155  1.00  0.00    -0.008 C 
HETATM   35  C9  UNL     1      -5.202   0.322   2.681  1.00  0.00     0.019 C 
HETATM   36  C26 UNL     1      -7.625   1.262   1.128  1.00  0.00     0.016 C 
HETATM   37  C27 UNL     1      -7.644  -1.182   1.353  1.00  0.00     0.016 C 
BRANCH  29  38
HETATM   38  O1  UNL     1      -8.900  -0.224   5.327  1.00  0.00    -0.379 OA
BRANCH  38  39
HETATM   39  C3  UNL     1     -10.155  -0.658   5.630  1.00  0.00     0.195 C 
BRANCH  39  40
HETATM   40  C2  UNL     1     -11.126   0.336   6.085  1.00  0.00    -0.011 C 
HETATM   41  C1  UNL     1     -12.047   0.805   5.251  1.00  0.00     0.009 C 
ENDBRANCH  39  40
ENDBRANCH  38  39
ENDBRANCH  29  38
ENDBRANCH  27  28
ENDBRANCH   1  27
BRANCH   5  42
HETATM   42  O11 UNL     1      -4.805  -5.982   5.792  1.00  0.00    -0.390 OA
ATOM     43  H11 UNL     1      -4.363  -6.218   6.599  1.00  0.00     0.210 HD
ENDBRANCH   5  42
BRANCH   6  44
HETATM   44  O12 UNL     1      -6.956  -4.540   4.431  1.00  0.00    -0.388 OA
ATOM     45  H12 UNL     1      -7.232  -4.736   5.319  1.00  0.00     0.210 HD
ENDBRANCH   6  44
TORSDOF 17
ENDMDL
MODEL 3
REMARK VINA RESULT: -7.111060515      2.484      7.596
REMARK  17 active torsions:
REMARK  status: ('A' for Active; 'I' for Inactive)
REMARK    1  A    between atoms: C2_2  and  C3_3 
REMARK    2  A    between atoms: C3_3  and  O1_4 
REMARK    3  A    between atoms: O1_4  and  C4_5 
REMARK    4  A    between atoms: C10_11  and  O2_12 
REMARK    5  A    between atoms: O2_12  and  C11_13 
REMARK    6  A    between atoms: C12_15  and  C13_16 
REMARK    7  A    between atoms: C13_16  and  O4_17 
REMARK    8  A    between atoms: C13_16  and  C14_19 
REMARK    9  A    between atoms: C14_19  and  O5_20 
REMARK   10  A    between atoms: O5_20  and  C15_21 
REMARK   11  A    between atoms: C17_23  and  O6_24 
REMARK   12  A    between atoms: C19_26  and  O7_27 
REMARK   13  A    between atoms: C20_29  and  C21_30 
REMARK   14  A    between atoms: C21_30  and  O8_31 
REMARK   15  A    between atoms: C22_34  and  O10_35 
REMARK   16  A    between atoms: C23_37  and  O11_38 
REMARK   17  A    between atoms: C24_40  and  O12_41 
ROOT
HETATM    1  C11 UNL     1      -5.570  -1.530   2.891  1.00  0.00     0.292 C 
HETATM    2  O3  UNL     1      -5.396  -0.938   4.152  1.00  0.00    -0.348 OA
HETATM    3  C12 UNL     1      -4.500  -1.691   4.916  1.00  0.00     0.186 C 
HETATM    4  C22 UNL     1      -5.169  -2.975   5.311  1.00  0.00     0.181 C 
HETATM    5  C23 UNL     1      -6.400  -3.216   4.521  1.00  0.00     0.183 C 
HETATM    6  C24 UNL     1      -6.330  -2.837   3.061  1.00  0.00     0.204 C 
ENDROOT
BRANCH   3   7
HETATM    7  C13 UNL     1      -4.212  -0.872   6.167  1.00  0.00     0.173 C 
BRANCH   7   8
HETATM    8  O4  UNL     1      -2.850  -1.063   6.536  1.00  0.00    -0.391 OA
ATOM      9  H4  UNL     1      -2.796  -1.126   7.482  1.00  0.00     0.210 HD
ENDBRANCH   7   8
BRANCH   7  10
HETATM   10  C14 UNL     1      -4.984  -1.334   7.373  1.00  0.00     0.205 C 
BRANCH  10  11
HETATM   11  O5  UNL     1      -5.077  -0.429   8.398  1.00  0.00    -0.359 OA
BRANCH  11  12
HETATM   12  C15 UNL     1      -4.368  -0.919   9.500  1.00  0.00     0.262 C 
HETATM   13  C16 UNL     1      -4.794  -0.218  10.771  1.00  0.00     0.095 C 
HETATM   14  C17 UNL     1      -3.656  -0.315  11.759  1.00  0.00     0.156 C 
HETATM   15  C19 UNL     1      -2.533   0.586  11.256  1.00  0.00     0.178 C 
HETATM   16  C20 UNL     1      -2.601   0.536   9.742  1.00  0.00     0.179 C 
HETATM   17  O9  UNL     1      -2.991  -0.739   9.314  1.00  0.00    -0.351 OA
BRANCH  14  18
HETATM   18  O6  UNL     1      -4.078   0.079  13.028  1.00  0.00    -0.388 OA
HETATM   19  C18 UNL     1      -5.220  -0.611  13.368  1.00  0.00     0.202 C 
ENDBRANCH  14  18
BRANCH  15  20
HETATM   20  O7  UNL     1      -1.293   0.078  11.664  1.00  0.00    -0.390 OA
ATOM     21  H7  UNL     1      -1.159   0.253  12.588  1.00  0.00     0.210 HD
ENDBRANCH  15  20
BRANCH  16  22
HETATM   22  C21 UNL     1      -1.258   0.835   9.148  1.00  0.00     0.198 C 
BRANCH  22  23
HETATM   23  O8  UNL     1      -0.637  -0.290   8.627  1.00  0.00    -0.398 OA
ATOM     24  H8  UNL     1       0.304  -0.287   8.760  1.00  0.00     0.209 HD
ENDBRANCH  22  23
ENDBRANCH  16  22
ENDBRANCH  11  12
ENDBRANCH  10  11
ENDBRANCH   7  10
ENDBRANCH   3   7
BRANCH   4  25
HETATM   25  O10 UNL     1      -4.244  -4.025   5.184  1.00  0.00    -0.390 OA
ATOM     26  H10 UNL     1      -3.861  -4.200   6.036  1.00  0.00     0.210 HD
ENDBRANCH   4  25
BRANCH   1  27
HETATM   27  O2  UNL     1      -6.090  -0.682   1.964  1.00  0.00    -0.350 OA
BRANCH  27  28
HETATM   28  C10 UNL     1      -6.538   0.530   2.447  1.00  0.00     0.163 C 
HETATM   29  C4  UNL     1      -7.977   0.729   2.122  1.00  0.00     0.156 C 
HETATM   30  C5  UNL     1      -8.051   1.879   1.101  1.00  0.00     0.026 C 
HETATM   31  C6  UNL     1      -7.892   3.139   1.896  1.00  0.00     0.009 C 
HETATM   32  C25 UNL     1      -6.678   1.769   0.463  1.00  0.00    -0.032 C 
HETATM   33  C7  UNL     1      -6.494   2.957   2.467  1.00  0.00     0.013 C 
HETATM   34  C8  UNL     1      -5.908   1.726   1.763  1.00  0.00    -0.008 C 
HETATM   35  C9  UNL     1      -4.455   1.758   1.665  1.00  0.00     0.019 C 
HETATM   36  C26 UNL     1      -6.348   3.014  -0.336  1.00  0.00     0.016 C 
HETATM   37  C27 UNL     1      -6.532   0.568  -0.398  1.00  0.00     0.016 C 
BRANCH  29  38
HETATM   38  O1  UNL     1      -8.734   1.223   3.209  1.00  0.00    -0.379 OA
BRANCH  38  39
HETATM   39  C3  UNL     1      -8.724   0.371   4.271  1.00  0.00     0.195 C 
BRANCH  39  40
HETATM   40  C2  UNL     1      -8.525   0.945   5.600  1.00  0.00    -0.011 C 
HETATM   41  C1  UNL     1      -7.331   1.401   5.963  1.00  0.00     0.009 C 
ENDBRANCH  39  40
ENDBRANCH  38  39
ENDBRANCH  29  38
ENDBRANCH  27  28
ENDBRANCH   1  27
BRANCH   5  42
HETATM   42  O11 UNL     1      -6.672  -4.600   4.559  1.00  0.00    -0.390 OA
ATOM     43  H11 UNL     1      -7.152  -4.823   3.771  1.00  0.00     0.210 HD
ENDBRANCH   5  42
BRANCH   6  44
HETATM   44  O12 UNL     1      -7.643  -2.608   2.649  1.00  0.00    -0.388 OA
ATOM     45  H12 UNL     1      -7.881  -3.317   2.062  1.00  0.00     0.210 HD
ENDBRANCH   6  44
TORSDOF 17
ENDMDL
MODEL 4
REMARK VINA RESULT: -7.074132557      2.180      6.281
REMARK  17 active torsions:
REMARK  status: ('A' for Active; 'I' for Inactive)
REMARK    1  A    between atoms: C2_2  and  C3_3 
REMARK    2  A    between atoms: C3_3  and  O1_4 
REMARK    3  A    between atoms: O1_4  and  C4_5 
REMARK    4  A    between atoms: C10_11  and  O2_12 
REMARK    5  A    between atoms: O2_12  and  C11_13 
REMARK    6  A    between atoms: C12_15  and  C13_16 
REMARK    7  A    between atoms: C13_16  and  O4_17 
REMARK    8  A    between atoms: C13_16  and  C14_19 
REMARK    9  A    between atoms: C14_19  and  O5_20 
REMARK   10  A    between atoms: O5_20  and  C15_21 
REMARK   11  A    between atoms: C17_23  and  O6_24 
REMARK   12  A    between atoms: C19_26  and  O7_27 
REMARK   13  A    between atoms: C20_29  and  C21_30 
REMARK   14  A    between atoms: C21_30  and  O8_31 
REMARK   15  A    between atoms: C22_34  and  O10_35 
REMARK   16  A    between atoms: C23_37  and  O11_38 
REMARK   17  A    between atoms: C24_40  and  O12_41 
ROOT
HETATM    1  C11 UNL     1      -6.676  -1.491   1.917  1.00  0.00     0.292 C 
HETATM    2  O3  UNL     1      -6.394  -2.066   3.166  1.00  0.00    -0.348 OA
HETATM    3  C12 UNL     1      -6.090  -3.422   3.011  1.00  0.00     0.186 C 
HETATM    4  C22 UNL     1      -7.347  -4.157   2.653  1.00  0.00     0.181 C 
HETATM    5  C23 UNL     1      -8.426  -3.228   2.241  1.00  0.00     0.183 C 
HETATM    6  C24 UNL     1      -7.995  -2.048   1.404  1.00  0.00     0.204 C 
ENDROOT
BRANCH   3   7
HETATM    7  C13 UNL     1      -5.597  -3.907   4.368  1.00  0.00     0.173 C 
BRANCH   7   8
HETATM    8  O4  UNL     1      -6.630  -4.668   4.985  1.00  0.00    -0.391 OA
ATOM      9  H4  UNL     1      -6.735  -4.370   5.881  1.00  0.00     0.210 HD
ENDBRANCH   7   8
BRANCH   7  10
HETATM   10  C14 UNL     1      -5.336  -2.789   5.342  1.00  0.00     0.205 C 
BRANCH  10  11
HETATM   11  O5  UNL     1      -4.039  -2.666   5.766  1.00  0.00    -0.359 OA
BRANCH  11  12
HETATM   12  C15 UNL     1      -4.036  -2.412   7.143  1.00  0.00     0.262 C 
HETATM   13  C16 UNL     1      -5.190  -1.514   7.528  1.00  0.00     0.095 C 
HETATM   14  C17 UNL     1      -4.820  -0.806   8.810  1.00  0.00     0.156 C 
HETATM   15  C19 UNL     1      -3.725   0.203   8.476  1.00  0.00     0.178 C 
HETATM   16  C20 UNL     1      -2.909  -0.417   7.359  1.00  0.00     0.179 C 
HETATM   17  O9  UNL     1      -2.832  -1.806   7.525  1.00  0.00    -0.351 OA
BRANCH  14  18
HETATM   18  O6  UNL     1      -5.934  -0.168   9.353  1.00  0.00    -0.388 OA
HETATM   19  C18 UNL     1      -6.083  -0.543  10.669  1.00  0.00     0.202 C 
ENDBRANCH  14  18
BRANCH  15  20
HETATM   20  O7  UNL     1      -2.892   0.389   9.588  1.00  0.00    -0.390 OA
ATOM     21  H7  UNL     1      -1.993   0.504   9.303  1.00  0.00     0.210 HD
ENDBRANCH  15  20
BRANCH  16  22
HETATM   22  C21 UNL     1      -1.513   0.129   7.366  1.00  0.00     0.198 C 
BRANCH  22  23
HETATM   23  O8  UNL     1      -0.676  -0.543   8.243  1.00  0.00    -0.398 OA
ATOM     24  H8  UNL     1       0.129  -0.070   8.420  1.00  0.00     0.209 HD
ENDBRANCH  22  23
ENDBRANCH  16  22
ENDBRANCH  11  12
ENDBRANCH  10  11
ENDBRANCH   7  10
ENDBRANCH   3   7
BRANCH   4  25
HETATM   25  O10 UNL     1      -7.051  -5.100   1.654  1.00  0.00    -0.390 OA
ATOM     26  H10 UNL     1      -7.545  -5.893   1.826  1.00  0.00     0.210 HD
ENDBRANCH   4  25
BRANCH   1  27
HETATM   27  O2  UNL     1      -6.590  -0.133   1.917  1.00  0.00    -0.350 OA
BRANCH  27  28
HETATM   28  C10 UNL     1      -6.462   0.458   3.157  1.00  0.00     0.163 C 
HETATM   29  C4  UNL     1      -7.351   1.647   3.269  1.00  0.00     0.156 C 
HETATM   30  C5  UNL     1      -6.436   2.884   3.338  1.00  0.00     0.026 C 
HETATM   31  C6  UNL     1      -5.926   2.933   4.747  1.00  0.00     0.009 C 
HETATM   32  C25 UNL     1      -5.212   2.362   2.609  1.00  0.00    -0.032 C 
HETATM   33  C7  UNL     1      -5.148   1.630   4.828  1.00  0.00     0.013 C 
HETATM   34  C8  UNL     1      -5.100   1.077   3.397  1.00  0.00    -0.008 C 
HETATM   35  C9  UNL     1      -3.930   0.250   3.139  1.00  0.00     0.019 C 
HETATM   36  C26 UNL     1      -4.014   3.262   2.844  1.00  0.00     0.016 C 
HETATM   37  C27 UNL     1      -5.432   2.192   1.150  1.00  0.00     0.016 C 
BRANCH  29  38
HETATM   38  O1  UNL     1      -8.056   1.707   4.493  1.00  0.00    -0.379 OA
BRANCH  38  39
HETATM   39  C3  UNL     1      -8.867   0.628   4.670  1.00  0.00     0.195 C 
BRANCH  39  40
HETATM   40  C2  UNL     1      -8.888   0.005   5.993  1.00  0.00    -0.011 C 
HETATM   41  C1  UNL     1      -8.271   0.582   7.017  1.00  0.00     0.009 C 
ENDBRANCH  39  40
ENDBRANCH  38  39
ENDBRANCH  29  38
ENDBRANCH  27  28
ENDBRANCH   1  27
BRANCH   5  42
HETATM   42  O11 UNL     1      -9.347  -3.956   1.458  1.00  0.00    -0.390 OA
ATOM     43  H11 UNL     1      -9.655  -4.688   1.978  1.00  0.00     0.210 HD
ENDBRANCH   5  42
BRANCH   6  44
HETATM   44  O12 UNL     1      -8.961  -1.059   1.587  1.00  0.00    -0.388 OA
ATOM     45  H12 UNL     1      -9.102  -0.643   0.744  1.00  0.00     0.210 HD
ENDBRANCH   6  44
TORSDOF 17
ENDMDL
MODEL 5
REMARK VINA RESULT: -6.939837263      1.478      2.924
REMARK  17 active torsions:
REMARK  status: ('A' for Active; 'I' for Inactive)
REMARK    1  A    between atoms: C2_2  and  C3_3 
REMARK    2  A    between atoms: C3_3  and  O1_4 
REMARK    3  A    between atoms: O1_4  and  C4_5 
REMARK    4  A    between atoms: C10_11  and  O2_12 
REMARK    5  A    between atoms: O2_12  and  C11_13 
REMARK    6  A    between atoms: C12_15  and  C13_16 
REMARK    7  A    between atoms: C13_16  and  O4_17 
REMARK    8  A    between atoms: C13_16  and  C14_19 
REMARK    9  A    between atoms: C14_19  and  O5_20 
REMARK   10  A    between atoms: O5_20  and  C15_21 
REMARK   11  A    between atoms: C17_23  and  O6_24 
REMARK   12  A    between atoms: C19_26  and  O7_27 
REMARK   13  A    between atoms: C20_29  and  C21_30 
REMARK   14  A    between atoms: C21_30  and  O8_31 
REMARK   15  A    between atoms: C22_34  and  O10_35 
REMARK   16  A    between atoms: C23_37  and  O11_38 
REMARK   17  A    between atoms: C24_40  and  O12_41 
ROOT
HETATM    1  C11 UNL     1      -6.956  -2.465   4.739  1.00  0.00     0.292 C 
HETATM    2  O3  UNL     1      -7.068  -1.478   3.748  1.00  0.00    -0.348 OA
HETATM    3  C12 UNL     1      -8.200  -1.714   2.962  1.00  0.00     0.186 C 
HETATM    4  C22 UNL     1      -7.949  -2.923   2.111  1.00  0.00     0.181 C 
HETATM    5  C23 UNL     1      -6.768  -3.688   2.581  1.00  0.00     0.183 C 
HETATM    6  C24 UNL     1      -6.604  -3.789   4.079  1.00  0.00     0.204 C 
ENDROOT
BRANCH   3   7
HETATM    7  C13 UNL     1      -8.358  -0.494   2.064  1.00  0.00     0.173 C 
BRANCH   7   8
HETATM    8  O4  UNL     1      -7.579  -0.689   0.888  1.00  0.00    -0.391 OA
ATOM      9  H4  UNL     1      -8.003  -0.242   0.165  1.00  0.00     0.210 HD
ENDBRANCH   7   8
BRANCH   7  10
HETATM   10  C14 UNL     1      -7.800   0.767   2.666  1.00  0.00     0.205 C 
BRANCH  10  11
HETATM   11  O5  UNL     1      -8.658   1.464   3.477  1.00  0.00    -0.359 OA
BRANCH  11  12
HETATM   12  C15 UNL     1      -9.935   1.447   2.905  1.00  0.00     0.262 C 
HETATM   13  C16 UNL     1     -10.477   2.851   2.755  1.00  0.00     0.095 C 
HETATM   14  C17 UNL     1     -11.984   2.767   2.724  1.00  0.00     0.156 C 
HETATM   15  C19 UNL     1     -12.451   2.391   4.127  1.00  0.00     0.178 C 
HETATM   16  C20 UNL     1     -11.372   1.494   4.702  1.00  0.00     0.179 C 
HETATM   17  O9  UNL     1     -10.814   0.696   3.696  1.00  0.00    -0.351 OA
BRANCH  14  18
HETATM   18  O6  UNL     1     -12.532   3.986   2.329  1.00  0.00    -0.388 OA
HETATM   19  C18 UNL     1     -11.826   5.017   2.907  1.00  0.00     0.202 C 
ENDBRANCH  14  18
BRANCH  15  20
HETATM   20  O7  UNL     1     -13.645   1.662   4.054  1.00  0.00    -0.390 OA
ATOM     21  H7  UNL     1     -13.482   0.811   3.663  1.00  0.00     0.210 HD
ENDBRANCH  15  20
BRANCH  16  22
HETATM   22  C21 UNL     1     -11.948   0.589   5.748  1.00  0.00     0.198 C 
BRANCH  22  23
HETATM   23  O8  UNL     1     -12.651   1.274   6.726  1.00  0.00    -0.398 OA
ATOM     24  H8  UNL     1     -12.882   0.726   7.468  1.00  0.00     0.209 HD
ENDBRANCH  22  23
ENDBRANCH  16  22
ENDBRANCH  11  12
ENDBRANCH  10  11
ENDBRANCH   7  10
ENDBRANCH   3   7
BRANCH   4  25
HETATM   25  O10 UNL     1      -9.113  -3.709   2.087  1.00  0.00    -0.390 OA
ATOM     26  H10 UNL     1      -9.195  -4.159   2.921  1.00  0.00     0.210 HD
ENDBRANCH   4  25
BRANCH   1  27
HETATM   27  O2  UNL     1      -6.143  -2.106   5.770  1.00  0.00    -0.350 OA
BRANCH  27  28
HETATM   28  C10 UNL     1      -5.538  -0.872   5.650  1.00  0.00     0.163 C 
HETATM   29  C4  UNL     1      -4.062  -1.018   5.528  1.00  0.00     0.156 C 
HETATM   30  C5  UNL     1      -3.446  -0.440   6.816  1.00  0.00     0.026 C 
HETATM   31  C6  UNL     1      -3.473   1.050   6.645  1.00  0.00     0.009 C 
HETATM   32  C25 UNL     1      -4.598  -0.636   7.784  1.00  0.00    -0.032 C 
HETATM   33  C7  UNL     1      -4.968   1.311   6.546  1.00  0.00     0.013 C 
HETATM   34  C8  UNL     1      -5.653  -0.017   6.896  1.00  0.00    -0.008 C 
HETATM   35  C9  UNL     1      -6.978   0.155   7.475  1.00  0.00     0.019 C 
HETATM   36  C26 UNL     1      -4.392   0.175   9.048  1.00  0.00     0.016 C 
HETATM   37  C27 UNL     1      -4.825  -2.062   8.135  1.00  0.00     0.016 C 
BRANCH  29  38
HETATM   38  O1  UNL     1      -3.499  -0.206   4.517  1.00  0.00    -0.379 OA
BRANCH  38  39
HETATM   39  C3  UNL     1      -4.046  -0.456   3.296  1.00  0.00     0.195 C 
BRANCH  39  40
HETATM   40  C2  UNL     1      -4.187   0.669   2.373  1.00  0.00    -0.011 C 
HETATM   41  C1  UNL     1      -4.191   1.917   2.829  1.00  0.00     0.009 C 
ENDBRANCH  39  40
ENDBRANCH  38  39
ENDBRANCH  29  38
ENDBRANCH  27  28
ENDBRANCH   1  27
BRANCH   5  42
HETATM   42  O11 UNL     1      -6.893  -5.009   2.105  1.00  0.00    -0.390 OA
ATOM     43  H11 UNL     1      -6.069  -5.251   1.699  1.00  0.00     0.210 HD
ENDBRANCH   5  42
BRANCH   6  44
HETATM   44  O12 UNL     1      -5.249  -4.021   4.313  1.00  0.00    -0.388 OA
ATOM     45  H12 UNL     1      -5.105  -4.958   4.236  1.00  0.00     0.210 HD
ENDBRANCH   6  44
TORSDOF 17
ENDMDL
