MODEL 1
REMARK VINA RESULT: -6.402558261      0.000      0.000
REMARK  4 active torsions:
REMARK  status: ('A' for Active; 'I' for Inactive)
REMARK    1  A    between atoms: C2_2  and  C3_4 
REMARK    2  A    between atoms: C4_5  and  N1_6 
REMARK    3  A    between atoms: C13_16  and  O2_17 
REMARK    4  A    between atoms: C15_21  and  O3_22 
ROOT
HETATM    1  C3  UNL     1      18.366  26.741 -18.034  1.00  0.00    -0.003 C 
HETATM    2  C4  UNL     1      18.108  27.787 -18.756  1.00  0.00     0.016 C 
HETATM    3  C9  UNL     1      17.561  27.524 -20.158  1.00  0.00     0.062 C 
HETATM    4  C10 UNL     1      16.485  26.522 -20.137  1.00  0.00     0.050 C 
HETATM    5  C11 UNL     1      16.930  25.306 -19.424  1.00  0.00     0.008 A 
HETATM    6  C12 UNL     1      17.774  25.390 -18.352  1.00  0.00     0.035 A 
HETATM    7  C13 UNL     1      17.955  24.124 -17.830  1.00  0.00     0.155 A 
HETATM    8  N2  UNL     1      17.218  23.286 -18.600  1.00  0.00    -0.312 N 
HETATM    9  C14 UNL     1      17.122  21.865 -18.407  1.00  0.00     0.160 C 
HETATM   10  C15 UNL     1      16.593  23.961 -19.564  1.00  0.00     0.151 A 
ENDROOT
BRANCH   2  11
HETATM   11  N1  UNL     1      18.388  29.137 -18.485  1.00  0.00    -0.380 N 
HETATM   12  C5  UNL     1      17.596  29.866 -17.528  1.00  0.00     0.149 C 
HETATM   13  C6  UNL     1      16.979  31.012 -18.370  1.00  0.00     0.187 C 
HETATM   14  O1  UNL     1      18.004  31.866 -18.713  1.00  0.00    -0.388 OA
HETATM   15  C7  UNL     1      19.264  31.330 -18.609  1.00  0.00     0.187 C 
HETATM   16  C8  UNL     1      19.370  29.913 -19.195  1.00  0.00     0.149 C 
ENDBRANCH   2  11
BRANCH   1  17
HETATM   17  C2  UNL     1      19.053  26.731 -16.732  1.00  0.00     0.114 C 
HETATM   18  C1  UNL     1      18.087  26.896 -15.556  1.00  0.00     0.032 C 
HETATM   19 CL1  UNL     1      20.281  27.949 -16.549  1.00  0.00    -0.120 Cl
ENDBRANCH   1  17
BRANCH   7  20
HETATM   20  O2  UNL     1      18.733  23.790 -16.741  1.00  0.00    -0.345 OA
ATOM     21  H2  UNL     1      18.422  23.479 -15.899  1.00  0.00     0.219 HD
ENDBRANCH   7  20
BRANCH  10  22
HETATM   22  O3  UNL     1      15.745  23.523 -20.571  1.00  0.00    -0.345 OA
ATOM     23  H3  UNL     1      15.660  22.601 -20.786  1.00  0.00     0.219 HD
ENDBRANCH  10  22
TORSDOF 4
ENDMDL
MODEL 2
REMARK VINA RESULT: -5.739364448      1.924      3.453
REMARK  4 active torsions:
REMARK  status: ('A' for Active; 'I' for Inactive)
REMARK    1  A    between atoms: C2_2  and  C3_4 
REMARK    2  A    between atoms: C4_5  and  N1_6 
REMARK    3  A    between atoms: C13_16  and  O2_17 
REMARK    4  A    between atoms: C15_21  and  O3_22 
ROOT
HETATM    1  C3  UNL     1      18.019  28.342 -18.955  1.00  0.00    -0.003 C 
HETATM    2  C4  UNL     1      18.675  29.058 -18.094  1.00  0.00     0.016 C 
HETATM    3  C9  UNL     1      18.918  28.418 -16.727  1.00  0.00     0.062 C 
HETATM    4  C10 UNL     1      19.399  27.035 -16.858  1.00  0.00     0.050 C 
HETATM    5  C11 UNL     1      18.499  26.259 -17.737  1.00  0.00     0.008 A 
HETATM    6  C12 UNL     1      17.883  26.846 -18.807  1.00  0.00     0.035 A 
HETATM    7  C13 UNL     1      17.176  25.882 -19.497  1.00  0.00     0.155 A 
HETATM    8  N2  UNL     1      17.370  24.717 -18.829  1.00  0.00    -0.312 N 
HETATM    9  C14 UNL     1      16.808  23.451 -19.208  1.00  0.00     0.160 C 
HETATM   10  C15 UNL     1      18.156  24.908 -17.770  1.00  0.00     0.151 A 
ENDROOT
BRANCH   2  11
HETATM   11  N1  UNL     1      19.080  30.399 -18.189  1.00  0.00    -0.380 N 
HETATM   12  C5  UNL     1      20.449  30.725 -18.495  1.00  0.00     0.149 C 
HETATM   13  C6  UNL     1      20.916  31.525 -17.252  1.00  0.00     0.187 C 
HETATM   14  O1  UNL     1      20.249  32.730 -17.266  1.00  0.00    -0.388 OA
HETATM   15  C7  UNL     1      19.123  32.759 -18.053  1.00  0.00     0.187 C 
HETATM   16  C8  UNL     1      18.231  31.519 -17.882  1.00  0.00     0.149 C 
ENDBRANCH   2  11
BRANCH   1  17
HETATM   17  C2  UNL     1      17.517  28.798 -20.261  1.00  0.00     0.114 C 
HETATM   18  C1  UNL     1      18.619  29.400 -21.138  1.00  0.00     0.032 C 
HETATM   19 CL1  UNL     1      16.240  29.977 -20.178  1.00  0.00    -0.120 Cl
ENDBRANCH   1  17
BRANCH   7  20
HETATM   20  O2  UNL     1      16.425  26.075 -20.638  1.00  0.00    -0.345 OA
ATOM     21  H2  UNL     1      16.285  25.445 -21.335  1.00  0.00     0.219 HD
ENDBRANCH   7  20
BRANCH  10  22
HETATM   22  O3  UNL     1      18.615  24.015 -16.813  1.00  0.00    -0.345 OA
ATOM     23  H3  UNL     1      19.275  24.263 -16.175  1.00  0.00     0.219 HD
ENDBRANCH  10  22
TORSDOF 4
ENDMDL
MODEL 3
REMARK VINA RESULT: -5.548199532      3.417      6.445
REMARK  4 active torsions:
REMARK  status: ('A' for Active; 'I' for Inactive)
REMARK    1  A    between atoms: C2_2  and  C3_4 
REMARK    2  A    between atoms: C4_5  and  N1_6 
REMARK    3  A    between atoms: C13_16  and  O2_17 
REMARK    4  A    between atoms: C15_21  and  O3_22 
ROOT
HETATM    1  C3  UNL     1      17.241  23.900 -18.723  1.00  0.00    -0.003 C 
HETATM    2  C4  UNL     1      16.890  22.700 -18.376  1.00  0.00     0.016 C 
HETATM    3  C9  UNL     1      15.452  22.295 -18.695  1.00  0.00     0.062 C 
HETATM    4  C10 UNL     1      15.083  22.660 -20.071  1.00  0.00     0.050 C 
HETATM    5  C11 UNL     1      15.379  24.086 -20.321  1.00  0.00     0.008 A 
HETATM    6  C12 UNL     1      16.463  24.690 -19.748  1.00  0.00     0.035 A 
HETATM    7  C13 UNL     1      16.549  25.986 -20.215  1.00  0.00     0.155 A 
HETATM    8  N2  UNL     1      15.506  26.153 -21.067  1.00  0.00    -0.312 N 
HETATM    9  C14 UNL     1      15.215  27.366 -21.780  1.00  0.00     0.160 C 
HETATM   10  C15 UNL     1      14.786  25.036 -21.152  1.00  0.00     0.151 A 
ENDROOT
BRANCH   2  11
HETATM   11  N1  UNL     1      17.606  21.757 -17.620  1.00  0.00    -0.380 N 
HETATM   12  C5  UNL     1      17.682  20.385 -18.052  1.00  0.00     0.149 C 
HETATM   13  C6  UNL     1      17.021  19.604 -16.888  1.00  0.00     0.187 C 
HETATM   14  O1  UNL     1      17.870  19.686 -15.805  1.00  0.00    -0.388 OA
HETATM   15  C7  UNL     1      18.796  20.699 -15.872  1.00  0.00     0.187 C 
HETATM   16  C8  UNL     1      18.199  22.036 -16.339  1.00  0.00     0.149 C 
ENDBRANCH   2  11
BRANCH   1  17
HETATM   17  C2  UNL     1      18.502  24.573 -18.374  1.00  0.00     0.114 C 
HETATM   18  C1  UNL     1      19.693  23.610 -18.338  1.00  0.00     0.032 C 
HETATM   19 CL1  UNL     1      18.482  25.406 -16.846  1.00  0.00    -0.120 Cl
ENDBRANCH   1  17
BRANCH   7  20
HETATM   20  O2  UNL     1      17.508  26.918 -19.877  1.00  0.00    -0.345 OA
ATOM     21  H2  UNL     1      18.186  27.263 -20.447  1.00  0.00     0.219 HD
ENDBRANCH   7  20
BRANCH  10  22
HETATM   22  O3  UNL     1      13.646  24.749 -21.889  1.00  0.00    -0.345 OA
ATOM     23  H3  UNL     1      13.695  24.489 -22.802  1.00  0.00     0.219 HD
ENDBRANCH  10  22
TORSDOF 4
ENDMDL
MODEL 4
REMARK VINA RESULT: -5.510711987      3.168      4.537
REMARK  4 active torsions:
REMARK  status: ('A' for Active; 'I' for Inactive)
REMARK    1  A    between atoms: C2_2  and  C3_4 
REMARK    2  A    between atoms: C4_5  and  N1_6 
REMARK    3  A    between atoms: C13_16  and  O2_17 
REMARK    4  A    between atoms: C15_21  and  O3_22 
ROOT
HETATM    1  C3  UNL     1      17.382  23.485 -18.201  1.00  0.00    -0.003 C 
HETATM    2  C4  UNL     1      16.500  23.740 -19.117  1.00  0.00     0.016 C 
HETATM    3  C9  UNL     1      15.858  22.529 -19.794  1.00  0.00     0.062 C 
HETATM    4  C10 UNL     1      15.437  21.522 -18.809  1.00  0.00     0.050 C 
HETATM    5  C11 UNL     1      16.557  21.186 -17.907  1.00  0.00     0.008 A 
HETATM    6  C12 UNL     1      17.465  22.136 -17.530  1.00  0.00     0.035 A 
HETATM    7  C13 UNL     1      18.345  21.575 -16.625  1.00  0.00     0.155 A 
HETATM    8  N2  UNL     1      17.959  20.285 -16.469  1.00  0.00    -0.312 N 
HETATM    9  C14 UNL     1      18.608  19.333 -15.611  1.00  0.00     0.160 C 
HETATM   10  C15 UNL     1      16.893  20.019 -17.222  1.00  0.00     0.151 A 
ENDROOT
BRANCH   2  11
HETATM   11  N1  UNL     1      16.142  24.977 -19.678  1.00  0.00    -0.380 N 
HETATM   12  C5  UNL     1      14.809  25.190 -20.180  1.00  0.00     0.149 C 
HETATM   13  C6  UNL     1      15.034  25.500 -21.682  1.00  0.00     0.187 C 
HETATM   14  O1  UNL     1      15.648  26.730 -21.759  1.00  0.00    -0.388 OA
HETATM   15  C7  UNL     1      16.247  27.153 -20.597  1.00  0.00     0.187 C 
HETATM   16  C8  UNL     1      17.069  26.055 -19.904  1.00  0.00     0.149 C 
ENDBRANCH   2  11
BRANCH   1  17
HETATM   17  C2  UNL     1      18.252  24.469 -17.535  1.00  0.00     0.114 C 
HETATM   18  C1  UNL     1      17.490  25.353 -16.544  1.00  0.00     0.032 C 
HETATM   19 CL1  UNL     1      19.100  25.537 -18.615  1.00  0.00    -0.120 Cl
ENDBRANCH   1  17
BRANCH   7  20
HETATM   20  O2  UNL     1      19.403  22.211 -16.009  1.00  0.00    -0.345 OA
ATOM     21  H2  UNL     1      20.146  21.793 -15.589  1.00  0.00     0.219 HD
ENDBRANCH   7  20
BRANCH  10  22
HETATM   22  O3  UNL     1      16.168  18.847 -17.380  1.00  0.00    -0.345 OA
ATOM     23  H3  UNL     1      16.415  18.189 -18.020  1.00  0.00     0.219 HD
ENDBRANCH  10  22
TORSDOF 4
ENDMDL
MODEL 5
REMARK VINA RESULT: -5.479756285      4.250      6.086
REMARK  4 active torsions:
REMARK  status: ('A' for Active; 'I' for Inactive)
REMARK    1  A    between atoms: C2_2  and  C3_4 
REMARK    2  A    between atoms: C4_5  and  N1_6 
REMARK    3  A    between atoms: C13_16  and  O2_17 
REMARK    4  A    between atoms: C15_21  and  O3_22 
ROOT
HETATM    1  C3  UNL     1      14.735  24.984 -21.579  1.00  0.00    -0.003 C 
HETATM    2  C4  UNL     1      14.717  26.207 -22.012  1.00  0.00     0.016 C 
HETATM    3  C9  UNL     1      15.359  27.256 -21.105  1.00  0.00     0.062 C 
HETATM    4  C10 UNL     1      16.668  26.808 -20.606  1.00  0.00     0.050 C 
HETATM    5  C11 UNL     1      16.554  25.468 -19.994  1.00  0.00     0.008 A 
HETATM    6  C12 UNL     1      15.687  24.538 -20.495  1.00  0.00     0.035 A 
HETATM    7  C13 UNL     1      15.845  23.359 -19.794  1.00  0.00     0.155 A 
HETATM    8  N2  UNL     1      16.808  23.594 -18.868  1.00  0.00    -0.312 N 
HETATM    9  C14 UNL     1      17.285  22.628 -17.918  1.00  0.00     0.160 C 
HETATM   10  C15 UNL     1      17.252  24.847 -18.960  1.00  0.00     0.151 A 
ENDROOT
BRANCH   2  11
HETATM   11  N1  UNL     1      14.068  26.733 -23.141  1.00  0.00    -0.380 N 
HETATM   12  C5  UNL     1      14.813  27.021 -24.340  1.00  0.00     0.149 C 
HETATM   13  C6  UNL     1      14.615  28.546 -24.529  1.00  0.00     0.187 C 
HETATM   14  O1  UNL     1      13.296  28.750 -24.869  1.00  0.00    -0.388 OA
HETATM   15  C7  UNL     1      12.453  27.708 -24.566  1.00  0.00     0.187 C 
HETATM   16  C8  UNL     1      12.685  27.129 -23.161  1.00  0.00     0.149 C 
ENDBRANCH   2  11
BRANCH   1  17
HETATM   17  C2  UNL     1      14.038  23.837 -22.184  1.00  0.00     0.114 C 
HETATM   18  C1  UNL     1      14.425  23.618 -23.649  1.00  0.00     0.032 C 
HETATM   19 CL1  UNL     1      12.301  23.934 -22.131  1.00  0.00    -0.120 Cl
ENDBRANCH   1  17
BRANCH   7  20
HETATM   20  O2  UNL     1      15.155  22.182 -20.001  1.00  0.00    -0.345 OA
ATOM     21  H2  UNL     1      14.406  21.872 -19.506  1.00  0.00     0.219 HD
ENDBRANCH   7  20
BRANCH  10  22
HETATM   22  O3  UNL     1      18.219  25.518 -18.227  1.00  0.00    -0.345 OA
ATOM     23  H3  UNL     1      18.433  26.428 -18.397  1.00  0.00     0.219 HD
ENDBRANCH  10  22
TORSDOF 4
ENDMDL
