MODEL 1
REMARK VINA RESULT: -5.254264242      0.000      0.000
REMARK  3 active torsions:
REMARK  status: ('A' for Active; 'I' for Inactive)
REMARK    1  A    between atoms: O1_2  and  N1_3 
REMARK    2  A    between atoms: N1_3  and  C2_5 
REMARK    3  A    between atoms: C6_16  and  N5_17 
ROOT
HETATM    1  C2  UNL     1       4.730  11.344  19.753  1.00  0.00     0.155 C 
HETATM    2  N2  UNL     1       3.813  10.410  19.339  1.00  0.00    -0.348 N 
ATOM      3  H2  UNL     1       2.967  10.754  18.886  1.00  0.00     0.167 HD
HETATM    4  C3  UNL     1       3.940   9.058  19.484  1.00  0.00     0.107 C 
HETATM    5  C4  UNL     1       4.948   8.335  20.068  1.00  0.00     0.106 C 
HETATM    6  N3  UNL     1       6.183   8.756  20.455  1.00  0.00    -0.349 N 
ATOM      7  H3  UNL     1       6.788   8.031  20.842  1.00  0.00     0.167 HD
HETATM    8  C5  UNL     1       6.724   9.986  20.400  1.00  0.00     0.129 C 
HETATM    9  N4  UNL     1       7.887  10.152  20.853  1.00  0.00    -0.384 N 
ATOM     10  H41 UNL     1       8.297  11.085  20.812  1.00  0.00     0.157 HD
ATOM     11  H42 UNL     1       8.355   9.333  21.242  1.00  0.00     0.157 HD
HETATM   12  C6  UNL     1       6.077  11.117  19.864  1.00  0.00     0.116 C 
ENDROOT
BRANCH   1  13
HETATM   13  N1  UNL     1       4.264  12.473  20.047  1.00  0.00    -0.249 N 
ATOM     14  H1  UNL     1       3.536  12.486  20.760  1.00  0.00     0.196 HD
BRANCH  13  15
HETATM   15  O1  UNL     1       4.611  13.672  19.533  1.00  0.00    -0.284 OA
HETATM   16  C1  UNL     1       3.812  14.820  19.776  1.00  0.00     0.237 C 
ENDBRANCH  13  15
ENDBRANCH   1  13
BRANCH  12  17
HETATM   17  N5  UNL     1       6.875  11.998  19.420  1.00  0.00    -0.393 N 
ATOM     18  H52 UNL     1       6.524  12.952  19.508  1.00  0.00     0.156 HD
ATOM     19  H51 UNL     1       7.773  11.692  19.044  1.00  0.00     0.156 HD
ENDBRANCH  12  17
TORSDOF 3
ENDMDL
MODEL 2
REMARK VINA RESULT: -5.133919438      1.280      2.596
REMARK  3 active torsions:
REMARK  status: ('A' for Active; 'I' for Inactive)
REMARK    1  A    between atoms: O1_2  and  N1_3 
REMARK    2  A    between atoms: N1_3  and  C2_5 
REMARK    3  A    between atoms: C6_16  and  N5_17 
ROOT
HETATM    1  C2  UNL     1       5.605  11.267  19.558  1.00  0.00     0.155 C 
HETATM    2  N2  UNL     1       6.887  10.790  19.439  1.00  0.00    -0.348 N 
ATOM      3  H2  UNL     1       7.648  11.460  19.548  1.00  0.00     0.167 HD
HETATM    4  C3  UNL     1       7.228   9.492  19.186  1.00  0.00     0.107 C 
HETATM    5  C4  UNL     1       6.421   8.404  18.976  1.00  0.00     0.106 C 
HETATM    6  N3  UNL     1       5.081   8.285  19.184  1.00  0.00    -0.349 N 
ATOM      7  H3  UNL     1       4.690   7.364  18.987  1.00  0.00     0.167 HD
HETATM    8  C5  UNL     1       4.197   9.205  19.611  1.00  0.00     0.129 C 
HETATM    9  N4  UNL     1       2.984   8.878  19.697  1.00  0.00    -0.384 N 
ATOM     10  H41 UNL     1       2.314   9.575  20.020  1.00  0.00     0.157 HD
ATOM     11  H42 UNL     1       2.741   7.923  19.431  1.00  0.00     0.157 HD
HETATM   12  C6  UNL     1       4.533  10.523  19.977  1.00  0.00     0.116 C 
ENDROOT
BRANCH   1  13
HETATM   13  N1  UNL     1       5.441  12.473  19.248  1.00  0.00    -0.249 N 
ATOM     14  H1  UNL     1       5.556  12.701  18.260  1.00  0.00     0.196 HD
BRANCH  13  15
HETATM   15  O1  UNL     1       5.130  13.503  20.062  1.00  0.00    -0.284 OA
HETATM   16  C1  UNL     1       4.181  14.480  19.661  1.00  0.00     0.237 C 
ENDBRANCH  13  15
ENDBRANCH   1  13
BRANCH  12  17
HETATM   17  N5  UNL     1       3.734  11.038  20.818  1.00  0.00    -0.393 N 
ATOM     18  H52 UNL     1       4.048  11.937  21.185  1.00  0.00     0.156 HD
ATOM     19  H51 UNL     1       2.870  10.541  21.032  1.00  0.00     0.156 HD
ENDBRANCH  12  17
TORSDOF 3
ENDMDL
MODEL 3
REMARK VINA RESULT: -5.031656993      2.073      3.225
REMARK  3 active torsions:
REMARK  status: ('A' for Active; 'I' for Inactive)
REMARK    1  A    between atoms: O1_2  and  N1_3 
REMARK    2  A    between atoms: N1_3  and  C2_5 
REMARK    3  A    between atoms: C6_16  and  N5_17 
ROOT
HETATM    1  C2  UNL     1       4.890  11.282  18.680  1.00  0.00     0.155 C 
HETATM    2  N2  UNL     1       5.907  12.113  19.081  1.00  0.00    -0.348 N 
ATOM      3  H2  UNL     1       5.776  13.114  18.941  1.00  0.00     0.167 HD
HETATM    4  C3  UNL     1       7.080  11.709  19.652  1.00  0.00     0.107 C 
HETATM    5  C4  UNL     1       7.523  10.442  19.931  1.00  0.00     0.106 C 
HETATM    6  N3  UNL     1       6.824   9.274  19.919  1.00  0.00    -0.349 N 
ATOM      7  H3  UNL     1       7.354   8.447  20.194  1.00  0.00     0.167 HD
HETATM    8  C5  UNL     1       5.537   9.051  19.599  1.00  0.00     0.129 C 
HETATM    9  N4  UNL     1       5.107   7.868  19.626  1.00  0.00    -0.384 N 
ATOM     10  H41 UNL     1       4.131   7.699  19.383  1.00  0.00     0.157 HD
ATOM     11  H42 UNL     1       5.770   7.139  19.890  1.00  0.00     0.157 HD
HETATM   12  C6  UNL     1       4.621  10.058  19.234  1.00  0.00     0.116 C 
ENDROOT
BRANCH   1  13
HETATM   13  N1  UNL     1       4.181  11.705  17.734  1.00  0.00    -0.249 N 
ATOM     14  H1  UNL     1       3.960  12.701  17.750  1.00  0.00     0.196 HD
BRANCH  13  15
HETATM   15  O1  UNL     1       3.675  11.003  16.699  1.00  0.00    -0.284 OA
HETATM   16  C1  UNL     1       2.777  11.612  15.783  1.00  0.00     0.237 C 
ENDBRANCH  13  15
ENDBRANCH   1  13
BRANCH  12  17
HETATM   17  N5  UNL     1       3.412   9.764  19.488  1.00  0.00    -0.393 N 
ATOM     18  H52 UNL     1       3.299   8.870  19.967  1.00  0.00     0.156 HD
ATOM     19  H51 UNL     1       2.686  10.429  19.221  1.00  0.00     0.156 HD
ENDBRANCH  12  17
TORSDOF 3
ENDMDL
MODEL 4
REMARK VINA RESULT: -4.958716602      7.386      8.209
REMARK  3 active torsions:
REMARK  status: ('A' for Active; 'I' for Inactive)
REMARK    1  A    between atoms: O1_2  and  N1_3 
REMARK    2  A    between atoms: N1_3  and  C2_5 
REMARK    3  A    between atoms: C6_16  and  N5_17 
ROOT
HETATM    1  C2  UNL     1       1.261  15.788  14.480  1.00  0.00     0.155 C 
HETATM    2  N2  UNL     1       1.266  14.553  13.879  1.00  0.00    -0.348 N 
ATOM      3  H2  UNL     1       1.657  14.493  12.939  1.00  0.00     0.167 HD
HETATM    4  C3  UNL     1       0.793  13.400  14.437  1.00  0.00     0.107 C 
HETATM    5  C4  UNL     1       0.204  13.200  15.658  1.00  0.00     0.106 C 
HETATM    6  N3  UNL     1       0.139  14.049  16.721  1.00  0.00    -0.349 N 
ATOM      7  H3  UNL     1      -0.326  13.675  17.548  1.00  0.00     0.167 HD
HETATM    8  C5  UNL     1       0.598  15.307  16.840  1.00  0.00     0.129 C 
HETATM    9  N4  UNL     1       0.392  15.923  17.919  1.00  0.00    -0.384 N 
ATOM     10  H41 UNL     1       0.740  16.877  18.009  1.00  0.00     0.157 HD
ATOM     11  H42 UNL     1      -0.120  15.424  18.647  1.00  0.00     0.157 HD
HETATM   12  C6  UNL     1       1.305  15.995  15.834  1.00  0.00     0.116 C 
ENDROOT
BRANCH   1  13
HETATM   13  N1  UNL     1       1.205  16.773  13.702  1.00  0.00    -0.249 N 
ATOM     14  H1  UNL     1       0.279  17.012  13.347  1.00  0.00     0.196 HD
BRANCH  13  15
HETATM   15  O1  UNL     1       2.222  17.553  13.279  1.00  0.00    -0.284 OA
HETATM   16  C1  UNL     1       2.399  17.822  11.896  1.00  0.00     0.237 C 
ENDBRANCH  13  15
ENDBRANCH   1  13
BRANCH  12  17
HETATM   17  N5  UNL     1       2.084  16.892  16.281  1.00  0.00    -0.393 N 
ATOM     18  H52 UNL     1       2.283  17.634  15.610  1.00  0.00     0.156 HD
ATOM     19  H51 UNL     1       2.418  16.809  17.241  1.00  0.00     0.156 HD
ENDBRANCH  12  17
TORSDOF 3
ENDMDL
MODEL 5
REMARK VINA RESULT: -4.739168084      7.250      8.361
REMARK  3 active torsions:
REMARK  status: ('A' for Active; 'I' for Inactive)
REMARK    1  A    between atoms: O1_2  and  N1_3 
REMARK    2  A    between atoms: N1_3  and  C2_5 
REMARK    3  A    between atoms: C6_16  and  N5_17 
ROOT
HETATM    1  C2  UNL     1       1.369  14.574  14.133  1.00  0.00     0.155 C 
HETATM    2  N2  UNL     1       1.549  15.858  14.587  1.00  0.00    -0.348 N 
ATOM      3  H2  UNL     1       1.908  16.542  13.922  1.00  0.00     0.167 HD
HETATM    4  C3  UNL     1       1.288  16.293  15.854  1.00  0.00     0.107 C 
HETATM    5  C4  UNL     1       0.827  15.593  16.939  1.00  0.00     0.106 C 
HETATM    6  N3  UNL     1       0.300  14.338  16.981  1.00  0.00    -0.349 N 
ATOM      7  H3  UNL     1      -0.009  14.026  17.902  1.00  0.00     0.167 HD
HETATM    8  C5  UNL     1       0.127  13.449  15.986  1.00  0.00     0.129 C 
HETATM    9  N4  UNL     1      -0.355  12.320  16.266  1.00  0.00    -0.384 N 
ATOM     10  H41 UNL     1      -0.486  11.646  15.512  1.00  0.00     0.157 HD
ATOM     11  H42 UNL     1      -0.586  12.143  17.244  1.00  0.00     0.157 HD
HETATM   12  C6  UNL     1       0.446  13.694  14.636  1.00  0.00     0.116 C 
ENDROOT
BRANCH   1  13
HETATM   13  N1  UNL     1       2.122  14.216  13.195  1.00  0.00    -0.249 N 
ATOM     14  H1  UNL     1       2.061  13.235  12.920  1.00  0.00     0.196 HD
BRANCH  13  15
HETATM   15  O1  UNL     1       3.003  14.970  12.505  1.00  0.00    -0.284 OA
HETATM   16  C1  UNL     1       2.575  15.751  11.399  1.00  0.00     0.237 C 
ENDBRANCH  13  15
ENDBRANCH   1  13
BRANCH  12  17
HETATM   17  N5  UNL     1      -0.244  13.012  13.817  1.00  0.00    -0.393 N 
ATOM     18  H52 UNL     1      -0.720  12.217  14.245  1.00  0.00     0.156 HD
ATOM     19  H51 UNL     1      -0.279  13.314  12.844  1.00  0.00     0.156 HD
ENDBRANCH  12  17
TORSDOF 3
ENDMDL
