MODEL 1
REMARK VINA RESULT: -6.419848706      0.000      0.000
REMARK  16 active torsions:
REMARK  status: ('A' for Active; 'I' for Inactive)
REMARK    1  A    between atoms: C2_2  and  O2_4 
REMARK    2  A    between atoms: O2_4  and  C3_5 
REMARK    3  A    between atoms: C3_5  and  N1_6 
REMARK    4  A    between atoms: C3_5  and  C4_10 
REMARK    5  A    between atoms: C4_10  and  N2_11 
REMARK    6  A    between atoms: C4_10  and  C5_15 
REMARK    7  A    between atoms: C5_15  and  O4_17 
REMARK    8  A    between atoms: O4_17  and  N3_18 
REMARK    9  A    between atoms: N4_20  and  O5_22 
REMARK   10  A    between atoms: C7_24  and  O6_26 
REMARK   11  A    between atoms: N5_28  and  N6_29 
REMARK   12  A    between atoms: N6_29  and  N7_31 
REMARK   13  A    between atoms: N7_31  and  C9_33 
REMARK   14  A    between atoms: C12_36  and  S1_37 
REMARK   15  A    between atoms: S1_37  and  N8_40 
REMARK       I    between atoms: N8_40  and  C13_42 
REMARK   16  A    between atoms: C13_42  and  C14_44 
ROOT
HETATM    1  N3  UNL     1      24.317  -5.432 -14.664  1.00  0.00    -0.199 N 
HETATM    2  C6  UNL     1      23.219  -5.241 -15.545  1.00  0.00     0.184 C 
HETATM    3  N4  UNL     1      22.335  -4.292 -15.525  1.00  0.00    -0.251 N 
ATOM      4  H4  UNL     1      21.594  -4.276 -16.225  1.00  0.00     0.195 HD
HETATM    5  C7  UNL     1      23.248  -6.348 -16.531  1.00  0.00     0.210 C 
HETATM    6  C8  UNL     1      22.017  -7.191 -16.299  1.00  0.00     0.082 C 
HETATM    7  N5  UNL     1      24.433  -7.098 -16.174  1.00  0.00    -0.241 N 
HETATM    8  C17 UNL     1      25.296  -6.216 -15.395  1.00  0.00     0.147 C 
HETATM    9  C18 UNL     1      26.067  -5.332 -16.353  1.00  0.00     0.067 C 
HETATM   10  C19 UNL     1      26.261  -6.953 -14.531  1.00  0.00     0.067 C 
ENDROOT
BRANCH   7  11
HETATM   11  N6  UNL     1      24.764  -8.417 -16.472  1.00  0.00    -0.239 N 
ATOM     12  H6  UNL     1      24.990  -9.089 -15.739  1.00  0.00     0.208 HD
BRANCH  11  13
HETATM   13  N7  UNL     1      24.773  -8.748 -17.717  1.00  0.00    -0.285 N 
ATOM     14  H7  UNL     1      25.477  -8.416 -18.375  1.00  0.00     0.188 HD
BRANCH  13  15
HETATM   15  C9  UNL     1      23.703  -9.627 -18.095  1.00  0.00     0.067 A 
HETATM   16  C10 UNL     1      23.252 -10.557 -17.179  1.00  0.00     0.034 A 
HETATM   17  C11 UNL     1      22.206 -11.386 -17.594  1.00  0.00     0.027 A 
HETATM   18  C12 UNL     1      21.655 -11.285 -18.846  1.00  0.00     0.081 A 
HETATM   19  C15 UNL     1      22.129 -10.345 -19.734  1.00  0.00     0.046 A 
HETATM   20  C16 UNL     1      23.161  -9.517 -19.346  1.00  0.00     0.040 A 
HETATM   21 BR1  UNL     1      23.810  -8.213 -20.597  1.00  0.00    -0.049 Br
BRANCH  18  22
HETATM   22  S1  UNL     1      20.359 -12.316 -19.376  1.00  0.00     0.265 S 
HETATM   23  O7  UNL     1      19.770 -13.066 -18.195  1.00  0.00    -0.200 OA
HETATM   24  O8  UNL     1      19.277 -11.465 -19.958  1.00  0.00    -0.200 OA
BRANCH  22  25
HETATM   25  N8  UNL     1      20.884 -13.446 -20.543  1.00  0.00    -0.249 N 
HETATM   26  C13 UNL     1      21.947 -14.344 -20.303  1.00  0.00     0.244 C 
HETATM   27  O9  UNL     1      22.554 -14.341 -19.199  1.00  0.00    -0.271 OA
ATOM     28  H8  UNL     1      20.413 -13.472 -21.447  1.00  0.00     0.182 HD
BRANCH  26  29
HETATM   29  C14 UNL     1      22.361 -15.313 -21.373  1.00  0.00     0.218 C 
HETATM   30 CL1  UNL     1      23.137 -14.426 -22.693  1.00  0.00    -0.121 Cl
ENDBRANCH  26  29
ENDBRANCH  22  25
ENDBRANCH  18  22
ENDBRANCH  13  15
ENDBRANCH  11  13
ENDBRANCH   7  11
BRANCH   5  31
HETATM   31  O6  UNL     1      23.276  -5.879 -17.830  1.00  0.00    -0.363 OA
ATOM     32  H6  UNL     1      23.356  -6.585 -18.461  1.00  0.00     0.213 HD
ENDBRANCH   5  31
BRANCH   1  33
HETATM   33  O4  UNL     1      24.416  -4.970 -13.390  1.00  0.00    -0.191 OA
BRANCH  33  34
HETATM   34  C5  UNL     1      23.610  -5.391 -12.343  1.00  0.00     0.316 C 
HETATM   35  O3  UNL     1      22.764  -4.577 -11.898  1.00  0.00    -0.261 OA
BRANCH  34  36
HETATM   36  C4  UNL     1      23.767  -6.739 -11.806  1.00  0.00     0.340 C 
BRANCH  36  37
HETATM   37  C3  UNL     1      25.006  -6.905 -10.957  1.00  0.00     0.367 C 
BRANCH  37  38
HETATM   38  O2  UNL     1      24.599  -7.451  -9.718  1.00  0.00    -0.285 OA
BRANCH  38  39
HETATM   39  C2  UNL     1      25.393  -7.455  -8.590  1.00  0.00     0.256 C 
HETATM   40  C1  UNL     1      26.218  -8.648  -8.306  1.00  0.00     0.126 C 
HETATM   41  O1  UNL     1      25.390  -6.450  -7.845  1.00  0.00    -0.266 OA
ENDBRANCH  38  39
ENDBRANCH  37  38
BRANCH  37  42
HETATM   42  N1  UNL     1      25.767  -5.710 -10.801  1.00  0.00    -0.050 N 
ATOM     43  H13 UNL     1      25.433  -5.163 -10.008  1.00  0.00     0.277 HD
ATOM     44  H12 UNL     1      26.710  -5.916 -10.473  1.00  0.00     0.277 HD
ATOM     45  H11 UNL     1      25.788  -5.149 -11.653  1.00  0.00     0.277 HD
ENDBRANCH  37  42
ENDBRANCH  36  37
BRANCH  36  46
HETATM   46  N2  UNL     1      22.604  -7.101 -11.016  1.00  0.00    -0.061 N 
ATOM     47  H23 UNL     1      22.813  -7.817 -10.321  1.00  0.00     0.275 HD
ATOM     48  H22 UNL     1      22.322  -6.359 -10.376  1.00  0.00     0.275 HD
ATOM     49  H21 UNL     1      21.850  -7.378 -11.646  1.00  0.00     0.275 HD
ENDBRANCH  36  46
ENDBRANCH  34  36
ENDBRANCH  33  34
ENDBRANCH   1  33
BRANCH   3  50
HETATM   50  O5  UNL     1      22.388  -3.307 -14.569  1.00  0.00    -0.288 OA
ATOM     51  H5  UNL     1      23.044  -2.622 -14.615  1.00  0.00     0.244 HD
ENDBRANCH   3  50
TORSDOF 16
ENDMDL
MODEL 2
REMARK VINA RESULT: -6.297933630      2.530      3.788
REMARK  16 active torsions:
REMARK  status: ('A' for Active; 'I' for Inactive)
REMARK    1  A    between atoms: C2_2  and  O2_4 
REMARK    2  A    between atoms: O2_4  and  C3_5 
REMARK    3  A    between atoms: C3_5  and  N1_6 
REMARK    4  A    between atoms: C3_5  and  C4_10 
REMARK    5  A    between atoms: C4_10  and  N2_11 
REMARK    6  A    between atoms: C4_10  and  C5_15 
REMARK    7  A    between atoms: C5_15  and  O4_17 
REMARK    8  A    between atoms: O4_17  and  N3_18 
REMARK    9  A    between atoms: N4_20  and  O5_22 
REMARK   10  A    between atoms: C7_24  and  O6_26 
REMARK   11  A    between atoms: N5_28  and  N6_29 
REMARK   12  A    between atoms: N6_29  and  N7_31 
REMARK   13  A    between atoms: N7_31  and  C9_33 
REMARK   14  A    between atoms: C12_36  and  S1_37 
REMARK   15  A    between atoms: S1_37  and  N8_40 
REMARK       I    between atoms: N8_40  and  C13_42 
REMARK   16  A    between atoms: C13_42  and  C14_44 
ROOT
HETATM    1  N3  UNL     1      24.875  -7.403 -11.658  1.00  0.00    -0.199 N 
HETATM    2  C6  UNL     1      24.906  -6.024 -12.000  1.00  0.00     0.184 C 
HETATM    3  N4  UNL     1      25.319  -5.031 -11.276  1.00  0.00    -0.251 N 
ATOM      4  H4  UNL     1      25.284  -4.083 -11.650  1.00  0.00     0.195 HD
HETATM    5  C7  UNL     1      24.364  -5.900 -13.375  1.00  0.00     0.210 C 
HETATM    6  C8  UNL     1      23.067  -5.134 -13.282  1.00  0.00     0.082 C 
HETATM    7  N5  UNL     1      24.102  -7.268 -13.768  1.00  0.00    -0.241 N 
HETATM    8  C17 UNL     1      24.903  -8.136 -12.911  1.00  0.00     0.147 C 
HETATM    9  C18 UNL     1      26.313  -8.182 -13.462  1.00  0.00     0.067 C 
HETATM   10  C19 UNL     1      24.371  -9.525 -12.821  1.00  0.00     0.067 C 
ENDROOT
BRANCH   7  11
HETATM   11  N6  UNL     1      23.254  -7.752 -14.761  1.00  0.00    -0.239 N 
ATOM     12  H6  UNL     1      22.423  -8.297 -14.534  1.00  0.00     0.208 HD
BRANCH  11  13
HETATM   13  N7  UNL     1      23.569  -7.479 -15.979  1.00  0.00    -0.285 N 
ATOM     14  H7  UNL     1      24.232  -6.746 -16.230  1.00  0.00     0.188 HD
BRANCH  13  15
HETATM   15  C9  UNL     1      22.905  -8.298 -16.953  1.00  0.00     0.067 A 
HETATM   16  C10 UNL     1      21.675  -7.892 -17.433  1.00  0.00     0.034 A 
HETATM   17  C11 UNL     1      21.071  -8.721 -18.383  1.00  0.00     0.027 A 
HETATM   18  C12 UNL     1      21.666  -9.879 -18.817  1.00  0.00     0.081 A 
HETATM   19  C15 UNL     1      22.894 -10.251 -18.317  1.00  0.00     0.046 A 
HETATM   20  C16 UNL     1      23.507  -9.449 -17.379  1.00  0.00     0.040 A 
HETATM   21 BR1  UNL     1      25.218  -9.984 -16.693  1.00  0.00    -0.049 Br
BRANCH  18  22
HETATM   22  S1  UNL     1      20.921 -10.920 -19.993  1.00  0.00     0.265 S 
HETATM   23  O7  UNL     1      19.425 -10.671 -20.042  1.00  0.00    -0.200 OA
HETATM   24  O8  UNL     1      21.479 -10.598 -21.341  1.00  0.00    -0.200 OA
BRANCH  22  25
HETATM   25  N8  UNL     1      21.197 -12.569 -19.643  1.00  0.00    -0.249 N 
HETATM   26  C13 UNL     1      20.658 -13.201 -18.501  1.00  0.00     0.244 C 
HETATM   27  O9  UNL     1      19.944 -12.557 -17.687  1.00  0.00    -0.271 OA
ATOM     28  H8  UNL     1      21.772 -13.117 -20.283  1.00  0.00     0.182 HD
BRANCH  26  29
HETATM   29  C14 UNL     1      20.939 -14.655 -18.250  1.00  0.00     0.218 C 
HETATM   30 CL1  UNL     1      20.949 -14.953 -16.507  1.00  0.00    -0.121 Cl
ENDBRANCH  26  29
ENDBRANCH  22  25
ENDBRANCH  18  22
ENDBRANCH  13  15
ENDBRANCH  11  13
ENDBRANCH   7  11
BRANCH   5  31
HETATM   31  O6  UNL     1      25.248  -5.256 -14.219  1.00  0.00    -0.363 OA
ATOM     32  H6  UNL     1      25.213  -5.605 -15.102  1.00  0.00     0.213 HD
ENDBRANCH   5  31
BRANCH   1  33
HETATM   33  O4  UNL     1      24.828  -7.919 -10.402  1.00  0.00    -0.191 OA
BRANCH  33  34
HETATM   34  C5  UNL     1      25.938  -8.366  -9.701  1.00  0.00     0.316 C 
HETATM   35  O3  UNL     1      26.844  -8.940 -10.353  1.00  0.00    -0.261 OA
BRANCH  34  36
HETATM   36  C4  UNL     1      26.015  -8.157  -8.258  1.00  0.00     0.340 C 
BRANCH  36  37
HETATM   37  C3  UNL     1      27.390  -7.748  -7.785  1.00  0.00     0.367 C 
BRANCH  37  38
HETATM   38  O2  UNL     1      27.714  -6.532  -8.430  1.00  0.00    -0.285 OA
BRANCH  38  39
HETATM   39  C2  UNL     1      28.966  -6.249  -8.938  1.00  0.00     0.256 C 
HETATM   40  C1  UNL     1      29.141  -6.194 -10.404  1.00  0.00     0.126 C 
HETATM   41  O1  UNL     1      29.910  -6.049  -8.143  1.00  0.00    -0.266 OA
ENDBRANCH  38  39
ENDBRANCH  37  38
BRANCH  37  42
HETATM   42  N1  UNL     1      28.390  -8.746  -7.973  1.00  0.00    -0.050 N 
ATOM     43  H13 UNL     1      29.059  -8.466  -8.690  1.00  0.00     0.277 HD
ATOM     44  H12 UNL     1      29.018  -8.792  -7.172  1.00  0.00     0.277 HD
ATOM     45  H11 UNL     1      27.991  -9.662  -8.180  1.00  0.00     0.277 HD
ENDBRANCH  37  42
ENDBRANCH  36  37
BRANCH  36  46
HETATM   46  N2  UNL     1      25.056  -7.149  -7.847  1.00  0.00    -0.061 N 
ATOM     47  H23 UNL     1      25.485  -6.408  -7.293  1.00  0.00     0.275 HD
ATOM     48  H22 UNL     1      24.735  -6.576  -8.627  1.00  0.00     0.275 HD
ATOM     49  H21 UNL     1      24.286  -7.605  -7.357  1.00  0.00     0.275 HD
ENDBRANCH  36  46
ENDBRANCH  34  36
ENDBRANCH  33  34
ENDBRANCH   1  33
BRANCH   3  50
HETATM   50  O5  UNL     1      25.804  -5.244 -10.008  1.00  0.00    -0.288 OA
ATOM     51  H5  UNL     1      26.710  -5.052  -9.799  1.00  0.00     0.244 HD
ENDBRANCH   3  50
TORSDOF 16
ENDMDL
MODEL 3
REMARK VINA RESULT: -6.269768734      2.359      5.236
REMARK  16 active torsions:
REMARK  status: ('A' for Active; 'I' for Inactive)
REMARK    1  A    between atoms: C2_2  and  O2_4 
REMARK    2  A    between atoms: O2_4  and  C3_5 
REMARK    3  A    between atoms: C3_5  and  N1_6 
REMARK    4  A    between atoms: C3_5  and  C4_10 
REMARK    5  A    between atoms: C4_10  and  N2_11 
REMARK    6  A    between atoms: C4_10  and  C5_15 
REMARK    7  A    between atoms: C5_15  and  O4_17 
REMARK    8  A    between atoms: O4_17  and  N3_18 
REMARK    9  A    between atoms: N4_20  and  O5_22 
REMARK   10  A    between atoms: C7_24  and  O6_26 
REMARK   11  A    between atoms: N5_28  and  N6_29 
REMARK   12  A    between atoms: N6_29  and  N7_31 
REMARK   13  A    between atoms: N7_31  and  C9_33 
REMARK   14  A    between atoms: C12_36  and  S1_37 
REMARK   15  A    between atoms: S1_37  and  N8_40 
REMARK       I    between atoms: N8_40  and  C13_42 
REMARK   16  A    between atoms: C13_42  and  C14_44 
ROOT
HETATM    1  N3  UNL     1      23.698  -5.714 -14.325  1.00  0.00    -0.199 N 
HETATM    2  C6  UNL     1      23.433  -6.224 -13.025  1.00  0.00     0.184 C 
HETATM    3  N4  UNL     1      23.011  -5.575 -11.984  1.00  0.00    -0.251 N 
ATOM      4  H4  UNL     1      22.862  -6.071 -11.105  1.00  0.00     0.195 HD
HETATM    5  C7  UNL     1      23.733  -7.676 -13.052  1.00  0.00     0.210 C 
HETATM    6  C8  UNL     1      24.917  -7.909 -12.144  1.00  0.00     0.082 C 
HETATM    7  N5  UNL     1      24.109  -7.926 -14.426  1.00  0.00    -0.241 N 
HETATM    8  C17 UNL     1      23.572  -6.837 -15.236  1.00  0.00     0.147 C 
HETATM    9  C18 UNL     1      22.112  -7.125 -15.517  1.00  0.00     0.067 C 
HETATM   10  C19 UNL     1      24.289  -6.659 -16.530  1.00  0.00     0.067 C 
ENDROOT
BRANCH   7  11
HETATM   11  N6  UNL     1      24.848  -8.978 -14.960  1.00  0.00    -0.239 N 
ATOM     12  H6  UNL     1      25.795  -8.841 -15.311  1.00  0.00     0.208 HD
BRANCH  11  13
HETATM   13  N7  UNL     1      24.278 -10.133 -14.991  1.00  0.00    -0.285 N 
ATOM     14  H7  UNL     1      24.344 -10.804 -14.227  1.00  0.00     0.188 HD
BRANCH  13  15
HETATM   15  C9  UNL     1      23.542 -10.390 -16.196  1.00  0.00     0.067 A 
HETATM   16  C10 UNL     1      22.162 -10.354 -16.150  1.00  0.00     0.034 A 
HETATM   17  C11 UNL     1      21.491 -10.607 -17.351  1.00  0.00     0.027 A 
HETATM   18  C12 UNL     1      22.165 -10.878 -18.514  1.00  0.00     0.081 A 
HETATM   19  C15 UNL     1      23.542 -10.903 -18.522  1.00  0.00     0.046 A 
HETATM   20  C16 UNL     1      24.224 -10.658 -17.350  1.00  0.00     0.040 A 
HETATM   21 BR1  UNL     1      26.143 -10.699 -17.380  1.00  0.00    -0.049 Br
BRANCH  18  22
HETATM   22  S1  UNL     1      21.341 -11.200 -20.011  1.00  0.00     0.265 S 
HETATM   23  O7  UNL     1      19.856 -10.923 -19.862  1.00  0.00    -0.200 OA
HETATM   24  O8  UNL     1      21.873 -10.278 -21.059  1.00  0.00    -0.200 OA
BRANCH  22  25
HETATM   25  N8  UNL     1      21.554 -12.817 -20.515  1.00  0.00    -0.249 N 
HETATM   26  C13 UNL     1      21.090 -13.915 -19.757  1.00  0.00     0.244 C 
HETATM   27  O9  UNL     1      20.493 -13.733 -18.663  1.00  0.00    -0.271 OA
ATOM     28  H8  UNL     1      22.035 -12.997 -21.397  1.00  0.00     0.182 HD
BRANCH  26  29
HETATM   29  C14 UNL     1      21.311 -15.314 -20.257  1.00  0.00     0.218 C 
HETATM   30 CL1  UNL     1      22.567 -15.295 -21.502  1.00  0.00    -0.121 Cl
ENDBRANCH  26  29
ENDBRANCH  22  25
ENDBRANCH  18  22
ENDBRANCH  13  15
ENDBRANCH  11  13
ENDBRANCH   7  11
BRANCH   5  31
HETATM   31  O6  UNL     1      22.652  -8.432 -12.641  1.00  0.00    -0.363 OA
ATOM     32  H6  UNL     1      22.782  -8.795 -11.773  1.00  0.00     0.213 HD
ENDBRANCH   5  31
BRANCH   1  33
HETATM   33  O4  UNL     1      24.007  -4.429 -14.637  1.00  0.00    -0.191 OA
BRANCH  33  34
HETATM   34  C5  UNL     1      23.187  -3.587 -15.373  1.00  0.00     0.316 C 
HETATM   35  O3  UNL     1      22.056  -3.319 -14.900  1.00  0.00    -0.261 OA
BRANCH  34  36
HETATM   36  C4  UNL     1      23.657  -3.050 -16.647  1.00  0.00     0.340 C 
BRANCH  36  37
HETATM   37  C3  UNL     1      22.599  -3.052 -17.724  1.00  0.00     0.367 C 
BRANCH  37  38
HETATM   38  O2  UNL     1      21.991  -1.775 -17.722  1.00  0.00    -0.285 OA
BRANCH  38  39
HETATM   39  C2  UNL     1      20.630  -1.579 -17.841  1.00  0.00     0.256 C 
HETATM   40  C1  UNL     1      20.094  -1.080 -19.124  1.00  0.00     0.126 C 
HETATM   41  O1  UNL     1      19.895  -1.829 -16.860  1.00  0.00    -0.266 OA
ENDBRANCH  38  39
ENDBRANCH  37  38
BRANCH  37  42
HETATM   42  N1  UNL     1      21.648  -4.107 -17.602  1.00  0.00    -0.050 N 
ATOM     43  H13 UNL     1      21.707  -4.551 -16.686  1.00  0.00     0.277 HD
ATOM     44  H12 UNL     1      20.698  -3.740 -17.545  1.00  0.00     0.277 HD
ATOM     45  H11 UNL     1      21.732  -4.795 -18.351  1.00  0.00     0.277 HD
ENDBRANCH  37  42
ENDBRANCH  36  37
BRANCH  36  46
HETATM   46  N2  UNL     1      24.145  -1.695 -16.469  1.00  0.00    -0.061 N 
ATOM     47  H23 UNL     1      25.157  -1.630 -16.572  1.00  0.00     0.275 HD
ATOM     48  H22 UNL     1      23.883  -1.082 -17.241  1.00  0.00     0.275 HD
ATOM     49  H21 UNL     1      23.823  -1.343 -15.567  1.00  0.00     0.275 HD
ENDBRANCH  36  46
ENDBRANCH  34  36
ENDBRANCH  33  34
ENDBRANCH   1  33
BRANCH   3  50
HETATM   50  O5  UNL     1      22.761  -4.226 -12.054  1.00  0.00    -0.288 OA
ATOM     51  H5  UNL     1      22.826  -3.682 -11.278  1.00  0.00     0.244 HD
ENDBRANCH   3  50
TORSDOF 16
ENDMDL
MODEL 4
REMARK VINA RESULT: -6.225722146      2.706      3.983
REMARK  16 active torsions:
REMARK  status: ('A' for Active; 'I' for Inactive)
REMARK    1  A    between atoms: C2_2  and  O2_4 
REMARK    2  A    between atoms: O2_4  and  C3_5 
REMARK    3  A    between atoms: C3_5  and  N1_6 
REMARK    4  A    between atoms: C3_5  and  C4_10 
REMARK    5  A    between atoms: C4_10  and  N2_11 
REMARK    6  A    between atoms: C4_10  and  C5_15 
REMARK    7  A    between atoms: C5_15  and  O4_17 
REMARK    8  A    between atoms: O4_17  and  N3_18 
REMARK    9  A    between atoms: N4_20  and  O5_22 
REMARK   10  A    between atoms: C7_24  and  O6_26 
REMARK   11  A    between atoms: N5_28  and  N6_29 
REMARK   12  A    between atoms: N6_29  and  N7_31 
REMARK   13  A    between atoms: N7_31  and  C9_33 
REMARK   14  A    between atoms: C12_36  and  S1_37 
REMARK   15  A    between atoms: S1_37  and  N8_40 
REMARK       I    between atoms: N8_40  and  C13_42 
REMARK   16  A    between atoms: C13_42  and  C14_44 
ROOT
HETATM    1  N3  UNL     1      25.217  -6.342 -11.994  1.00  0.00    -0.199 N 
HETATM    2  C6  UNL     1      24.643  -7.359 -11.183  1.00  0.00     0.184 C 
HETATM    3  N4  UNL     1      24.827  -7.568  -9.916  1.00  0.00    -0.251 N 
ATOM      4  H4  UNL     1      24.347  -8.342  -9.457  1.00  0.00     0.195 HD
HETATM    5  C7  UNL     1      23.766  -8.175 -12.056  1.00  0.00     0.210 C 
HETATM    6  C8  UNL     1      24.373  -9.555 -12.141  1.00  0.00     0.082 C 
HETATM    7  N5  UNL     1      23.851  -7.519 -13.343  1.00  0.00    -0.241 N 
HETATM    8  C17 UNL     1      24.311  -6.153 -13.113  1.00  0.00     0.147 C 
HETATM    9  C18 UNL     1      23.124  -5.313 -12.693  1.00  0.00     0.067 C 
HETATM   10  C19 UNL     1      24.942  -5.537 -14.314  1.00  0.00     0.067 C 
ENDROOT
BRANCH   7  11
HETATM   11  N6  UNL     1      23.572  -8.024 -14.610  1.00  0.00    -0.239 N 
ATOM     12  H6  UNL     1      24.261  -8.563 -15.134  1.00  0.00     0.208 HD
BRANCH  11  13
HETATM   13  N7  UNL     1      22.402  -7.779 -15.089  1.00  0.00    -0.285 N 
ATOM     14  H7  UNL     1      21.763  -7.102 -14.674  1.00  0.00     0.188 HD
BRANCH  13  15
HETATM   15  C9  UNL     1      22.078  -8.543 -16.260  1.00  0.00     0.067 A 
HETATM   16  C10 UNL     1      21.811  -9.891 -16.121  1.00  0.00     0.034 A 
HETATM   17  C11 UNL     1      21.497 -10.589 -17.291  1.00  0.00     0.027 A 
HETATM   18  C12 UNL     1      21.455  -9.971 -18.515  1.00  0.00     0.081 A 
HETATM   19  C15 UNL     1      21.726  -8.624 -18.616  1.00  0.00     0.046 A 
HETATM   20  C16 UNL     1      22.039  -7.916 -17.475  1.00  0.00     0.040 A 
HETATM   21 BR1  UNL     1      22.414  -6.040 -17.635  1.00  0.00    -0.049 Br
BRANCH  18  22
HETATM   22  S1  UNL     1      21.072 -10.831 -19.976  1.00  0.00     0.265 S 
HETATM   23  O7  UNL     1      19.596 -10.684 -20.300  1.00  0.00    -0.200 OA
HETATM   24  O8  UNL     1      21.846 -10.229 -21.104  1.00  0.00    -0.200 OA
BRANCH  22  25
HETATM   25  N8  UNL     1      21.448 -12.492 -19.851  1.00  0.00    -0.249 N 
HETATM   26  C13 UNL     1      20.563 -13.428 -19.272  1.00  0.00     0.244 C 
HETATM   27  O9  UNL     1      19.446 -13.061 -18.820  1.00  0.00    -0.271 OA
ATOM     28  H8  UNL     1      22.346 -12.820 -20.208  1.00  0.00     0.182 HD
BRANCH  26  29
HETATM   29  C14 UNL     1      20.955 -14.875 -19.192  1.00  0.00     0.218 C 
HETATM   30 CL1  UNL     1      21.216 -15.314 -17.498  1.00  0.00    -0.121 Cl
ENDBRANCH  26  29
ENDBRANCH  22  25
ENDBRANCH  18  22
ENDBRANCH  13  15
ENDBRANCH  11  13
ENDBRANCH   7  11
BRANCH   5  31
HETATM   31  O6  UNL     1      22.475  -8.243 -11.569  1.00  0.00    -0.363 OA
ATOM     32  H6  UNL     1      21.874  -8.608 -12.207  1.00  0.00     0.213 HD
ENDBRANCH   5  31
BRANCH   1  33
HETATM   33  O4  UNL     1      26.383  -5.687 -11.757  1.00  0.00    -0.191 OA
BRANCH  33  34
HETATM   34  C5  UNL     1      26.472  -4.465 -11.108  1.00  0.00     0.316 C 
HETATM   35  O3  UNL     1      25.401  -3.931 -10.727  1.00  0.00    -0.261 OA
BRANCH  34  36
HETATM   36  C4  UNL     1      27.779  -3.852 -10.892  1.00  0.00     0.340 C 
BRANCH  36  37
HETATM   37  C3  UNL     1      28.291  -4.015  -9.480  1.00  0.00     0.367 C 
BRANCH  37  38
HETATM   38  O2  UNL     1      29.397  -4.894  -9.530  1.00  0.00    -0.285 OA
BRANCH  38  39
HETATM   39  C2  UNL     1      29.353  -6.200  -9.086  1.00  0.00     0.256 C 
HETATM   40  C1  UNL     1      30.249  -6.605  -7.983  1.00  0.00     0.126 C 
HETATM   41  O1  UNL     1      28.558  -6.997  -9.631  1.00  0.00    -0.266 OA
ENDBRANCH  38  39
ENDBRANCH  37  38
BRANCH  37  42
HETATM   42  N1  UNL     1      27.300  -4.440  -8.549  1.00  0.00    -0.050 N 
ATOM     43  H13 UNL     1      26.922  -3.649  -8.027  1.00  0.00     0.277 HD
ATOM     44  H12 UNL     1      26.451  -4.741  -9.027  1.00  0.00     0.277 HD
ATOM     45  H11 UNL     1      27.644  -5.165  -7.919  1.00  0.00     0.277 HD
ENDBRANCH  37  42
ENDBRANCH  36  37
BRANCH  36  46
HETATM   46  N2  UNL     1      28.752  -4.413 -11.812  1.00  0.00    -0.061 N 
ATOM     47  H23 UNL     1      29.448  -4.988 -11.340  1.00  0.00     0.275 HD
ATOM     48  H22 UNL     1      28.350  -5.136 -12.409  1.00  0.00     0.275 HD
ATOM     49  H21 UNL     1      29.173  -3.655 -12.350  1.00  0.00     0.275 HD
ENDBRANCH  36  46
ENDBRANCH  34  36
ENDBRANCH  33  34
ENDBRANCH   1  33
BRANCH   3  50
HETATM   50  O5  UNL     1      25.663  -6.758  -9.187  1.00  0.00    -0.288 OA
ATOM     51  H5  UNL     1      26.116  -7.092  -8.422  1.00  0.00     0.244 HD
ENDBRANCH   3  50
TORSDOF 16
ENDMDL
MODEL 5
REMARK VINA RESULT: -6.183389300      5.193      7.912
REMARK  16 active torsions:
REMARK  status: ('A' for Active; 'I' for Inactive)
REMARK    1  A    between atoms: C2_2  and  O2_4 
REMARK    2  A    between atoms: O2_4  and  C3_5 
REMARK    3  A    between atoms: C3_5  and  N1_6 
REMARK    4  A    between atoms: C3_5  and  C4_10 
REMARK    5  A    between atoms: C4_10  and  N2_11 
REMARK    6  A    between atoms: C4_10  and  C5_15 
REMARK    7  A    between atoms: C5_15  and  O4_17 
REMARK    8  A    between atoms: O4_17  and  N3_18 
REMARK    9  A    between atoms: N4_20  and  O5_22 
REMARK   10  A    between atoms: C7_24  and  O6_26 
REMARK   11  A    between atoms: N5_28  and  N6_29 
REMARK   12  A    between atoms: N6_29  and  N7_31 
REMARK   13  A    between atoms: N7_31  and  C9_33 
REMARK   14  A    between atoms: C12_36  and  S1_37 
REMARK   15  A    between atoms: S1_37  and  N8_40 
REMARK       I    between atoms: N8_40  and  C13_42 
REMARK   16  A    between atoms: C13_42  and  C14_44 
ROOT
HETATM    1  N3  UNL     1      23.305  -7.993 -13.888  1.00  0.00    -0.199 N 
HETATM    2  C6  UNL     1      24.431  -8.702 -14.386  1.00  0.00     0.184 C 
HETATM    3  N4  UNL     1      24.934  -9.813 -13.943  1.00  0.00    -0.251 N 
ATOM      4  H4  UNL     1      25.752 -10.215 -14.400  1.00  0.00     0.195 HD
HETATM    5  C7  UNL     1      24.960  -7.935 -15.539  1.00  0.00     0.210 C 
HETATM    6  C8  UNL     1      26.328  -7.426 -15.152  1.00  0.00     0.082 C 
HETATM    7  N5  UNL     1      24.040  -6.827 -15.668  1.00  0.00    -0.241 N 
HETATM    8  C17 UNL     1      22.800  -7.200 -14.995  1.00  0.00     0.147 C 
HETATM    9  C18 UNL     1      21.988  -8.067 -15.934  1.00  0.00     0.067 C 
HETATM   10  C19 UNL     1      21.979  -6.026 -14.584  1.00  0.00     0.067 C 
ENDROOT
BRANCH   7  11
HETATM   11  N6  UNL     1      24.224  -5.597 -16.296  1.00  0.00    -0.239 N 
ATOM     12  H6  UNL     1      24.502  -4.767 -15.772  1.00  0.00     0.208 HD
BRANCH  11  13
HETATM   13  N7  UNL     1      24.026  -5.557 -17.568  1.00  0.00    -0.285 N 
ATOM     14  H7  UNL     1      24.289  -6.318 -18.194  1.00  0.00     0.188 HD
BRANCH  13  15
HETATM   15  C9  UNL     1      23.403  -4.348 -18.025  1.00  0.00     0.067 A 
HETATM   16  C10 UNL     1      22.190  -3.979 -17.479  1.00  0.00     0.034 A 
HETATM   17  C11 UNL     1      21.626  -2.791 -17.955  1.00  0.00     0.027 A 
HETATM   18  C12 UNL     1      22.244  -2.029 -18.915  1.00  0.00     0.081 A 
HETATM   19  C15 UNL     1      23.456  -2.428 -19.435  1.00  0.00     0.046 A 
HETATM   20  C16 UNL     1      24.029  -3.596 -18.981  1.00  0.00     0.040 A 
HETATM   21 BR1  UNL     1      25.717  -4.136 -19.719  1.00  0.00    -0.049 Br
BRANCH  18  22
HETATM   22  S1  UNL     1      21.550  -0.554 -19.518  1.00  0.00     0.265 S 
HETATM   23  O7  UNL     1      22.161  -0.198 -20.861  1.00  0.00    -0.200 OA
HETATM   24  O8  UNL     1      20.085  -0.764 -19.727  1.00  0.00    -0.200 OA
BRANCH  22  25
HETATM   25  N8  UNL     1      21.789   0.746 -18.438  1.00  0.00    -0.249 N 
HETATM   26  C13 UNL     1      23.070   1.268 -18.152  1.00  0.00     0.244 C 
HETATM   27  O9  UNL     1      24.098   0.780 -18.694  1.00  0.00    -0.271 OA
ATOM     28  H8  UNL     1      20.977   1.162 -17.983  1.00  0.00     0.182 HD
BRANCH  26  29
HETATM   29  C14 UNL     1      23.212   2.414 -17.191  1.00  0.00     0.218 C 
HETATM   30 CL1  UNL     1      24.530   2.066 -16.063  1.00  0.00    -0.121 Cl
ENDBRANCH  26  29
ENDBRANCH  22  25
ENDBRANCH  18  22
ENDBRANCH  13  15
ENDBRANCH  11  13
ENDBRANCH   7  11
BRANCH   5  31
HETATM   31  O6  UNL     1      25.037  -8.710 -16.680  1.00  0.00    -0.363 OA
ATOM     32  H6  UNL     1      24.176  -8.947 -17.006  1.00  0.00     0.213 HD
ENDBRANCH   5  31
BRANCH   1  33
HETATM   33  O4  UNL     1      22.811  -8.052 -12.624  1.00  0.00    -0.191 OA
BRANCH  33  34
HETATM   34  C5  UNL     1      23.233  -7.239 -11.584  1.00  0.00     0.316 C 
HETATM   35  O3  UNL     1      22.449  -6.338 -11.195  1.00  0.00    -0.261 OA
BRANCH  34  36
HETATM   36  C4  UNL     1      24.548  -7.451 -10.985  1.00  0.00     0.340 C 
BRANCH  36  37
HETATM   37  C3  UNL     1      25.547  -6.374 -11.336  1.00  0.00     0.367 C 
BRANCH  37  38
HETATM   38  O2  UNL     1      25.842  -5.669 -10.146  1.00  0.00    -0.285 OA
BRANCH  38  39
HETATM   39  C2  UNL     1      26.731  -4.615 -10.086  1.00  0.00     0.256 C 
HETATM   40  C1  UNL     1      27.872  -4.701  -9.151  1.00  0.00     0.126 C 
HETATM   41  O1  UNL     1      26.543  -3.622 -10.823  1.00  0.00    -0.266 OA
ENDBRANCH  38  39
ENDBRANCH  37  38
BRANCH  37  42
HETATM   42  N1  UNL     1      25.125  -5.511 -12.389  1.00  0.00    -0.050 N 
ATOM     43  H13 UNL     1      24.875  -6.044 -13.222  1.00  0.00     0.277 HD
ATOM     44  H12 UNL     1      24.217  -5.096 -12.182  1.00  0.00     0.277 HD
ATOM     45  H11 UNL     1      25.817  -4.794 -12.604  1.00  0.00     0.277 HD
ENDBRANCH  37  42
ENDBRANCH  36  37
BRANCH  36  46
HETATM   46  N2  UNL     1      24.432  -7.535  -9.541  1.00  0.00    -0.061 N 
ATOM     47  H23 UNL     1      23.889  -8.344  -9.241  1.00  0.00     0.275 HD
ATOM     48  H22 UNL     1      25.315  -7.783  -9.094  1.00  0.00     0.275 HD
ATOM     49  H21 UNL     1      24.051  -6.657  -9.188  1.00  0.00     0.275 HD
ENDBRANCH  36  46
ENDBRANCH  34  36
ENDBRANCH  33  34
ENDBRANCH   1  33
BRANCH   3  50
HETATM   50  O5  UNL     1      24.375 -10.453 -12.864  1.00  0.00    -0.288 OA
ATOM     51  H5  UNL     1      24.337 -11.401 -12.830  1.00  0.00     0.244 HD
ENDBRANCH   3  50
TORSDOF 16
ENDMDL
