MODEL 1
REMARK VINA RESULT: -7.766866127      0.000      0.000
REMARK  5 active torsions:
REMARK  status: ('A' for Active; 'I' for Inactive)
REMARK    1  A    between atoms: C2_2  and  C3_3 
REMARK    2  A    between atoms: N2_6  and  C5_8 
REMARK    3  A    between atoms: C6_9  and  N3_10 
REMARK    4  A    between atoms: C14_18  and  C15_19 
REMARK    5  A    between atoms: C18_23  and  O2_24 
ROOT
HETATM    1  C3  UNL     1     -42.070  29.622  -1.438  1.00  0.00     0.175 C 
HETATM    2  C4  UNL     1     -40.602  29.629  -1.242  1.00  0.00     0.064 C 
HETATM    3  N1  UNL     1     -39.452  29.624  -1.068  1.00  0.00    -0.197 NA
ENDROOT
BRANCH   1   4
HETATM    4  C2  UNL     1     -42.401  29.290  -2.839  1.00  0.00    -0.004 C 
HETATM    5  C1  UNL     1     -41.886  30.158  -3.922  1.00  0.00     0.064 C 
HETATM    6  N2  UNL     1     -43.116  28.272  -3.162  1.00  0.00    -0.359 N 
ATOM      7  H2  UNL     1     -43.300  28.110  -4.153  1.00  0.00     0.165 HD
BRANCH   6   8
HETATM    8  C5  UNL     1     -43.665  27.360  -2.227  1.00  0.00     0.093 A 
HETATM    9  C6  UNL     1     -44.975  27.493  -1.849  1.00  0.00     0.060 A 
HETATM   10  C12 UNL     1     -45.482  26.577  -0.955  1.00  0.00     0.032 A 
HETATM   11  C13 UNL     1     -44.710  25.537  -0.437  1.00  0.00     0.015 A 
HETATM   12  C14 UNL     1     -43.401  25.394  -0.807  1.00  0.00     0.006 A 
HETATM   13  C18 UNL     1     -42.864  26.325  -1.722  1.00  0.00     0.103 A 
BRANCH   9  14
HETATM   14  N3  UNL     1     -45.830  28.511  -2.322  1.00  0.00    -0.379 N 
HETATM   15  C7  UNL     1     -46.637  28.307  -3.483  1.00  0.00     0.123 C 
HETATM   16  C8  UNL     1     -47.578  29.471  -3.736  1.00  0.00     0.020 C 
HETATM   17  C9  UNL     1     -48.216  29.987  -2.479  1.00  0.00     0.003 C 
HETATM   18  C10 UNL     1     -47.339  30.006  -1.269  1.00  0.00     0.020 C 
HETATM   19  C11 UNL     1     -45.912  29.796  -1.649  1.00  0.00     0.123 C 
ENDBRANCH   9  14
BRANCH  12  20
HETATM   20  C15 UNL     1     -42.470  24.365  -0.299  1.00  0.00     0.159 C 
HETATM   21  C16 UNL     1     -43.080  23.002  -0.209  1.00  0.00     0.063 C 
HETATM   22  C17 UNL     1     -42.312  23.011   1.086  1.00  0.00     0.171 C 
HETATM   23  O1  UNL     1     -42.352  24.385   1.108  1.00  0.00    -0.381 OA
ENDBRANCH  12  20
BRANCH  13  24
HETATM   24  O2  UNL     1     -41.590  26.179  -2.072  1.00  0.00    -0.358 OA
ATOM     25  H2  UNL     1     -40.938  25.829  -1.476  1.00  0.00     0.217 HD
ENDBRANCH  13  24
ENDBRANCH   6   8
ENDBRANCH   1   4
TORSDOF 5
ENDMDL
MODEL 2
REMARK VINA RESULT: -7.540900587      1.419      1.724
REMARK  5 active torsions:
REMARK  status: ('A' for Active; 'I' for Inactive)
REMARK    1  A    between atoms: C2_2  and  C3_3 
REMARK    2  A    between atoms: N2_6  and  C5_8 
REMARK    3  A    between atoms: C6_9  and  N3_10 
REMARK    4  A    between atoms: C14_18  and  C15_19 
REMARK    5  A    between atoms: C18_23  and  O2_24 
ROOT
HETATM    1  C3  UNL     1     -43.203  29.681  -0.111  1.00  0.00     0.175 C 
HETATM    2  C4  UNL     1     -43.941  30.949   0.089  1.00  0.00     0.064 C 
HETATM    3  N1  UNL     1     -44.509  31.948   0.264  1.00  0.00    -0.197 NA
ENDROOT
BRANCH   1   4
HETATM    4  C2  UNL     1     -42.905  29.477  -1.543  1.00  0.00    -0.004 C 
HETATM    5  C1  UNL     1     -42.219  30.555  -2.292  1.00  0.00     0.064 C 
HETATM    6  N2  UNL     1     -43.210  28.398  -2.172  1.00  0.00    -0.359 N 
ATOM      7  H2  UNL     1     -42.970  28.335  -3.161  1.00  0.00     0.165 HD
BRANCH   6   8
HETATM    8  C5  UNL     1     -43.862  27.291  -1.574  1.00  0.00     0.093 A 
HETATM    9  C6  UNL     1     -45.228  27.215  -1.614  1.00  0.00     0.060 A 
HETATM   10  C12 UNL     1     -45.827  26.114  -1.042  1.00  0.00     0.032 A 
HETATM   11  C13 UNL     1     -45.090  25.096  -0.438  1.00  0.00     0.015 A 
HETATM   12  C14 UNL     1     -43.725  25.160  -0.393  1.00  0.00     0.006 A 
HETATM   13  C18 UNL     1     -43.095  26.282  -0.972  1.00  0.00     0.103 A 
BRANCH   9  14
HETATM   14  N3  UNL     1     -46.054  28.196  -2.204  1.00  0.00    -0.379 N 
HETATM   15  C7  UNL     1     -46.340  28.165  -3.603  1.00  0.00     0.123 C 
HETATM   16  C8  UNL     1     -47.351  29.224  -4.002  1.00  0.00     0.020 C 
HETATM   17  C9  UNL     1     -48.483  29.347  -3.023  1.00  0.00     0.003 C 
HETATM   18  C10 UNL     1     -48.111  29.197  -1.584  1.00  0.00     0.020 C 
HETATM   19  C11 UNL     1     -46.631  29.267  -1.411  1.00  0.00     0.123 C 
ENDBRANCH   9  14
BRANCH  12  20
HETATM   20  C15 UNL     1     -42.837  24.172   0.252  1.00  0.00     0.159 C 
HETATM   21  C16 UNL     1     -42.399  23.076  -0.666  1.00  0.00     0.063 C 
HETATM   22  C17 UNL     1     -42.669  22.262   0.572  1.00  0.00     0.171 C 
HETATM   23  O1  UNL     1     -43.547  23.221   1.019  1.00  0.00    -0.381 OA
ENDBRANCH  12  20
BRANCH  13  24
HETATM   24  O2  UNL     1     -41.767  26.337  -0.919  1.00  0.00    -0.358 OA
ATOM     25  H2  UNL     1     -41.280  27.095  -1.221  1.00  0.00     0.217 HD
ENDBRANCH  13  24
ENDBRANCH   6   8
ENDBRANCH   1   4
TORSDOF 5
ENDMDL
MODEL 3
REMARK VINA RESULT: -7.404754286      1.628      2.151
REMARK  5 active torsions:
REMARK  status: ('A' for Active; 'I' for Inactive)
REMARK    1  A    between atoms: C2_2  and  C3_3 
REMARK    2  A    between atoms: N2_6  and  C5_8 
REMARK    3  A    between atoms: C6_9  and  N3_10 
REMARK    4  A    between atoms: C14_18  and  C15_19 
REMARK    5  A    between atoms: C18_23  and  O2_24 
ROOT
HETATM    1  C3  UNL     1     -43.668  29.659  -0.345  1.00  0.00     0.175 C 
HETATM    2  C4  UNL     1     -44.288  30.962  -0.010  1.00  0.00     0.064 C 
HETATM    3  N1  UNL     1     -44.759  31.987   0.269  1.00  0.00    -0.197 NA
ENDROOT
BRANCH   1   4
HETATM    4  C2  UNL     1     -43.661  29.452  -1.807  1.00  0.00    -0.004 C 
HETATM    5  C1  UNL     1     -43.180  30.544  -2.683  1.00  0.00     0.064 C 
HETATM    6  N2  UNL     1     -44.051  28.357  -2.357  1.00  0.00    -0.359 N 
ATOM      7  H2  UNL     1     -44.015  28.293  -3.375  1.00  0.00     0.165 HD
BRANCH   6   8
HETATM    8  C5  UNL     1     -44.529  27.235  -1.637  1.00  0.00     0.093 A 
HETATM    9  C6  UNL     1     -45.879  27.054  -1.494  1.00  0.00     0.060 A 
HETATM   10  C12 UNL     1     -46.309  25.941  -0.806  1.00  0.00     0.032 A 
HETATM   11  C13 UNL     1     -45.420  25.012  -0.264  1.00  0.00     0.015 A 
HETATM   12  C14 UNL     1     -44.070  25.182  -0.400  1.00  0.00     0.006 A 
HETATM   13  C18 UNL     1     -43.612  26.318  -1.101  1.00  0.00     0.103 A 
BRANCH   9  14
HETATM   14  N3  UNL     1     -46.850  27.939  -2.009  1.00  0.00    -0.379 N 
HETATM   15  C7  UNL     1     -47.307  29.052  -1.238  1.00  0.00     0.123 C 
HETATM   16  C8  UNL     1     -48.244  29.947  -2.028  1.00  0.00     0.020 C 
HETATM   17  C9  UNL     1     -47.784  30.169  -3.440  1.00  0.00     0.003 C 
HETATM   18  C10 UNL     1     -47.163  28.988  -4.111  1.00  0.00     0.020 C 
HETATM   19  C11 UNL     1     -47.419  27.743  -3.331  1.00  0.00     0.123 C 
ENDBRANCH   9  14
BRANCH  12  20
HETATM   20  C15 UNL     1     -43.030  24.296   0.162  1.00  0.00     0.159 C 
HETATM   21  C16 UNL     1     -42.530  23.274  -0.809  1.00  0.00     0.063 C 
HETATM   22  C17 UNL     1     -42.617  22.416   0.426  1.00  0.00     0.171 C 
HETATM   23  O1  UNL     1     -43.569  23.257   0.952  1.00  0.00    -0.381 OA
ENDBRANCH  12  20
BRANCH  13  24
HETATM   24  O2  UNL     1     -42.298  26.476  -1.225  1.00  0.00    -0.358 OA
ATOM     25  H2  UNL     1     -41.835  26.263  -2.027  1.00  0.00     0.217 HD
ENDBRANCH  13  24
ENDBRANCH   6   8
ENDBRANCH   1   4
TORSDOF 5
ENDMDL
MODEL 4
REMARK VINA RESULT: -7.314800706      0.984      1.061
REMARK  5 active torsions:
REMARK  status: ('A' for Active; 'I' for Inactive)
REMARK    1  A    between atoms: C2_2  and  C3_3 
REMARK    2  A    between atoms: N2_6  and  C5_8 
REMARK    3  A    between atoms: C6_9  and  N3_10 
REMARK    4  A    between atoms: C14_18  and  C15_19 
REMARK    5  A    between atoms: C18_23  and  O2_24 
ROOT
HETATM    1  C3  UNL     1     -42.259  29.816  -1.422  1.00  0.00     0.175 C 
HETATM    2  C4  UNL     1     -42.586  31.249  -1.247  1.00  0.00     0.064 C 
HETATM    3  N1  UNL     1     -42.825  32.377  -1.095  1.00  0.00    -0.197 NA
ENDROOT
BRANCH   1   4
HETATM    4  C2  UNL     1     -42.448  29.412  -2.831  1.00  0.00    -0.004 C 
HETATM    5  C1  UNL     1     -41.918  30.284  -3.903  1.00  0.00     0.064 C 
HETATM    6  N2  UNL     1     -43.051  28.328  -3.169  1.00  0.00    -0.359 N 
ATOM      7  H2  UNL     1     -43.140  28.121  -4.164  1.00  0.00     0.165 HD
BRANCH   6   8
HETATM    8  C5  UNL     1     -43.599  27.405  -2.246  1.00  0.00     0.093 A 
HETATM    9  C6  UNL     1     -44.918  27.511  -1.893  1.00  0.00     0.060 A 
HETATM   10  C12 UNL     1     -45.423  26.584  -1.009  1.00  0.00     0.032 A 
HETATM   11  C13 UNL     1     -44.641  25.559  -0.477  1.00  0.00     0.015 A 
HETATM   12  C14 UNL     1     -43.323  25.442  -0.822  1.00  0.00     0.006 A 
HETATM   13  C18 UNL     1     -42.788  26.385  -1.726  1.00  0.00     0.103 A 
BRANCH   9  14
HETATM   14  N3  UNL     1     -45.784  28.513  -2.381  1.00  0.00    -0.379 N 
HETATM   15  C7  UNL     1     -46.495  28.331  -3.606  1.00  0.00     0.123 C 
HETATM   16  C8  UNL     1     -47.469  29.464  -3.874  1.00  0.00     0.020 C 
HETATM   17  C9  UNL     1     -48.219  29.890  -2.646  1.00  0.00     0.003 C 
HETATM   18  C10 UNL     1     -47.433  29.887  -1.375  1.00  0.00     0.020 C 
HETATM   19  C11 UNL     1     -45.974  29.758  -1.658  1.00  0.00     0.123 C 
ENDBRANCH   9  14
BRANCH  12  20
HETATM   20  C15 UNL     1     -42.382  24.431  -0.298  1.00  0.00     0.159 C 
HETATM   21  C16 UNL     1     -42.942  23.044  -0.289  1.00  0.00     0.063 C 
HETATM   22  C17 UNL     1     -42.246  23.035   1.047  1.00  0.00     0.171 C 
HETATM   23  O1  UNL     1     -42.341  24.406   1.113  1.00  0.00    -0.381 OA
ENDBRANCH  12  20
BRANCH  13  24
HETATM   24  O2  UNL     1     -41.504  26.265  -2.052  1.00  0.00    -0.358 OA
ATOM     25  H2  UNL     1     -41.041  25.438  -1.987  1.00  0.00     0.217 HD
ENDBRANCH  13  24
ENDBRANCH   6   8
ENDBRANCH   1   4
TORSDOF 5
ENDMDL
MODEL 5
REMARK VINA RESULT: -7.226720593      3.016      5.322
REMARK  5 active torsions:
REMARK  status: ('A' for Active; 'I' for Inactive)
REMARK    1  A    between atoms: C2_2  and  C3_3 
REMARK    2  A    between atoms: N2_6  and  C5_8 
REMARK    3  A    between atoms: C6_9  and  N3_10 
REMARK    4  A    between atoms: C14_18  and  C15_19 
REMARK    5  A    between atoms: C18_23  and  O2_24 
ROOT
HETATM    1  C3  UNL     1     -45.021  30.550  -0.695  1.00  0.00     0.175 C 
HETATM    2  C4  UNL     1     -46.089  31.574  -0.759  1.00  0.00     0.064 C 
HETATM    3  N1  UNL     1     -46.920  32.386  -0.791  1.00  0.00    -0.197 NA
ENDROOT
BRANCH   1   4
HETATM    4  C2  UNL     1     -44.477  30.287  -2.043  1.00  0.00    -0.004 C 
HETATM    5  C1  UNL     1     -43.790  31.382  -2.764  1.00  0.00     0.064 C 
HETATM    6  N2  UNL     1     -44.569  29.142  -2.619  1.00  0.00    -0.359 N 
ATOM      7  H2  UNL     1     -44.167  29.041  -3.552  1.00  0.00     0.165 HD
BRANCH   6   8
HETATM    8  C5  UNL     1     -45.196  28.012  -2.040  1.00  0.00     0.093 A 
HETATM    9  C6  UNL     1     -44.437  27.102  -1.353  1.00  0.00     0.060 A 
HETATM   10  C12 UNL     1     -45.082  26.026  -0.784  1.00  0.00     0.032 A 
HETATM   11  C13 UNL     1     -46.462  25.847  -0.886  1.00  0.00     0.015 A 
HETATM   12  C14 UNL     1     -47.230  26.749  -1.569  1.00  0.00     0.006 A 
HETATM   13  C18 UNL     1     -46.586  27.856  -2.160  1.00  0.00     0.103 A 
BRANCH   9  14
HETATM   14  N3  UNL     1     -43.038  27.203  -1.197  1.00  0.00    -0.379 N 
HETATM   15  C7  UNL     1     -42.152  26.597  -2.139  1.00  0.00     0.123 C 
HETATM   16  C8  UNL     1     -40.700  26.940  -1.860  1.00  0.00     0.020 C 
HETATM   17  C9  UNL     1     -40.504  28.381  -1.489  1.00  0.00     0.003 C 
HETATM   18  C10 UNL     1     -41.574  28.980  -0.635  1.00  0.00     0.020 C 
HETATM   19  C11 UNL     1     -42.458  27.917  -0.074  1.00  0.00     0.123 C 
ENDBRANCH   9  14
BRANCH  12  20
HETATM   20  C15 UNL     1     -48.688  26.649  -1.783  1.00  0.00     0.159 C 
HETATM   21  C16 UNL     1     -49.240  25.288  -1.502  1.00  0.00     0.063 C 
HETATM   22  C17 UNL     1     -50.013  25.610  -2.754  1.00  0.00     0.171 C 
HETATM   23  O1  UNL     1     -49.028  26.486  -3.145  1.00  0.00    -0.381 OA
ENDBRANCH  12  20
BRANCH  13  24
HETATM   24  O2  UNL     1     -47.341  28.725  -2.824  1.00  0.00    -0.358 OA
ATOM     25  H2  UNL     1     -48.019  28.448  -3.429  1.00  0.00     0.217 HD
ENDBRANCH  13  24
ENDBRANCH   6   8
ENDBRANCH   1   4
TORSDOF 5
ENDMDL
