MODEL 1
REMARK VINA RESULT: -6.459319522      0.000      0.000
REMARK  1 active torsions:
REMARK  status: ('A' for Active; 'I' for Inactive)
REMARK    1  A    between atoms: C2_2  and  N1_3 
ROOT
HETATM    1  N1  UNL     1     -16.866 -10.201  70.395  1.00  0.00    -0.267 N 
HETATM    2  C3  UNL     1     -16.997  -9.119  69.481  1.00  0.00     0.331 C 
HETATM    3  O1  UNL     1     -16.484  -8.001  69.809  1.00  0.00    -0.246 OA
HETATM    4  N2  UNL     1     -17.675  -9.267  68.238  1.00  0.00    -0.276 N 
ATOM      5  H2  UNL     1     -17.757  -8.478  67.597  1.00  0.00     0.173 HD
HETATM    6  C4  UNL     1     -18.238 -10.533  67.902  1.00  0.00     0.274 C 
HETATM    7  O2  UNL     1     -19.001 -10.608  66.906  1.00  0.00    -0.269 OA
HETATM    8  C5  UNL     1     -17.955 -11.754  68.680  1.00  0.00     0.274 C 
HETATM    9 CL1  UNL     1     -16.671 -12.693  67.850  1.00  0.00    -0.081 Cl
HETATM   10 CL2  UNL     1     -19.408 -12.775  68.839  1.00  0.00    -0.081 Cl
HETATM   11  C6  UNL     1     -17.429 -11.436  70.038  1.00  0.00     0.276 C 
HETATM   12  O3  UNL     1     -17.494 -12.335  70.923  1.00  0.00    -0.269 OA
ENDROOT
BRANCH   1  13
HETATM   13  C2  UNL     1     -16.167 -10.008  71.650  1.00  0.00     0.132 C 
HETATM   14  C1  UNL     1     -17.066  -9.641  72.778  1.00  0.00     0.027 C 
ENDBRANCH   1  13
TORSDOF 1
ENDMDL
MODEL 2
REMARK VINA RESULT: -6.312492264      4.801      6.139
REMARK  1 active torsions:
REMARK  status: ('A' for Active; 'I' for Inactive)
REMARK    1  A    between atoms: C2_2  and  N1_3 
ROOT
HETATM    1  N1  UNL     1     -15.870 -10.438  73.467  1.00  0.00    -0.267 N 
HETATM    2  C3  UNL     1     -15.845  -9.605  72.314  1.00  0.00     0.331 C 
HETATM    3  O1  UNL     1     -16.004 -10.159  71.179  1.00  0.00    -0.246 OA
HETATM    4  N2  UNL     1     -15.651  -8.198  72.411  1.00  0.00    -0.276 N 
ATOM      5  H2  UNL     1     -15.638  -7.619  71.571  1.00  0.00     0.173 HD
HETATM    6  C4  UNL     1     -15.476  -7.610  73.698  1.00  0.00     0.274 C 
HETATM    7  O2  UNL     1     -15.108  -6.410  73.767  1.00  0.00    -0.269 OA
HETATM    8  C5  UNL     1     -15.711  -8.360  74.947  1.00  0.00     0.274 C 
HETATM    9 CL1  UNL     1     -17.347  -7.963  75.568  1.00  0.00    -0.081 Cl
HETATM   10 CL2  UNL     1     -14.503  -7.944  76.191  1.00  0.00    -0.081 Cl
HETATM   11  C6  UNL     1     -15.695  -9.833  74.721  1.00  0.00     0.276 C 
HETATM   12  O3  UNL     1     -15.513 -10.583  75.720  1.00  0.00    -0.269 OA
ENDROOT
BRANCH   1  13
HETATM   13  C2  UNL     1     -16.071 -11.866  73.324  1.00  0.00     0.132 C 
HETATM   14  C1  UNL     1     -17.505 -12.266  73.325  1.00  0.00     0.027 C 
ENDBRANCH   1  13
TORSDOF 1
ENDMDL
MODEL 3
REMARK VINA RESULT: -6.251660302      4.538      6.415
REMARK  1 active torsions:
REMARK  status: ('A' for Active; 'I' for Inactive)
REMARK    1  A    between atoms: C2_2  and  N1_3 
ROOT
HETATM    1  N1  UNL     1     -16.515 -10.352  72.881  1.00  0.00    -0.267 N 
HETATM    2  C3  UNL     1     -17.171 -11.312  73.702  1.00  0.00     0.331 C 
HETATM    3  O1  UNL     1     -17.644 -12.350  73.136  1.00  0.00    -0.246 OA
HETATM    4  N2  UNL     1     -17.301 -11.131  75.107  1.00  0.00    -0.276 N 
ATOM      5  H2  UNL     1     -17.774 -11.832  75.677  1.00  0.00     0.173 HD
HETATM    6  C4  UNL     1     -16.759  -9.956  75.708  1.00  0.00     0.274 C 
HETATM    7  O2  UNL     1     -17.048  -9.704  76.905  1.00  0.00    -0.269 OA
HETATM    8  C5  UNL     1     -15.876  -9.031  74.974  1.00  0.00     0.274 C 
HETATM    9 CL1  UNL     1     -14.169  -9.396  75.392  1.00  0.00    -0.081 Cl
HETATM   10 CL2  UNL     1     -16.223  -7.332  75.392  1.00  0.00    -0.081 Cl
HETATM   11  C6  UNL     1     -15.991  -9.206  73.499  1.00  0.00     0.276 C 
HETATM   12  O3  UNL     1     -15.593  -8.264  72.758  1.00  0.00    -0.269 OA
ENDROOT
BRANCH   1  13
HETATM   13  C2  UNL     1     -16.404 -10.575  71.454  1.00  0.00     0.132 C 
HETATM   14  C1  UNL     1     -17.495  -9.938  70.667  1.00  0.00     0.027 C 
ENDBRANCH   1  13
TORSDOF 1
ENDMDL
MODEL 4
REMARK VINA RESULT: -6.147397327      1.887      2.447
REMARK  1 active torsions:
REMARK  status: ('A' for Active; 'I' for Inactive)
REMARK    1  A    between atoms: C2_2  and  N1_3 
ROOT
HETATM    1  N1  UNL     1     -16.610 -11.033  71.502  1.00  0.00    -0.267 N 
HETATM    2  C3  UNL     1     -15.970  -9.780  71.710  1.00  0.00     0.331 C 
HETATM    3  O1  UNL     1     -15.347  -9.608  72.808  1.00  0.00    -0.246 OA
HETATM    4  N2  UNL     1     -16.015  -8.744  70.735  1.00  0.00    -0.276 N 
ATOM      5  H2  UNL     1     -15.548  -7.853  70.905  1.00  0.00     0.173 HD
HETATM    6  C4  UNL     1     -16.722  -8.970  69.517  1.00  0.00     0.274 C 
HETATM    7  O2  UNL     1     -16.928  -7.994  68.751  1.00  0.00    -0.269 OA
HETATM    8  C5  UNL     1     -17.216 -10.304  69.127  1.00  0.00     0.274 C 
HETATM    9 CL1  UNL     1     -16.054 -11.045  67.978  1.00  0.00    -0.081 Cl
HETATM   10 CL2  UNL     1     -18.816 -10.202  68.347  1.00  0.00    -0.081 Cl
HETATM   11  C6  UNL     1     -17.298 -11.228  70.294  1.00  0.00     0.276 C 
HETATM   12  O3  UNL     1     -18.032 -12.250  70.189  1.00  0.00    -0.269 OA
ENDROOT
BRANCH   1  13
HETATM   13  C2  UNL     1     -16.539 -12.061  72.520  1.00  0.00     0.132 C 
HETATM   14  C1  UNL     1     -17.592 -11.934  73.565  1.00  0.00     0.027 C 
ENDBRANCH   1  13
TORSDOF 1
ENDMDL
MODEL 5
REMARK VINA RESULT: -6.056929512      5.410      7.190
REMARK  1 active torsions:
REMARK  status: ('A' for Active; 'I' for Inactive)
REMARK    1  A    between atoms: C2_2  and  N1_3 
ROOT
HETATM    1  N1  UNL     1     -16.248  -9.869  74.036  1.00  0.00    -0.267 N 
HETATM    2  C3  UNL     1     -14.976 -10.496  74.159  1.00  0.00     0.331 C 
HETATM    3  O1  UNL     1     -14.759 -11.537  73.458  1.00  0.00    -0.246 OA
HETATM    4  N2  UNL     1     -13.972  -9.989  75.031  1.00  0.00    -0.276 N 
ATOM      5  H2  UNL     1     -13.067 -10.454  75.103  1.00  0.00     0.173 HD
HETATM    6  C4  UNL     1     -14.249  -8.821  75.801  1.00  0.00     0.274 C 
HETATM    7  O2  UNL     1     -13.445  -8.494  76.710  1.00  0.00    -0.269 OA
HETATM    8  C5  UNL     1     -15.444  -7.987  75.569  1.00  0.00     0.274 C 
HETATM    9 CL1  UNL     1     -14.985  -6.575  74.562  1.00  0.00    -0.081 Cl
HETATM   10 CL2  UNL     1     -16.137  -7.403  77.104  1.00  0.00    -0.081 Cl
HETATM   11  C6  UNL     1     -16.493  -8.722  74.806  1.00  0.00     0.276 C 
HETATM   12  O3  UNL     1     -17.676  -8.284  74.855  1.00  0.00    -0.269 OA
ENDROOT
BRANCH   1  13
HETATM   13  C2  UNL     1     -17.242 -10.418  73.136  1.00  0.00     0.132 C 
HETATM   14  C1  UNL     1     -17.212  -9.811  71.777  1.00  0.00     0.027 C 
ENDBRANCH   1  13
TORSDOF 1
ENDMDL
