MODEL 1
REMARK VINA RESULT: -5.727156568      0.000      0.000
REMARK  3 active torsions:
REMARK  status: ('A' for Active; 'I' for Inactive)
REMARK    1  A    between atoms: N2_4  and  N3_6 
REMARK    2  A    between atoms: C1_8  and  N4_9 
REMARK    3  A    between atoms: N4_9  and  C2_11 
ROOT
HETATM    1  N3  UNL     1       0.715   4.028   9.474  1.00  0.00    -0.283 N 
ATOM      2  H3  UNL     1       0.903   3.056   9.722  1.00  0.00     0.189 HD
HETATM    3  C1  UNL     1      -0.445   4.556   9.697  1.00  0.00     0.194 C 
ENDROOT
BRANCH   1   4
HETATM    4  N2  UNL     1       1.694   4.811   8.890  1.00  0.00    -0.248 N 
HETATM    5  N1  UNL     1       2.405   5.557   9.605  1.00  0.00    -0.331 N 
ATOM      6  H12 UNL     1       2.249   5.574  10.613  1.00  0.00     0.178 HD
ATOM      7  H11 UNL     1       3.128   6.135   9.175  1.00  0.00     0.178 HD
ATOM      8  H2  UNL     1       1.838   4.782   7.880  1.00  0.00     0.207 HD
ENDBRANCH   1   4
BRANCH   3   9
HETATM    9  N4  UNL     1      -1.468   3.773  10.296  1.00  0.00    -0.380 N 
ATOM     10  H4  UNL     1      -2.444   4.066  10.244  1.00  0.00     0.160 HD
BRANCH   9  11
HETATM   11  C2  UNL     1      -1.104   2.554  10.978  1.00  0.00     0.082 C 
HETATM   12  C3  UNL     1      -2.160   2.202  12.011  1.00  0.00     0.025 C 
HETATM   13  C4  UNL     1      -2.473   0.971  11.166  1.00  0.00     0.004 C 
HETATM   14  C5  UNL     1      -1.305   1.282  10.231  1.00  0.00     0.025 C 
ENDBRANCH   9  11
ENDBRANCH   3   9
TORSDOF 3
ENDMDL
MODEL 2
REMARK VINA RESULT: -5.708325314      0.907      1.396
REMARK  3 active torsions:
REMARK  status: ('A' for Active; 'I' for Inactive)
REMARK    1  A    between atoms: N2_4  and  N3_6 
REMARK    2  A    between atoms: C1_8  and  N4_9 
REMARK    3  A    between atoms: N4_9  and  C2_11 
ROOT
HETATM    1  N3  UNL     1       0.073   4.850   8.662  1.00  0.00    -0.283 N 
ATOM      2  H3  UNL     1      -0.593   5.120   7.937  1.00  0.00     0.189 HD
HETATM    3  C1  UNL     1      -0.335   4.468   9.828  1.00  0.00     0.194 C 
ENDROOT
BRANCH   1   4
HETATM    4  N2  UNL     1       1.435   4.884   8.419  1.00  0.00    -0.248 N 
HETATM    5  N1  UNL     1       2.218   5.287   9.313  1.00  0.00    -0.331 N 
ATOM      6  H12 UNL     1       1.836   5.584  10.210  1.00  0.00     0.178 HD
ATOM      7  H11 UNL     1       3.222   5.312   9.134  1.00  0.00     0.178 HD
ATOM      8  H2  UNL     1       1.801   4.584   7.516  1.00  0.00     0.207 HD
ENDBRANCH   1   4
BRANCH   3   9
HETATM    9  N4  UNL     1      -1.728   4.423  10.103  1.00  0.00    -0.380 N 
ATOM     10  H4  UNL     1      -2.271   5.285  10.176  1.00  0.00     0.160 HD
BRANCH   9  11
HETATM   11  C2  UNL     1      -2.364   3.139  10.277  1.00  0.00     0.082 C 
HETATM   12  C3  UNL     1      -1.334   2.100  10.680  1.00  0.00     0.025 C 
HETATM   13  C4  UNL     1      -2.056   2.009  12.021  1.00  0.00     0.004 C 
HETATM   14  C5  UNL     1      -3.155   2.946  11.523  1.00  0.00     0.025 C 
ENDBRANCH   9  11
ENDBRANCH   3   9
TORSDOF 3
ENDMDL
MODEL 3
REMARK VINA RESULT: -5.446005960      3.993      4.647
REMARK  3 active torsions:
REMARK  status: ('A' for Active; 'I' for Inactive)
REMARK    1  A    between atoms: N2_4  and  N3_6 
REMARK    2  A    between atoms: C1_8  and  N4_9 
REMARK    3  A    between atoms: N4_9  and  C2_11 
ROOT
HETATM    1  N3  UNL     1      -2.167   0.160   7.130  1.00  0.00    -0.283 N 
ATOM      2  H3  UNL     1      -1.354  -0.385   7.417  1.00  0.00     0.189 HD
HETATM    3  C1  UNL     1      -2.984   0.644   8.010  1.00  0.00     0.194 C 
ENDROOT
BRANCH   1   4
HETATM    4  N2  UNL     1      -2.423   0.399   5.792  1.00  0.00    -0.248 N 
HETATM    5  N1  UNL     1      -1.553   0.124   4.932  1.00  0.00    -0.331 N 
ATOM      6  H12 UNL     1      -0.664  -0.275   5.235  1.00  0.00     0.178 HD
ATOM      7  H11 UNL     1      -1.741   0.300   3.944  1.00  0.00     0.178 HD
ATOM      8  H2  UNL     1      -3.317   0.798   5.505  1.00  0.00     0.207 HD
ENDBRANCH   1   4
BRANCH   3   9
HETATM    9  N4  UNL     1      -2.744   0.413   9.391  1.00  0.00    -0.380 N 
ATOM     10  H4  UNL     1      -3.083  -0.437   9.842  1.00  0.00     0.160 HD
BRANCH   9  11
HETATM   11  C2  UNL     1      -2.011   1.401  10.146  1.00  0.00     0.082 C 
HETATM   12  C3  UNL     1      -2.605   2.778   9.913  1.00  0.00     0.025 C 
HETATM   13  C4  UNL     1      -3.009   2.774  11.384  1.00  0.00     0.004 C 
HETATM   14  C5  UNL     1      -2.272   1.455  11.611  1.00  0.00     0.025 C 
ENDBRANCH   9  11
ENDBRANCH   3   9
TORSDOF 3
ENDMDL
MODEL 4
REMARK VINA RESULT: -5.433220880      1.092      1.298
REMARK  3 active torsions:
REMARK  status: ('A' for Active; 'I' for Inactive)
REMARK    1  A    between atoms: N2_4  and  N3_6 
REMARK    2  A    between atoms: C1_8  and  N4_9 
REMARK    3  A    between atoms: N4_9  and  C2_11 
ROOT
HETATM    1  N3  UNL     1       0.637   3.763   9.477  1.00  0.00    -0.283 N 
ATOM      2  H3  UNL     1       0.844   3.367   8.559  1.00  0.00     0.189 HD
HETATM    3  C1  UNL     1      -0.227   3.203  10.261  1.00  0.00     0.194 C 
ENDROOT
BRANCH   1   4
HETATM    4  N2  UNL     1       1.275   4.911   9.911  1.00  0.00    -0.248 N 
HETATM    5  N1  UNL     1       2.292   5.327   9.306  1.00  0.00    -0.331 N 
ATOM      6  H12 UNL     1       2.635   4.809   8.498  1.00  0.00     0.178 HD
ATOM      7  H11 UNL     1       2.762   6.174   9.626  1.00  0.00     0.178 HD
ATOM      8  H2  UNL     1       0.919   5.418  10.722  1.00  0.00     0.207 HD
ENDBRANCH   1   4
BRANCH   3   9
HETATM    9  N4  UNL     1      -0.895   2.023   9.838  1.00  0.00    -0.380 N 
ATOM     10  H4  UNL     1      -0.791   1.681   8.882  1.00  0.00     0.160 HD
BRANCH   9  11
HETATM   11  C2  UNL     1      -1.725   1.315  10.784  1.00  0.00     0.082 C 
HETATM   12  C3  UNL     1      -2.149   2.248  11.903  1.00  0.00     0.025 C 
HETATM   13  C4  UNL     1      -3.578   2.096  11.392  1.00  0.00     0.004 C 
HETATM   14  C5  UNL     1      -3.131   1.048  10.374  1.00  0.00     0.025 C 
ENDBRANCH   9  11
ENDBRANCH   3   9
TORSDOF 3
ENDMDL
MODEL 5
REMARK VINA RESULT: -5.432422680      1.038      1.356
REMARK  3 active torsions:
REMARK  status: ('A' for Active; 'I' for Inactive)
REMARK    1  A    between atoms: N2_4  and  N3_6 
REMARK    2  A    between atoms: C1_8  and  N4_9 
REMARK    3  A    between atoms: N4_9  and  C2_11 
ROOT
HETATM    1  N3  UNL     1       1.146   4.434   9.057  1.00  0.00    -0.283 N 
ATOM      2  H3  UNL     1       1.698   3.672   8.663  1.00  0.00     0.189 HD
HETATM    3  C1  UNL     1       0.128   4.191   9.817  1.00  0.00     0.194 C 
ENDROOT
BRANCH   1   4
HETATM    4  N2  UNL     1       1.471   5.753   8.792  1.00  0.00    -0.248 N 
HETATM    5  N1  UNL     1       2.421   6.297   9.405  1.00  0.00    -0.331 N 
ATOM      6  H12 UNL     1       2.943   5.755  10.093  1.00  0.00     0.178 HD
ATOM      7  H11 UNL     1       2.660   7.269   9.209  1.00  0.00     0.178 HD
ATOM      8  H2  UNL     1       0.938   6.281   8.101  1.00  0.00     0.207 HD
ENDBRANCH   1   4
BRANCH   3   9
HETATM    9  N4  UNL     1      -0.226   2.846  10.105  1.00  0.00    -0.380 N 
ATOM     10  H4  UNL     1       0.493   2.151  10.306  1.00  0.00     0.160 HD
BRANCH   9  11
HETATM   11  C2  UNL     1      -1.622   2.478  10.109  1.00  0.00     0.082 C 
HETATM   12  C3  UNL     1      -1.865   1.372  11.121  1.00  0.00     0.025 C 
HETATM   13  C4  UNL     1      -2.706   2.373  11.906  1.00  0.00     0.004 C 
HETATM   14  C5  UNL     1      -2.559   3.410  10.793  1.00  0.00     0.025 C 
ENDBRANCH   9  11
ENDBRANCH   3   9
TORSDOF 3
ENDMDL
