MODEL 1
REMARK VINA RESULT: -4.921085562      0.000      0.000
REMARK  2 active torsions:
REMARK  status: ('A' for Active; 'I' for Inactive)
REMARK    1  A    between atoms: C1_4  and  C2_5 
REMARK    2  A    between atoms: N3_10  and  C5_12 
ROOT
HETATM    1  C2  UNL     1      -1.857   2.064  11.123  1.00  0.00     0.108 C 
HETATM    2  C3  UNL     1      -3.358   2.060  11.407  1.00  0.00     0.138 C 
HETATM    3  N2  UNL     1      -3.267   3.491  11.332  1.00  0.00    -0.378 N 
ATOM      4  H2  UNL     1      -3.750   4.279  11.764  1.00  0.00     0.160 HD
HETATM    5  C4  UNL     1      -2.219   3.335  10.399  1.00  0.00     0.089 C 
HETATM    6  N3  UNL     1      -1.726   3.938   9.377  1.00  0.00    -0.324 N 
ATOM      7  H3  UNL     1      -0.919   3.541   8.895  1.00  0.00     0.169 HD
ENDROOT
BRANCH   1   8
HETATM    8  C1  UNL     1      -1.432   0.978  10.214  1.00  0.00     0.066 C 
HETATM    9  N1  UNL     1      -0.232   0.957   9.797  1.00  0.00    -0.410 N 
ATOM     10  H12 UNL     1       0.416   1.686  10.095  1.00  0.00     0.155 HD
ATOM     11  H11 UNL     1       0.061   0.209   9.170  1.00  0.00     0.155 HD
ENDBRANCH   1   8
BRANCH   6  12
HETATM   12  C5  UNL     1      -2.290   5.140   8.917  1.00  0.00     0.354 C 
HETATM   13  O1  UNL     1      -2.494   6.066   9.738  1.00  0.00    -0.283 OA
ENDBRANCH   6  12
TORSDOF 2
ENDMDL
MODEL 2
REMARK VINA RESULT: -4.814523614      1.859      2.042
REMARK  2 active torsions:
REMARK  status: ('A' for Active; 'I' for Inactive)
REMARK    1  A    between atoms: C1_4  and  C2_5 
REMARK    2  A    between atoms: N3_10  and  C5_12 
ROOT
HETATM    1  C2  UNL     1      -1.594   2.641  10.860  1.00  0.00     0.108 C 
HETATM    2  C3  UNL     1      -2.736   3.298  10.087  1.00  0.00     0.138 C 
HETATM    3  N2  UNL     1      -1.954   4.500  10.166  1.00  0.00    -0.378 N 
ATOM      4  H2  UNL     1      -2.151   5.499  10.216  1.00  0.00     0.160 HD
HETATM    5  C4  UNL     1      -0.793   3.697  10.144  1.00  0.00     0.089 C 
HETATM    6  N3  UNL     1       0.423   3.752   9.732  1.00  0.00    -0.324 N 
ATOM      7  H3  UNL     1       1.044   2.957   9.878  1.00  0.00     0.169 HD
ENDROOT
BRANCH   1   8
HETATM    8  C1  UNL     1      -1.290   1.269  10.397  1.00  0.00     0.066 C 
HETATM    9  N1  UNL     1      -1.642   0.921   9.226  1.00  0.00    -0.410 N 
ATOM     10  H12 UNL     1      -2.125   1.590   8.628  1.00  0.00     0.155 HD
ATOM     11  H11 UNL     1      -1.432  -0.024   8.907  1.00  0.00     0.155 HD
ENDBRANCH   1   8
BRANCH   6  12
HETATM   12  C5  UNL     1       0.903   4.901   9.079  1.00  0.00     0.354 C 
HETATM   13  O1  UNL     1       0.158   5.487   8.258  1.00  0.00    -0.283 OA
ENDBRANCH   6  12
TORSDOF 2
ENDMDL
MODEL 3
REMARK VINA RESULT: -4.553927011      2.273      3.503
REMARK  2 active torsions:
REMARK  status: ('A' for Active; 'I' for Inactive)
REMARK    1  A    between atoms: C1_4  and  C2_5 
REMARK    2  A    between atoms: N3_10  and  C5_12 
ROOT
HETATM    1  C2  UNL     1      -0.824   4.666   9.203  1.00  0.00     0.108 C 
HETATM    2  C3  UNL     1      -1.882   5.702   9.579  1.00  0.00     0.138 C 
HETATM    3  N2  UNL     1      -2.735   4.577   9.841  1.00  0.00    -0.378 N 
ATOM      4  H2  UNL     1      -3.736   4.389   9.785  1.00  0.00     0.160 HD
HETATM    5  C4  UNL     1      -1.586   3.844  10.209  1.00  0.00     0.089 C 
HETATM    6  N3  UNL     1      -1.249   2.899  11.013  1.00  0.00    -0.324 N 
ATOM      7  H3  UNL     1      -0.281   2.579  11.040  1.00  0.00     0.169 HD
ENDROOT
BRANCH   1   8
HETATM    8  C1  UNL     1       0.536   5.029   9.661  1.00  0.00     0.066 C 
HETATM    9  N1  UNL     1       1.527   4.777   8.908  1.00  0.00    -0.410 N 
ATOM     10  H12 UNL     1       1.371   4.331   8.004  1.00  0.00     0.155 HD
ATOM     11  H11 UNL     1       2.464   5.026   9.223  1.00  0.00     0.155 HD
ENDBRANCH   1   8
BRANCH   6  12
HETATM   12  C5  UNL     1      -2.204   2.305  11.856  1.00  0.00     0.354 C 
HETATM   13  O1  UNL     1      -3.314   2.868  12.005  1.00  0.00    -0.283 OA
ENDBRANCH   6  12
TORSDOF 2
ENDMDL
MODEL 4
REMARK VINA RESULT: -4.534219711      2.958      3.681
REMARK  2 active torsions:
REMARK  status: ('A' for Active; 'I' for Inactive)
REMARK    1  A    between atoms: C1_4  and  C2_5 
REMARK    2  A    between atoms: N3_10  and  C5_12 
ROOT
HETATM    1  C2  UNL     1      -0.147   5.405   9.776  1.00  0.00     0.108 C 
HETATM    2  C3  UNL     1      -1.311   4.418   9.842  1.00  0.00     0.138 C 
HETATM    3  N2  UNL     1      -2.155   5.568   9.681  1.00  0.00    -0.378 N 
ATOM      4  H2  UNL     1      -3.091   5.837   9.984  1.00  0.00     0.160 HD
HETATM    5  C4  UNL     1      -1.126   6.165   8.920  1.00  0.00     0.089 C 
HETATM    6  N3  UNL     1      -0.990   6.984   7.939  1.00  0.00    -0.324 N 
ATOM      7  H3  UNL     1      -0.056   7.224   7.607  1.00  0.00     0.169 HD
ENDROOT
BRANCH   1   8
HETATM    8  C1  UNL     1       1.012   4.890   9.014  1.00  0.00     0.066 C 
HETATM    9  N1  UNL     1       2.177   5.299   9.315  1.00  0.00    -0.410 N 
ATOM     10  H12 UNL     1       2.294   5.971  10.073  1.00  0.00     0.155 HD
ATOM     11  H11 UNL     1       2.976   4.944   8.790  1.00  0.00     0.155 HD
ENDBRANCH   1   8
BRANCH   6  12
HETATM   12  C5  UNL     1      -2.117   7.551   7.321  1.00  0.00     0.354 C 
HETATM   13  O1  UNL     1      -3.246   7.055   7.548  1.00  0.00    -0.283 OA
ENDBRANCH   6  12
TORSDOF 2
ENDMDL
MODEL 5
REMARK VINA RESULT: -4.531794626      2.669      3.454
REMARK  2 active torsions:
REMARK  status: ('A' for Active; 'I' for Inactive)
REMARK    1  A    between atoms: C1_4  and  C2_5 
REMARK    2  A    between atoms: N3_10  and  C5_12 
ROOT
HETATM    1  C2  UNL     1      -2.598   2.162  10.281  1.00  0.00     0.108 C 
HETATM    2  C3  UNL     1      -2.342   2.590  11.725  1.00  0.00     0.138 C 
HETATM    3  N2  UNL     1      -3.754   2.842  11.787  1.00  0.00    -0.378 N 
ATOM      4  H2  UNL     1      -4.360   3.494  12.286  1.00  0.00     0.160 HD
HETATM    5  C4  UNL     1      -3.940   1.795  10.858  1.00  0.00     0.089 C 
HETATM    6  N3  UNL     1      -4.810   0.896  10.564  1.00  0.00    -0.324 N 
ATOM      7  H3  UNL     1      -4.634   0.255   9.791  1.00  0.00     0.169 HD
ENDROOT
BRANCH   1   8
HETATM    8  C1  UNL     1      -1.801   0.985   9.872  1.00  0.00     0.066 C 
HETATM    9  N1  UNL     1      -0.540   1.102   9.764  1.00  0.00    -0.410 N 
ATOM     10  H12 UNL     1      -0.100   2.000   9.960  1.00  0.00     0.155 HD
ATOM     11  H11 UNL     1       0.010   0.290   9.482  1.00  0.00     0.155 HD
ENDBRANCH   1   8
BRANCH   6  12
HETATM   12  C5  UNL     1      -6.003   0.790  11.299  1.00  0.00     0.354 C 
HETATM   13  O1  UNL     1      -6.278   1.680  12.140  1.00  0.00    -0.283 OA
ENDBRANCH   6  12
TORSDOF 2
ENDMDL
