MODEL 1
REMARK VINA RESULT: -6.461105117      0.000      0.000
REMARK  2 active torsions:
REMARK  status: ('A' for Active; 'I' for Inactive)
REMARK    1  A    between atoms: C2_2  and  C4_5 
REMARK    2  A    between atoms: C2_2  and  C5_8 
ROOT
HETATM    1  C1  UNL     1      13.680   1.450 200.744  1.00  0.00     0.044 C 
HETATM    2  C2  UNL     1      12.555   2.098 199.985  1.00  0.00     0.145 C 
HETATM    3  C3  UNL     1      12.551   3.517 200.339  1.00  0.00     0.081 C 
HETATM    4  N1  UNL     1      12.545   4.652 200.601  1.00  0.00    -0.196 NA
ENDROOT
BRANCH   2   5
HETATM    5  C4  UNL     1      11.290   1.518 200.460  1.00  0.00     0.197 C 
HETATM    6  O1  UNL     1      10.190   1.695 199.890  1.00  0.00    -0.647 OA
HETATM    7  O2  UNL     1      11.297   0.729 201.603  1.00  0.00    -0.647 OA
ENDBRANCH   2   5
BRANCH   2   8
HETATM    8  C5  UNL     1      12.697   1.918 198.491  1.00  0.00     0.080 C 
HETATM    9  C6  UNL     1      13.668   2.908 197.895  1.00  0.00     0.017 C 
HETATM   10  C7  UNL     1      13.161   3.263 196.522  1.00  0.00     0.002 C 
HETATM   11  C8  UNL     1      14.161   3.970 195.678  1.00  0.00     0.006 C 
HETATM   12  C9  UNL     1      13.800   3.775 194.223  1.00  0.00     0.064 C 
HETATM   13  C10 UNL     1      14.557   2.623 193.694  1.00  0.00     0.040 C 
HETATM   14  N2  UNL     1      15.736   2.810 193.241  1.00  0.00    -0.397 N 
HETATM   15  S1  UNL     1      13.891   0.973 193.660  1.00  0.00    -0.117 SA
ATOM     16  H22 UNL     1      16.117   3.756 193.260  1.00  0.00     0.156 HD
ATOM     17  H21 UNL     1      16.259   2.015 192.875  1.00  0.00     0.156 HD
HETATM   18  C11 UNL     1      15.160  -0.256 194.158  1.00  0.00     0.080 C 
HETATM   19  C12 UNL     1      14.478  -1.310 194.947  1.00  0.00     0.011 C 
HETATM   20  C13 UNL     1      14.709  -1.261 196.422  1.00  0.00     0.011 C 
HETATM   21  C14 UNL     1      14.534   0.069 197.052  1.00  0.00     0.074 C 
HETATM   22  S2  UNL     1      13.021   0.219 198.024  1.00  0.00    -0.162 SA
ENDBRANCH   2   8
TORSDOF 2
ENDMDL
MODEL 2
REMARK VINA RESULT: -5.660030881      1.427      3.138
REMARK  2 active torsions:
REMARK  status: ('A' for Active; 'I' for Inactive)
REMARK    1  A    between atoms: C2_2  and  C4_5 
REMARK    2  A    between atoms: C2_2  and  C5_8 
ROOT
HETATM    1  C1  UNL     1      13.567   1.068 200.773  1.00  0.00     0.044 C 
HETATM    2  C2  UNL     1      12.897   1.906 199.719  1.00  0.00     0.145 C 
HETATM    3  C3  UNL     1      12.866   3.283 200.211  1.00  0.00     0.081 C 
HETATM    4  N1  UNL     1      12.847   4.386 200.585  1.00  0.00    -0.196 NA
ENDROOT
BRANCH   2   5
HETATM    5  C4  UNL     1      11.505   1.449 199.589  1.00  0.00     0.197 C 
HETATM    6  O1  UNL     1      10.982   1.128 198.499  1.00  0.00    -0.647 OA
HETATM    7  O2  UNL     1      10.714   1.365 200.726  1.00  0.00    -0.647 OA
ENDBRANCH   2   5
BRANCH   2   8
HETATM    8  C5  UNL     1      13.612   1.828 198.389  1.00  0.00     0.080 C 
HETATM    9  C6  UNL     1      13.092   0.697 197.537  1.00  0.00     0.017 C 
HETATM   10  C7  UNL     1      14.258   0.151 196.756  1.00  0.00     0.002 C 
HETATM   11  C8  UNL     1      13.862  -0.744 195.635  1.00  0.00     0.006 C 
HETATM   12  C9  UNL     1      14.976  -0.771 194.612  1.00  0.00     0.064 C 
HETATM   13  C10 UNL     1      14.687   0.231 193.567  1.00  0.00     0.040 C 
HETATM   14  N2  UNL     1      13.948  -0.099 192.579  1.00  0.00    -0.397 N 
HETATM   15  S1  UNL     1      15.329   1.889 193.625  1.00  0.00    -0.117 SA
ATOM     16  H22 UNL     1      13.580  -1.049 192.545  1.00  0.00     0.156 HD
ATOM     17  H21 UNL     1      13.749   0.593 191.856  1.00  0.00     0.156 HD
HETATM   18  C11 UNL     1      14.050   3.105 193.122  1.00  0.00     0.080 C 
HETATM   19  C12 UNL     1      14.227   4.314 193.963  1.00  0.00     0.011 C 
HETATM   20  C13 UNL     1      13.217   4.495 195.049  1.00  0.00     0.011 C 
HETATM   21  C14 UNL     1      12.957   3.301 195.886  1.00  0.00     0.074 C 
HETATM   22  S2  UNL     1      13.673   3.404 197.540  1.00  0.00    -0.162 SA
ENDBRANCH   2   8
TORSDOF 2
ENDMDL
MODEL 3
REMARK VINA RESULT: -5.238528509      1.509      1.828
REMARK  2 active torsions:
REMARK  status: ('A' for Active; 'I' for Inactive)
REMARK    1  A    between atoms: C2_2  and  C4_5 
REMARK    2  A    between atoms: C2_2  and  C5_8 
ROOT
HETATM    1  C1  UNL     1      10.979   1.374 200.286  1.00  0.00     0.044 C 
HETATM    2  C2  UNL     1      12.265   2.057 199.908  1.00  0.00     0.145 C 
HETATM    3  C3  UNL     1      13.350   1.349 200.585  1.00  0.00     0.081 C 
HETATM    4  N1  UNL     1      14.226   0.786 201.108  1.00  0.00    -0.196 NA
ENDROOT
BRANCH   2   5
HETATM    5  C4  UNL     1      12.228   3.428 200.440  1.00  0.00     0.197 C 
HETATM    6  O1  UNL     1      13.237   4.159 200.537  1.00  0.00    -0.647 OA
HETATM    7  O2  UNL     1      11.014   3.953 200.863  1.00  0.00    -0.647 OA
ENDBRANCH   2   5
BRANCH   2   8
HETATM    8  C5  UNL     1      12.484   2.070 198.412  1.00  0.00     0.080 C 
HETATM    9  C6  UNL     1      13.510   3.098 198.003  1.00  0.00     0.017 C 
HETATM   10  C7  UNL     1      13.087   3.645 196.665  1.00  0.00     0.002 C 
HETATM   11  C8  UNL     1      14.149   4.425 195.974  1.00  0.00     0.006 C 
HETATM   12  C9  UNL     1      13.864   4.433 194.489  1.00  0.00     0.064 C 
HETATM   13  C10 UNL     1      14.620   3.337 193.852  1.00  0.00     0.040 C 
HETATM   14  N2  UNL     1      15.826   3.545 193.488  1.00  0.00    -0.397 N 
HETATM   15  S1  UNL     1      13.917   1.728 193.566  1.00  0.00    -0.117 SA
ATOM     16  H22 UNL     1      16.229   4.467 193.652  1.00  0.00     0.156 HD
ATOM     17  H21 UNL     1      16.349   2.788 193.048  1.00  0.00     0.156 HD
HETATM   18  C11 UNL     1      15.126   0.405 193.961  1.00  0.00     0.080 C 
HETATM   19  C12 UNL     1      14.376  -0.721 194.567  1.00  0.00     0.011 C 
HETATM   20  C13 UNL     1      14.527  -0.873 196.046  1.00  0.00     0.011 C 
HETATM   21  C14 UNL     1      14.351   0.368 196.837  1.00  0.00     0.074 C 
HETATM   22  S2  UNL     1      12.791   0.437 197.742  1.00  0.00    -0.162 SA
ENDBRANCH   2   8
TORSDOF 2
ENDMDL
MODEL 4
REMARK VINA RESULT: -4.533016274      1.400      1.567
REMARK  2 active torsions:
REMARK  status: ('A' for Active; 'I' for Inactive)
REMARK    1  A    between atoms: C2_2  and  C4_5 
REMARK    2  A    between atoms: C2_2  and  C5_8 
ROOT
HETATM    1  C1  UNL     1      14.423   3.110 200.085  1.00  0.00     0.044 C 
HETATM    2  C2  UNL     1      13.164   3.291 199.284  1.00  0.00     0.145 C 
HETATM    3  C3  UNL     1      13.028   4.719 199.001  1.00  0.00     0.081 C 
HETATM    4  N1  UNL     1      12.914   5.853 198.756  1.00  0.00    -0.196 NA
ENDROOT
BRANCH   2   5
HETATM    5  C4  UNL     1      12.025   2.894 200.126  1.00  0.00     0.197 C 
HETATM    6  O1  UNL     1      11.167   2.053 199.778  1.00  0.00    -0.647 OA
HETATM    7  O2  UNL     1      11.879   3.476 201.378  1.00  0.00    -0.647 OA
ENDBRANCH   2   5
BRANCH   2   8
HETATM    8  C5  UNL     1      13.185   2.490 198.001  1.00  0.00     0.080 C 
HETATM    9  C6  UNL     1      14.149   3.065 196.994  1.00  0.00     0.017 C 
HETATM   10  C7  UNL     1      13.556   2.845 195.628  1.00  0.00     0.002 C 
HETATM   11  C8  UNL     1      14.519   3.059 194.514  1.00  0.00     0.006 C 
HETATM   12  C9  UNL     1      14.041   2.296 193.299  1.00  0.00     0.064 C 
HETATM   13  C10 UNL     1      14.705   0.977 193.272  1.00  0.00     0.040 C 
HETATM   14  N2  UNL     1      15.853   0.872 192.724  1.00  0.00    -0.397 N 
HETATM   15  S1  UNL     1      13.967  -0.482 193.975  1.00  0.00    -0.117 SA
ATOM     16  H22 UNL     1      16.276   1.708 192.321  1.00  0.00     0.156 HD
ATOM     17  H21 UNL     1      16.312  -0.039 192.705  1.00  0.00     0.156 HD
HETATM   18  C11 UNL     1      15.216  -1.475 194.883  1.00  0.00     0.080 C 
HETATM   19  C12 UNL     1      14.550  -2.047 196.077  1.00  0.00     0.011 C 
HETATM   20  C13 UNL     1      14.894  -1.399 197.379  1.00  0.00     0.011 C 
HETATM   21  C14 UNL     1      14.825   0.081 197.393  1.00  0.00     0.074 C 
HETATM   22  S2  UNL     1      13.398   0.734 198.284  1.00  0.00    -0.162 SA
ENDBRANCH   2   8
TORSDOF 2
ENDMDL
MODEL 5
REMARK VINA RESULT: -4.337284086      3.577      5.689
REMARK  2 active torsions:
REMARK  status: ('A' for Active; 'I' for Inactive)
REMARK    1  A    between atoms: C2_2  and  C4_5 
REMARK    2  A    between atoms: C2_2  and  C5_8 
ROOT
HETATM    1  C1  UNL     1       8.246   3.072 202.415  1.00  0.00     0.044 C 
HETATM    2  C2  UNL     1       9.554   2.825 203.115  1.00  0.00     0.145 C 
HETATM    3  C3  UNL     1       9.448   1.535 203.795  1.00  0.00     0.081 C 
HETATM    4  N1  UNL     1       9.382   0.503 204.332  1.00  0.00    -0.196 NA
ENDROOT
BRANCH   2   5
HETATM    5  C4  UNL     1       9.723   3.859 204.146  1.00  0.00     0.197 C 
HETATM    6  O1  UNL     1      10.685   3.889 204.946  1.00  0.00    -0.647 OA
HETATM    7  O2  UNL     1       8.772   4.865 204.254  1.00  0.00    -0.647 OA
ENDBRANCH   2   5
BRANCH   2   8
HETATM    8  C5  UNL     1      10.723   2.830 202.156  1.00  0.00     0.080 C 
HETATM    9  C6  UNL     1      10.464   1.965 200.948  1.00  0.00     0.017 C 
HETATM   10  C7  UNL     1      11.777   1.347 200.548  1.00  0.00     0.002 C 
HETATM   11  C8  UNL     1      11.762   0.730 199.194  1.00  0.00     0.006 C 
HETATM   12  C9  UNL     1      13.179   0.663 198.670  1.00  0.00     0.064 C 
HETATM   13  C10 UNL     1      13.435   1.855 197.836  1.00  0.00     0.040 C 
HETATM   14  N2  UNL     1      13.116   1.828 196.600  1.00  0.00    -0.397 N 
HETATM   15  S1  UNL     1      14.176   3.337 198.485  1.00  0.00    -0.117 SA
ATOM     16  H22 UNL     1      12.691   0.979 196.229  1.00  0.00     0.156 HD
ATOM     17  H21 UNL     1      13.293   2.651 196.024  1.00  0.00     0.156 HD
HETATM   18  C11 UNL     1      13.338   4.831 197.828  1.00  0.00     0.080 C 
HETATM   19  C12 UNL     1      13.296   5.837 198.917  1.00  0.00     0.011 C 
HETATM   20  C13 UNL     1      11.966   6.024 199.569  1.00  0.00     0.011 C 
HETATM   21  C14 UNL     1      11.271   4.779 199.972  1.00  0.00     0.074 C 
HETATM   22  S2  UNL     1      11.282   4.484 201.753  1.00  0.00    -0.162 SA
ENDBRANCH   2   8
TORSDOF 2
ENDMDL
