MODEL 1
REMARK VINA RESULT: -5.419046873      0.000      0.000
REMARK  4 active torsions:
REMARK  status: ('A' for Active; 'I' for Inactive)
REMARK    1  A    between atoms: C5_5  and  C6_6 
REMARK    2  A    between atoms: C6_6  and  N1_7 
REMARK    3  A    between atoms: C6_6  and  C8_13 
REMARK    4  A    between atoms: C8_13  and  N3_14 
ROOT
HETATM    1  C6  UNL     1       4.685 -10.654  -4.500  1.00  0.00     0.264 C 
HETATM    2  C7  UNL     1       4.654  -9.762  -5.629  1.00  0.00     0.102 C 
HETATM    3  N2  UNL     1       4.621  -9.032  -6.522  1.00  0.00    -0.194 NA
ENDROOT
BRANCH   1   4
HETATM    4  C5  UNL     1       4.820 -12.077  -4.820  1.00  0.00     0.274 C 
HETATM    5  C4  UNL     1       3.814 -12.739  -5.675  1.00  0.00     0.040 C 
HETATM    6  C3  UNL     1       3.754 -14.220  -5.238  1.00  0.00     0.008 C 
HETATM    7  C2  UNL     1       5.156 -14.759  -5.305  1.00  0.00     0.010 C 
HETATM    8  C1  UNL     1       5.572 -15.433  -3.995  1.00  0.00     0.011 C 
HETATM    9  C10 UNL     1       6.179 -13.808  -5.775  1.00  0.00     0.276 C 
HETATM   10  N4  UNL     1       6.131 -12.480  -5.283  1.00  0.00     0.092 N 
HETATM   11  C9  UNL     1       6.661 -11.621  -6.314  1.00  0.00     0.310 C 
ENDBRANCH   1   4
BRANCH   1  12
HETATM   12  N1  UNL     1       5.788 -10.320  -3.563  1.00  0.00    -0.053 N 
ATOM     13  H13 UNL     1       5.461  -9.942  -2.674  1.00  0.00     0.276 HD
ATOM     14  H12 UNL     1       6.260 -11.142  -3.186  1.00  0.00     0.276 HD
ATOM     15  H11 UNL     1       6.416  -9.688  -4.061  1.00  0.00     0.276 HD
ENDBRANCH   1  12
BRANCH   1  16
HETATM   16  C8  UNL     1       3.455 -10.384  -3.659  1.00  0.00     0.286 C 
BRANCH  16  17
HETATM   17  N3  UNL     1       2.381  -9.709  -4.315  1.00  0.00    -0.076 N 
ATOM     18  H33 UNL     1       2.306  -8.755  -3.963  1.00  0.00     0.274 HD
ATOM     19  H32 UNL     1       2.631  -9.527  -5.288  1.00  0.00     0.274 HD
ATOM     20  H31 UNL     1       1.471 -10.166  -4.272  1.00  0.00     0.274 HD
ENDBRANCH  16  17
ENDBRANCH   1  16
TORSDOF 4
ENDMDL
MODEL 2
REMARK VINA RESULT: -5.299589490      1.668      2.182
REMARK  4 active torsions:
REMARK  status: ('A' for Active; 'I' for Inactive)
REMARK    1  A    between atoms: C5_5  and  C6_6 
REMARK    2  A    between atoms: C6_6  and  N1_7 
REMARK    3  A    between atoms: C6_6  and  C8_13 
REMARK    4  A    between atoms: C8_13  and  N3_14 
ROOT
HETATM    1  C6  UNL     1       3.981  -9.185  -3.438  1.00  0.00     0.264 C 
HETATM    2  C7  UNL     1       3.448  -8.093  -4.210  1.00  0.00     0.102 C 
HETATM    3  N2  UNL     1       3.014  -7.209  -4.811  1.00  0.00    -0.194 NA
ENDROOT
BRANCH   1   4
HETATM    4  C5  UNL     1       4.265 -10.411  -4.186  1.00  0.00     0.274 C 
HETATM    5  C4  UNL     1       3.383 -10.818  -5.298  1.00  0.00     0.040 C 
HETATM    6  C3  UNL     1       3.427 -12.361  -5.370  1.00  0.00     0.008 C 
HETATM    7  C2  UNL     1       4.874 -12.757  -5.479  1.00  0.00     0.010 C 
HETATM    8  C1  UNL     1       5.261 -13.797  -4.424  1.00  0.00     0.011 C 
HETATM    9  C10 UNL     1       5.835 -11.641  -5.520  1.00  0.00     0.276 C 
HETATM   10  N4  UNL     1       5.635 -10.555  -4.632  1.00  0.00     0.092 N 
HETATM   11  C9  UNL     1       6.153  -9.373  -5.277  1.00  0.00     0.310 C 
ENDBRANCH   1   4
BRANCH   1  12
HETATM   12  N1  UNL     1       5.240  -8.806  -2.743  1.00  0.00    -0.053 N 
ATOM     13  H13 UNL     1       5.106  -8.090  -2.030  1.00  0.00     0.276 HD
ATOM     14  H12 UNL     1       5.594  -9.537  -2.125  1.00  0.00     0.276 HD
ATOM     15  H11 UNL     1       5.905  -8.534  -3.468  1.00  0.00     0.276 HD
ENDBRANCH   1  12
BRANCH   1  16
HETATM   16  C8  UNL     1       3.040  -9.441  -2.280  1.00  0.00     0.286 C 
BRANCH  16  17
HETATM   17  N3  UNL     1       2.212  -8.344  -1.891  1.00  0.00    -0.076 N 
ATOM     18  H33 UNL     1       2.503  -7.500  -2.383  1.00  0.00     0.274 HD
ATOM     19  H32 UNL     1       1.274  -8.466  -2.272  1.00  0.00     0.274 HD
ATOM     20  H31 UNL     1       2.156  -8.158  -0.889  1.00  0.00     0.274 HD
ENDBRANCH  16  17
ENDBRANCH   1  16
TORSDOF 4
ENDMDL
MODEL 3
REMARK VINA RESULT: -4.943264526      1.776      4.398
REMARK  4 active torsions:
REMARK  status: ('A' for Active; 'I' for Inactive)
REMARK    1  A    between atoms: C5_5  and  C6_6 
REMARK    2  A    between atoms: C6_6  and  N1_7 
REMARK    3  A    between atoms: C6_6  and  C8_13 
REMARK    4  A    between atoms: C8_13  and  N3_14 
ROOT
HETATM    1  C6  UNL     1       4.908 -12.882  -4.973  1.00  0.00     0.264 C 
HETATM    2  C7  UNL     1       5.845 -12.568  -6.019  1.00  0.00     0.102 C 
HETATM    3  N2  UNL     1       6.599 -12.336  -6.861  1.00  0.00    -0.194 NA
ENDROOT
BRANCH   1   4
HETATM    4  C5  UNL     1       4.663 -11.815  -4.000  1.00  0.00     0.274 C 
HETATM    5  C4  UNL     1       5.789 -11.002  -3.498  1.00  0.00     0.040 C 
HETATM    6  C3  UNL     1       5.422 -10.558  -2.064  1.00  0.00     0.008 C 
HETATM    7  C2  UNL     1       4.082  -9.879  -2.140  1.00  0.00     0.010 C 
HETATM    8  C1  UNL     1       3.088 -10.466  -1.134  1.00  0.00     0.011 C 
HETATM    9  C10 UNL     1       3.497  -9.781  -3.488  1.00  0.00     0.276 C 
HETATM   10  N4  UNL     1       3.580 -10.914  -4.335  1.00  0.00     0.092 N 
HETATM   11  C9  UNL     1       3.640 -10.431  -5.694  1.00  0.00     0.310 C 
ENDBRANCH   1   4
BRANCH   1  12
HETATM   12  N1  UNL     1       3.582 -13.275  -5.519  1.00  0.00    -0.053 N 
ATOM     13  H13 UNL     1       2.833 -13.229  -4.829  1.00  0.00     0.276 HD
ATOM     14  H12 UNL     1       3.197 -12.591  -6.172  1.00  0.00     0.276 HD
ATOM     15  H11 UNL     1       3.697 -14.202  -5.928  1.00  0.00     0.276 HD
ENDBRANCH   1  12
BRANCH   1  16
HETATM   16  C8  UNL     1       5.369 -14.157  -4.300  1.00  0.00     0.286 C 
BRANCH  16  17
HETATM   17  N3  UNL     1       6.111 -15.064  -5.118  1.00  0.00    -0.076 N 
ATOM     18  H33 UNL     1       5.566 -15.912  -5.275  1.00  0.00     0.274 HD
ATOM     19  H32 UNL     1       6.169 -14.703  -6.070  1.00  0.00     0.274 HD
ATOM     20  H31 UNL     1       7.043 -15.309  -4.784  1.00  0.00     0.274 HD
ENDBRANCH  16  17
ENDBRANCH   1  16
TORSDOF 4
ENDMDL
MODEL 4
REMARK VINA RESULT: -4.912115246      1.241      1.892
REMARK  4 active torsions:
REMARK  status: ('A' for Active; 'I' for Inactive)
REMARK    1  A    between atoms: C5_5  and  C6_6 
REMARK    2  A    between atoms: C6_6  and  N1_7 
REMARK    3  A    between atoms: C6_6  and  C8_13 
REMARK    4  A    between atoms: C8_13  and  N3_14 
ROOT
HETATM    1  C6  UNL     1       4.286 -10.095  -3.870  1.00  0.00     0.264 C 
HETATM    2  C7  UNL     1       5.329  -9.613  -3.002  1.00  0.00     0.102 C 
HETATM    3  N2  UNL     1       6.158  -9.209  -2.308  1.00  0.00    -0.194 NA
ENDROOT
BRANCH   1   4
HETATM    4  C5  UNL     1       4.520 -11.407  -4.475  1.00  0.00     0.274 C 
HETATM    5  C4  UNL     1       3.583 -11.927  -5.492  1.00  0.00     0.040 C 
HETATM    6  C3  UNL     1       3.603 -13.468  -5.378  1.00  0.00     0.008 C 
HETATM    7  C2  UNL     1       5.038 -13.903  -5.499  1.00  0.00     0.010 C 
HETATM    8  C1  UNL     1       5.456 -14.816  -4.343  1.00  0.00     0.011 C 
HETATM    9  C10 UNL     1       6.012 -12.819  -5.715  1.00  0.00     0.276 C 
HETATM   10  N4  UNL     1       5.867 -11.630  -4.957  1.00  0.00     0.092 N 
HETATM   11  C9  UNL     1       6.372 -10.544  -5.761  1.00  0.00     0.310 C 
ENDBRANCH   1   4
BRANCH   1  12
HETATM   12  N1  UNL     1       2.978 -10.174  -3.168  1.00  0.00    -0.053 N 
ATOM     13  H13 UNL     1       2.625  -9.264  -2.871  1.00  0.00     0.276 HD
ATOM     14  H12 UNL     1       2.203 -10.415  -3.787  1.00  0.00     0.276 HD
ATOM     15  H11 UNL     1       3.097 -10.831  -2.397  1.00  0.00     0.276 HD
ENDBRANCH   1  12
BRANCH   1  16
HETATM   16  C8  UNL     1       4.025  -9.033  -4.917  1.00  0.00     0.286 C 
BRANCH  16  17
HETATM   17  N3  UNL     1       3.011  -8.078  -4.604  1.00  0.00    -0.076 N 
ATOM     18  H33 UNL     1       2.436  -8.424  -3.836  1.00  0.00     0.274 HD
ATOM     19  H32 UNL     1       3.432  -7.259  -4.164  1.00  0.00     0.274 HD
ATOM     20  H31 UNL     1       2.415  -7.786  -5.378  1.00  0.00     0.274 HD
ENDBRANCH  16  17
ENDBRANCH   1  16
TORSDOF 4
ENDMDL
MODEL 5
REMARK VINA RESULT: -4.726770790      1.911      4.318
REMARK  4 active torsions:
REMARK  status: ('A' for Active; 'I' for Inactive)
REMARK    1  A    between atoms: C5_5  and  C6_6 
REMARK    2  A    between atoms: C6_6  and  N1_7 
REMARK    3  A    between atoms: C6_6  and  C8_13 
REMARK    4  A    between atoms: C8_13  and  N3_14 
ROOT
HETATM    1  C6  UNL     1       4.213 -11.261  -5.185  1.00  0.00     0.264 C 
HETATM    2  C7  UNL     1       5.490 -11.180  -5.843  1.00  0.00     0.102 C 
HETATM    3  N2  UNL     1       6.508 -11.128  -6.385  1.00  0.00    -0.194 NA
ENDROOT
BRANCH   1   4
HETATM    4  C5  UNL     1       4.180 -10.778  -3.803  1.00  0.00     0.274 C 
HETATM    5  C4  UNL     1       5.301 -11.079  -2.890  1.00  0.00     0.040 C 
HETATM    6  C3  UNL     1       4.715 -11.151  -1.462  1.00  0.00     0.008 C 
HETATM    7  C2  UNL     1       3.977  -9.862  -1.221  1.00  0.00     0.010 C 
HETATM    8  C1  UNL     1       2.545 -10.107  -0.739  1.00  0.00     0.011 C 
HETATM    9  C10 UNL     1       4.019  -8.892  -2.329  1.00  0.00     0.276 C 
HETATM   10  N4  UNL     1       3.846  -9.378  -3.649  1.00  0.00     0.092 N 
HETATM   11  C9  UNL     1       4.596  -8.513  -4.527  1.00  0.00     0.310 C 
ENDBRANCH   1   4
BRANCH   1  12
HETATM   12  N1  UNL     1       3.163 -10.513  -5.924  1.00  0.00    -0.053 N 
ATOM     13  H13 UNL     1       2.221 -10.863  -5.750  1.00  0.00     0.276 HD
ATOM     14  H12 UNL     1       3.016  -9.567  -5.569  1.00  0.00     0.276 HD
ATOM     15  H11 UNL     1       3.425 -10.536  -6.910  1.00  0.00     0.276 HD
ENDBRANCH   1  12
BRANCH   1  16
HETATM   16  C8  UNL     1       3.724 -12.690  -5.291  1.00  0.00     0.286 C 
BRANCH  16  17
HETATM   17  N3  UNL     1       4.734 -13.689  -5.442  1.00  0.00    -0.076 N 
ATOM     18  H33 UNL     1       4.494 -14.510  -4.887  1.00  0.00     0.274 HD
ATOM     19  H32 UNL     1       4.692 -14.083  -6.382  1.00  0.00     0.274 HD
ATOM     20  H31 UNL     1       5.688 -13.397  -5.233  1.00  0.00     0.274 HD
ENDBRANCH  16  17
ENDBRANCH   1  16
TORSDOF 4
ENDMDL
