MODEL 1
REMARK VINA RESULT: -7.392704720      0.000      0.000
REMARK  9 active torsions:
REMARK  status: ('A' for Active; 'I' for Inactive)
REMARK    1  A    between atoms: C2_2  and  C3_3 
REMARK    2  A    between atoms: C3_3  and  C4_4 
REMARK    3  A    between atoms: C4_4  and  C5_5 
REMARK    4  A    between atoms: C5_5  and  N1_6 
REMARK    5  A    between atoms: N1_6  and  C6_7 
REMARK    6  A    between atoms: C6_7  and  N2_9 
REMARK    7  A    between atoms: N2_9  and  C8_11 
REMARK    8  A    between atoms: C10_15  and  C11_16 
REMARK       I    between atoms: N5_20  and  C12_22 
REMARK    9  A    between atoms: C12_22  and  C13_24 
ROOT
HETATM    1  N1  UNL     1       6.861  19.841  50.906  1.00  0.00    -0.378 NA
ENDROOT
BRANCH   1   2
HETATM    2  C5  UNL     1       5.715  20.486  51.096  1.00  0.00     0.160 C 
HETATM    3  N5  UNL     1       5.489  21.323  52.041  1.00  0.00    -0.296 N 
HETATM    4  C12 UNL     1       6.296  21.839  53.044  1.00  0.00     0.324 C 
ATOM      5  H5  UNL     1       4.532  21.676  52.059  1.00  0.00     0.171 HD
HETATM    6  O1  UNL     1       7.498  22.213  52.856  1.00  0.00    -0.260 OA
BRANCH   2   7
HETATM    7  C4  UNL     1       4.478  20.210  50.189  1.00  0.00     0.092 C 
BRANCH   7   8
HETATM    8  C3  UNL     1       3.384  21.046  50.744  1.00  0.00     0.008 C 
BRANCH   8   9
HETATM    9  C2  UNL     1       2.218  20.233  51.261  1.00  0.00    -0.004 C 
HETATM   10  C1  UNL     1       1.928  20.626  52.685  1.00  0.00     0.005 C 
ENDBRANCH   8   9
ENDBRANCH   7   8
ENDBRANCH   2   7
BRANCH   4  11
HETATM   11  C13 UNL     1       5.750  21.965  54.397  1.00  0.00     0.270 C 
HETATM   12  O2  UNL     1       4.543  21.743  54.595  1.00  0.00    -0.640 OA
HETATM   13  O3  UNL     1       6.571  22.325  55.439  1.00  0.00    -0.640 OA
ENDBRANCH   4  11
ENDBRANCH   1   2
BRANCH   1  14
HETATM   14  C6  UNL     1       7.872  19.260  50.682  1.00  0.00     0.168 C 
HETATM   15  C7  UNL     1       7.862  17.738  50.581  1.00  0.00     0.107 C 
BRANCH  14  16
HETATM   16  N2  UNL     1       9.173  19.808  50.478  1.00  0.00    -0.168 N 
ATOM     17  H2  UNL     1       9.998  19.291  50.781  1.00  0.00     0.186 HD
BRANCH  16  18
HETATM   18  C8  UNL     1       9.304  20.962  49.907  1.00  0.00     0.684 A 
HETATM   19  N3  UNL     1       9.015  22.136  50.500  1.00  0.00    -0.200 N 
HETATM   20  C9  UNL     1       9.256  23.139  49.641  1.00  0.00     0.132 A 
ATOM     21  H3  UNL     1       8.668  22.245  51.453  1.00  0.00     0.183 HD
HETATM   22  C10 UNL     1       9.710  22.565  48.479  1.00  0.00     0.052 A 
HETATM   23  N4  UNL     1       9.728  21.243  48.674  1.00  0.00    -0.193 N 
ATOM     24  H4  UNL     1      10.021  20.552  47.983  1.00  0.00     0.184 HD
BRANCH  22  25
HETATM   25  C11 UNL     1      10.096  23.297  47.256  1.00  0.00     0.144 C 
HETATM   26 BR1  UNL     1       9.305  25.047  47.269  1.00  0.00    -0.090 Br
ENDBRANCH  22  25
ENDBRANCH  16  18
ENDBRANCH  14  16
ENDBRANCH   1  14
TORSDOF 9
ENDMDL
MODEL 2
REMARK VINA RESULT: -7.090801946      1.402      1.888
REMARK  9 active torsions:
REMARK  status: ('A' for Active; 'I' for Inactive)
REMARK    1  A    between atoms: C2_2  and  C3_3 
REMARK    2  A    between atoms: C3_3  and  C4_4 
REMARK    3  A    between atoms: C4_4  and  C5_5 
REMARK    4  A    between atoms: C5_5  and  N1_6 
REMARK    5  A    between atoms: N1_6  and  C6_7 
REMARK    6  A    between atoms: C6_7  and  N2_9 
REMARK    7  A    between atoms: N2_9  and  C8_11 
REMARK    8  A    between atoms: C10_15  and  C11_16 
REMARK       I    between atoms: N5_20  and  C12_22 
REMARK    9  A    between atoms: C12_22  and  C13_24 
ROOT
HETATM    1  N1  UNL     1       5.712  20.408  52.453  1.00  0.00    -0.378 NA
ENDROOT
BRANCH   1   2
HETATM    2  C5  UNL     1       4.673  20.980  53.054  1.00  0.00     0.160 C 
HETATM    3  N5  UNL     1       4.739  21.700  54.113  1.00  0.00    -0.296 N 
HETATM    4  C12 UNL     1       5.810  22.141  54.876  1.00  0.00     0.324 C 
ATOM      5  H5  UNL     1       3.831  22.007  54.460  1.00  0.00     0.171 HD
HETATM    6  O1  UNL     1       6.894  22.585  54.377  1.00  0.00    -0.260 OA
BRANCH   2   7
HETATM    7  C4  UNL     1       3.220  20.748  52.538  1.00  0.00     0.092 C 
BRANCH   7   8
HETATM    8  C3  UNL     1       3.253  21.088  51.094  1.00  0.00     0.008 C 
BRANCH   8   9
HETATM    9  C2  UNL     1       2.868  19.930  50.201  1.00  0.00    -0.004 C 
HETATM   10  C1  UNL     1       2.472  18.753  51.052  1.00  0.00     0.005 C 
ENDBRANCH   8   9
ENDBRANCH   7   8
ENDBRANCH   2   7
BRANCH   4  11
HETATM   11  C13 UNL     1       5.703  22.098  56.336  1.00  0.00     0.270 C 
HETATM   12  O2  UNL     1       6.705  22.340  57.032  1.00  0.00    -0.640 OA
HETATM   13  O3  UNL     1       4.501  21.795  56.929  1.00  0.00    -0.640 OA
ENDBRANCH   4  11
ENDBRANCH   1   2
BRANCH   1  14
HETATM   14  C6  UNL     1       6.605  19.880  51.876  1.00  0.00     0.168 C 
HETATM   15  C7  UNL     1       6.351  18.579  51.121  1.00  0.00     0.107 C 
BRANCH  14  16
HETATM   16  N2  UNL     1       7.961  20.310  51.774  1.00  0.00    -0.168 N 
ATOM     17  H2  UNL     1       8.689  19.832  52.305  1.00  0.00     0.186 HD
BRANCH  16  18
HETATM   18  C8  UNL     1       8.265  21.307  51.008  1.00  0.00     0.684 A 
HETATM   19  N3  UNL     1       7.816  22.563  51.188  1.00  0.00    -0.200 N 
HETATM   20  C9  UNL     1       8.312  23.355  50.224  1.00  0.00     0.132 A 
ATOM     21  H3  UNL     1       7.195  22.866  51.939  1.00  0.00     0.183 HD
HETATM   22  C10 UNL     1       9.096  22.560  49.423  1.00  0.00     0.052 A 
HETATM   23  N4  UNL     1       9.046  21.324  49.926  1.00  0.00    -0.193 N 
ATOM     24  H4  UNL     1       9.532  20.514  49.542  1.00  0.00     0.184 HD
BRANCH  22  25
HETATM   25  C11 UNL     1       9.839  23.015  48.231  1.00  0.00     0.144 C 
HETATM   26 BR1  UNL     1       9.125  24.689  47.618  1.00  0.00    -0.090 Br
ENDBRANCH  22  25
ENDBRANCH  16  18
ENDBRANCH  14  16
ENDBRANCH   1  14
TORSDOF 9
ENDMDL
MODEL 3
REMARK VINA RESULT: -7.035394121      1.305      1.687
REMARK  9 active torsions:
REMARK  status: ('A' for Active; 'I' for Inactive)
REMARK    1  A    between atoms: C2_2  and  C3_3 
REMARK    2  A    between atoms: C3_3  and  C4_4 
REMARK    3  A    between atoms: C4_4  and  C5_5 
REMARK    4  A    between atoms: C5_5  and  N1_6 
REMARK    5  A    between atoms: N1_6  and  C6_7 
REMARK    6  A    between atoms: C6_7  and  N2_9 
REMARK    7  A    between atoms: N2_9  and  C8_11 
REMARK    8  A    between atoms: C10_15  and  C11_16 
REMARK       I    between atoms: N5_20  and  C12_22 
REMARK    9  A    between atoms: C12_22  and  C13_24 
ROOT
HETATM    1  N1  UNL     1       6.959  19.477  50.331  1.00  0.00    -0.378 NA
ENDROOT
BRANCH   1   2
HETATM    2  C5  UNL     1       5.706  19.906  50.205  1.00  0.00     0.160 C 
HETATM    3  N5  UNL     1       5.135  20.750  50.984  1.00  0.00    -0.296 N 
HETATM    4  C12 UNL     1       5.598  21.480  52.069  1.00  0.00     0.324 C 
ATOM      5  H5  UNL     1       4.154  20.916  50.763  1.00  0.00     0.171 HD
HETATM    6  O1  UNL     1       6.730  22.061  52.094  1.00  0.00    -0.260 OA
BRANCH   2   7
HETATM    7  C4  UNL     1       4.770  19.336  49.097  1.00  0.00     0.092 C 
BRANCH   7   8
HETATM    8  C3  UNL     1       3.389  19.625  49.557  1.00  0.00     0.008 C 
BRANCH   8   9
HETATM    9  C2  UNL     1       2.339  19.335  48.508  1.00  0.00    -0.004 C 
HETATM   10  C1  UNL     1       3.004  18.784  47.275  1.00  0.00     0.005 C 
ENDBRANCH   8   9
ENDBRANCH   7   8
ENDBRANCH   2   7
BRANCH   4  11
HETATM   11  C13 UNL     1       4.748  21.597  53.256  1.00  0.00     0.270 C 
HETATM   12  O2  UNL     1       3.615  21.086  53.253  1.00  0.00    -0.640 OA
HETATM   13  O3  UNL     1       5.206  22.267  54.365  1.00  0.00    -0.640 OA
ENDBRANCH   4  11
ENDBRANCH   1   2
BRANCH   1  14
HETATM   14  C6  UNL     1       8.060  19.044  50.425  1.00  0.00     0.168 C 
HETATM   15  C7  UNL     1       8.271  17.537  50.540  1.00  0.00     0.107 C 
BRANCH  14  16
HETATM   16  N2  UNL     1       9.289  19.767  50.444  1.00  0.00    -0.168 N 
ATOM     17  H2  UNL     1      10.106  19.372  50.910  1.00  0.00     0.186 HD
BRANCH  16  18
HETATM   18  C8  UNL     1       9.366  20.923  49.869  1.00  0.00     0.684 A 
HETATM   19  N3  UNL     1       8.987  22.080  50.445  1.00  0.00    -0.200 N 
HETATM   20  C9  UNL     1       9.192  23.092  49.586  1.00  0.00     0.132 A 
ATOM     21  H3  UNL     1       8.605  22.173  51.386  1.00  0.00     0.183 HD
HETATM   22  C10 UNL     1       9.715  22.540  48.442  1.00  0.00     0.052 A 
HETATM   23  N4  UNL     1       9.808  21.224  48.647  1.00  0.00    -0.193 N 
ATOM     24  H4  UNL     1      10.164  20.548  47.970  1.00  0.00     0.184 HD
BRANCH  22  25
HETATM   25  C11 UNL     1      10.092  23.288  47.226  1.00  0.00     0.144 C 
HETATM   26 BR1  UNL     1       9.293  25.034  47.263  1.00  0.00    -0.090 Br
ENDBRANCH  22  25
ENDBRANCH  16  18
ENDBRANCH  14  16
ENDBRANCH   1  14
TORSDOF 9
ENDMDL
MODEL 4
REMARK VINA RESULT: -6.896277674      2.380      3.621
REMARK  9 active torsions:
REMARK  status: ('A' for Active; 'I' for Inactive)
REMARK    1  A    between atoms: C2_2  and  C3_3 
REMARK    2  A    between atoms: C3_3  and  C4_4 
REMARK    3  A    between atoms: C4_4  and  C5_5 
REMARK    4  A    between atoms: C5_5  and  N1_6 
REMARK    5  A    between atoms: N1_6  and  C6_7 
REMARK    6  A    between atoms: C6_7  and  N2_9 
REMARK    7  A    between atoms: N2_9  and  C8_11 
REMARK    8  A    between atoms: C10_15  and  C11_16 
REMARK       I    between atoms: N5_20  and  C12_22 
REMARK    9  A    between atoms: C12_22  and  C13_24 
ROOT
HETATM    1  N1  UNL     1       5.676  20.411  51.373  1.00  0.00    -0.378 NA
ENDROOT
BRANCH   1   2
HETATM    2  C5  UNL     1       5.220  19.288  50.827  1.00  0.00     0.160 C 
HETATM    3  N5  UNL     1       5.842  18.167  50.821  1.00  0.00    -0.296 N 
HETATM    4  C12 UNL     1       7.045  17.764  51.383  1.00  0.00     0.324 C 
ATOM      5  H5  UNL     1       5.360  17.430  50.306  1.00  0.00     0.171 HD
HETATM    6  O1  UNL     1       7.415  18.086  52.558  1.00  0.00    -0.260 OA
BRANCH   2   7
HETATM    7  C4  UNL     1       3.868  19.264  50.052  1.00  0.00     0.092 C 
BRANCH   7   8
HETATM    8  C3  UNL     1       2.818  19.112  51.090  1.00  0.00     0.008 C 
BRANCH   8   9
HETATM    9  C2  UNL     1       2.046  20.387  51.346  1.00  0.00    -0.004 C 
HETATM   10  C1  UNL     1       2.054  20.688  52.822  1.00  0.00     0.005 C 
ENDBRANCH   8   9
ENDBRANCH   7   8
ENDBRANCH   2   7
BRANCH   4  11
HETATM   11  C13 UNL     1       7.948  16.923  50.593  1.00  0.00     0.270 C 
HETATM   12  O2  UNL     1       7.543  16.415  49.533  1.00  0.00    -0.640 OA
HETATM   13  O3  UNL     1       9.234  16.701  51.024  1.00  0.00    -0.640 OA
ENDBRANCH   4  11
ENDBRANCH   1   2
BRANCH   1  14
HETATM   14  C6  UNL     1       6.133  21.390  51.866  1.00  0.00     0.168 C 
HETATM   15  C7  UNL     1       6.158  21.528  53.385  1.00  0.00     0.107 C 
BRANCH  14  16
HETATM   16  N2  UNL     1       6.701  22.521  51.209  1.00  0.00    -0.168 N 
ATOM     17  H2  UNL     1       6.316  23.452  51.372  1.00  0.00     0.186 HD
BRANCH  16  18
HETATM   18  C8  UNL     1       7.703  22.365  50.407  1.00  0.00     0.684 A 
HETATM   19  N3  UNL     1       8.463  21.254  50.354  1.00  0.00    -0.200 N 
HETATM   20  C9  UNL     1       9.418  21.413  49.423  1.00  0.00     0.132 A 
ATOM     21  H3  UNL     1       8.334  20.423  50.931  1.00  0.00     0.183 HD
HETATM   22  C10 UNL     1       9.240  22.663  48.882  1.00  0.00     0.052 A 
HETATM   23  N4  UNL     1       8.192  23.213  49.501  1.00  0.00    -0.193 N 
ATOM     24  H4  UNL     1       7.820  24.143  49.309  1.00  0.00     0.184 HD
BRANCH  22  25
HETATM   25  C11 UNL     1      10.070  23.262  47.819  1.00  0.00     0.144 C 
HETATM   26 BR1  UNL     1       9.304  24.932  47.258  1.00  0.00    -0.090 Br
ENDBRANCH  22  25
ENDBRANCH  16  18
ENDBRANCH  14  16
ENDBRANCH   1  14
TORSDOF 9
ENDMDL
MODEL 5
REMARK VINA RESULT: -6.754849899      3.049      4.556
REMARK  9 active torsions:
REMARK  status: ('A' for Active; 'I' for Inactive)
REMARK    1  A    between atoms: C2_2  and  C3_3 
REMARK    2  A    between atoms: C3_3  and  C4_4 
REMARK    3  A    between atoms: C4_4  and  C5_5 
REMARK    4  A    between atoms: C5_5  and  N1_6 
REMARK    5  A    between atoms: N1_6  and  C6_7 
REMARK    6  A    between atoms: C6_7  and  N2_9 
REMARK    7  A    between atoms: N2_9  and  C8_11 
REMARK    8  A    between atoms: C10_15  and  C11_16 
REMARK       I    between atoms: N5_20  and  C12_22 
REMARK    9  A    between atoms: C12_22  and  C13_24 
ROOT
HETATM    1  N1  UNL     1       4.361  20.081  50.157  1.00  0.00    -0.378 NA
ENDROOT
BRANCH   1   2
HETATM    2  C5  UNL     1       4.472  19.067  49.304  1.00  0.00     0.160 C 
HETATM    3  N5  UNL     1       5.234  18.048  49.467  1.00  0.00    -0.296 N 
HETATM    4  C12 UNL     1       6.063  17.660  50.510  1.00  0.00     0.324 C 
ATOM      5  H5  UNL     1       5.229  17.399  48.681  1.00  0.00     0.171 HD
HETATM    6  O1  UNL     1       5.737  17.747  51.737  1.00  0.00    -0.260 OA
BRANCH   2   7
HETATM    7  C4  UNL     1       3.710  19.074  47.946  1.00  0.00     0.092 C 
BRANCH   7   8
HETATM    8  C3  UNL     1       2.277  19.240  48.295  1.00  0.00     0.008 C 
BRANCH   8   9
HETATM    9  C2  UNL     1       1.339  18.752  47.214  1.00  0.00    -0.004 C 
HETATM   10  C1  UNL     1       1.134  19.845  46.200  1.00  0.00     0.005 C 
ENDBRANCH   8   9
ENDBRANCH   7   8
ENDBRANCH   2   7
BRANCH   4  11
HETATM   11  C13 UNL     1       7.387  17.118  50.196  1.00  0.00     0.270 C 
HETATM   12  O2  UNL     1       8.404  17.724  50.576  1.00  0.00    -0.640 OA
HETATM   13  O3  UNL     1       7.500  15.946  49.487  1.00  0.00    -0.640 OA
ENDBRANCH   4  11
ENDBRANCH   1   2
BRANCH   1  14
HETATM   14  C6  UNL     1       4.208  20.970  50.929  1.00  0.00     0.168 C 
HETATM   15  C7  UNL     1       2.805  21.307  51.424  1.00  0.00     0.107 C 
BRANCH  14  16
HETATM   16  N2  UNL     1       5.202  21.819  51.498  1.00  0.00    -0.168 N 
ATOM     17  H2  UNL     1       4.968  22.422  52.287  1.00  0.00     0.186 HD
BRANCH  16  18
HETATM   18  C8  UNL     1       6.401  21.824  51.013  1.00  0.00     0.684 A 
HETATM   19  N3  UNL     1       7.180  20.730  50.913  1.00  0.00    -0.200 N 
HETATM   20  C9  UNL     1       8.360  21.072  50.373  1.00  0.00     0.132 A 
ATOM     21  H3  UNL     1       6.914  19.788  51.203  1.00  0.00     0.183 HD
HETATM   22  C10 UNL     1       8.308  22.423  50.130  1.00  0.00     0.052 A 
HETATM   23  N4  UNL     1       7.106  22.848  50.530  1.00  0.00    -0.193 N 
ATOM     24  H4  UNL     1       6.776  23.811  50.474  1.00  0.00     0.184 HD
BRANCH  22  25
HETATM   25  C11 UNL     1       9.394  23.230  49.540  1.00  0.00     0.144 C 
HETATM   26 BR1  UNL     1      10.048  22.375  47.949  1.00  0.00    -0.090 Br
ENDBRANCH  22  25
ENDBRANCH  16  18
ENDBRANCH  14  16
ENDBRANCH   1  14
TORSDOF 9
ENDMDL
