MODEL 1
REMARK VINA RESULT: -6.931388509      0.000      0.000
REMARK  6 active torsions:
REMARK  status: ('A' for Active; 'I' for Inactive)
REMARK    1  A    between atoms: C2_2  and  C3_3 
REMARK    2  A    between atoms: C3_3  and  C4_4 
REMARK    3  A    between atoms: C5_5  and  C6_6 
REMARK    4  A    between atoms: C6_6  and  N1_7 
REMARK       I    between atoms: N1_7  and  C7_9 
REMARK    5  A    between atoms: C7_9  and  C8_11 
REMARK    6  A    between atoms: C10_13  and  O2_14 
ROOT
HETATM    1  C8  UNL     1       4.346  18.120  50.800  1.00  0.00     0.104 C 
HETATM    2  C9  UNL     1       5.821  17.964  51.044  1.00  0.00     0.036 C 
HETATM    3  C10 UNL     1       6.161  17.993  52.514  1.00  0.00     0.146 C 
HETATM    4  C11 UNL     1       6.868  19.284  52.781  1.00  0.00     0.114 C 
HETATM    5  C12 UNL     1       7.556  19.582  51.466  1.00  0.00     0.033 C 
HETATM    6  C13 UNL     1       6.444  19.236  50.485  1.00  0.00     0.009 C 
HETATM    7  C14 UNL     1       5.389  20.294  50.569  1.00  0.00     0.102 C 
HETATM    8  C15 UNL     1       5.540  21.091  51.814  1.00  0.00     0.224 C 
HETATM    9  O3  UNL     1       5.321  22.344  51.870  1.00  0.00    -0.273 OA
HETATM   10  N2  UNL     1       5.953  20.408  53.000  1.00  0.00    -0.354 N 
ATOM     11  H2  UNL     1       5.634  20.683  53.930  1.00  0.00     0.163 HD
HETATM   12  C16 UNL     1       4.066  19.579  50.629  1.00  0.00     0.039 C 
HETATM   13  C17 UNL     1       3.239  19.897  49.389  1.00  0.00     0.029 C 
HETATM   14 BR1  UNL     1       3.067  20.212  52.186  1.00  0.00    -0.084 Br
ENDROOT
BRANCH   1  15
HETATM   15  C7  UNL     1       3.860  17.376  49.638  1.00  0.00     0.224 C 
HETATM   16  N1  UNL     1       4.594  17.147  48.457  1.00  0.00    -0.357 N 
ATOM     17  H1  UNL     1       5.542  17.515  48.376  1.00  0.00     0.162 HD
HETATM   18  O1  UNL     1       2.671  16.902  49.717  1.00  0.00    -0.273 OA
BRANCH  16  19
HETATM   19  C6  UNL     1       4.025  16.399  47.359  1.00  0.00     0.149 C 
BRANCH  19  20
HETATM   20  C5  UNL     1       3.897  17.178  46.128  1.00  0.00    -0.011 C 
HETATM   21  C4  UNL     1       2.909  17.967  45.788  1.00  0.00    -0.029 C 
BRANCH  21  22
HETATM   22  C3  UNL     1       1.687  18.269  46.549  1.00  0.00     0.026 C 
BRANCH  22  23
HETATM   23  C2  UNL     1       1.119  19.632  46.216  1.00  0.00    -0.001 C 
HETATM   24  C1  UNL     1       0.731  19.762  44.783  1.00  0.00     0.005 C 
ENDBRANCH  22  23
ENDBRANCH  21  22
ENDBRANCH  19  20
ENDBRANCH  16  19
ENDBRANCH   1  15
BRANCH   3  25
HETATM   25  O2  UNL     1       7.092  16.960  52.769  1.00  0.00    -0.393 OA
ATOM     26  H2  UNL     1       7.046  16.743  53.692  1.00  0.00     0.210 HD
ENDBRANCH   3  25
TORSDOF 6
ENDMDL
MODEL 2
REMARK VINA RESULT: -6.850781848      1.170      1.236
REMARK  6 active torsions:
REMARK  status: ('A' for Active; 'I' for Inactive)
REMARK    1  A    between atoms: C2_2  and  C3_3 
REMARK    2  A    between atoms: C3_3  and  C4_4 
REMARK    3  A    between atoms: C5_5  and  C6_6 
REMARK    4  A    between atoms: C6_6  and  N1_7 
REMARK       I    between atoms: N1_7  and  C7_9 
REMARK    5  A    between atoms: C7_9  and  C8_11 
REMARK    6  A    between atoms: C10_13  and  O2_14 
ROOT
HETATM    1  C8  UNL     1       4.329  18.714  51.383  1.00  0.00     0.104 C 
HETATM    2  C9  UNL     1       5.666  18.086  51.104  1.00  0.00     0.036 C 
HETATM    3  C10 UNL     1       6.530  18.013  52.340  1.00  0.00     0.146 C 
HETATM    4  C11 UNL     1       7.637  19.005  52.166  1.00  0.00     0.114 C 
HETATM    5  C12 UNL     1       7.830  19.051  50.666  1.00  0.00     0.033 C 
HETATM    6  C13 UNL     1       6.381  19.080  50.199  1.00  0.00     0.009 C 
HETATM    7  C14 UNL     1       5.805  20.426  50.514  1.00  0.00     0.102 C 
HETATM    8  C15 UNL     1       6.649  21.139  51.508  1.00  0.00     0.224 C 
HETATM    9  O3  UNL     1       6.853  22.395  51.474  1.00  0.00    -0.273 OA
HETATM   10  N2  UNL     1       7.255  20.368  52.548  1.00  0.00    -0.354 N 
ATOM     11  H2  UNL     1       7.411  20.739  53.486  1.00  0.00     0.163 HD
HETATM   12  C16 UNL     1       4.456  20.182  51.134  1.00  0.00     0.039 C 
HETATM   13  C17 UNL     1       3.357  20.743  50.239  1.00  0.00     0.029 C 
HETATM   14 BR1  UNL     1       4.361  21.119  52.847  1.00  0.00    -0.084 Br
ENDROOT
BRANCH   1  15
HETATM   15  C7  UNL     1       3.240  18.160  50.578  1.00  0.00     0.224 C 
HETATM   16  N1  UNL     1       3.385  17.606  49.290  1.00  0.00    -0.357 N 
ATOM     17  H1  UNL     1       4.308  17.572  48.859  1.00  0.00     0.162 HD
HETATM   18  O1  UNL     1       2.069  18.189  51.099  1.00  0.00    -0.273 OA
BRANCH  16  19
HETATM   19  C6  UNL     1       2.245  17.083  48.571  1.00  0.00     0.149 C 
BRANCH  19  20
HETATM   20  C5  UNL     1       2.344  17.252  47.122  1.00  0.00    -0.011 C 
HETATM   21  C4  UNL     1       2.015  18.308  46.421  1.00  0.00    -0.029 C 
BRANCH  21  22
HETATM   22  C3  UNL     1       1.466  19.583  46.908  1.00  0.00     0.026 C 
BRANCH  22  23
HETATM   23  C2  UNL     1       0.690  20.324  45.840  1.00  0.00    -0.001 C 
HETATM   24  C1  UNL     1       0.712  19.630  44.522  1.00  0.00     0.005 C 
ENDBRANCH  22  23
ENDBRANCH  21  22
ENDBRANCH  19  20
ENDBRANCH  16  19
ENDBRANCH   1  15
BRANCH   3  25
HETATM   25  O2  UNL     1       7.132  16.735  52.378  1.00  0.00    -0.393 OA
ATOM     26  H2  UNL     1       7.897  16.787  52.940  1.00  0.00     0.210 HD
ENDBRANCH   3  25
TORSDOF 6
ENDMDL
MODEL 3
REMARK VINA RESULT: -6.794695578      3.376      6.239
REMARK  6 active torsions:
REMARK  status: ('A' for Active; 'I' for Inactive)
REMARK    1  A    between atoms: C2_2  and  C3_3 
REMARK    2  A    between atoms: C3_3  and  C4_4 
REMARK    3  A    between atoms: C5_5  and  C6_6 
REMARK    4  A    between atoms: C6_6  and  N1_7 
REMARK       I    between atoms: N1_7  and  C7_9 
REMARK    5  A    between atoms: C7_9  and  C8_11 
REMARK    6  A    between atoms: C10_13  and  O2_14 
ROOT
HETATM    1  C8  UNL     1       5.732  20.550  51.539  1.00  0.00     0.104 C 
HETATM    2  C9  UNL     1       4.395  20.824  50.910  1.00  0.00     0.036 C 
HETATM    3  C10 UNL     1       3.260  20.207  51.691  1.00  0.00     0.146 C 
HETATM    4  C11 UNL     1       2.731  19.066  50.879  1.00  0.00     0.114 C 
HETATM    5  C12 UNL     1       3.007  19.497  49.454  1.00  0.00     0.033 C 
HETATM    6  C13 UNL     1       4.418  20.051  49.598  1.00  0.00     0.009 C 
HETATM    7  C14 UNL     1       5.360  18.906  49.800  1.00  0.00     0.102 C 
HETATM    8  C15 UNL     1       4.621  17.679  50.196  1.00  0.00     0.224 C 
HETATM    9  O3  UNL     1       4.947  16.513  49.802  1.00  0.00    -0.273 OA
HETATM   10  N2  UNL     1       3.492  17.827  51.061  1.00  0.00    -0.354 N 
ATOM     11  H2  UNL     1       3.236  17.123  51.753  1.00  0.00     0.163 HD
HETATM   12  C16 UNL     1       6.269  19.292  50.936  1.00  0.00     0.039 C 
HETATM   13  C17 UNL     1       7.704  19.421  50.441  1.00  0.00     0.029 C 
HETATM   14 BR1  UNL     1       6.234  17.883  52.290  1.00  0.00    -0.084 Br
ENDROOT
BRANCH   1  15
HETATM   15  C7  UNL     1       6.695  21.638  51.372  1.00  0.00     0.224 C 
HETATM   16  N1  UNL     1       6.978  22.290  50.156  1.00  0.00    -0.357 N 
ATOM     17  H1  UNL     1       6.489  22.005  49.307  1.00  0.00     0.162 HD
HETATM   18  O1  UNL     1       7.322  22.017  52.425  1.00  0.00    -0.273 OA
BRANCH  16  19
HETATM   19  C6  UNL     1       7.951  23.357  50.090  1.00  0.00     0.149 C 
BRANCH  19  20
HETATM   20  C5  UNL     1       9.326  22.884  49.942  1.00  0.00    -0.011 C 
HETATM   21  C4  UNL     1      10.034  22.832  48.841  1.00  0.00    -0.029 C 
BRANCH  21  22
HETATM   22  C3  UNL     1       9.629  23.234  47.485  1.00  0.00     0.026 C 
BRANCH  22  23
HETATM   23  C2  UNL     1      10.108  24.624  47.127  1.00  0.00    -0.001 C 
HETATM   24  C1  UNL     1       9.017  25.639  47.164  1.00  0.00     0.005 C 
ENDBRANCH  22  23
ENDBRANCH  21  22
ENDBRANCH  19  20
ENDBRANCH  16  19
ENDBRANCH   1  15
BRANCH   3  25
HETATM   25  O2  UNL     1       2.220  21.160  51.778  1.00  0.00    -0.393 OA
ATOM     26  H2  UNL     1       1.994  21.431  50.896  1.00  0.00     0.210 HD
ENDBRANCH   3  25
TORSDOF 6
ENDMDL
MODEL 4
REMARK VINA RESULT: -6.733591722      1.949      3.184
REMARK  6 active torsions:
REMARK  status: ('A' for Active; 'I' for Inactive)
REMARK    1  A    between atoms: C2_2  and  C3_3 
REMARK    2  A    between atoms: C3_3  and  C4_4 
REMARK    3  A    between atoms: C5_5  and  C6_6 
REMARK    4  A    between atoms: C6_6  and  N1_7 
REMARK       I    between atoms: N1_7  and  C7_9 
REMARK    5  A    between atoms: C7_9  and  C8_11 
REMARK    6  A    between atoms: C10_13  and  O2_14 
ROOT
HETATM    1  C8  UNL     1       5.299  19.432  49.899  1.00  0.00     0.104 C 
HETATM    2  C9  UNL     1       5.465  20.643  50.774  1.00  0.00     0.036 C 
HETATM    3  C10 UNL     1       6.849  21.235  50.669  1.00  0.00     0.146 C 
HETATM    4  C11 UNL     1       7.550  20.954  51.961  1.00  0.00     0.114 C 
HETATM    5  C12 UNL     1       6.421  20.917  52.968  1.00  0.00     0.033 C 
HETATM    6  C13 UNL     1       5.387  20.108  52.197  1.00  0.00     0.009 C 
HETATM    7  C14 UNL     1       5.843  18.684  52.137  1.00  0.00     0.102 C 
HETATM    8  C15 UNL     1       7.288  18.580  52.467  1.00  0.00     0.224 C 
HETATM    9  O3  UNL     1       7.783  17.614  53.133  1.00  0.00    -0.273 OA
HETATM   10  N2  UNL     1       8.156  19.620  52.011  1.00  0.00    -0.354 N 
ATOM     11  H2  UNL     1       9.124  19.447  51.739  1.00  0.00     0.163 HD
HETATM   12  C16 UNL     1       5.654  18.231  50.715  1.00  0.00     0.039 C 
HETATM   13  C17 UNL     1       4.610  17.123  50.651  1.00  0.00     0.029 C 
HETATM   14 BR1  UNL     1       7.338  17.496  50.049  1.00  0.00    -0.084 Br
ENDROOT
BRANCH   1  15
HETATM   15  C7  UNL     1       3.951  19.284  49.348  1.00  0.00     0.224 C 
HETATM   16  N1  UNL     1       3.626  18.556  48.187  1.00  0.00    -0.357 N 
ATOM     17  H1  UNL     1       4.366  18.082  47.667  1.00  0.00     0.162 HD
HETATM   18  O1  UNL     1       3.004  19.869  49.984  1.00  0.00    -0.273 OA
BRANCH  16  19
HETATM   19  C6  UNL     1       2.262  18.469  47.718  1.00  0.00     0.149 C 
BRANCH  19  20
HETATM   20  C5  UNL     1       2.131  18.629  46.271  1.00  0.00    -0.011 C 
HETATM   21  C4  UNL     1       1.195  19.278  45.625  1.00  0.00    -0.029 C 
BRANCH  21  22
HETATM   22  C3  UNL     1       0.045  20.004  46.185  1.00  0.00     0.026 C 
BRANCH  22  23
HETATM   23  C2  UNL     1      -0.931  19.087  46.890  1.00  0.00    -0.001 C 
HETATM   24  C1  UNL     1      -1.980  19.828  47.646  1.00  0.00     0.005 C 
ENDBRANCH  22  23
ENDBRANCH  21  22
ENDBRANCH  19  20
ENDBRANCH  16  19
ENDBRANCH   1  15
BRANCH   3  25
HETATM   25  O2  UNL     1       6.719  22.639  50.575  1.00  0.00    -0.393 OA
ATOM     26  H2  UNL     1       6.867  22.889  49.670  1.00  0.00     0.210 HD
ENDBRANCH   3  25
TORSDOF 6
ENDMDL
MODEL 5
REMARK VINA RESULT: -6.678674799      1.881      2.298
REMARK  6 active torsions:
REMARK  status: ('A' for Active; 'I' for Inactive)
REMARK    1  A    between atoms: C2_2  and  C3_3 
REMARK    2  A    between atoms: C3_3  and  C4_4 
REMARK    3  A    between atoms: C5_5  and  C6_6 
REMARK    4  A    between atoms: C6_6  and  N1_7 
REMARK       I    between atoms: N1_7  and  C7_9 
REMARK    5  A    between atoms: C7_9  and  C8_11 
REMARK    6  A    between atoms: C10_13  and  O2_14 
ROOT
HETATM    1  C8  UNL     1       6.210  18.824  50.680  1.00  0.00     0.104 C 
HETATM    2  C9  UNL     1       6.954  19.876  49.905  1.00  0.00     0.036 C 
HETATM    3  C10 UNL     1       8.304  20.179  50.507  1.00  0.00     0.146 C 
HETATM    4  C11 UNL     1       8.223  21.545  51.114  1.00  0.00     0.114 C 
HETATM    5  C12 UNL     1       7.198  22.248  50.251  1.00  0.00     0.033 C 
HETATM    6  C13 UNL     1       6.150  21.153  50.114  1.00  0.00     0.009 C 
HETATM    7  C14 UNL     1       5.447  20.998  51.427  1.00  0.00     0.102 C 
HETATM    8  C15 UNL     1       6.228  21.634  52.519  1.00  0.00     0.224 C 
HETATM    9  O3  UNL     1       5.687  22.252  53.493  1.00  0.00    -0.273 OA
HETATM   10  N2  UNL     1       7.653  21.543  52.465  1.00  0.00    -0.354 N 
ATOM     11  H2  UNL     1       8.231  21.480  53.304  1.00  0.00     0.163 HD
HETATM   12  C16 UNL     1       5.372  19.521  51.703  1.00  0.00     0.039 C 
HETATM   13  C17 UNL     1       3.920  19.061  51.714  1.00  0.00     0.029 C 
HETATM   14 BR1  UNL     1       6.119  19.164  53.474  1.00  0.00    -0.084 Br
ENDROOT
BRANCH   1  15
HETATM   15  C7  UNL     1       5.372  17.962  49.847  1.00  0.00     0.224 C 
HETATM   16  N1  UNL     1       4.503  18.412  48.832  1.00  0.00    -0.357 N 
ATOM     17  H1  UNL     1       4.432  19.411  48.639  1.00  0.00     0.162 HD
HETATM   18  O1  UNL     1       5.445  16.702  50.070  1.00  0.00    -0.273 OA
BRANCH  16  19
HETATM   19  C6  UNL     1       3.712  17.480  48.061  1.00  0.00     0.149 C 
BRANCH  19  20
HETATM   20  C5  UNL     1       3.518  17.892  46.671  1.00  0.00    -0.011 C 
HETATM   21  C4  UNL     1       2.592  18.691  46.202  1.00  0.00    -0.029 C 
BRANCH  21  22
HETATM   22  C3  UNL     1       1.521  19.372  46.945  1.00  0.00     0.026 C 
BRANCH  22  23
HETATM   23  C2  UNL     1       0.575  20.126  46.036  1.00  0.00    -0.001 C 
HETATM   24  C1  UNL     1       0.713  19.735  44.604  1.00  0.00     0.005 C 
ENDBRANCH  22  23
ENDBRANCH  21  22
ENDBRANCH  19  20
ENDBRANCH  16  19
ENDBRANCH   1  15
BRANCH   3  25
HETATM   25  O2  UNL     1       9.245  20.258  49.455  1.00  0.00    -0.393 OA
ATOM     26  H2  UNL     1       9.616  19.393  49.327  1.00  0.00     0.210 HD
ENDBRANCH   3  25
TORSDOF 6
ENDMDL
