MODEL 1
REMARK VINA RESULT: -6.534923698      0.000      0.000
REMARK  11 active torsions:
REMARK  status: ('A' for Active; 'I' for Inactive)
REMARK    1  A    between atoms: C2_2  and  C3_3 
REMARK    2  A    between atoms: C3_3  and  C4_4 
REMARK    3  A    between atoms: C7_7  and  N1_8 
REMARK    4  A    between atoms: C7_7  and  C15_31 
REMARK    5  A    between atoms: N1_8  and  C8_10 
REMARK    6  A    between atoms: C8_10  and  O1_11 
REMARK    7  A    between atoms: C11_17  and  C12_18 
REMARK    8  A    between atoms: C12_18  and  C13_19 
REMARK    9  A    between atoms: C13_19  and  N3_20 
REMARK   10  A    between atoms: N3_20  and  S1_22 
REMARK   11  A    between atoms: S1_22  and  N4_23 
ROOT
HETATM    1  C8  UNL     1       0.572  19.690  10.352  1.00  0.00     0.170 C 
HETATM    2  C9  UNL     1      -0.706  19.467   9.725  1.00  0.00     0.155 C 
HETATM    3  N2  UNL     1      -0.709  18.151   9.064  1.00  0.00    -0.379 N 
ATOM      4  H2  UNL     1       0.049  17.476   9.156  1.00  0.00     0.160 HD
HETATM    5  C10 UNL     1      -1.873  17.919   8.286  1.00  0.00     0.152 C 
HETATM    6  C11 UNL     1      -3.072  18.690   8.862  1.00  0.00     0.151 C 
HETATM    7  O4  UNL     1      -2.764  20.071   8.604  1.00  0.00    -0.309 OA
HETATM    8  C14 UNL     1      -1.468  20.485   9.049  1.00  0.00     0.314 C 
HETATM    9  O5  UNL     1      -1.176  21.674   8.805  1.00  0.00    -0.257 OA
ENDROOT
BRANCH   1  10
HETATM   10  N1  UNL     1       1.798  20.089   9.792  1.00  0.00    -0.359 N 
ATOM     11  H1  UNL     1       2.315  19.405   9.238  1.00  0.00     0.162 HD
BRANCH  10  12
HETATM   12  C7  UNL     1       2.374  21.407   9.953  1.00  0.00     0.036 C 
HETATM   13  C6  UNL     1       3.878  21.204  10.241  1.00  0.00     0.032 C 
HETATM   14  C5  UNL     1       4.790  21.711   9.183  1.00  0.00     0.007 C 
HETATM   15  C4  UNL     1       4.502  23.160   8.834  1.00  0.00    -0.011 C 
HETATM   16  C21 UNL     1       3.094  23.286   8.382  1.00  0.00    -0.012 C 
HETATM   17  C20 UNL     1       2.259  22.062   8.596  1.00  0.00     0.036 C 
HETATM   18  C22 UNL     1       3.169  23.465   6.852  1.00  0.00     0.010 C 
BRANCH  15  19
HETATM   19  C3  UNL     1       4.922  24.025   9.985  1.00  0.00     0.004 C 
BRANCH  19  20
HETATM   20  C2  UNL     1       4.090  25.222  10.243  1.00  0.00    -0.004 C 
HETATM   21  C1  UNL     1       3.893  25.620  11.659  1.00  0.00     0.005 C 
ENDBRANCH  19  20
ENDBRANCH  15  19
BRANCH  12  22
HETATM   22  C15 UNL     1       1.695  22.103  11.043  1.00  0.00     0.014 C 
HETATM   23  C16 UNL     1       2.489  22.338  12.332  1.00  0.00     0.007 C 
HETATM   24  C17 UNL     1       1.316  22.731  13.241  1.00  0.00     0.000 C 
HETATM   25  C18 UNL     1       0.278  23.381  12.311  1.00  0.00     0.000 C 
HETATM   26  C19 UNL     1       0.940  23.345  10.913  1.00  0.00     0.007 C 
ENDBRANCH  12  22
ENDBRANCH  10  12
ENDBRANCH   1  10
BRANCH   1  27
HETATM   27  O1  UNL     1       0.564  19.445  11.661  1.00  0.00    -0.344 OA
ATOM     28  H1  UNL     1       0.120  18.655  11.944  1.00  0.00     0.219 HD
ENDBRANCH   1  27
BRANCH   6  29
HETATM   29  C12 UNL     1      -4.322  18.329   8.158  1.00  0.00     0.054 C 
BRANCH  29  30
HETATM   30  C13 UNL     1      -5.131  19.492   7.660  1.00  0.00     0.136 C 
BRANCH  30  31
HETATM   31  N3  UNL     1      -6.060  19.945   8.662  1.00  0.00    -0.303 N 
ATOM     32  H3  UNL     1      -6.220  19.504   9.568  1.00  0.00     0.173 HD
BRANCH  31  33
HETATM   33  S1  UNL     1      -6.862  21.366   8.070  1.00  0.00     0.312 S 
HETATM   34  O2  UNL     1      -6.832  21.375   6.594  1.00  0.00    -0.183 OA
HETATM   35  O3  UNL     1      -6.256  22.589   8.682  1.00  0.00    -0.183 OA
BRANCH  33  36
HETATM   36  N4  UNL     1      -8.513  21.269   8.662  1.00  0.00    -0.312 N 
ATOM     37  H42 UNL     1      -9.280  21.896   8.418  1.00  0.00     0.170 HD
ATOM     38  H41 UNL     1      -8.538  20.466   9.291  1.00  0.00     0.170 HD
ENDBRANCH  33  36
ENDBRANCH  31  33
ENDBRANCH  30  31
ENDBRANCH  29  30
ENDBRANCH   6  29
TORSDOF 11
ENDMDL
MODEL 2
REMARK VINA RESULT: -6.395067265      2.863      4.687
REMARK  11 active torsions:
REMARK  status: ('A' for Active; 'I' for Inactive)
REMARK    1  A    between atoms: C2_2  and  C3_3 
REMARK    2  A    between atoms: C3_3  and  C4_4 
REMARK    3  A    between atoms: C7_7  and  N1_8 
REMARK    4  A    between atoms: C7_7  and  C15_31 
REMARK    5  A    between atoms: N1_8  and  C8_10 
REMARK    6  A    between atoms: C8_10  and  O1_11 
REMARK    7  A    between atoms: C11_17  and  C12_18 
REMARK    8  A    between atoms: C12_18  and  C13_19 
REMARK    9  A    between atoms: C13_19  and  N3_20 
REMARK   10  A    between atoms: N3_20  and  S1_22 
REMARK   11  A    between atoms: S1_22  and  N4_23 
ROOT
HETATM    1  C8  UNL     1       0.174  20.497   9.499  1.00  0.00     0.170 C 
HETATM    2  C9  UNL     1      -1.059  19.864   9.106  1.00  0.00     0.155 C 
HETATM    3  N2  UNL     1      -2.197  20.715   9.490  1.00  0.00    -0.379 N 
ATOM      4  H2  UNL     1      -2.090  21.657   9.867  1.00  0.00     0.160 HD
HETATM    5  C10 UNL     1      -3.456  20.093   9.285  1.00  0.00     0.152 C 
HETATM    6  C11 UNL     1      -3.380  19.085   8.127  1.00  0.00     0.151 C 
HETATM    7  O4  UNL     1      -2.556  18.021   8.635  1.00  0.00    -0.309 OA
HETATM    8  C14 UNL     1      -1.308  18.447   9.192  1.00  0.00     0.314 C 
HETATM    9  O5  UNL     1      -0.596  17.536   9.664  1.00  0.00    -0.257 OA
ENDROOT
BRANCH   1  10
HETATM   10  N1  UNL     1       0.793  20.571  10.758  1.00  0.00    -0.359 N 
ATOM     11  H1  UNL     1       1.152  19.707  11.165  1.00  0.00     0.162 HD
BRANCH  10  12
HETATM   12  C7  UNL     1       0.954  21.795  11.514  1.00  0.00     0.036 C 
HETATM   13  C6  UNL     1      -0.088  22.795  10.968  1.00  0.00     0.032 C 
HETATM   14  C5  UNL     1      -1.153  23.176  11.933  1.00  0.00     0.007 C 
HETATM   15  C4  UNL     1      -0.576  23.668  13.248  1.00  0.00    -0.011 C 
HETATM   16  C21 UNL     1       0.276  22.606  13.838  1.00  0.00    -0.012 C 
HETATM   17  C20 UNL     1       0.549  21.449  12.928  1.00  0.00     0.036 C 
HETATM   18  C22 UNL     1      -0.547  22.021  15.004  1.00  0.00     0.010 C 
BRANCH  15  19
HETATM   19  C3  UNL     1       0.069  25.003  13.021  1.00  0.00     0.004 C 
BRANCH  19  20
HETATM   20  C2  UNL     1       1.262  25.302  13.844  1.00  0.00    -0.004 C 
HETATM   21  C1  UNL     1       2.368  26.047  13.190  1.00  0.00     0.005 C 
ENDBRANCH  19  20
ENDBRANCH  15  19
BRANCH  12  22
HETATM   22  C15 UNL     1       2.321  22.285  11.357  1.00  0.00     0.014 C 
HETATM   23  C16 UNL     1       2.524  23.551  10.518  1.00  0.00     0.007 C 
HETATM   24  C17 UNL     1       4.046  23.456  10.344  1.00  0.00     0.000 C 
HETATM   25  C18 UNL     1       4.556  22.728  11.600  1.00  0.00     0.000 C 
HETATM   26  C19 UNL     1       3.281  22.473  12.439  1.00  0.00     0.007 C 
ENDBRANCH  12  22
ENDBRANCH  10  12
ENDBRANCH   1  10
BRANCH   1  27
HETATM   27  O1  UNL     1       0.783  21.126   8.496  1.00  0.00    -0.344 OA
ATOM     28  H1  UNL     1       1.017  22.035   8.642  1.00  0.00     0.219 HD
ENDBRANCH   1  27
BRANCH   6  29
HETATM   29  C12 UNL     1      -4.719  18.551   7.799  1.00  0.00     0.054 C 
BRANCH  29  30
HETATM   30  C13 UNL     1      -4.767  17.635   6.610  1.00  0.00     0.136 C 
BRANCH  30  31
HETATM   31  N3  UNL     1      -3.627  17.836   5.754  1.00  0.00    -0.303 N 
ATOM     32  H3  UNL     1      -3.266  18.738   5.445  1.00  0.00     0.173 HD
BRANCH  31  33
HETATM   33  S1  UNL     1      -2.970  16.283   5.337  1.00  0.00     0.312 S 
HETATM   34  O2  UNL     1      -3.777  15.675   4.261  1.00  0.00    -0.183 OA
HETATM   35  O3  UNL     1      -2.868  15.425   6.558  1.00  0.00    -0.183 OA
BRANCH  33  36
HETATM   36  N4  UNL     1      -1.328  16.586   4.793  1.00  0.00    -0.312 N 
ATOM     37  H42 UNL     1      -0.472  16.340   5.289  1.00  0.00     0.170 HD
ATOM     38  H41 UNL     1      -1.414  17.053   3.889  1.00  0.00     0.170 HD
ENDBRANCH  33  36
ENDBRANCH  31  33
ENDBRANCH  30  31
ENDBRANCH  29  30
ENDBRANCH   6  29
TORSDOF 11
ENDMDL
MODEL 3
REMARK VINA RESULT: -6.366677203      5.218      9.934
REMARK  11 active torsions:
REMARK  status: ('A' for Active; 'I' for Inactive)
REMARK    1  A    between atoms: C2_2  and  C3_3 
REMARK    2  A    between atoms: C3_3  and  C4_4 
REMARK    3  A    between atoms: C7_7  and  N1_8 
REMARK    4  A    between atoms: C7_7  and  C15_31 
REMARK    5  A    between atoms: N1_8  and  C8_10 
REMARK    6  A    between atoms: C8_10  and  O1_11 
REMARK    7  A    between atoms: C11_17  and  C12_18 
REMARK    8  A    between atoms: C12_18  and  C13_19 
REMARK    9  A    between atoms: C13_19  and  N3_20 
REMARK   10  A    between atoms: N3_20  and  S1_22 
REMARK   11  A    between atoms: S1_22  and  N4_23 
ROOT
HETATM    1  C8  UNL     1      -7.000  21.204   7.990  1.00  0.00     0.170 C 
HETATM    2  C9  UNL     1      -5.709  20.699   8.385  1.00  0.00     0.155 C 
HETATM    3  N2  UNL     1      -5.712  19.229   8.320  1.00  0.00    -0.379 N 
ATOM      4  H2  UNL     1      -6.485  18.686   7.937  1.00  0.00     0.160 HD
HETATM    5  C10 UNL     1      -4.531  18.643   8.847  1.00  0.00     0.152 C 
HETATM    6  C11 UNL     1      -3.334  19.593   8.680  1.00  0.00     0.151 C 
HETATM    7  O4  UNL     1      -3.609  20.674   9.588  1.00  0.00    -0.309 OA
HETATM    8  C14 UNL     1      -4.909  21.257   9.446  1.00  0.00     0.314 C 
HETATM    9  O5  UNL     1      -5.171  22.177  10.248  1.00  0.00    -0.257 OA
ENDROOT
BRANCH   1  10
HETATM   10  N1  UNL     1      -8.202  21.282   8.714  1.00  0.00    -0.359 N 
ATOM     11  H1  UNL     1      -8.715  20.417   8.883  1.00  0.00     0.162 HD
BRANCH  10  12
HETATM   12  C7  UNL     1      -8.757  22.513   9.235  1.00  0.00     0.036 C 
HETATM   13  C6  UNL     1     -10.251  22.529   8.842  1.00  0.00     0.032 C 
HETATM   14  C5  UNL     1     -11.198  22.450   9.985  1.00  0.00     0.007 C 
HETATM   15  C4  UNL     1     -10.908  23.508  11.034  1.00  0.00    -0.011 C 
HETATM   16  C21 UNL     1      -9.517  23.346  11.525  1.00  0.00    -0.012 C 
HETATM   17  C20 UNL     1      -8.688  22.379  10.738  1.00  0.00     0.036 C 
HETATM   18  C22 UNL     1      -9.649  22.719  12.929  1.00  0.00     0.010 C 
BRANCH  15  19
HETATM   19  C3  UNL     1     -11.274  24.851  10.477  1.00  0.00     0.004 C 
BRANCH  19  20
HETATM   20  C2  UNL     1     -10.420  25.987  10.889  1.00  0.00    -0.004 C 
HETATM   21  C1  UNL     1     -10.172  27.050   9.883  1.00  0.00     0.005 C 
ENDBRANCH  19  20
ENDBRANCH  15  19
BRANCH  12  22
HETATM   22  C15 UNL     1      -8.030  23.649   8.674  1.00  0.00     0.014 C 
HETATM   23  C16 UNL     1      -8.760  24.512   7.640  1.00  0.00     0.007 C 
HETATM   24  C17 UNL     1      -7.546  25.286   7.106  1.00  0.00     0.000 C 
HETATM   25  C18 UNL     1      -6.561  25.364   8.285  1.00  0.00     0.000 C 
HETATM   26  C19 UNL     1      -7.292  24.645   9.444  1.00  0.00     0.007 C 
ENDBRANCH  12  22
ENDBRANCH  10  12
ENDBRANCH   1  10
BRANCH   1  27
HETATM   27  O1  UNL     1      -7.033  21.628   6.728  1.00  0.00    -0.344 OA
ATOM     28  H1  UNL     1      -6.429  21.215   6.124  1.00  0.00     0.219 HD
ENDBRANCH   1  27
BRANCH   6  29
HETATM   29  C12 UNL     1      -2.073  18.932   9.076  1.00  0.00     0.054 C 
BRANCH  29  30
HETATM   30  C13 UNL     1      -2.014  17.456   8.807  1.00  0.00     0.136 C 
BRANCH  30  31
HETATM   31  N3  UNL     1      -1.323  17.181   7.574  1.00  0.00    -0.303 N 
ATOM     32  H3  UNL     1      -0.354  17.421   7.368  1.00  0.00     0.173 HD
BRANCH  31  33
HETATM   33  S1  UNL     1      -2.419  16.372   6.495  1.00  0.00     0.312 S 
HETATM   34  O2  UNL     1      -3.740  17.030   6.544  1.00  0.00    -0.183 OA
HETATM   35  O3  UNL     1      -2.472  14.913   6.820  1.00  0.00    -0.183 OA
BRANCH  33  36
HETATM   36  N4  UNL     1      -1.709  16.510   4.895  1.00  0.00    -0.312 N 
ATOM     37  H42 UNL     1      -0.713  16.498   4.673  1.00  0.00     0.170 HD
ATOM     38  H41 UNL     1      -2.492  16.603   4.249  1.00  0.00     0.170 HD
ENDBRANCH  33  36
ENDBRANCH  31  33
ENDBRANCH  30  31
ENDBRANCH  29  30
ENDBRANCH   6  29
TORSDOF 11
ENDMDL
MODEL 4
REMARK VINA RESULT: -6.313761552      5.290     10.109
REMARK  11 active torsions:
REMARK  status: ('A' for Active; 'I' for Inactive)
REMARK    1  A    between atoms: C2_2  and  C3_3 
REMARK    2  A    between atoms: C3_3  and  C4_4 
REMARK    3  A    between atoms: C7_7  and  N1_8 
REMARK    4  A    between atoms: C7_7  and  C15_31 
REMARK    5  A    between atoms: N1_8  and  C8_10 
REMARK    6  A    between atoms: C8_10  and  O1_11 
REMARK    7  A    between atoms: C11_17  and  C12_18 
REMARK    8  A    between atoms: C12_18  and  C13_19 
REMARK    9  A    between atoms: C13_19  and  N3_20 
REMARK   10  A    between atoms: N3_20  and  S1_22 
REMARK   11  A    between atoms: S1_22  and  N4_23 
ROOT
HETATM    1  C8  UNL     1      -7.065  21.174   7.967  1.00  0.00     0.170 C 
HETATM    2  C9  UNL     1      -5.771  20.686   8.373  1.00  0.00     0.155 C 
HETATM    3  N2  UNL     1      -5.784  19.215   8.399  1.00  0.00    -0.379 N 
ATOM      4  H2  UNL     1      -6.566  18.654   8.061  1.00  0.00     0.160 HD
HETATM    5  C10 UNL     1      -4.598  18.655   8.942  1.00  0.00     0.152 C 
HETATM    6  C11 UNL     1      -3.399  19.585   8.700  1.00  0.00     0.151 C 
HETATM    7  O4  UNL     1      -3.654  20.721   9.544  1.00  0.00    -0.309 OA
HETATM    8  C14 UNL     1      -4.953  21.303   9.386  1.00  0.00     0.314 C 
HETATM    9  O5  UNL     1      -5.197  22.271  10.134  1.00  0.00    -0.257 OA
ENDROOT
BRANCH   1  10
HETATM   10  N1  UNL     1      -8.256  21.304   8.703  1.00  0.00    -0.359 N 
ATOM     11  H1  UNL     1      -8.572  20.500   9.246  1.00  0.00     0.162 HD
BRANCH  10  12
HETATM   12  C7  UNL     1      -9.061  22.506   8.739  1.00  0.00     0.036 C 
HETATM   13  C6  UNL     1      -8.097  23.695   8.539  1.00  0.00     0.032 C 
HETATM   14  C5  UNL     1      -8.293  24.453   7.275  1.00  0.00     0.007 C 
HETATM   15  C4  UNL     1      -9.734  24.897   7.100  1.00  0.00    -0.011 C 
HETATM   16  C21 UNL     1     -10.620  23.707   7.112  1.00  0.00    -0.012 C 
HETATM   17  C20 UNL     1      -9.945  22.432   7.516  1.00  0.00     0.036 C 
HETATM   18  C22 UNL     1     -11.041  23.495   5.643  1.00  0.00     0.010 C 
BRANCH  15  19
HETATM   19  C3  UNL     1     -10.032  25.970   8.104  1.00  0.00     0.004 C 
BRANCH  19  20
HETATM   20  C2  UNL     1     -11.193  25.732   8.992  1.00  0.00    -0.004 C 
HETATM   21  C1  UNL     1     -11.195  26.424  10.305  1.00  0.00     0.005 C 
ENDBRANCH  19  20
ENDBRANCH  15  19
BRANCH  12  22
HETATM   22  C15 UNL     1      -9.766  22.579  10.016  1.00  0.00     0.014 C 
HETATM   23  C16 UNL     1     -11.057  21.766  10.157  1.00  0.00     0.007 C 
HETATM   24  C17 UNL     1     -11.589  22.421  11.439  1.00  0.00     0.000 C 
HETATM   25  C18 UNL     1     -10.339  22.872  12.216  1.00  0.00     0.000 C 
HETATM   26  C19 UNL     1      -9.154  22.418  11.331  1.00  0.00     0.007 C 
ENDBRANCH  12  22
ENDBRANCH  10  12
ENDBRANCH   1  10
BRANCH   1  27
HETATM   27  O1  UNL     1      -7.116  21.520   6.683  1.00  0.00    -0.344 OA
ATOM     28  H1  UNL     1      -6.385  21.252   6.140  1.00  0.00     0.219 HD
ENDBRANCH   1  27
BRANCH   6  29
HETATM   29  C12 UNL     1      -2.135  18.942   9.117  1.00  0.00     0.054 C 
BRANCH  29  30
HETATM   30  C13 UNL     1      -2.038  17.473   8.818  1.00  0.00     0.136 C 
BRANCH  30  31
HETATM   31  N3  UNL     1      -1.333  17.241   7.585  1.00  0.00    -0.303 N 
ATOM     32  H3  UNL     1      -0.379  17.538   7.379  1.00  0.00     0.173 HD
BRANCH  31  33
HETATM   33  S1  UNL     1      -2.379  16.368   6.507  1.00  0.00     0.312 S 
HETATM   34  O2  UNL     1      -3.730  16.962   6.538  1.00  0.00    -0.183 OA
HETATM   35  O3  UNL     1      -2.364  14.912   6.846  1.00  0.00    -0.183 OA
BRANCH  33  36
HETATM   36  N4  UNL     1      -1.663  16.524   4.911  1.00  0.00    -0.312 N 
ATOM     37  H42 UNL     1      -0.667  16.513   4.692  1.00  0.00     0.170 HD
ATOM     38  H41 UNL     1      -2.444  16.626   4.262  1.00  0.00     0.170 HD
ENDBRANCH  33  36
ENDBRANCH  31  33
ENDBRANCH  30  31
ENDBRANCH  29  30
ENDBRANCH   6  29
TORSDOF 11
ENDMDL
MODEL 5
REMARK VINA RESULT: -6.286317546      3.015      4.025
REMARK  11 active torsions:
REMARK  status: ('A' for Active; 'I' for Inactive)
REMARK    1  A    between atoms: C2_2  and  C3_3 
REMARK    2  A    between atoms: C3_3  and  C4_4 
REMARK    3  A    between atoms: C7_7  and  N1_8 
REMARK    4  A    between atoms: C7_7  and  C15_31 
REMARK    5  A    between atoms: N1_8  and  C8_10 
REMARK    6  A    between atoms: C8_10  and  O1_11 
REMARK    7  A    between atoms: C11_17  and  C12_18 
REMARK    8  A    between atoms: C12_18  and  C13_19 
REMARK    9  A    between atoms: C13_19  and  N3_20 
REMARK   10  A    between atoms: N3_20  and  S1_22 
REMARK   11  A    between atoms: S1_22  and  N4_23 
ROOT
HETATM    1  C8  UNL     1       0.952  21.122   9.614  1.00  0.00     0.170 C 
HETATM    2  C9  UNL     1      -0.328  20.511   9.361  1.00  0.00     0.155 C 
HETATM    3  N2  UNL     1      -1.403  21.443   9.737  1.00  0.00    -0.379 N 
ATOM      4  H2  UNL     1      -1.236  22.409  10.017  1.00  0.00     0.160 HD
HETATM    5  C10 UNL     1      -2.696  20.860   9.671  1.00  0.00     0.152 C 
HETATM    6  C11 UNL     1      -2.737  19.749   8.610  1.00  0.00     0.151 C 
HETATM    7  O4  UNL     1      -1.922  18.700   9.162  1.00  0.00    -0.309 OA
HETATM    8  C14 UNL     1      -0.623  19.120   9.595  1.00  0.00     0.314 C 
HETATM    9  O5  UNL     1       0.083  18.225  10.103  1.00  0.00    -0.257 OA
ENDROOT
BRANCH   1  10
HETATM   10  N1  UNL     1       1.658  21.282  10.819  1.00  0.00    -0.359 N 
ATOM     11  H1  UNL     1       2.297  20.539  11.100  1.00  0.00     0.162 HD
BRANCH  10  12
HETATM   12  C7  UNL     1       1.534  22.434  11.686  1.00  0.00     0.036 C 
HETATM   13  C6  UNL     1       2.967  22.929  11.977  1.00  0.00     0.032 C 
HETATM   14  C5  UNL     1       3.291  24.270  11.423  1.00  0.00     0.007 C 
HETATM   15  C4  UNL     1       2.269  25.314  11.836  1.00  0.00    -0.011 C 
HETATM   16  C21 UNL     1       0.923  24.894  11.375  1.00  0.00    -0.012 C 
HETATM   17  C20 UNL     1       0.853  23.493  10.850  1.00  0.00     0.036 C 
HETATM   18  C22 UNL     1       0.603  25.797  10.167  1.00  0.00     0.010 C 
BRANCH  15  19
HETATM   19  C3  UNL     1       2.426  25.587  13.302  1.00  0.00     0.004 C 
BRANCH  19  20
HETATM   20  C2  UNL     1       1.433  26.502  13.908  1.00  0.00    -0.004 C 
HETATM   21  C1  UNL     1       0.557  25.946  14.970  1.00  0.00     0.005 C 
ENDBRANCH  19  20
ENDBRANCH  15  19
BRANCH  12  22
HETATM   22  C15 UNL     1       0.827  22.050  12.905  1.00  0.00     0.014 C 
HETATM   23  C16 UNL     1      -0.447  22.826  13.256  1.00  0.00     0.007 C 
HETATM   24  C17 UNL     1      -0.601  22.348  14.706  1.00  0.00     0.000 C 
HETATM   25  C18 UNL     1       0.020  20.941  14.741  1.00  0.00     0.000 C 
HETATM   26  C19 UNL     1       0.473  20.686  13.283  1.00  0.00     0.007 C 
ENDBRANCH  12  22
ENDBRANCH  10  12
ENDBRANCH   1  10
BRANCH   1  27
HETATM   27  O1  UNL     1       1.515  21.631   8.520  1.00  0.00    -0.344 OA
ATOM     28  H1  UNL     1       0.928  21.994   7.868  1.00  0.00     0.219 HD
ENDBRANCH   1  27
BRANCH   6  29
HETATM   29  C12 UNL     1      -4.115  19.247   8.420  1.00  0.00     0.054 C 
BRANCH  29  30
HETATM   30  C13 UNL     1      -4.280  18.239   7.320  1.00  0.00     0.136 C 
BRANCH  30  31
HETATM   31  N3  UNL     1      -3.019  17.944   6.692  1.00  0.00    -0.303 N 
ATOM     32  H3  UNL     1      -2.207  18.561   6.668  1.00  0.00     0.173 HD
BRANCH  31  33
HETATM   33  S1  UNL     1      -3.111  16.361   5.983  1.00  0.00     0.312 S 
HETATM   34  O2  UNL     1      -4.515  16.045   5.655  1.00  0.00    -0.183 OA
HETATM   35  O3  UNL     1      -2.474  15.357   6.889  1.00  0.00    -0.183 OA
BRANCH  33  36
HETATM   36  N4  UNL     1      -2.128  16.427   4.529  1.00  0.00    -0.312 N 
ATOM     37  H42 UNL     1      -2.159  17.151   3.811  1.00  0.00     0.170 HD
ATOM     38  H41 UNL     1      -1.530  15.601   4.558  1.00  0.00     0.170 HD
ENDBRANCH  33  36
ENDBRANCH  31  33
ENDBRANCH  30  31
ENDBRANCH  29  30
ENDBRANCH   6  29
TORSDOF 11
ENDMDL
