MODEL 1
REMARK VINA RESULT: -6.236235373      0.000      0.000
REMARK  10 active torsions:
REMARK  status: ('A' for Active; 'I' for Inactive)
REMARK    1  A    between atoms: C2_2  and  C3_3 
REMARK    2  A    between atoms: C3_3  and  C4_4 
REMARK    3  A    between atoms: C4_4  and  C5_5 
REMARK    4  A    between atoms: C5_5  and  C6_6 
REMARK    5  A    between atoms: C8_10  and  C9_11 
REMARK    6  A    between atoms: C13_18  and  C14_19 
REMARK    7  A    between atoms: C14_19  and  C16_21 
REMARK    8  A    between atoms: C19_27  and  C20_28 
REMARK    9  A    between atoms: C20_28  and  C21_29 
REMARK   10  A    between atoms: C21_29  and  O5_31 
ROOT
HETATM    1  C6  UNL     1      -0.951 -20.756  11.563  1.00  0.00     0.224 C 
HETATM    2  O1  UNL     1      -0.711 -21.646  12.588  1.00  0.00    -0.305 OA
HETATM    3  C7  UNL     1      -0.634 -21.727  13.924  1.00  0.00     0.283 C 
HETATM    4  O2  UNL     1      -0.781 -20.851  14.825  1.00  0.00    -0.263 OA
HETATM    5  C8  UNL     1      -0.324 -23.052  14.618  1.00  0.00     0.187 C 
HETATM    6  N1  UNL     1      -1.432 -23.613  15.307  1.00  0.00    -0.345 N 
ATOM      7  H1  UNL     1      -1.359 -23.614  16.325  1.00  0.00     0.163 HD
HETATM    8  C12 UNL     1      -2.619 -24.168  14.785  1.00  0.00     0.241 C 
HETATM    9  O3  UNL     1      -3.649 -24.163  15.514  1.00  0.00    -0.271 OA
HETATM   10  C13 UNL     1      -2.775 -24.766  13.439  1.00  0.00     0.180 C 
HETATM   11  N2  UNL     1      -4.148 -24.581  12.924  1.00  0.00    -0.347 N 
ATOM     12  H2  UNL     1      -4.896 -24.898  13.541  1.00  0.00     0.163 HD
HETATM   13  C18 UNL     1      -4.560 -24.033  11.711  1.00  0.00     0.231 C 
HETATM   14  O4  UNL     1      -5.180 -24.810  10.874  1.00  0.00    -0.273 OA
HETATM   15  C19 UNL     1      -4.403 -22.655  11.185  1.00  0.00     0.172 C 
HETATM   16  C23 UNL     1      -4.263 -21.614  12.252  1.00  0.00     0.237 C 
HETATM   17  O6  UNL     1      -4.903 -21.825  13.314  1.00  0.00    -0.272 OA
HETATM   18  N3  UNL     1      -3.493 -20.429  12.179  1.00  0.00    -0.295 N 
ATOM     19  H3  UNL     1      -3.878 -19.645  12.705  1.00  0.00     0.171 HD
HETATM   20  C24 UNL     1      -2.292 -20.145  11.510  1.00  0.00     0.254 C 
HETATM   21  O7  UNL     1      -2.279 -19.198  10.693  1.00  0.00    -0.270 OA
ENDROOT
BRANCH   1  22
HETATM   22  C5  UNL     1       0.165 -19.742  11.363  1.00  0.00     0.043 C 
BRANCH  22  23
HETATM   23  C4  UNL     1       1.464 -20.458  11.403  1.00  0.00     0.007 C 
BRANCH  23  24
HETATM   24  C3  UNL     1       2.532 -19.679  10.718  1.00  0.00     0.026 C 
BRANCH  24  25
HETATM   25  C2  UNL     1       3.886 -19.808  11.269  1.00  0.00    -0.037 C 
HETATM   26  C1  UNL     1       4.859 -18.913  11.227  1.00  0.00     0.007 C 
ENDBRANCH  24  25
ENDBRANCH  23  24
ENDBRANCH  22  23
ENDBRANCH   1  22
BRANCH   5  27
HETATM   27  C9  UNL     1       0.844 -22.771  15.533  1.00  0.00     0.010 C 
HETATM   28  C10 UNL     1       0.511 -22.973  16.985  1.00  0.00     0.012 C 
HETATM   29  C11 UNL     1       2.116 -23.452  15.175  1.00  0.00     0.012 C 
ENDBRANCH   5  27
BRANCH  15  30
HETATM   30  C20 UNL     1      -5.406 -22.213  10.194  1.00  0.00     0.055 C 
BRANCH  30  31
HETATM   31  C21 UNL     1      -5.044 -21.295   9.116  1.00  0.00     0.115 C 
HETATM   32  C22 UNL     1      -6.118 -21.461   8.016  1.00  0.00     0.039 C 
BRANCH  31  33
HETATM   33  O5  UNL     1      -4.977 -19.958   9.361  1.00  0.00    -0.396 OA
ATOM     34  H5  UNL     1      -4.867 -19.351   8.638  1.00  0.00     0.210 HD
ENDBRANCH  31  33
ENDBRANCH  30  31
ENDBRANCH  15  30
BRANCH  10  35
HETATM   35  C14 UNL     1      -2.320 -26.162  13.345  1.00  0.00     0.013 C 
HETATM   36  C15 UNL     1      -1.004 -26.137  12.515  1.00  0.00     0.012 C 
BRANCH  35  37
HETATM   37  C16 UNL     1      -3.200 -27.210  12.806  1.00  0.00     0.002 C 
HETATM   38  C17 UNL     1      -3.023 -27.686  11.422  1.00  0.00     0.005 C 
ENDBRANCH  35  37
ENDBRANCH  10  35
TORSDOF 10
ENDMDL
MODEL 2
REMARK VINA RESULT: -6.102336086      7.325     11.145
REMARK  10 active torsions:
REMARK  status: ('A' for Active; 'I' for Inactive)
REMARK    1  A    between atoms: C2_2  and  C3_3 
REMARK    2  A    between atoms: C3_3  and  C4_4 
REMARK    3  A    between atoms: C4_4  and  C5_5 
REMARK    4  A    between atoms: C5_5  and  C6_6 
REMARK    5  A    between atoms: C8_10  and  C9_11 
REMARK    6  A    between atoms: C13_18  and  C14_19 
REMARK    7  A    between atoms: C14_19  and  C16_21 
REMARK    8  A    between atoms: C19_27  and  C20_28 
REMARK    9  A    between atoms: C20_28  and  C21_29 
REMARK   10  A    between atoms: C21_29  and  O5_31 
ROOT
HETATM    1  C6  UNL     1       6.291 -26.643  10.129  1.00  0.00     0.224 C 
HETATM    2  O1  UNL     1       5.553 -25.788  10.919  1.00  0.00    -0.305 OA
HETATM    3  C7  UNL     1       5.267 -25.509  12.199  1.00  0.00     0.283 C 
HETATM    4  O2  UNL     1       5.652 -26.046  13.278  1.00  0.00    -0.263 OA
HETATM    5  C8  UNL     1       4.323 -24.365  12.567  1.00  0.00     0.187 C 
HETATM    6  N1  UNL     1       4.974 -23.251  13.158  1.00  0.00    -0.345 N 
ATOM      7  H1  UNL     1       4.769 -23.099  14.146  1.00  0.00     0.163 HD
HETATM    8  C12 UNL     1       5.864 -22.324  12.575  1.00  0.00     0.241 C 
HETATM    9  O3  UNL     1       6.685 -21.733  13.329  1.00  0.00    -0.271 OA
HETATM   10  C13 UNL     1       5.930 -21.976  11.137  1.00  0.00     0.180 C 
HETATM   11  N2  UNL     1       7.303 -21.612  10.734  1.00  0.00    -0.347 N 
ATOM     12  H2  UNL     1       7.749 -20.885  11.295  1.00  0.00     0.163 HD
HETATM   13  C18 UNL     1       8.073 -22.124   9.692  1.00  0.00     0.231 C 
HETATM   14  O4  UNL     1       8.405 -21.317   8.729  1.00  0.00    -0.273 OA
HETATM   15  C19 UNL     1       8.601 -23.494   9.480  1.00  0.00     0.172 C 
HETATM   16  C23 UNL     1       8.779 -24.274  10.746  1.00  0.00     0.237 C 
HETATM   17  O6  UNL     1       9.113 -23.609  11.760  1.00  0.00    -0.272 OA
HETATM   18  N3  UNL     1       8.614 -25.670  10.907  1.00  0.00    -0.295 N 
ATOM     19  H3  UNL     1       9.224 -26.087  11.610  1.00  0.00     0.171 HD
HETATM   20  C24 UNL     1       7.757 -26.581  10.270  1.00  0.00     0.254 C 
HETATM   21  O7  UNL     1       8.267 -27.563   9.685  1.00  0.00    -0.270 OA
ENDROOT
BRANCH   1  22
HETATM   22  C5  UNL     1       5.761 -28.068  10.114  1.00  0.00     0.043 C 
BRANCH  22  23
HETATM   23  C4  UNL     1       4.783 -28.195   9.006  1.00  0.00     0.007 C 
BRANCH  23  24
HETATM   24  C3  UNL     1       5.462 -28.522   7.721  1.00  0.00     0.026 C 
BRANCH  24  25
HETATM   25  C2  UNL     1       6.247 -29.761   7.697  1.00  0.00    -0.037 C 
HETATM   26  C1  UNL     1       6.474 -30.549   6.660  1.00  0.00     0.007 C 
ENDBRANCH  24  25
ENDBRANCH  23  24
ENDBRANCH  22  23
ENDBRANCH   1  22
BRANCH   5  27
HETATM   27  C9  UNL     1       3.277 -24.972  13.472  1.00  0.00     0.010 C 
HETATM   28  C10 UNL     1       2.700 -23.981  14.443  1.00  0.00     0.012 C 
HETATM   29  C11 UNL     1       2.205 -25.740  12.787  1.00  0.00     0.012 C 
ENDBRANCH   5  27
BRANCH  15  30
HETATM   30  C20 UNL     1       9.821 -23.608   8.656  1.00  0.00     0.055 C 
BRANCH  30  31
HETATM   31  C21 UNL     1      10.103 -24.822   7.892  1.00  0.00     0.115 C 
HETATM   32  C22 UNL     1      11.087 -24.419   6.770  1.00  0.00     0.039 C 
BRANCH  31  33
HETATM   33  O5  UNL     1      10.673 -25.892   8.510  1.00  0.00    -0.396 OA
ATOM     34  H5  UNL     1      11.615 -26.011   8.472  1.00  0.00     0.210 HD
ENDBRANCH  31  33
ENDBRANCH  30  31
ENDBRANCH  15  30
BRANCH  10  35
HETATM   35  C14 UNL     1       4.934 -20.978  10.716  1.00  0.00     0.013 C 
HETATM   36  C15 UNL     1       5.699 -19.630  10.575  1.00  0.00     0.012 C 
BRANCH  35  37
HETATM   37  C16 UNL     1       3.713 -20.749  11.505  1.00  0.00     0.002 C 
HETATM   38  C17 UNL     1       2.776 -19.675  11.125  1.00  0.00     0.005 C 
ENDBRANCH  35  37
ENDBRANCH  10  35
TORSDOF 10
ENDMDL
MODEL 3
REMARK VINA RESULT: -6.024056869      1.871      2.189
REMARK  10 active torsions:
REMARK  status: ('A' for Active; 'I' for Inactive)
REMARK    1  A    between atoms: C2_2  and  C3_3 
REMARK    2  A    between atoms: C3_3  and  C4_4 
REMARK    3  A    between atoms: C4_4  and  C5_5 
REMARK    4  A    between atoms: C5_5  and  C6_6 
REMARK    5  A    between atoms: C8_10  and  C9_11 
REMARK    6  A    between atoms: C13_18  and  C14_19 
REMARK    7  A    between atoms: C14_19  and  C16_21 
REMARK    8  A    between atoms: C19_27  and  C20_28 
REMARK    9  A    between atoms: C20_28  and  C21_29 
REMARK   10  A    between atoms: C21_29  and  O5_31 
ROOT
HETATM    1  C6  UNL     1       0.028 -20.260  11.286  1.00  0.00     0.224 C 
HETATM    2  O1  UNL     1       0.413 -21.495  11.761  1.00  0.00    -0.305 OA
HETATM    3  C7  UNL     1       0.690 -22.155  12.894  1.00  0.00     0.283 C 
HETATM    4  O2  UNL     1       0.688 -21.780  14.102  1.00  0.00    -0.263 OA
HETATM    5  C8  UNL     1       1.093 -23.629  12.872  1.00  0.00     0.187 C 
HETATM    6  N1  UNL     1       0.098 -24.504  13.382  1.00  0.00    -0.345 N 
ATOM      7  H1  UNL     1       0.323 -24.951  14.271  1.00  0.00     0.163 HD
HETATM    8  C12 UNL     1      -1.159 -24.842  12.837  1.00  0.00     0.241 C 
HETATM    9  O3  UNL     1      -2.067 -25.224  13.625  1.00  0.00    -0.271 OA
HETATM   10  C13 UNL     1      -1.521 -24.789  11.401  1.00  0.00     0.180 C 
HETATM   11  N2  UNL     1      -2.954 -24.480  11.219  1.00  0.00    -0.347 N 
ATOM     12  H2  UNL     1      -3.602 -25.083  11.725  1.00  0.00     0.163 HD
HETATM   13  C18 UNL     1      -3.540 -23.477  10.449  1.00  0.00     0.231 C 
HETATM   14  O4  UNL     1      -4.285 -23.839   9.448  1.00  0.00    -0.273 OA
HETATM   15  C19 UNL     1      -3.456 -22.003  10.579  1.00  0.00     0.172 C 
HETATM   16  C23 UNL     1      -3.149 -21.536  11.969  1.00  0.00     0.237 C 
HETATM   17  O6  UNL     1      -3.622 -22.234  12.901  1.00  0.00    -0.272 OA
HETATM   18  N3  UNL     1      -2.390 -20.397  12.328  1.00  0.00    -0.295 N 
ATOM     19  H3  UNL     1      -2.686 -19.952  13.196  1.00  0.00     0.171 HD
HETATM   20  C24 UNL     1      -1.302 -19.772  11.699  1.00  0.00     0.254 C 
HETATM   21  O7  UNL     1      -1.406 -18.562  11.398  1.00  0.00    -0.270 OA
ENDROOT
BRANCH   1  22
HETATM   22  C5  UNL     1       1.107 -19.196  11.409  1.00  0.00     0.043 C 
BRANCH  22  23
HETATM   23  C4  UNL     1       2.314 -19.664  10.684  1.00  0.00     0.007 C 
BRANCH  23  24
HETATM   24  C3  UNL     1       3.263 -18.544  10.434  1.00  0.00     0.026 C 
BRANCH  24  25
HETATM   25  C2  UNL     1       4.578 -18.650  11.077  1.00  0.00    -0.037 C 
HETATM   26  C1  UNL     1       5.186 -19.750  11.486  1.00  0.00     0.007 C 
ENDBRANCH  24  25
ENDBRANCH  23  24
ENDBRANCH  22  23
ENDBRANCH   1  22
BRANCH   5  27
HETATM   27  C9  UNL     1       2.387 -23.711  13.644  1.00  0.00     0.010 C 
HETATM   28  C10 UNL     1       2.632 -25.074  14.231  1.00  0.00     0.012 C 
HETATM   29  C11 UNL     1       3.592 -23.210  12.932  1.00  0.00     0.012 C 
ENDBRANCH   5  27
BRANCH  15  30
HETATM   30  C20 UNL     1      -4.593 -21.230  10.041  1.00  0.00     0.055 C 
BRANCH  30  31
HETATM   31  C21 UNL     1      -5.754 -20.919  10.874  1.00  0.00     0.115 C 
HETATM   32  C22 UNL     1      -6.798 -20.257   9.945  1.00  0.00     0.039 C 
BRANCH  31  33
HETATM   33  O5  UNL     1      -6.416 -21.923  11.511  1.00  0.00    -0.396 OA
ATOM     34  H5  UNL     1      -7.325 -21.803  11.763  1.00  0.00     0.210 HD
ENDBRANCH  31  33
ENDBRANCH  30  31
ENDBRANCH  15  30
BRANCH  10  35
HETATM   35  C14 UNL     1      -1.094 -25.968  10.631  1.00  0.00     0.013 C 
HETATM   36  C15 UNL     1      -2.364 -26.847  10.439  1.00  0.00     0.012 C 
BRANCH  35  37
HETATM   37  C16 UNL     1       0.006 -26.823  11.105  1.00  0.00     0.002 C 
HETATM   38  C17 UNL     1       0.360 -28.050  10.368  1.00  0.00     0.005 C 
ENDBRANCH  35  37
ENDBRANCH  10  35
TORSDOF 10
ENDMDL
MODEL 4
REMARK VINA RESULT: -5.952671131      4.165      7.997
REMARK  10 active torsions:
REMARK  status: ('A' for Active; 'I' for Inactive)
REMARK    1  A    between atoms: C2_2  and  C3_3 
REMARK    2  A    between atoms: C3_3  and  C4_4 
REMARK    3  A    between atoms: C4_4  and  C5_5 
REMARK    4  A    between atoms: C5_5  and  C6_6 
REMARK    5  A    between atoms: C8_10  and  C9_11 
REMARK    6  A    between atoms: C13_18  and  C14_19 
REMARK    7  A    between atoms: C14_19  and  C16_21 
REMARK    8  A    between atoms: C19_27  and  C20_28 
REMARK    9  A    between atoms: C20_28  and  C21_29 
REMARK   10  A    between atoms: C21_29  and  O5_31 
ROOT
HETATM    1  C6  UNL     1       4.460 -19.680  11.522  1.00  0.00     0.224 C 
HETATM    2  O1  UNL     1       3.227 -20.151  11.918  1.00  0.00    -0.305 OA
HETATM    3  C7  UNL     1       2.076 -20.642  11.437  1.00  0.00     0.283 C 
HETATM    4  O2  UNL     1       1.690 -20.860  10.252  1.00  0.00    -0.263 OA
HETATM    5  C8  UNL     1       0.940 -21.053  12.373  1.00  0.00     0.187 C 
HETATM    6  N1  UNL     1       0.741 -22.457  12.451  1.00  0.00    -0.345 N 
ATOM      7  H1  UNL     1      -0.124 -22.800  12.032  1.00  0.00     0.163 HD
HETATM    8  C12 UNL     1       1.568 -23.446  13.025  1.00  0.00     0.241 C 
HETATM    9  O3  UNL     1       1.477 -24.626  12.587  1.00  0.00    -0.271 OA
HETATM   10  C13 UNL     1       2.552 -23.226  14.110  1.00  0.00     0.180 C 
HETATM   11  N2  UNL     1       3.696 -24.153  13.994  1.00  0.00    -0.347 N 
ATOM     12  H2  UNL     1       3.458 -25.142  13.927  1.00  0.00     0.163 HD
HETATM   13  C18 UNL     1       5.059 -23.859  13.963  1.00  0.00     0.231 C 
HETATM   14  O4  UNL     1       5.796 -24.299  14.937  1.00  0.00    -0.273 OA
HETATM   15  C19 UNL     1       5.846 -23.095  12.966  1.00  0.00     0.172 C 
HETATM   16  C23 UNL     1       5.239 -23.081  11.597  1.00  0.00     0.237 C 
HETATM   17  O6  UNL     1       4.617 -24.122  11.261  1.00  0.00    -0.272 OA
HETATM   18  N3  UNL     1       5.298 -22.025  10.658  1.00  0.00    -0.295 N 
ATOM     19  H3  UNL     1       5.305 -22.328   9.684  1.00  0.00     0.171 HD
HETATM   20  C24 UNL     1       5.348 -20.633  10.831  1.00  0.00     0.254 C 
HETATM   21  O7  UNL     1       6.307 -20.008  10.326  1.00  0.00    -0.270 OA
ENDROOT
BRANCH   1  22
HETATM   22  C5  UNL     1       4.401 -18.326  10.831  1.00  0.00     0.043 C 
BRANCH  22  23
HETATM   23  C4  UNL     1       3.002 -17.836  10.876  1.00  0.00     0.007 C 
BRANCH  23  24
HETATM   24  C3  UNL     1       2.539 -17.399   9.530  1.00  0.00     0.026 C 
BRANCH  24  25
HETATM   25  C2  UNL     1       3.586 -17.048   8.564  1.00  0.00    -0.037 C 
HETATM   26  C1  UNL     1       3.462 -16.304   7.478  1.00  0.00     0.007 C 
ENDBRANCH  24  25
ENDBRANCH  23  24
ENDBRANCH  22  23
ENDBRANCH   1  22
BRANCH   5  27
HETATM   27  C9  UNL     1      -0.284 -20.322  11.878  1.00  0.00     0.010 C 
HETATM   28  C10 UNL     1      -1.568 -20.997  12.271  1.00  0.00     0.012 C 
HETATM   29  C11 UNL     1      -0.328 -18.867  12.182  1.00  0.00     0.012 C 
ENDBRANCH   5  27
BRANCH  15  30
HETATM   30  C20 UNL     1       7.281 -23.433  12.863  1.00  0.00     0.055 C 
BRANCH  30  31
HETATM   31  C21 UNL     1       8.303 -22.388  12.868  1.00  0.00     0.115 C 
HETATM   32  C22 UNL     1       9.671 -23.108  12.886  1.00  0.00     0.039 C 
BRANCH  31  33
HETATM   33  O5  UNL     1       8.370 -21.503  11.836  1.00  0.00    -0.396 OA
ATOM     34  H5  UNL     1       9.089 -21.553  11.218  1.00  0.00     0.210 HD
ENDBRANCH  31  33
ENDBRANCH  30  31
ENDBRANCH  15  30
BRANCH  10  35
HETATM   35  C14 UNL     1       1.965 -23.220  15.460  1.00  0.00     0.013 C 
HETATM   36  C15 UNL     1       2.198 -24.644  16.044  1.00  0.00     0.012 C 
BRANCH  35  37
HETATM   37  C16 UNL     1       0.557 -22.847  15.670  1.00  0.00     0.002 C 
HETATM   38  C17 UNL     1       0.206 -21.805  16.653  1.00  0.00     0.005 C 
ENDBRANCH  35  37
ENDBRANCH  10  35
TORSDOF 10
ENDMDL
MODEL 5
REMARK VINA RESULT: -5.755698188      1.696      1.940
REMARK  10 active torsions:
REMARK  status: ('A' for Active; 'I' for Inactive)
REMARK    1  A    between atoms: C2_2  and  C3_3 
REMARK    2  A    between atoms: C3_3  and  C4_4 
REMARK    3  A    between atoms: C4_4  and  C5_5 
REMARK    4  A    between atoms: C5_5  and  C6_6 
REMARK    5  A    between atoms: C8_10  and  C9_11 
REMARK    6  A    between atoms: C13_18  and  C14_19 
REMARK    7  A    between atoms: C14_19  and  C16_21 
REMARK    8  A    between atoms: C19_27  and  C20_28 
REMARK    9  A    between atoms: C20_28  and  C21_29 
REMARK   10  A    between atoms: C21_29  and  O5_31 
ROOT
HETATM    1  C6  UNL     1      -0.248 -20.706  11.347  1.00  0.00     0.224 C 
HETATM    2  O1  UNL     1       0.285 -21.878  11.838  1.00  0.00    -0.305 OA
HETATM    3  C7  UNL     1       0.734 -22.446  12.966  1.00  0.00     0.283 C 
HETATM    4  O2  UNL     1       0.830 -22.001  14.146  1.00  0.00    -0.263 OA
HETATM    5  C8  UNL     1       1.250 -23.885  12.975  1.00  0.00     0.187 C 
HETATM    6  N1  UNL     1       0.389 -24.799  13.637  1.00  0.00    -0.345 N 
ATOM      7  H1  UNL     1       0.744 -25.175  14.517  1.00  0.00     0.163 HD
HETATM    8  C12 UNL     1      -0.887 -25.263  13.252  1.00  0.00     0.241 C 
HETATM    9  O3  UNL     1      -1.672 -25.664  14.155  1.00  0.00    -0.271 OA
HETATM   10  C13 UNL     1      -1.403 -25.323  11.865  1.00  0.00     0.180 C 
HETATM   11  N2  UNL     1      -2.867 -25.134  11.827  1.00  0.00    -0.347 N 
ATOM     12  H2  UNL     1      -3.407 -25.752  12.433  1.00  0.00     0.163 HD
HETATM   13  C18 UNL     1      -3.612 -24.226  11.077  1.00  0.00     0.231 C 
HETATM   14  O4  UNL     1      -4.428 -24.702  10.185  1.00  0.00    -0.273 OA
HETATM   15  C19 UNL     1      -3.634 -22.744  11.121  1.00  0.00     0.172 C 
HETATM   16  C23 UNL     1      -3.220 -22.173  12.442  1.00  0.00     0.237 C 
HETATM   17  O6  UNL     1      -3.532 -22.848  13.456  1.00  0.00    -0.272 OA
HETATM   18  N3  UNL     1      -2.522 -20.961  12.656  1.00  0.00    -0.295 N 
ATOM     19  H3  UNL     1      -2.758 -20.489  13.528  1.00  0.00     0.171 HD
HETATM   20  C24 UNL     1      -1.561 -20.296  11.878  1.00  0.00     0.254 C 
HETATM   21  O7  UNL     1      -1.795 -19.117  11.530  1.00  0.00    -0.270 OA
ENDROOT
BRANCH   1  22
HETATM   22  C5  UNL     1       0.749 -19.558  11.294  1.00  0.00     0.043 C 
BRANCH  22  23
HETATM   23  C4  UNL     1       1.988 -20.041  10.636  1.00  0.00     0.007 C 
BRANCH  23  24
HETATM   24  C3  UNL     1       3.201 -19.608  11.383  1.00  0.00     0.026 C 
BRANCH  24  25
HETATM   25  C2  UNL     1       4.480 -20.163  10.925  1.00  0.00    -0.037 C 
HETATM   26  C1  UNL     1       5.625 -20.194  11.584  1.00  0.00     0.007 C 
ENDBRANCH  24  25
ENDBRANCH  23  24
ENDBRANCH  22  23
ENDBRANCH   1  22
BRANCH   5  27
HETATM   27  C9  UNL     1       2.622 -23.823  13.602  1.00  0.00     0.010 C 
HETATM   28  C10 UNL     1       3.026 -25.118  14.252  1.00  0.00     0.012 C 
HETATM   29  C11 UNL     1       3.704 -23.302  12.727  1.00  0.00     0.012 C 
ENDBRANCH   5  27
BRANCH  15  30
HETATM   30  C20 UNL     1      -4.881 -22.092  10.673  1.00  0.00     0.055 C 
BRANCH  30  31
HETATM   31  C21 UNL     1      -4.856 -21.023   9.677  1.00  0.00     0.115 C 
HETATM   32  C22 UNL     1      -6.324 -20.590   9.457  1.00  0.00     0.039 C 
BRANCH  31  33
HETATM   33  O5  UNL     1      -4.172 -19.875   9.935  1.00  0.00    -0.396 OA
ATOM     34  H5  UNL     1      -3.681 -19.791  10.744  1.00  0.00     0.210 HD
ENDBRANCH  31  33
ENDBRANCH  30  31
ENDBRANCH  15  30
BRANCH  10  35
HETATM   35  C14 UNL     1      -0.966 -26.511  11.114  1.00  0.00     0.013 C 
HETATM   36  C15 UNL     1      -1.094 -26.146   9.606  1.00  0.00     0.012 C 
BRANCH  35  37
HETATM   37  C16 UNL     1      -1.597 -27.821  11.339  1.00  0.00     0.002 C 
HETATM   38  C17 UNL     1      -0.899 -28.854  12.127  1.00  0.00     0.005 C 
ENDBRANCH  35  37
ENDBRANCH  10  35
TORSDOF 10
ENDMDL
