MODEL 1
REMARK VINA RESULT: -4.500449012      0.000      0.000
REMARK  2 active torsions:
REMARK  status: ('A' for Active; 'I' for Inactive)
REMARK    1  A    between atoms: N1_1  and  C1_5 
REMARK    2  A    between atoms: C9_13  and  N2_14 
ROOT
HETATM    1  C1  UNL     1     -33.619   0.783 -39.153  1.00  0.00     0.126 C 
HETATM    2  C2  UNL     1     -32.861   0.189 -38.001  1.00  0.00     0.039 C 
HETATM    3  C3  UNL     1     -32.070   1.150 -37.207  1.00  0.00     0.007 C 
HETATM    4  C4  UNL     1     -31.364   2.212 -37.971  1.00  0.00    -0.012 C 
HETATM    5  C5  UNL     1     -30.840   1.802 -39.306  1.00  0.00     0.009 C 
HETATM    6  C6  UNL     1     -31.808   1.891 -40.427  1.00  0.00    -0.009 C 
HETATM    7  C7  UNL     1     -32.743   0.711 -40.372  1.00  0.00     0.043 C 
HETATM    8  C8  UNL     1     -32.618   3.147 -40.462  1.00  0.00     0.043 C 
HETATM    9  C9  UNL     1     -33.310   3.280 -39.120  1.00  0.00     0.126 C 
HETATM   10  C10 UNL     1     -32.206   3.445 -38.086  1.00  0.00     0.043 C 
HETATM   11  C11 UNL     1     -34.184   2.111 -38.856  1.00  0.00     0.077 C 
ENDROOT
BRANCH   1  12
HETATM   12  N1  UNL     1     -34.748  -0.128 -39.416  1.00  0.00    -0.070 N 
ATOM     13  H13 UNL     1     -34.500  -1.114 -39.336  1.00  0.00     0.275 HD
ATOM     14  H12 UNL     1     -35.457  -0.118 -38.683  1.00  0.00     0.275 HD
ATOM     15  H11 UNL     1     -35.110   0.126 -40.335  1.00  0.00     0.275 HD
ENDBRANCH   1  12
BRANCH   9  16
HETATM   16  N2  UNL     1     -34.042   4.516 -39.132  1.00  0.00    -0.070 N 
ATOM     17  H23 UNL     1     -33.528   5.287 -38.705  1.00  0.00     0.275 HD
ATOM     18  H22 UNL     1     -34.130   4.917 -40.067  1.00  0.00     0.275 HD
ATOM     19  H21 UNL     1     -34.943   4.343 -38.686  1.00  0.00     0.275 HD
ENDBRANCH   9  16
TORSDOF 2
ENDMDL
MODEL 2
REMARK VINA RESULT: -4.485686743      1.514      3.046
REMARK  2 active torsions:
REMARK  status: ('A' for Active; 'I' for Inactive)
REMARK    1  A    between atoms: N1_1  and  C1_5 
REMARK    2  A    between atoms: C9_13  and  N2_14 
ROOT
HETATM    1  C1  UNL     1     -31.357   1.792 -38.295  1.00  0.00     0.126 C 
HETATM    2  C2  UNL     1     -31.536   3.226 -37.887  1.00  0.00     0.039 C 
HETATM    3  C3  UNL     1     -32.904   3.757 -38.044  1.00  0.00     0.007 C 
HETATM    4  C4  UNL     1     -33.641   3.332 -39.263  1.00  0.00    -0.012 C 
HETATM    5  C5  UNL     1     -32.808   3.158 -40.488  1.00  0.00     0.009 C 
HETATM    6  C6  UNL     1     -32.158   1.833 -40.637  1.00  0.00    -0.009 C 
HETATM    7  C7  UNL     1     -30.948   1.768 -39.741  1.00  0.00     0.043 C 
HETATM    8  C8  UNL     1     -33.040   0.661 -40.343  1.00  0.00     0.043 C 
HETATM    9  C9  UNL     1     -33.598   0.852 -38.946  1.00  0.00     0.126 C 
HETATM   10  C10 UNL     1     -34.459   2.106 -38.999  1.00  0.00     0.043 C 
HETATM   11  C11 UNL     1     -32.506   0.938 -37.946  1.00  0.00     0.077 C 
ENDROOT
BRANCH   1  12
HETATM   12  N1  UNL     1     -30.192   1.293 -37.541  1.00  0.00    -0.070 N 
ATOM     13  H13 UNL     1     -29.301   1.639 -37.896  1.00  0.00     0.275 HD
ATOM     14  H12 UNL     1     -30.115   1.688 -36.604  1.00  0.00     0.275 HD
ATOM     15  H11 UNL     1     -30.264   0.275 -37.548  1.00  0.00     0.275 HD
ENDBRANCH   1  12
BRANCH   9  16
HETATM   16  N2  UNL     1     -34.491  -0.242 -38.685  1.00  0.00    -0.070 N 
ATOM     17  H23 UNL     1     -35.085  -0.470 -39.483  1.00  0.00     0.275 HD
ATOM     18  H22 UNL     1     -34.011  -1.140 -38.616  1.00  0.00     0.275 HD
ATOM     19  H21 UNL     1     -35.024  -0.009 -37.847  1.00  0.00     0.275 HD
ENDBRANCH   9  16
TORSDOF 2
ENDMDL
MODEL 3
REMARK VINA RESULT: -4.216992336      1.602      3.590
REMARK  2 active torsions:
REMARK  status: ('A' for Active; 'I' for Inactive)
REMARK    1  A    between atoms: N1_1  and  C1_5 
REMARK    2  A    between atoms: C9_13  and  N2_14 
ROOT
HETATM    1  C1  UNL     1     -31.961   3.159 -37.886  1.00  0.00     0.126 C 
HETATM    2  C2  UNL     1     -33.155   3.633 -38.664  1.00  0.00     0.039 C 
HETATM    3  C3  UNL     1     -34.027   2.563 -39.187  1.00  0.00     0.007 C 
HETATM    4  C4  UNL     1     -33.344   1.354 -39.717  1.00  0.00    -0.012 C 
HETATM    5  C5  UNL     1     -32.044   1.603 -40.406  1.00  0.00     0.009 C 
HETATM    6  C6  UNL     1     -30.854   1.668 -39.522  1.00  0.00    -0.009 C 
HETATM    7  C7  UNL     1     -30.811   3.011 -38.843  1.00  0.00     0.043 C 
HETATM    8  C8  UNL     1     -30.783   0.597 -38.480  1.00  0.00     0.043 C 
HETATM    9  C9  UNL     1     -32.071   0.654 -37.682  1.00  0.00     0.126 C 
HETATM   10  C10 UNL     1     -33.190   0.311 -38.654  1.00  0.00     0.043 C 
HETATM   11  C11 UNL     1     -32.241   1.983 -37.045  1.00  0.00     0.077 C 
ENDROOT
BRANCH   1  12
HETATM   12  N1  UNL     1     -31.592   4.268 -36.985  1.00  0.00    -0.070 N 
ATOM     13  H13 UNL     1     -32.149   5.110 -37.129  1.00  0.00     0.275 HD
ATOM     14  H12 UNL     1     -31.858   4.106 -36.013  1.00  0.00     0.275 HD
ATOM     15  H11 UNL     1     -30.591   4.416 -37.113  1.00  0.00     0.275 HD
ENDBRANCH   1  12
BRANCH   9  16
HETATM   16  N2  UNL     1     -32.029  -0.411 -36.720  1.00  0.00    -0.070 N 
ATOM     17  H23 UNL     1     -32.944  -0.622 -36.320  1.00  0.00     0.275 HD
ATOM     18  H22 UNL     1     -31.855  -1.323 -37.143  1.00  0.00     0.275 HD
ATOM     19  H21 UNL     1     -31.335  -0.160 -36.015  1.00  0.00     0.275 HD
ENDBRANCH   9  16
TORSDOF 2
ENDMDL
MODEL 4
REMARK VINA RESULT: -4.159097768      1.452      2.481
REMARK  2 active torsions:
REMARK  status: ('A' for Active; 'I' for Inactive)
REMARK    1  A    between atoms: N1_1  and  C1_5 
REMARK    2  A    between atoms: C9_13  and  N2_14 
ROOT
HETATM    1  C1  UNL     1     -33.905   2.917 -39.837  1.00  0.00     0.126 C 
HETATM    2  C2  UNL     1     -34.756   1.680 -39.833  1.00  0.00     0.039 C 
HETATM    3  C3  UNL     1     -34.372   0.658 -38.839  1.00  0.00     0.007 C 
HETATM    4  C4  UNL     1     -32.915   0.445 -38.641  1.00  0.00    -0.012 C 
HETATM    5  C5  UNL     1     -32.074   0.588 -39.865  1.00  0.00     0.009 C 
HETATM    6  C6  UNL     1     -31.645   1.971 -40.188  1.00  0.00    -0.009 C 
HETATM    7  C7  UNL     1     -32.791   2.712 -40.825  1.00  0.00     0.043 C 
HETATM    8  C8  UNL     1     -31.145   2.764 -39.023  1.00  0.00     0.043 C 
HETATM    9  C9  UNL     1     -32.231   2.753 -37.966  1.00  0.00     0.126 C 
HETATM   10  C10 UNL     1     -32.389   1.303 -37.532  1.00  0.00     0.043 C 
HETATM   11  C11 UNL     1     -33.487   3.343 -38.490  1.00  0.00     0.077 C 
ENDROOT
BRANCH   1  12
HETATM   12  N1  UNL     1     -34.745   3.992 -40.398  1.00  0.00    -0.070 N 
ATOM     13  H13 UNL     1     -34.963   4.729 -39.728  1.00  0.00     0.275 HD
ATOM     14  H12 UNL     1     -34.256   4.578 -41.075  1.00  0.00     0.275 HD
ATOM     15  H11 UNL     1     -35.573   3.535 -40.781  1.00  0.00     0.275 HD
ENDBRANCH   1  12
BRANCH   9  16
HETATM   16  N2  UNL     1     -31.729   3.465 -36.824  1.00  0.00    -0.070 N 
ATOM     17  H23 UNL     1     -31.435   2.847 -36.068  1.00  0.00     0.275 HD
ATOM     18  H22 UNL     1     -30.825   3.905 -36.996  1.00  0.00     0.275 HD
ATOM     19  H21 UNL     1     -32.448   4.130 -36.537  1.00  0.00     0.275 HD
ENDBRANCH   9  16
TORSDOF 2
ENDMDL
MODEL 5
REMARK VINA RESULT: -4.152404097      2.574      4.292
REMARK  2 active torsions:
REMARK  status: ('A' for Active; 'I' for Inactive)
REMARK    1  A    between atoms: N1_1  and  C1_5 
REMARK    2  A    between atoms: C9_13  and  N2_14 
ROOT
HETATM    1  C1  UNL     1     -35.480  -0.395 -38.991  1.00  0.00     0.126 C 
HETATM    2  C2  UNL     1     -35.649  -1.002 -40.353  1.00  0.00     0.039 C 
HETATM    3  C3  UNL     1     -34.624  -1.996 -40.728  1.00  0.00     0.007 C 
HETATM    4  C4  UNL     1     -33.228  -1.690 -40.323  1.00  0.00    -0.012 C 
HETATM    5  C5  UNL     1     -32.853  -0.247 -40.354  1.00  0.00     0.009 C 
HETATM    6  C6  UNL     1     -33.187   0.527 -39.133  1.00  0.00    -0.009 C 
HETATM    7  C7  UNL     1     -34.657   0.855 -39.138  1.00  0.00     0.043 C 
HETATM    8  C8  UNL     1     -32.848  -0.151 -37.844  1.00  0.00     0.043 C 
HETATM    9  C9  UNL     1     -33.532  -1.503 -37.848  1.00  0.00     0.126 C 
HETATM   10  C10 UNL     1     -32.909  -2.293 -38.989  1.00  0.00     0.043 C 
HETATM   11  C11 UNL     1     -35.002  -1.353 -37.979  1.00  0.00     0.077 C 
ENDROOT
BRANCH   1  12
HETATM   12  N1  UNL     1     -36.821   0.056 -38.573  1.00  0.00    -0.070 N 
ATOM     13  H13 UNL     1     -37.212   0.780 -39.175  1.00  0.00     0.275 HD
ATOM     14  H12 UNL     1     -37.549  -0.642 -38.726  1.00  0.00     0.275 HD
ATOM     15  H11 UNL     1     -36.733   0.344 -37.598  1.00  0.00     0.275 HD
ENDBRANCH   1  12
BRANCH   9  16
HETATM   16  N2  UNL     1     -33.159  -2.179 -36.637  1.00  0.00    -0.070 N 
ATOM     17  H23 UNL     1     -32.155  -2.154 -36.460  1.00  0.00     0.275 HD
ATOM     18  H22 UNL     1     -33.455  -1.681 -35.796  1.00  0.00     0.275 HD
ATOM     19  H21 UNL     1     -33.530  -3.128 -36.689  1.00  0.00     0.275 HD
ENDBRANCH   9  16
TORSDOF 2
ENDMDL
