MODEL 1
REMARK VINA RESULT: -3.813960460      0.000      0.000
REMARK  2 active torsions:
REMARK  status: ('A' for Active; 'I' for Inactive)
REMARK    1  A    between atoms: N2_4  and  N3_6 
REMARK    2  A    between atoms: N3_6  and  C1_8 
ROOT
HETATM    1  N3  UNL     1       9.053  61.141  45.005  1.00  0.00    -0.290 N 
ATOM      2  H3  UNL     1       9.411  61.323  45.942  1.00  0.00     0.184 HD
ENDROOT
BRANCH   1   3
HETATM    3  N2  UNL     1       9.878  61.296  43.897  1.00  0.00    -0.252 N 
HETATM    4  N1  UNL     1      10.291  60.282  43.258  1.00  0.00    -0.331 N 
ATOM      5  H12 UNL     1      10.008  59.354  43.573  1.00  0.00     0.178 HD
ATOM      6  H11 UNL     1      10.896  60.395  42.445  1.00  0.00     0.178 HD
ATOM      7  H2  UNL     1      10.152  62.232  43.595  1.00  0.00     0.207 HD
ENDBRANCH   1   3
BRANCH   1   8
HETATM    8  C1  UNL     1       7.667  60.715  44.814  1.00  0.00     0.325 A 
HETATM    9  C2  UNL     1       7.448  59.255  44.878  1.00  0.00     0.290 A 
HETATM   10  N4  UNL     1       7.305  59.989  43.639  1.00  0.00    -0.048 N 
ATOM     11  H42 UNL     1       6.555  60.081  42.954  1.00  0.00     0.279 HD
ATOM     12  H41 UNL     1       7.714  59.895  42.709  1.00  0.00     0.279 HD
ENDBRANCH   1   8
TORSDOF 2
ENDMDL
MODEL 2
REMARK VINA RESULT: -3.711334655      1.164      1.551
REMARK  2 active torsions:
REMARK  status: ('A' for Active; 'I' for Inactive)
REMARK    1  A    between atoms: N2_4  and  N3_6 
REMARK    2  A    between atoms: N3_6  and  C1_8 
ROOT
HETATM    1  N3  UNL     1       9.021  59.365  43.758  1.00  0.00    -0.290 N 
ATOM      2  H3  UNL     1       9.078  58.347  43.759  1.00  0.00     0.184 HD
ENDROOT
BRANCH   1   3
HETATM    3  N2  UNL     1      10.111  60.129  43.359  1.00  0.00    -0.252 N 
HETATM    4  N1  UNL     1      10.159  61.367  43.626  1.00  0.00    -0.331 N 
ATOM      5  H12 UNL     1       9.385  61.790  44.137  1.00  0.00     0.178 HD
ATOM      6  H11 UNL     1      10.960  61.928  43.333  1.00  0.00     0.178 HD
ATOM      7  H2  UNL     1      10.878  59.690  42.847  1.00  0.00     0.207 HD
ENDBRANCH   1   3
BRANCH   1   8
HETATM    8  C1  UNL     1       7.790  60.036  44.176  1.00  0.00     0.325 A 
HETATM    9  C2  UNL     1       7.875  60.750  45.467  1.00  0.00     0.290 A 
HETATM   10  N4  UNL     1       7.072  59.556  45.313  1.00  0.00    -0.048 N 
ATOM     11  H42 UNL     1       6.092  59.334  45.489  1.00  0.00     0.279 HD
ATOM     12  H41 UNL     1       7.035  58.661  45.801  1.00  0.00     0.279 HD
ENDBRANCH   1   8
TORSDOF 2
ENDMDL
MODEL 3
REMARK VINA RESULT: -3.225420945      1.228      1.626
REMARK  2 active torsions:
REMARK  status: ('A' for Active; 'I' for Inactive)
REMARK    1  A    between atoms: N2_4  and  N3_6 
REMARK    2  A    between atoms: N3_6  and  C1_8 
ROOT
HETATM    1  N3  UNL     1       9.369  59.504  43.298  1.00  0.00    -0.290 N 
ATOM      2  H3  UNL     1       9.492  59.093  42.373  1.00  0.00     0.184 HD
ENDROOT
BRANCH   1   3
HETATM    3  N2  UNL     1      10.304  60.403  43.797  1.00  0.00    -0.252 N 
HETATM    4  N1  UNL     1      10.100  61.652  43.719  1.00  0.00    -0.331 N 
ATOM      5  H12 UNL     1       9.238  61.982  43.284  1.00  0.00     0.178 HD
ATOM      6  H11 UNL     1      10.786  62.311  44.085  1.00  0.00     0.178 HD
ATOM      7  H2  UNL     1      11.161  60.056  44.229  1.00  0.00     0.207 HD
ENDBRANCH   1   3
BRANCH   1   8
HETATM    8  C1  UNL     1       8.206  59.154  44.113  1.00  0.00     0.325 A 
HETATM    9  C2  UNL     1       6.955  59.852  43.750  1.00  0.00     0.290 A 
HETATM   10  N4  UNL     1       7.640  60.124  44.995  1.00  0.00    -0.048 N 
ATOM     11  H42 UNL     1       7.358  60.110  45.975  1.00  0.00     0.279 HD
ATOM     12  H41 UNL     1       7.995  60.972  45.436  1.00  0.00     0.279 HD
ENDBRANCH   1   8
TORSDOF 2
ENDMDL
MODEL 4
REMARK VINA RESULT: -2.979466383      1.148      1.746
REMARK  2 active torsions:
REMARK  status: ('A' for Active; 'I' for Inactive)
REMARK    1  A    between atoms: N2_4  and  N3_6 
REMARK    2  A    between atoms: N3_6  and  C1_8 
ROOT
HETATM    1  N3  UNL     1       9.589  60.157  43.692  1.00  0.00    -0.290 N 
ATOM      2  H3  UNL     1      10.380  59.819  43.143  1.00  0.00     0.184 HD
ENDROOT
BRANCH   1   3
HETATM    3  N2  UNL     1       9.602  61.441  44.225  1.00  0.00    -0.252 N 
HETATM    4  N1  UNL     1       9.229  61.643  45.420  1.00  0.00    -0.331 N 
ATOM      5  H12 UNL     1       8.920  60.849  45.979  1.00  0.00     0.178 HD
ATOM      6  H11 UNL     1       9.239  62.585  45.811  1.00  0.00     0.178 HD
ATOM      7  H2  UNL     1       9.914  62.225  43.651  1.00  0.00     0.207 HD
ENDBRANCH   1   3
BRANCH   1   8
HETATM    8  C1  UNL     1       8.431  59.296  43.925  1.00  0.00     0.325 A 
HETATM    9  C2  UNL     1       7.169  59.768  43.318  1.00  0.00     0.290 A 
HETATM   10  N4  UNL     1       7.361  59.755  44.753  1.00  0.00    -0.048 N 
ATOM     11  H42 UNL     1       6.845  59.348  45.532  1.00  0.00     0.279 HD
ATOM     12  H41 UNL     1       7.284  60.463  45.483  1.00  0.00     0.279 HD
ENDBRANCH   1   8
TORSDOF 2
ENDMDL
MODEL 5
REMARK VINA RESULT: -2.424011005      1.303      1.533
REMARK  2 active torsions:
REMARK  status: ('A' for Active; 'I' for Inactive)
REMARK    1  A    between atoms: N2_4  and  N3_6 
REMARK    2  A    between atoms: N3_6  and  C1_8 
ROOT
HETATM    1  N3  UNL     1       9.646  61.316  44.154  1.00  0.00    -0.290 N 
ATOM      2  H3  UNL     1      10.254  62.133  44.201  1.00  0.00     0.184 HD
ENDROOT
BRANCH   1   3
HETATM    3  N2  UNL     1      10.041  60.187  43.446  1.00  0.00    -0.252 N 
HETATM    4  N1  UNL     1       9.188  59.497  42.810  1.00  0.00    -0.331 N 
ATOM      5  H12 UNL     1       8.210  59.787  42.828  1.00  0.00     0.178 HD
ATOM      6  H11 UNL     1       9.478  58.669  42.291  1.00  0.00     0.178 HD
ATOM      7  H2  UNL     1      11.024  59.911  43.439  1.00  0.00     0.207 HD
ENDBRANCH   1   3
BRANCH   1   8
HETATM    8  C1  UNL     1       8.350  61.321  44.831  1.00  0.00     0.325 A 
HETATM    9  C2  UNL     1       8.392  60.963  46.264  1.00  0.00     0.290 A 
HETATM   10  N4  UNL     1       7.782  60.091  45.284  1.00  0.00    -0.048 N 
ATOM     11  H42 UNL     1       6.861  59.662  45.195  1.00  0.00     0.279 HD
ATOM     12  H41 UNL     1       7.915  59.113  45.027  1.00  0.00     0.279 HD
ENDBRANCH   1   8
TORSDOF 2
ENDMDL
