MODEL 1
REMARK VINA RESULT: -6.850490578      0.000      0.000
REMARK  5 active torsions:
REMARK  status: ('A' for Active; 'I' for Inactive)
REMARK       I    between atoms: C2_4  and  N2_5 
REMARK       I    between atoms: C2_4  and  N6_17 
REMARK       I    between atoms: C3_7  and  N4_9 
REMARK    1  A    between atoms: N4_9  and  C4_11 
REMARK    2  A    between atoms: C4_11  and  C5_12 
REMARK    3  A    between atoms: C5_12  and  C6_13 
REMARK    4  A    between atoms: C6_13  and  N5_14 
REMARK    5  A    between atoms: N6_17  and  C9_19 
ROOT
HETATM    1  C1  UNL     1       0.451  40.789 -15.344  1.00  0.00     0.165 C 
HETATM    2  N1  UNL     1       0.409  39.514 -14.686  1.00  0.00    -0.231 N 
ATOM      3  H1  UNL     1       0.120  38.717 -15.252  1.00  0.00     0.177 HD
HETATM    4  C2  UNL     1       0.697  39.276 -13.466  1.00  0.00     0.676 C 
HETATM    5  N2  UNL     1       1.100  40.350 -12.651  1.00  0.00    -0.164 N 
ATOM      6  H2  UNL     1       2.101  40.518 -12.544  1.00  0.00     0.187 HD
HETATM    7  C3  UNL     1       0.283  41.142 -12.025  1.00  0.00     0.202 C 
HETATM    8  N3  UNL     1      -1.110  40.924 -12.156  1.00  0.00    -0.063 NA
HETATM    9  N4  UNL     1       0.770  42.193 -11.245  1.00  0.00    -0.364 N 
ATOM     10  H4  UNL     1       1.721  42.102 -10.887  1.00  0.00     0.162 HD
HETATM   11  N6  UNL     1       0.628  37.970 -12.930  1.00  0.00    -0.222 N 
ATOM     12  H6  UNL     1       1.011  37.779 -12.004  1.00  0.00     0.178 HD
ENDROOT
BRANCH  11  13
HETATM   13  C9  UNL     1       0.012  36.897 -13.698  1.00  0.00     0.099 C 
HETATM   14  C10 UNL     1       1.087  36.071 -14.332  1.00  0.00     0.026 C 
HETATM   15  C11 UNL     1       0.527  34.824 -14.987  1.00  0.00     0.002 C 
HETATM   16  C12 UNL     1      -0.131  33.950 -13.967  1.00  0.00     0.000 C 
HETATM   17  C13 UNL     1      -0.711  34.646 -12.791  1.00  0.00     0.002 C 
HETATM   18  C14 UNL     1      -0.979  36.096 -12.924  1.00  0.00     0.026 C 
ENDBRANCH  11  13
BRANCH   9  19
HETATM   19  C4  UNL     1       0.051  43.398 -10.899  1.00  0.00     0.127 C 
BRANCH  19  20
HETATM   20  C5  UNL     1       0.384  44.570 -11.728  1.00  0.00     0.064 C 
BRANCH  20  21
HETATM   21  C6  UNL     1       0.188  45.888 -11.058  1.00  0.00     0.058 C 
BRANCH  21  22
HETATM   22  N5  UNL     1       1.271  46.740 -11.015  1.00  0.00    -0.402 N 
HETATM   23  C7  UNL     1       1.863  47.247  -9.877  1.00  0.00     0.148 C 
HETATM   24  C8  UNL     1       1.873  47.093 -12.273  1.00  0.00     0.148 C 
ENDBRANCH  21  22
ENDBRANCH  20  21
ENDBRANCH  19  20
ENDBRANCH   9  19
TORSDOF 5
ENDMDL
MODEL 2
REMARK VINA RESULT: -6.711302728      3.242      9.841
REMARK  5 active torsions:
REMARK  status: ('A' for Active; 'I' for Inactive)
REMARK       I    between atoms: C2_4  and  N2_5 
REMARK       I    between atoms: C2_4  and  N6_17 
REMARK       I    between atoms: C3_7  and  N4_9 
REMARK    1  A    between atoms: N4_9  and  C4_11 
REMARK    2  A    between atoms: C4_11  and  C5_12 
REMARK    3  A    between atoms: C5_12  and  C6_13 
REMARK    4  A    between atoms: C6_13  and  N5_14 
REMARK    5  A    between atoms: N6_17  and  C9_19 
ROOT
HETATM    1  C1  UNL     1      -0.962  35.995 -12.650  1.00  0.00     0.165 C 
HETATM    2  N1  UNL     1      -0.299  37.246 -12.890  1.00  0.00    -0.231 N 
ATOM      3  H1  UNL     1      -0.797  38.089 -12.605  1.00  0.00     0.177 HD
HETATM    4  C2  UNL     1       0.848  37.411 -13.423  1.00  0.00     0.676 C 
HETATM    5  N2  UNL     1       1.567  36.272 -13.832  1.00  0.00    -0.164 N 
ATOM      6  H2  UNL     1       2.253  35.885 -13.184  1.00  0.00     0.187 HD
HETATM    7  C3  UNL     1       1.416  35.681 -14.978  1.00  0.00     0.202 C 
HETATM    8  N3  UNL     1       0.471  36.206 -15.893  1.00  0.00    -0.063 NA
HETATM    9  N4  UNL     1       2.164  34.547 -15.297  1.00  0.00    -0.364 N 
ATOM     10  H4  UNL     1       3.049  34.422 -14.804  1.00  0.00     0.162 HD
HETATM   11  N6  UNL     1       1.404  38.698 -13.599  1.00  0.00    -0.222 N 
ATOM     12  H6  UNL     1       2.380  38.797 -13.880  1.00  0.00     0.178 HD
ENDROOT
BRANCH  11  13
HETATM   13  C9  UNL     1       0.587  39.884 -13.381  1.00  0.00     0.099 C 
HETATM   14  C10 UNL     1       1.420  40.935 -12.716  1.00  0.00     0.026 C 
HETATM   15  C11 UNL     1       0.692  42.261 -12.632  1.00  0.00     0.002 C 
HETATM   16  C12 UNL     1       0.381  42.772 -14.004  1.00  0.00     0.000 C 
HETATM   17  C13 UNL     1       0.185  41.742 -15.053  1.00  0.00     0.002 C 
HETATM   18  C14 UNL     1      -0.117  40.363 -14.604  1.00  0.00     0.026 C 
ENDBRANCH  11  13
BRANCH   9  19
HETATM   19  C4  UNL     1       1.801  33.532 -16.260  1.00  0.00     0.127 C 
BRANCH  19  20
HETATM   20  C5  UNL     1       1.081  32.379 -15.692  1.00  0.00     0.064 C 
BRANCH  20  21
HETATM   21  C6  UNL     1       1.574  31.046 -16.146  1.00  0.00     0.058 C 
BRANCH  21  22
HETATM   22  N5  UNL     1       2.252  30.277 -15.223  1.00  0.00    -0.402 N 
HETATM   23  C7  UNL     1       3.508  29.731 -15.385  1.00  0.00     0.148 C 
HETATM   24  C8  UNL     1       1.611  30.068 -13.953  1.00  0.00     0.148 C 
ENDBRANCH  21  22
ENDBRANCH  20  21
ENDBRANCH  19  20
ENDBRANCH   9  19
TORSDOF 5
ENDMDL
MODEL 3
REMARK VINA RESULT: -6.669053846      3.488      5.939
REMARK  5 active torsions:
REMARK  status: ('A' for Active; 'I' for Inactive)
REMARK       I    between atoms: C2_4  and  N2_5 
REMARK       I    between atoms: C2_4  and  N6_17 
REMARK       I    between atoms: C3_7  and  N4_9 
REMARK    1  A    between atoms: N4_9  and  C4_11 
REMARK    2  A    between atoms: C4_11  and  C5_12 
REMARK    3  A    between atoms: C5_12  and  C6_13 
REMARK    4  A    between atoms: C6_13  and  N5_14 
REMARK    5  A    between atoms: N6_17  and  C9_19 
ROOT
HETATM    1  C1  UNL     1       0.861  36.432 -17.489  1.00  0.00     0.165 C 
HETATM    2  N1  UNL     1       1.303  35.123 -17.100  1.00  0.00    -0.231 N 
ATOM      3  H1  UNL     1       1.340  34.416 -17.834  1.00  0.00     0.177 HD
HETATM    4  C2  UNL     1       1.656  34.755 -15.930  1.00  0.00     0.676 C 
HETATM    5  N2  UNL     1       1.619  35.701 -14.890  1.00  0.00    -0.164 N 
ATOM      6  H2  UNL     1       2.481  36.200 -14.669  1.00  0.00     0.187 HD
HETATM    7  C3  UNL     1       0.560  35.982 -14.191  1.00  0.00     0.202 C 
HETATM    8  N3  UNL     1      -0.646  35.298 -14.480  1.00  0.00    -0.063 NA
HETATM    9  N4  UNL     1       0.610  36.946 -13.183  1.00  0.00    -0.364 N 
ATOM     10  H4  UNL     1       1.523  37.139 -12.771  1.00  0.00     0.162 HD
HETATM   11  N6  UNL     1       2.085  33.434 -15.669  1.00  0.00    -0.222 N 
ATOM     12  H6  UNL     1       2.508  33.205 -14.770  1.00  0.00     0.178 HD
ENDROOT
BRANCH  11  13
HETATM   13  C9  UNL     1       1.924  32.399 -16.681  1.00  0.00     0.099 C 
HETATM   14  C10 UNL     1       3.218  32.227 -17.414  1.00  0.00     0.026 C 
HETATM   15  C11 UNL     1       3.182  31.035 -18.349  1.00  0.00     0.002 C 
HETATM   16  C12 UNL     1       2.962  29.773 -17.577  1.00  0.00     0.000 C 
HETATM   17  C13 UNL     1       2.191  29.907 -16.316  1.00  0.00     0.002 C 
HETATM   18  C14 UNL     1       1.361  31.124 -16.153  1.00  0.00     0.026 C 
ENDBRANCH  11  13
BRANCH   9  19
HETATM   19  C4  UNL     1      -0.513  37.696 -12.668  1.00  0.00     0.127 C 
BRANCH  19  20
HETATM   20  C5  UNL     1      -0.808  38.938 -13.404  1.00  0.00     0.064 C 
BRANCH  20  21
HETATM   21  C6  UNL     1       0.384  39.622 -13.983  1.00  0.00     0.058 C 
BRANCH  21  22
HETATM   22  N5  UNL     1       1.093  40.464 -13.152  1.00  0.00    -0.402 N 
HETATM   23  C7  UNL     1       0.561  41.441 -12.336  1.00  0.00     0.148 C 
HETATM   24  C8  UNL     1       2.517  40.271 -13.091  1.00  0.00     0.148 C 
ENDBRANCH  21  22
ENDBRANCH  20  21
ENDBRANCH  19  20
ENDBRANCH   9  19
TORSDOF 5
ENDMDL
MODEL 4
REMARK VINA RESULT: -6.602056237      3.787      6.674
REMARK  5 active torsions:
REMARK  status: ('A' for Active; 'I' for Inactive)
REMARK       I    between atoms: C2_4  and  N2_5 
REMARK       I    between atoms: C2_4  and  N6_17 
REMARK       I    between atoms: C3_7  and  N4_9 
REMARK    1  A    between atoms: N4_9  and  C4_11 
REMARK    2  A    between atoms: C4_11  and  C5_12 
REMARK    3  A    between atoms: C5_12  and  C6_13 
REMARK    4  A    between atoms: C6_13  and  N5_14 
REMARK    5  A    between atoms: N6_17  and  C9_19 
ROOT
HETATM    1  C1  UNL     1      -0.277  34.033 -13.379  1.00  0.00     0.165 C 
HETATM    2  N1  UNL     1       0.379  33.299 -14.424  1.00  0.00    -0.231 N 
ATOM      3  H1  UNL     1       0.423  32.286 -14.314  1.00  0.00     0.177 HD
HETATM    4  C2  UNL     1       0.912  33.783 -15.477  1.00  0.00     0.676 C 
HETATM    5  N2  UNL     1       0.874  35.177 -15.667  1.00  0.00    -0.164 N 
ATOM      6  H2  UNL     1       0.117  35.560 -16.234  1.00  0.00     0.187 HD
HETATM    7  C3  UNL     1       1.739  36.009 -15.169  1.00  0.00     0.202 C 
HETATM    8  N3  UNL     1       2.799  35.497 -14.383  1.00  0.00    -0.063 NA
HETATM    9  N4  UNL     1       1.617  37.381 -15.398  1.00  0.00    -0.364 N 
ATOM     10  H4  UNL     1       1.095  37.668 -16.226  1.00  0.00     0.162 HD
HETATM   11  N6  UNL     1       1.523  32.955 -16.446  1.00  0.00    -0.222 N 
ATOM     12  H6  UNL     1       1.801  33.345 -17.347  1.00  0.00     0.178 HD
ENDROOT
BRANCH  11  13
HETATM   13  C9  UNL     1       1.758  31.546 -16.160  1.00  0.00     0.099 C 
HETATM   14  C10 UNL     1       1.302  30.729 -17.328  1.00  0.00     0.026 C 
HETATM   15  C11 UNL     1       1.691  29.271 -17.182  1.00  0.00     0.002 C 
HETATM   16  C12 UNL     1       3.180  29.133 -17.124  1.00  0.00     0.000 C 
HETATM   17  C13 UNL     1       3.919  30.288 -16.557  1.00  0.00     0.002 C 
HETATM   18  C14 UNL     1       3.152  31.244 -15.726  1.00  0.00     0.026 C 
ENDBRANCH  11  13
BRANCH   9  19
HETATM   19  C4  UNL     1       2.163  38.432 -14.570  1.00  0.00     0.127 C 
BRANCH  19  20
HETATM   20  C5  UNL     1       1.322  38.804 -13.419  1.00  0.00     0.064 C 
BRANCH  20  21
HETATM   21  C6  UNL     1      -0.142  38.843 -13.698  1.00  0.00     0.058 C 
BRANCH  21  22
HETATM   22  N5  UNL     1      -0.812  40.008 -13.390  1.00  0.00    -0.402 N 
HETATM   23  C7  UNL     1      -1.763  40.163 -12.402  1.00  0.00     0.148 C 
HETATM   24  C8  UNL     1      -0.448  41.185 -14.132  1.00  0.00     0.148 C 
ENDBRANCH  21  22
ENDBRANCH  20  21
ENDBRANCH  19  20
ENDBRANCH   9  19
TORSDOF 5
ENDMDL
MODEL 5
REMARK VINA RESULT: -6.549820951      4.184      9.888
REMARK  5 active torsions:
REMARK  status: ('A' for Active; 'I' for Inactive)
REMARK       I    between atoms: C2_4  and  N2_5 
REMARK       I    between atoms: C2_4  and  N6_17 
REMARK       I    between atoms: C3_7  and  N4_9 
REMARK    1  A    between atoms: N4_9  and  C4_11 
REMARK    2  A    between atoms: C4_11  and  C5_12 
REMARK    3  A    between atoms: C5_12  and  C6_13 
REMARK    4  A    between atoms: C6_13  and  N5_14 
REMARK    5  A    between atoms: N6_17  and  C9_19 
ROOT
HETATM    1  C1  UNL     1       3.678  36.071 -13.565  1.00  0.00     0.165 C 
HETATM    2  N1  UNL     1       2.579  36.960 -13.820  1.00  0.00    -0.231 N 
ATOM      3  H1  UNL     1       2.545  37.816 -13.266  1.00  0.00     0.177 HD
HETATM    4  C2  UNL     1       1.641  36.788 -14.667  1.00  0.00     0.676 C 
HETATM    5  N2  UNL     1       1.651  35.619 -15.450  1.00  0.00    -0.164 N 
ATOM      6  H2  UNL     1       2.075  35.669 -16.376  1.00  0.00     0.187 HD
HETATM    7  C3  UNL     1       1.155  34.479 -15.072  1.00  0.00     0.202 C 
HETATM    8  N3  UNL     1       0.558  34.389 -13.791  1.00  0.00    -0.063 NA
HETATM    9  N4  UNL     1       1.219  33.364 -15.910  1.00  0.00    -0.364 N 
ATOM     10  H4  UNL     1       1.310  33.541 -16.910  1.00  0.00     0.162 HD
HETATM   11  N6  UNL     1       0.613  37.743 -14.837  1.00  0.00    -0.222 N 
ATOM     12  H6  UNL     1      -0.032  37.662 -15.623  1.00  0.00     0.178 HD
ENDROOT
BRANCH  11  13
HETATM   13  C9  UNL     1       0.474  38.843 -13.893  1.00  0.00     0.099 C 
HETATM   14  C10 UNL     1       0.051  40.072 -14.634  1.00  0.00     0.026 C 
HETATM   15  C11 UNL     1      -0.300  41.206 -13.692  1.00  0.00     0.002 C 
HETATM   16  C12 UNL     1      -1.453  40.821 -12.820  1.00  0.00     0.000 C 
HETATM   17  C13 UNL     1      -1.587  39.373 -12.521  1.00  0.00     0.002 C 
HETATM   18  C14 UNL     1      -0.391  38.524 -12.721  1.00  0.00     0.026 C 
ENDBRANCH  11  13
BRANCH   9  19
HETATM   19  C4  UNL     1       1.168  31.982 -15.490  1.00  0.00     0.127 C 
BRANCH  19  20
HETATM   20  C5  UNL     1       2.058  31.080 -16.242  1.00  0.00     0.064 C 
BRANCH  20  21
HETATM   21  C6  UNL     1       3.082  31.767 -17.082  1.00  0.00     0.058 C 
BRANCH  21  22
HETATM   22  N5  UNL     1       3.008  31.577 -18.446  1.00  0.00    -0.402 N 
HETATM   23  C7  UNL     1       3.466  30.476 -19.140  1.00  0.00     0.148 C 
HETATM   24  C8  UNL     1       2.345  32.598 -19.211  1.00  0.00     0.148 C 
ENDBRANCH  21  22
ENDBRANCH  20  21
ENDBRANCH  19  20
ENDBRANCH   9  19
TORSDOF 5
ENDMDL
