MODEL 1
REMARK VINA RESULT: -6.815600571      0.000      0.000
REMARK  10 active torsions:
REMARK  status: ('A' for Active; 'I' for Inactive)
REMARK    1  A    between atoms: C2_2  and  N1_3 
REMARK    2  A    between atoms: N2_6  and  C5_7 
REMARK    3  A    between atoms: C8_12  and  N4_13 
REMARK    4  A    between atoms: N4_13  and  C9_14 
REMARK    5  A    between atoms: N4_13  and  C11_18 
REMARK    6  A    between atoms: C9_14  and  C10_15 
REMARK    7  A    between atoms: C10_15  and  O1_16 
REMARK    8  A    between atoms: C11_18  and  C12_19 
REMARK    9  A    between atoms: C12_19  and  O2_20 
REMARK   10  A    between atoms: C13_24  and  N6_25 
ROOT
HETATM    1  C5  UNL     1      38.164 271.244 160.646  1.00  0.00     0.683 A 
HETATM    2  N3  UNL     1      39.206 270.480 160.255  1.00  0.00    -0.175 N 
ATOM      3  H3  UNL     1      39.053 269.795 159.515  1.00  0.00     0.186 HD
HETATM    4  C6  UNL     1      40.422 270.576 160.787  1.00  0.00     0.156 A 
HETATM    5  C7  UNL     1      40.635 271.514 161.800  1.00  0.00     0.098 A 
HETATM    6  C8  UNL     1      41.862 271.622 162.360  1.00  0.00     0.137 A 
HETATM    7  N5  UNL     1      42.831 270.752 161.859  1.00  0.00    -0.176 N 
ATOM      8  H5  UNL     1      43.771 270.794 162.251  1.00  0.00     0.186 HD
HETATM    9  C13 UNL     1      42.587 269.871 160.893  1.00  0.00     0.680 A 
HETATM   10  N7  UNL     1      41.369 269.757 160.327  1.00  0.00    -0.171 N 
HETATM   11  C14 UNL     1      41.145 268.792 159.278  1.00  0.00     0.177 C 
HETATM   12  C15 UNL     1      39.592 272.315 162.229  1.00  0.00     0.132 A 
HETATM   13  N8  UNL     1      39.716 273.163 163.157  1.00  0.00    -0.384 N 
ATOM     14  H81 UNL     1      38.946 273.754 163.473  1.00  0.00     0.157 HD
ATOM     15  H82 UNL     1      40.615 273.300 163.617  1.00  0.00     0.157 HD
HETATM   16  N9  UNL     1      38.387 272.130 161.612  1.00  0.00    -0.176 N 
ATOM     17  H9  UNL     1      37.605 272.712 161.914  1.00  0.00     0.186 HD
ENDROOT
BRANCH   6  18
HETATM   18  N4  UNL     1      42.327 272.525 163.337  1.00  0.00    -0.362 N 
BRANCH  18  19
HETATM   19  C9  UNL     1      43.189 273.605 162.944  1.00  0.00     0.150 C 
BRANCH  19  20
HETATM   20  C10 UNL     1      42.645 274.612 162.001  1.00  0.00     0.183 C 
BRANCH  20  21
HETATM   21  O1  UNL     1      41.568 275.244 162.676  1.00  0.00    -0.399 OA
ATOM     22  H1  UNL     1      41.071 275.703 162.009  1.00  0.00     0.209 HD
ENDBRANCH  20  21
ENDBRANCH  19  20
ENDBRANCH  18  19
BRANCH  18  23
HETATM   23  C11 UNL     1      42.084 272.295 164.731  1.00  0.00     0.150 C 
BRANCH  23  24
HETATM   24  C12 UNL     1      43.259 271.496 165.331  1.00  0.00     0.183 C 
BRANCH  24  25
HETATM   25  O2  UNL     1      42.979 271.121 166.622  1.00  0.00    -0.399 OA
ATOM     26  H2  UNL     1      42.739 270.201 166.659  1.00  0.00     0.209 HD
ENDBRANCH  24  25
ENDBRANCH  23  24
ENDBRANCH  18  23
ENDBRANCH   6  18
BRANCH   9  27
HETATM   27  N6  UNL     1      43.507 269.087 160.457  1.00  0.00    -0.234 N 
ATOM     28  H62 UNL     1      44.464 269.296 160.741  1.00  0.00     0.174 HD
ATOM     29  H61 UNL     1      43.285 268.293 159.856  1.00  0.00     0.174 HD
ENDBRANCH   9  27
BRANCH   1  30
HETATM   30  N2  UNL     1      36.904 271.065 160.018  1.00  0.00    -0.214 N 
HETATM   31  C4  UNL     1      35.718 271.081 160.843  1.00  0.00     0.161 C 
HETATM   32  C3  UNL     1      34.786 272.207 160.361  1.00  0.00     0.142 C 
HETATM   33  N1  UNL     1      35.188 272.584 159.057  1.00  0.00    -0.391 N 
HETATM   34  C17 UNL     1      35.459 271.536 158.146  1.00  0.00     0.142 C 
HETATM   35  C16 UNL     1      36.766 270.867 158.600  1.00  0.00     0.161 C 
BRANCH  33  36
HETATM   36  C2  UNL     1      34.799 273.839 158.563  1.00  0.00     0.054 C 
HETATM   37  C1  UNL     1      35.543 274.325 157.343  1.00  0.00     0.054 C 
ENDBRANCH  33  36
ENDBRANCH   1  30
TORSDOF 10
ENDMDL
MODEL 2
REMARK VINA RESULT: -6.752918210      3.725      8.927
REMARK  10 active torsions:
REMARK  status: ('A' for Active; 'I' for Inactive)
REMARK    1  A    between atoms: C2_2  and  N1_3 
REMARK    2  A    between atoms: N2_6  and  C5_7 
REMARK    3  A    between atoms: C8_12  and  N4_13 
REMARK    4  A    between atoms: N4_13  and  C9_14 
REMARK    5  A    between atoms: N4_13  and  C11_18 
REMARK    6  A    between atoms: C9_14  and  C10_15 
REMARK    7  A    between atoms: C10_15  and  O1_16 
REMARK    8  A    between atoms: C11_18  and  C12_19 
REMARK    9  A    between atoms: C12_19  and  O2_20 
REMARK   10  A    between atoms: C13_24  and  N6_25 
ROOT
HETATM    1  C5  UNL     1      45.526 270.882 164.489  1.00  0.00     0.683 A 
HETATM    2  N3  UNL     1      44.764 271.201 165.557  1.00  0.00    -0.175 N 
ATOM      3  H3  UNL     1      45.184 271.144 166.485  1.00  0.00     0.186 HD
HETATM    4  C6  UNL     1      43.493 271.585 165.459  1.00  0.00     0.156 A 
HETATM    5  C7  UNL     1      42.917 271.665 164.190  1.00  0.00     0.098 A 
HETATM    6  C8  UNL     1      41.624 272.047 164.069  1.00  0.00     0.137 A 
HETATM    7  N5  UNL     1      40.965 272.328 165.266  1.00  0.00    -0.176 N 
ATOM      8  H5  UNL     1      39.988 272.617 165.226  1.00  0.00     0.186 HD
HETATM    9  C13 UNL     1      41.551 272.238 166.456  1.00  0.00     0.680 A 
HETATM   10  N7  UNL     1      42.839 271.862 166.588  1.00  0.00    -0.171 N 
HETATM   11  C14 UNL     1      43.440 271.781 167.897  1.00  0.00     0.177 C 
HETATM   12  C15 UNL     1      43.664 271.346 163.071  1.00  0.00     0.132 A 
HETATM   13  N8  UNL     1      43.192 271.375 161.899  1.00  0.00    -0.384 N 
ATOM     14  H81 UNL     1      43.744 271.140 161.074  1.00  0.00     0.157 HD
ATOM     15  H82 UNL     1      42.226 271.660 161.736  1.00  0.00     0.157 HD
HETATM   16  N9  UNL     1      44.958 270.964 163.289  1.00  0.00    -0.176 N 
ATOM     17  H9  UNL     1      45.526 270.725 162.477  1.00  0.00     0.186 HD
ENDROOT
BRANCH   6  18
HETATM   18  N4  UNL     1      40.855 272.260 162.907  1.00  0.00    -0.362 N 
BRANCH  18  19
HETATM   19  C9  UNL     1      40.727 273.591 162.382  1.00  0.00     0.150 C 
BRANCH  19  20
HETATM   20  C10 UNL     1      41.874 274.515 162.559  1.00  0.00     0.183 C 
BRANCH  20  21
HETATM   21  O1  UNL     1      42.695 274.350 161.413  1.00  0.00    -0.399 OA
ATOM     22  H1  UNL     1      42.477 275.065 160.826  1.00  0.00     0.209 HD
ENDBRANCH  20  21
ENDBRANCH  19  20
ENDBRANCH  18  19
BRANCH  18  23
HETATM   23  C11 UNL     1      40.075 271.203 162.333  1.00  0.00     0.150 C 
BRANCH  23  24
HETATM   24  C12 UNL     1      38.858 271.805 161.602  1.00  0.00     0.183 C 
BRANCH  24  25
HETATM   25  O2  UNL     1      37.813 270.912 161.587  1.00  0.00    -0.399 OA
ATOM     26  H2  UNL     1      37.053 271.279 162.024  1.00  0.00     0.209 HD
ENDBRANCH  24  25
ENDBRANCH  23  24
ENDBRANCH  18  23
ENDBRANCH   6  18
BRANCH   9  27
HETATM   27  N6  UNL     1      40.910 272.507 167.538  1.00  0.00    -0.234 N 
ATOM     28  H62 UNL     1      39.894 272.422 167.505  1.00  0.00     0.174 HD
ATOM     29  H61 UNL     1      41.399 272.792 168.386  1.00  0.00     0.174 HD
ENDBRANCH   9  27
BRANCH   1  30
HETATM   30  N2  UNL     1      46.871 270.481 164.697  1.00  0.00    -0.214 N 
HETATM   31  C4  UNL     1      47.405 270.539 166.038  1.00  0.00     0.161 C 
HETATM   32  C3  UNL     1      47.868 269.132 166.456  1.00  0.00     0.142 C 
HETATM   33  N1  UNL     1      47.996 268.345 165.286  1.00  0.00    -0.391 N 
HETATM   34  C17 UNL     1      48.656 268.942 164.185  1.00  0.00     0.142 C 
HETATM   35  C16 UNL     1      47.718 270.024 163.627  1.00  0.00     0.161 C 
BRANCH  33  36
HETATM   36  C2  UNL     1      47.989 266.946 165.404  1.00  0.00     0.054 C 
HETATM   37  C1  UNL     1      47.175 266.203 164.373  1.00  0.00     0.054 C 
ENDBRANCH  33  36
ENDBRANCH   1  30
TORSDOF 10
ENDMDL
MODEL 3
REMARK VINA RESULT: -6.673031423      3.591      9.014
REMARK  10 active torsions:
REMARK  status: ('A' for Active; 'I' for Inactive)
REMARK    1  A    between atoms: C2_2  and  N1_3 
REMARK    2  A    between atoms: N2_6  and  C5_7 
REMARK    3  A    between atoms: C8_12  and  N4_13 
REMARK    4  A    between atoms: N4_13  and  C9_14 
REMARK    5  A    between atoms: N4_13  and  C11_18 
REMARK    6  A    between atoms: C9_14  and  C10_15 
REMARK    7  A    between atoms: C10_15  and  O1_16 
REMARK    8  A    between atoms: C11_18  and  C12_19 
REMARK    9  A    between atoms: C12_19  and  O2_20 
REMARK   10  A    between atoms: C13_24  and  N6_25 
ROOT
HETATM    1  C5  UNL     1      45.313 270.568 164.296  1.00  0.00     0.683 A 
HETATM    2  N3  UNL     1      44.620 270.983 165.377  1.00  0.00    -0.175 N 
ATOM      3  H3  UNL     1      45.070 270.932 166.291  1.00  0.00     0.186 HD
HETATM    4  C6  UNL     1      43.377 271.457 165.310  1.00  0.00     0.156 A 
HETATM    5  C7  UNL     1      42.759 271.530 164.060  1.00  0.00     0.098 A 
HETATM    6  C8  UNL     1      41.493 272.001 163.971  1.00  0.00     0.137 A 
HETATM    7  N5  UNL     1      40.904 272.377 165.177  1.00  0.00    -0.176 N 
ATOM      8  H5  UNL     1      39.949 272.736 165.161  1.00  0.00     0.186 HD
HETATM    9  C13 UNL     1      41.528 272.291 166.348  1.00  0.00     0.680 A 
HETATM   10  N7  UNL     1      42.789 271.825 166.449  1.00  0.00    -0.171 N 
HETATM   11  C14 UNL     1      43.434 271.751 167.738  1.00  0.00     0.177 C 
HETATM   12  C15 UNL     1      43.436 271.113 162.929  1.00  0.00     0.132 A 
HETATM   13  N8  UNL     1      42.922 271.131 161.775  1.00  0.00    -0.384 N 
ATOM     14  H81 UNL     1      43.422 270.823 160.941  1.00  0.00     0.157 HD
ATOM     15  H82 UNL     1      41.974 271.480 161.636  1.00  0.00     0.157 HD
HETATM   16  N9  UNL     1      44.706 270.644 163.116  1.00  0.00    -0.176 N 
ATOM     17  H9  UNL     1      45.223 270.332 162.294  1.00  0.00     0.186 HD
ENDROOT
BRANCH   6  18
HETATM   18  N4  UNL     1      40.697 272.225 162.829  1.00  0.00    -0.362 N 
BRANCH  18  19
HETATM   19  C9  UNL     1      40.601 273.552 162.287  1.00  0.00     0.150 C 
BRANCH  19  20
HETATM   20  C10 UNL     1      41.749 274.467 162.498  1.00  0.00     0.183 C 
BRANCH  20  21
HETATM   21  O1  UNL     1      42.643 274.234 161.420  1.00  0.00    -0.399 OA
ATOM     22  H1  UNL     1      43.067 273.404 161.603  1.00  0.00     0.209 HD
ENDBRANCH  20  21
ENDBRANCH  19  20
ENDBRANCH  18  19
BRANCH  18  23
HETATM   23  C11 UNL     1      39.861 271.190 162.296  1.00  0.00     0.150 C 
BRANCH  23  24
HETATM   24  C12 UNL     1      38.707 271.825 161.495  1.00  0.00     0.183 C 
BRANCH  24  25
HETATM   25  O2  UNL     1      37.618 270.988 161.469  1.00  0.00    -0.399 OA
ATOM     26  H2  UNL     1      37.173 271.043 160.631  1.00  0.00     0.209 HD
ENDBRANCH  24  25
ENDBRANCH  23  24
ENDBRANCH  18  23
ENDBRANCH   6  18
BRANCH   9  27
HETATM   27  N6  UNL     1      40.951 272.648 167.440  1.00  0.00    -0.234 N 
ATOM     28  H62 UNL     1      40.561 273.590 167.469  1.00  0.00     0.174 HD
ATOM     29  H61 UNL     1      40.889 272.016 168.238  1.00  0.00     0.174 HD
ENDBRANCH   9  27
BRANCH   1  30
HETATM   30  N2  UNL     1      46.633 270.077 164.472  1.00  0.00    -0.214 N 
HETATM   31  C4  UNL     1      47.696 271.029 164.692  1.00  0.00     0.161 C 
HETATM   32  C3  UNL     1      48.371 270.727 166.043  1.00  0.00     0.142 C 
HETATM   33  N1  UNL     1      48.015 269.411 166.427  1.00  0.00    -0.391 N 
HETATM   34  C17 UNL     1      48.093 268.412 165.429  1.00  0.00     0.142 C 
HETATM   35  C16 UNL     1      46.949 268.673 164.436  1.00  0.00     0.161 C 
BRANCH  33  36
HETATM   36  C2  UNL     1      48.134 269.043 167.777  1.00  0.00     0.054 C 
HETATM   37  C1  UNL     1      47.508 269.987 168.774  1.00  0.00     0.054 C 
ENDBRANCH  33  36
ENDBRANCH   1  30
TORSDOF 10
ENDMDL
MODEL 4
REMARK VINA RESULT: -6.603831176      4.728     10.155
REMARK  10 active torsions:
REMARK  status: ('A' for Active; 'I' for Inactive)
REMARK    1  A    between atoms: C2_2  and  N1_3 
REMARK    2  A    between atoms: N2_6  and  C5_7 
REMARK    3  A    between atoms: C8_12  and  N4_13 
REMARK    4  A    between atoms: N4_13  and  C9_14 
REMARK    5  A    between atoms: N4_13  and  C11_18 
REMARK    6  A    between atoms: C9_14  and  C10_15 
REMARK    7  A    between atoms: C10_15  and  O1_16 
REMARK    8  A    between atoms: C11_18  and  C12_19 
REMARK    9  A    between atoms: C12_19  and  O2_20 
REMARK   10  A    between atoms: C13_24  and  N6_25 
ROOT
HETATM    1  C5  UNL     1      44.996 271.309 167.869  1.00  0.00     0.683 A 
HETATM    2  N3  UNL     1      43.794 271.734 168.311  1.00  0.00    -0.175 N 
ATOM      3  H3  UNL     1      43.658 271.844 169.316  1.00  0.00     0.186 HD
HETATM    4  C6  UNL     1      42.776 272.017 167.500  1.00  0.00     0.156 A 
HETATM    5  C7  UNL     1      42.960 271.869 166.124  1.00  0.00     0.098 A 
HETATM    6  C8  UNL     1      41.936 272.145 165.283  1.00  0.00     0.137 A 
HETATM    7  N5  UNL     1      40.751 272.560 165.891  1.00  0.00    -0.176 N 
ATOM      8  H5  UNL     1      39.950 272.776 165.299  1.00  0.00     0.186 HD
HETATM    9  C13 UNL     1      40.617 272.686 167.208  1.00  0.00     0.680 A 
HETATM   10  N7  UNL     1      41.632 272.417 168.055  1.00  0.00    -0.171 N 
HETATM   11  C14 UNL     1      41.448 272.572 169.478  1.00  0.00     0.177 C 
HETATM   12  C15 UNL     1      44.177 271.435 165.632  1.00  0.00     0.132 A 
HETATM   13  N8  UNL     1      44.396 271.258 164.400  1.00  0.00    -0.384 N 
ATOM     14  H81 UNL     1      45.294 270.937 164.038  1.00  0.00     0.157 HD
ATOM     15  H82 UNL     1      43.670 271.453 163.711  1.00  0.00     0.157 HD
HETATM   16  N9  UNL     1      45.150 271.173 166.555  1.00  0.00    -0.176 N 
ATOM     17  H9  UNL     1      46.055 270.852 166.213  1.00  0.00     0.186 HD
ENDROOT
BRANCH   6  18
HETATM   18  N4  UNL     1      41.902 272.132 163.874  1.00  0.00    -0.362 N 
BRANCH  18  19
HETATM   19  C9  UNL     1      41.902 273.377 163.158  1.00  0.00     0.150 C 
BRANCH  19  20
HETATM   20  C10 UNL     1      43.025 274.314 163.405  1.00  0.00     0.183 C 
BRANCH  20  21
HETATM   21  O1  UNL     1      44.160 273.746 162.770  1.00  0.00    -0.399 OA
ATOM     22  H1  UNL     1      44.119 274.018 161.860  1.00  0.00     0.209 HD
ENDBRANCH  20  21
ENDBRANCH  19  20
ENDBRANCH  18  19
BRANCH  18  23
HETATM   23  C11 UNL     1      41.712 270.909 163.149  1.00  0.00     0.150 C 
BRANCH  23  24
HETATM   24  C12 UNL     1      42.167 271.103 161.689  1.00  0.00     0.183 C 
BRANCH  24  25
HETATM   25  O2  UNL     1      43.532 270.982 161.588  1.00  0.00    -0.399 OA
ATOM     26  H2  UNL     1      43.766 270.463 160.826  1.00  0.00     0.209 HD
ENDBRANCH  24  25
ENDBRANCH  23  24
ENDBRANCH  18  23
ENDBRANCH   6  18
BRANCH   9  27
HETATM   27  N6  UNL     1      39.509 273.072 167.732  1.00  0.00    -0.234 N 
ATOM     28  H62 UNL     1      38.802 273.443 167.097  1.00  0.00     0.174 HD
ATOM     29  H61 UNL     1      39.348 273.009 168.737  1.00  0.00     0.174 HD
ENDBRANCH   9  27
BRANCH   1  30
HETATM   30  N2  UNL     1      46.018 271.030 168.813  1.00  0.00    -0.214 N 
HETATM   31  C4  UNL     1      47.206 270.346 168.358  1.00  0.00     0.161 C 
HETATM   32  C3  UNL     1      48.434 271.230 168.640  1.00  0.00     0.142 C 
HETATM   33  N1  UNL     1      48.062 272.211 169.591  1.00  0.00    -0.391 N 
HETATM   34  C17 UNL     1      47.317 271.764 170.708  1.00  0.00     0.142 C 
HETATM   35  C16 UNL     1      45.913 271.399 170.201  1.00  0.00     0.161 C 
BRANCH  33  36
HETATM   36  C2  UNL     1      48.838 273.375 169.704  1.00  0.00     0.054 C 
HETATM   37  C1  UNL     1      48.695 274.136 170.999  1.00  0.00     0.054 C 
ENDBRANCH  33  36
ENDBRANCH   1  30
TORSDOF 10
ENDMDL
MODEL 5
REMARK VINA RESULT: -6.528266059      4.042      8.903
REMARK  10 active torsions:
REMARK  status: ('A' for Active; 'I' for Inactive)
REMARK    1  A    between atoms: C2_2  and  N1_3 
REMARK    2  A    between atoms: N2_6  and  C5_7 
REMARK    3  A    between atoms: C8_12  and  N4_13 
REMARK    4  A    between atoms: N4_13  and  C9_14 
REMARK    5  A    between atoms: N4_13  and  C11_18 
REMARK    6  A    between atoms: C9_14  and  C10_15 
REMARK    7  A    between atoms: C10_15  and  O1_16 
REMARK    8  A    between atoms: C11_18  and  C12_19 
REMARK    9  A    between atoms: C12_19  and  O2_20 
REMARK   10  A    between atoms: C13_24  and  N6_25 
ROOT
HETATM    1  C5  UNL     1      45.936 269.227 163.704  1.00  0.00     0.683 A 
HETATM    2  N3  UNL     1      44.957 268.870 162.846  1.00  0.00    -0.175 N 
ATOM      3  H3  UNL     1      45.118 268.071 162.233  1.00  0.00     0.186 HD
HETATM    4  C6  UNL     1      43.792 269.509 162.761  1.00  0.00     0.156 A 
HETATM    5  C7  UNL     1      43.569 270.602 163.600  1.00  0.00     0.098 A 
HETATM    6  C8  UNL     1      42.394 271.270 163.524  1.00  0.00     0.137 A 
HETATM    7  N5  UNL     1      41.489 270.791 162.577  1.00  0.00    -0.176 N 
ATOM      8  H5  UNL     1      40.590 271.264 162.481  1.00  0.00     0.186 HD
HETATM    9  C13 UNL     1      41.742 269.746 161.795  1.00  0.00     0.680 A 
HETATM   10  N7  UNL     1      42.907 269.071 161.865  1.00  0.00    -0.171 N 
HETATM   11  C14 UNL     1      43.141 267.939 161.002  1.00  0.00     0.177 C 
HETATM   12  C15 UNL     1      44.548 270.999 164.492  1.00  0.00     0.132 A 
HETATM   13  N8  UNL     1      44.414 271.995 165.259  1.00  0.00    -0.384 N 
ATOM     14  H81 UNL     1      45.137 272.288 165.918  1.00  0.00     0.157 HD
ATOM     15  H82 UNL     1      43.552 272.539 165.258  1.00  0.00     0.157 HD
HETATM   16  N9  UNL     1      45.704 270.271 164.494  1.00  0.00    -0.176 N 
ATOM     17  H9  UNL     1      46.439 270.547 165.145  1.00  0.00     0.186 HD
ENDROOT
BRANCH   6  18
HETATM   18  N4  UNL     1      41.921 272.348 164.300  1.00  0.00    -0.362 N 
BRANCH  18  19
HETATM   19  C9  UNL     1      41.048 272.085 165.410  1.00  0.00     0.150 C 
BRANCH  19  20
HETATM   20  C10 UNL     1      41.545 272.409 166.770  1.00  0.00     0.183 C 
BRANCH  20  21
HETATM   21  O1  UNL     1      42.296 271.282 167.195  1.00  0.00    -0.399 OA
ATOM     22  H1  UNL     1      42.295 271.306 168.144  1.00  0.00     0.209 HD
ENDBRANCH  20  21
ENDBRANCH  19  20
ENDBRANCH  18  19
BRANCH  18  23
HETATM   23  C11 UNL     1      42.169 273.705 163.911  1.00  0.00     0.150 C 
BRANCH  23  24
HETATM   24  C12 UNL     1      41.412 274.008 162.603  1.00  0.00     0.183 C 
BRANCH  24  25
HETATM   25  O2  UNL     1      40.083 273.681 162.726  1.00  0.00    -0.399 OA
ATOM     26  H2  UNL     1      39.680 273.589 161.870  1.00  0.00     0.209 HD
ENDBRANCH  24  25
ENDBRANCH  23  24
ENDBRANCH  18  23
ENDBRANCH   6  18
BRANCH   9  27
HETATM   27  N6  UNL     1      40.881 269.333 160.934  1.00  0.00    -0.234 N 
ATOM     28  H62 UNL     1      39.925 269.672 161.039  1.00  0.00     0.174 HD
ATOM     29  H61 UNL     1      41.147 268.696 160.184  1.00  0.00     0.174 HD
ENDBRANCH   9  27
BRANCH   1  30
HETATM   30  N2  UNL     1      47.144 268.483 163.718  1.00  0.00    -0.214 N 
HETATM   31  C4  UNL     1      48.369 269.157 163.355  1.00  0.00     0.161 C 
HETATM   32  C3  UNL     1      49.359 269.072 164.531  1.00  0.00     0.142 C 
HETATM   33  N1  UNL     1      48.919 268.046 165.402  1.00  0.00    -0.391 N 
HETATM   34  C17 UNL     1      48.523 266.827 164.802  1.00  0.00     0.142 C 
HETATM   35  C16 UNL     1      47.193 267.090 164.076  1.00  0.00     0.161 C 
BRANCH  33  36
HETATM   36  C2  UNL     1      49.376 268.040 166.729  1.00  0.00     0.054 C 
HETATM   37  C1  UNL     1      48.564 268.852 167.708  1.00  0.00     0.054 C 
ENDBRANCH  33  36
ENDBRANCH   1  30
TORSDOF 10
ENDMDL
