MODEL 1
REMARK VINA RESULT: -7.408202817      0.000      0.000
REMARK  6 active torsions:
REMARK  status: ('A' for Active; 'I' for Inactive)
REMARK    1  A    between atoms: C1_2  and  N2_4 
REMARK    2  A    between atoms: N2_4  and  N3_6 
REMARK    3  A    between atoms: C2_8  and  C3_10 
REMARK    4  A    between atoms: C8_15  and  O1_16 
REMARK    5  A    between atoms: O1_16  and  S2_17 
REMARK    6  A    between atoms: S2_17  and  N5_18 
ROOT
HETATM    1  C3  UNL     1     -24.291  -0.372 -25.227  1.00  0.00     0.041 A 
HETATM    2  C4  UNL     1     -24.241   0.220 -26.487  1.00  0.00     0.018 A 
HETATM    3  C5  UNL     1     -24.768  -0.389 -27.583  1.00  0.00     0.001 A 
HETATM    4  C6  UNL     1     -25.359  -1.621 -27.415  1.00  0.00     0.003 A 
HETATM    5  C7  UNL     1     -25.419  -2.218 -26.180  1.00  0.00     0.039 A 
HETATM    6  C8  UNL     1     -24.881  -1.598 -25.048  1.00  0.00     0.104 A 
ENDROOT
BRANCH   1   7
HETATM    7  C2  UNL     1     -23.654   0.339 -24.143  1.00  0.00     0.143 C 
HETATM    8  N3  UNL     1     -24.341   0.725 -23.137  1.00  0.00    -0.285 N 
ATOM      9  H3  UNL     1     -25.338   0.521 -23.079  1.00  0.00     0.188 HD
HETATM   10  N4  UNL     1     -22.278   0.632 -24.202  1.00  0.00    -0.080 NA
BRANCH   8  11
HETATM   11  N2  UNL     1     -23.694   1.438 -22.109  1.00  0.00    -0.277 N 
ATOM     12  H2  UNL     1     -22.991   0.958 -21.547  1.00  0.00     0.189 HD
BRANCH  11  13
HETATM   13  C1  UNL     1     -23.981   2.787 -21.826  1.00  0.00     0.199 C 
HETATM   14  N1  UNL     1     -25.173   3.144 -21.173  1.00  0.00    -0.068 NA
HETATM   15  S1  UNL     1     -22.924   3.938 -22.261  1.00  0.00    -0.043 SA
ENDBRANCH  11  13
ENDBRANCH   8  11
ENDBRANCH   1   7
BRANCH   6  16
HETATM   16  O1  UNL     1     -24.967  -2.248 -23.804  1.00  0.00    -0.216 OA
BRANCH  16  17
HETATM   17  S2  UNL     1     -23.652  -3.134 -23.187  1.00  0.00     0.360 S 
HETATM   18  O2  UNL     1     -22.387  -2.457 -23.554  1.00  0.00    -0.176 OA
HETATM   19  O3  UNL     1     -23.743  -3.041 -21.659  1.00  0.00    -0.176 OA
BRANCH  17  20
HETATM   20  N5  UNL     1     -23.697  -4.794 -23.560  1.00  0.00    -0.305 N 
ATOM     21  H52 UNL     1     -23.295  -5.167 -24.419  1.00  0.00     0.171 HD
ATOM     22  H51 UNL     1     -24.156  -5.367 -22.852  1.00  0.00     0.171 HD
ENDBRANCH  17  20
ENDBRANCH  16  17
ENDBRANCH   6  16
TORSDOF 6
ENDMDL
MODEL 2
REMARK VINA RESULT: -7.197709463      1.090      1.090
REMARK  6 active torsions:
REMARK  status: ('A' for Active; 'I' for Inactive)
REMARK    1  A    between atoms: C1_2  and  N2_4 
REMARK    2  A    between atoms: N2_4  and  N3_6 
REMARK    3  A    between atoms: C2_8  and  C3_10 
REMARK    4  A    between atoms: C8_15  and  O1_16 
REMARK    5  A    between atoms: O1_16  and  S2_17 
REMARK    6  A    between atoms: S2_17  and  N5_18 
ROOT
HETATM    1  C3  UNL     1     -24.363  -0.469 -25.606  1.00  0.00     0.041 A 
HETATM    2  C4  UNL     1     -24.354   0.318 -26.755  1.00  0.00     0.018 A 
HETATM    3  C5  UNL     1     -24.923  -0.107 -27.915  1.00  0.00     0.001 A 
HETATM    4  C6  UNL     1     -25.515  -1.350 -27.927  1.00  0.00     0.003 A 
HETATM    5  C7  UNL     1     -25.534  -2.138 -26.803  1.00  0.00     0.039 A 
HETATM    6  C8  UNL     1     -24.952  -1.708 -25.605  1.00  0.00     0.104 A 
ENDROOT
BRANCH   1   7
HETATM    7  C2  UNL     1     -23.684   0.058 -24.445  1.00  0.00     0.143 C 
HETATM    8  N3  UNL     1     -24.340   0.316 -23.379  1.00  0.00    -0.285 N 
ATOM      9  H3  UNL     1     -25.343   0.136 -23.330  1.00  0.00     0.188 HD
HETATM   10  N4  UNL     1     -22.300   0.316 -24.491  1.00  0.00    -0.080 NA
BRANCH   8  11
HETATM   11  N2  UNL     1     -23.653   0.853 -22.274  1.00  0.00    -0.277 N 
ATOM     12  H2  UNL     1     -23.140   0.220 -21.661  1.00  0.00     0.189 HD
BRANCH  11  13
HETATM   13  C1  UNL     1     -23.647   2.230 -21.981  1.00  0.00     0.199 C 
HETATM   14  N1  UNL     1     -22.517   3.017 -22.264  1.00  0.00    -0.068 NA
HETATM   15  S1  UNL     1     -24.956   2.911 -21.310  1.00  0.00    -0.043 SA
ENDBRANCH  11  13
ENDBRANCH   8  11
ENDBRANCH   1   7
BRANCH   6  16
HETATM   16  O1  UNL     1     -24.998  -2.550 -24.480  1.00  0.00    -0.216 OA
BRANCH  16  17
HETATM   17  S2  UNL     1     -23.600  -3.343 -23.924  1.00  0.00     0.360 S 
HETATM   18  O2  UNL     1     -22.451  -2.978 -24.786  1.00  0.00    -0.176 OA
HETATM   19  O3  UNL     1     -23.284  -2.753 -22.544  1.00  0.00    -0.176 OA
BRANCH  17  20
HETATM   20  N5  UNL     1     -23.798  -5.016 -23.686  1.00  0.00    -0.305 N 
ATOM     21  H52 UNL     1     -23.460  -5.703 -24.359  1.00  0.00     0.171 HD
ATOM     22  H51 UNL     1     -24.279  -5.259 -22.820  1.00  0.00     0.171 HD
ENDBRANCH  17  20
ENDBRANCH  16  17
ENDBRANCH   6  16
TORSDOF 6
ENDMDL
MODEL 3
REMARK VINA RESULT: -7.142800454      2.830      3.691
REMARK  6 active torsions:
REMARK  status: ('A' for Active; 'I' for Inactive)
REMARK    1  A    between atoms: C1_2  and  N2_4 
REMARK    2  A    between atoms: N2_4  and  N3_6 
REMARK    3  A    between atoms: C2_8  and  C3_10 
REMARK    4  A    between atoms: C8_15  and  O1_16 
REMARK    5  A    between atoms: O1_16  and  S2_17 
REMARK    6  A    between atoms: S2_17  and  N5_18 
ROOT
HETATM    1  C3  UNL     1     -23.498  -1.489 -23.961  1.00  0.00     0.041 A 
HETATM    2  C4  UNL     1     -23.077  -2.649 -23.317  1.00  0.00     0.018 A 
HETATM    3  C5  UNL     1     -23.607  -3.865 -23.620  1.00  0.00     0.001 A 
HETATM    4  C6  UNL     1     -24.581  -3.922 -24.591  1.00  0.00     0.003 A 
HETATM    5  C7  UNL     1     -25.006  -2.787 -25.237  1.00  0.00     0.039 A 
HETATM    6  C8  UNL     1     -24.465  -1.533 -24.932  1.00  0.00     0.104 A 
ENDROOT
BRANCH   1   7
HETATM    7  C2  UNL     1     -22.906  -0.246 -23.523  1.00  0.00     0.143 C 
HETATM    8  N3  UNL     1     -23.640   0.676 -23.029  1.00  0.00    -0.285 N 
ATOM      9  H3  UNL     1     -24.645   0.539 -22.921  1.00  0.00     0.188 HD
HETATM   10  N4  UNL     1     -21.521  -0.034 -23.663  1.00  0.00    -0.080 NA
BRANCH   8  11
HETATM   11  N2  UNL     1     -23.036   1.885 -22.635  1.00  0.00    -0.277 N 
ATOM     12  H2  UNL     1     -22.021   1.965 -22.685  1.00  0.00     0.189 HD
BRANCH  11  13
HETATM   13  C1  UNL     1     -23.779   2.989 -22.174  1.00  0.00     0.199 C 
HETATM   14  N1  UNL     1     -23.410   4.299 -22.528  1.00  0.00    -0.068 NA
HETATM   15  S1  UNL     1     -25.071   2.744 -21.225  1.00  0.00    -0.043 SA
ENDBRANCH  11  13
ENDBRANCH   8  11
ENDBRANCH   1   7
BRANCH   6  16
HETATM   16  O1  UNL     1     -24.932  -0.400 -25.622  1.00  0.00    -0.216 OA
BRANCH  16  17
HETATM   17  S2  UNL     1     -25.798  -0.558 -27.078  1.00  0.00     0.360 S 
HETATM   18  O2  UNL     1     -27.078  -1.256 -26.817  1.00  0.00    -0.176 OA
HETATM   19  O3  UNL     1     -26.182   0.862 -27.512  1.00  0.00    -0.176 OA
BRANCH  17  20
HETATM   20  N5  UNL     1     -24.889  -1.211 -28.360  1.00  0.00    -0.305 N 
ATOM     21  H52 UNL     1     -25.117  -2.110 -28.783  1.00  0.00     0.171 HD
ATOM     22  H51 UNL     1     -24.108  -0.626 -28.657  1.00  0.00     0.171 HD
ENDBRANCH  17  20
ENDBRANCH  16  17
ENDBRANCH   6  16
TORSDOF 6
ENDMDL
MODEL 4
REMARK VINA RESULT: -6.910109982      1.290      1.471
REMARK  6 active torsions:
REMARK  status: ('A' for Active; 'I' for Inactive)
REMARK    1  A    between atoms: C1_2  and  N2_4 
REMARK    2  A    between atoms: N2_4  and  N3_6 
REMARK    3  A    between atoms: C2_8  and  C3_10 
REMARK    4  A    between atoms: C8_15  and  O1_16 
REMARK    5  A    between atoms: O1_16  and  S2_17 
REMARK    6  A    between atoms: S2_17  and  N5_18 
ROOT
HETATM    1  C3  UNL     1     -24.409  -0.466 -25.685  1.00  0.00     0.041 A 
HETATM    2  C4  UNL     1     -24.324   0.335 -26.821  1.00  0.00     0.018 A 
HETATM    3  C5  UNL     1     -24.884  -0.040 -28.002  1.00  0.00     0.001 A 
HETATM    4  C6  UNL     1     -25.546  -1.246 -28.048  1.00  0.00     0.003 A 
HETATM    5  C7  UNL     1     -25.641  -2.047 -26.936  1.00  0.00     0.039 A 
HETATM    6  C8  UNL     1     -25.069  -1.668 -25.718  1.00  0.00     0.104 A 
ENDROOT
BRANCH   1   7
HETATM    7  C2  UNL     1     -23.732   0.006 -24.499  1.00  0.00     0.143 C 
HETATM    8  N3  UNL     1     -24.407   0.389 -23.483  1.00  0.00    -0.285 N 
ATOM      9  H3  UNL     1     -25.426   0.350 -23.492  1.00  0.00     0.188 HD
HETATM   10  N4  UNL     1     -22.326   0.069 -24.465  1.00  0.00    -0.080 NA
BRANCH   8  11
HETATM   11  N2  UNL     1     -23.718   0.867 -22.352  1.00  0.00    -0.277 N 
ATOM     12  H2  UNL     1     -23.274   0.193 -21.728  1.00  0.00     0.189 HD
BRANCH  11  13
HETATM   13  C1  UNL     1     -23.616   2.238 -22.050  1.00  0.00     0.199 C 
HETATM   14  N1  UNL     1     -22.454   2.959 -22.375  1.00  0.00    -0.068 NA
HETATM   15  S1  UNL     1     -24.853   2.990 -21.318  1.00  0.00    -0.043 SA
ENDBRANCH  11  13
ENDBRANCH   8  11
ENDBRANCH   1   7
BRANCH   6  16
HETATM   16  O1  UNL     1     -25.193  -2.521 -24.607  1.00  0.00    -0.216 OA
BRANCH  16  17
HETATM   17  S2  UNL     1     -23.846  -3.356 -23.990  1.00  0.00     0.360 S 
HETATM   18  O2  UNL     1     -23.725  -3.093 -22.537  1.00  0.00    -0.176 OA
HETATM   19  O3  UNL     1     -24.166  -4.851 -24.114  1.00  0.00    -0.176 OA
BRANCH  17  20
HETATM   20  N5  UNL     1     -22.412  -3.109 -24.873  1.00  0.00    -0.305 N 
ATOM     21  H52 UNL     1     -21.807  -2.304 -24.709  1.00  0.00     0.171 HD
ATOM     22  H51 UNL     1     -22.221  -3.830 -25.567  1.00  0.00     0.171 HD
ENDBRANCH  17  20
ENDBRANCH  16  17
ENDBRANCH   6  16
TORSDOF 6
ENDMDL
MODEL 5
REMARK VINA RESULT: -6.577902976      3.749      5.690
REMARK  6 active torsions:
REMARK  status: ('A' for Active; 'I' for Inactive)
REMARK    1  A    between atoms: C1_2  and  N2_4 
REMARK    2  A    between atoms: N2_4  and  N3_6 
REMARK    3  A    between atoms: C2_8  and  C3_10 
REMARK    4  A    between atoms: C8_15  and  O1_16 
REMARK    5  A    between atoms: O1_16  and  S2_17 
REMARK    6  A    between atoms: S2_17  and  N5_18 
ROOT
HETATM    1  C3  UNL     1     -24.570  -1.646 -25.571  1.00  0.00     0.041 A 
HETATM    2  C4  UNL     1     -25.092  -2.934 -25.490  1.00  0.00     0.018 A 
HETATM    3  C5  UNL     1     -24.642  -3.831 -24.572  1.00  0.00     0.001 A 
HETATM    4  C6  UNL     1     -23.644  -3.429 -23.713  1.00  0.00     0.003 A 
HETATM    5  C7  UNL     1     -23.119  -2.161 -23.778  1.00  0.00     0.039 A 
HETATM    6  C8  UNL     1     -23.577  -1.233 -24.718  1.00  0.00     0.104 A 
ENDROOT
BRANCH   1   7
HETATM    7  C2  UNL     1     -25.085  -0.794 -26.618  1.00  0.00     0.143 C 
HETATM    8  N3  UNL     1     -24.648  -0.909 -27.813  1.00  0.00    -0.285 N 
ATOM      9  H3  UNL     1     -23.946  -1.613 -28.045  1.00  0.00     0.188 HD
HETATM   10  N4  UNL     1     -26.053   0.185 -26.321  1.00  0.00    -0.080 NA
BRANCH   8  11
HETATM   11  N2  UNL     1     -25.152  -0.047 -28.805  1.00  0.00    -0.277 N 
ATOM     12  H2  UNL     1     -25.392   0.910 -28.547  1.00  0.00     0.189 HD
BRANCH  11  13
HETATM   13  C1  UNL     1     -25.339  -0.455 -30.140  1.00  0.00     0.199 C 
HETATM   14  N1  UNL     1     -24.478  -0.000 -31.154  1.00  0.00    -0.068 NA
HETATM   15  S1  UNL     1     -26.560  -1.456 -30.508  1.00  0.00    -0.043 SA
ENDBRANCH  11  13
ENDBRANCH   8  11
ENDBRANCH   1   7
BRANCH   6  16
HETATM   16  O1  UNL     1     -23.009   0.053 -24.745  1.00  0.00    -0.216 OA
BRANCH  16  17
HETATM   17  S2  UNL     1     -22.033   0.604 -23.465  1.00  0.00     0.360 S 
HETATM   18  O2  UNL     1     -22.510   0.014 -22.192  1.00  0.00    -0.176 OA
HETATM   19  O3  UNL     1     -20.637   0.014 -23.697  1.00  0.00    -0.176 OA
BRANCH  17  20
HETATM   20  N5  UNL     1     -21.829   2.293 -23.425  1.00  0.00    -0.305 N 
ATOM     21  H52 UNL     1     -22.249   2.906 -24.122  1.00  0.00     0.171 HD
ATOM     22  H51 UNL     1     -21.255   2.624 -22.650  1.00  0.00     0.171 HD
ENDBRANCH  17  20
ENDBRANCH  16  17
ENDBRANCH   6  16
TORSDOF 6
ENDMDL
