MODEL 1
REMARK VINA RESULT: -5.110805005      0.000      0.000
REMARK  4 active torsions:
REMARK  status: ('A' for Active; 'I' for Inactive)
REMARK    1  A    between atoms: C2_2  and  C3_3 
REMARK    2  A    between atoms: C2_2  and  N5_19 
REMARK    3  A    between atoms: C3_3  and  C4_4 
REMARK    4  A    between atoms: C3_3  and  N4_13 
REMARK       I    between atoms: C4_4  and  N1_6 
REMARK       I    between atoms: N1_6  and  C5_8 
ROOT
HETATM    1  C3  UNL     1     -25.837  -1.469 -31.991  1.00  0.00     0.096 C 
ENDROOT
BRANCH   1   2
HETATM    2  C2  UNL     1     -24.859  -1.279 -33.104  1.00  0.00     0.011 C 
HETATM    3  C1  UNL     1     -24.984   0.160 -33.567  1.00  0.00     0.064 C 
BRANCH   2   4
HETATM    4  N5  UNL     1     -23.559  -1.833 -33.023  1.00  0.00    -0.276 NA
HETATM    5  C11 UNL     1     -22.662  -0.645 -32.882  1.00  0.00     0.106 C 
HETATM    6  C12 UNL     1     -21.249  -1.180 -32.899  1.00  0.00     0.090 C 
HETATM    7  S1  UNL     1     -21.412  -2.417 -34.243  1.00  0.00    -0.153 SA
HETATM    8  C13 UNL     1     -23.224  -2.152 -34.469  1.00  0.00     0.169 C 
ENDBRANCH   2   4
ENDBRANCH   1   2
BRANCH   1   9
HETATM    9  C4  UNL     1     -26.242  -2.891 -31.986  1.00  0.00     0.270 C 
HETATM   10  O1  UNL     1     -27.468  -3.155 -31.955  1.00  0.00    -0.266 OA
HETATM   11  N1  UNL     1     -25.350  -3.985 -32.022  1.00  0.00    -0.296 N 
HETATM   12  C5  UNL     1     -25.814  -5.309 -32.022  1.00  0.00     0.188 C 
ATOM     13  H1  UNL     1     -24.346  -3.808 -32.047  1.00  0.00     0.171 HD
HETATM   14  N2  UNL     1     -25.008  -6.330 -32.055  1.00  0.00    -0.373 N 
HETATM   15  N3  UNL     1     -27.207  -5.571 -31.987  1.00  0.00    -0.064 NA
ATOM     16  H22 UNL     1     -24.005  -6.141 -32.080  1.00  0.00     0.158 HD
ATOM     17  H21 UNL     1     -25.345  -7.292 -32.056  1.00  0.00     0.158 HD
ENDBRANCH   1   9
BRANCH   1  18
HETATM   18  N4  UNL     1     -25.774  -0.834 -30.771  1.00  0.00    -0.278 NA
HETATM   19  C6  UNL     1     -27.094  -0.344 -30.289  1.00  0.00     0.096 C 
HETATM   20  C7  UNL     1     -27.071  -0.213 -28.783  1.00  0.00     0.015 C 
HETATM   21  C8  UNL     1     -25.697   0.017 -28.213  1.00  0.00     0.002 C 
HETATM   22  C9  UNL     1     -24.765  -1.111 -28.615  1.00  0.00     0.015 C 
HETATM   23  C10 UNL     1     -25.458  -1.846 -29.728  1.00  0.00     0.096 C 
ENDBRANCH   1  18
TORSDOF 4
ENDMDL
MODEL 2
REMARK VINA RESULT: -5.014826808      0.831      1.263
REMARK  4 active torsions:
REMARK  status: ('A' for Active; 'I' for Inactive)
REMARK    1  A    between atoms: C2_2  and  C3_3 
REMARK    2  A    between atoms: C2_2  and  N5_19 
REMARK    3  A    between atoms: C3_3  and  C4_4 
REMARK    4  A    between atoms: C3_3  and  N4_13 
REMARK       I    between atoms: C4_4  and  N1_6 
REMARK       I    between atoms: N1_6  and  C5_8 
ROOT
HETATM    1  C3  UNL     1     -26.105  -1.894 -31.329  1.00  0.00     0.096 C 
ENDROOT
BRANCH   1   2
HETATM    2  C2  UNL     1     -25.184  -1.447 -32.417  1.00  0.00     0.011 C 
HETATM    3  C1  UNL     1     -25.564  -0.021 -32.765  1.00  0.00     0.064 C 
BRANCH   2   4
HETATM    4  N5  UNL     1     -23.806  -1.768 -32.371  1.00  0.00    -0.276 NA
HETATM    5  C11 UNL     1     -23.126  -0.540 -32.886  1.00  0.00     0.106 C 
HETATM    6  C12 UNL     1     -21.653  -0.873 -32.957  1.00  0.00     0.090 C 
HETATM    7  S1  UNL     1     -21.762  -2.570 -33.642  1.00  0.00    -0.153 SA
HETATM    8  C13 UNL     1     -23.606  -2.626 -33.607  1.00  0.00     0.169 C 
ENDBRANCH   2   4
ENDBRANCH   1   2
BRANCH   1   9
HETATM    9  C4  UNL     1     -26.537  -3.273 -31.643  1.00  0.00     0.270 C 
HETATM   10  O1  UNL     1     -27.640  -3.428 -32.221  1.00  0.00    -0.266 OA
HETATM   11  N1  UNL     1     -25.796  -4.438 -31.349  1.00  0.00    -0.296 N 
HETATM   12  C5  UNL     1     -26.272  -5.714 -31.688  1.00  0.00     0.188 C 
ATOM     13  H1  UNL     1     -24.895  -4.349 -30.880  1.00  0.00     0.171 HD
HETATM   14  N2  UNL     1     -25.603  -6.799 -31.425  1.00  0.00    -0.373 N 
HETATM   15  N3  UNL     1     -27.523  -5.852 -32.341  1.00  0.00    -0.064 NA
ATOM     16  H22 UNL     1     -24.704  -6.699 -30.955  1.00  0.00     0.158 HD
ATOM     17  H21 UNL     1     -25.949  -7.726 -31.671  1.00  0.00     0.158 HD
ENDBRANCH   1   9
BRANCH   1  18
HETATM   18  N4  UNL     1     -25.966  -1.572 -29.998  1.00  0.00    -0.278 NA
HETATM   19  C6  UNL     1     -24.720  -0.813 -29.698  1.00  0.00     0.096 C 
HETATM   20  C7  UNL     1     -24.904  -0.013 -28.429  1.00  0.00     0.015 C 
HETATM   21  C8  UNL     1     -25.923  -0.593 -27.486  1.00  0.00     0.002 C 
HETATM   22  C9  UNL     1     -27.268  -0.718 -28.177  1.00  0.00     0.015 C 
HETATM   23  C10 UNL     1     -26.997  -0.560 -29.646  1.00  0.00     0.096 C 
ENDBRANCH   1  18
TORSDOF 4
ENDMDL
MODEL 3
REMARK VINA RESULT: -5.001314743      2.349      4.055
REMARK  4 active torsions:
REMARK  status: ('A' for Active; 'I' for Inactive)
REMARK    1  A    between atoms: C2_2  and  C3_3 
REMARK    2  A    between atoms: C2_2  and  N5_19 
REMARK    3  A    between atoms: C3_3  and  C4_4 
REMARK    4  A    between atoms: C3_3  and  N4_13 
REMARK       I    between atoms: C4_4  and  N1_6 
REMARK       I    between atoms: N1_6  and  C5_8 
ROOT
HETATM    1  C3  UNL     1     -24.843  -1.792 -31.722  1.00  0.00     0.096 C 
ENDROOT
BRANCH   1   2
HETATM    2  C2  UNL     1     -25.648  -2.332 -32.859  1.00  0.00     0.011 C 
HETATM    3  C1  UNL     1     -25.680  -1.259 -33.930  1.00  0.00     0.064 C 
BRANCH   2   4
HETATM    4  N5  UNL     1     -25.491  -3.675 -33.277  1.00  0.00    -0.276 NA
HETATM    5  C11 UNL     1     -26.671  -3.922 -34.163  1.00  0.00     0.106 C 
HETATM    6  C12 UNL     1     -26.607  -5.382 -34.551  1.00  0.00     0.090 C 
HETATM    7  S1  UNL     1     -26.141  -6.103 -32.931  1.00  0.00    -0.153 SA
HETATM    8  C13 UNL     1     -25.982  -4.472 -32.083  1.00  0.00     0.169 C 
ENDBRANCH   2   4
ENDBRANCH   1   2
BRANCH   1   9
HETATM    9  C4  UNL     1     -23.493  -1.478 -32.235  1.00  0.00     0.270 C 
HETATM   10  O1  UNL     1     -23.115  -0.281 -32.208  1.00  0.00    -0.266 OA
HETATM   11  N1  UNL     1     -22.584  -2.426 -32.751  1.00  0.00    -0.296 N 
HETATM   12  C5  UNL     1     -21.313  -2.049 -33.213  1.00  0.00     0.188 C 
ATOM     13  H1  UNL     1     -22.856  -3.408 -32.788  1.00  0.00     0.171 HD
HETATM   14  N2  UNL     1     -20.462  -2.909 -33.691  1.00  0.00    -0.373 N 
HETATM   15  N3  UNL     1     -20.920  -0.687 -33.167  1.00  0.00    -0.064 NA
ATOM     16  H22 UNL     1     -20.745  -3.888 -33.724  1.00  0.00     0.158 HD
ATOM     17  H21 UNL     1     -19.539  -2.634 -34.026  1.00  0.00     0.158 HD
ENDBRANCH   1   9
BRANCH   1  18
HETATM   18  N4  UNL     1     -25.335  -0.981 -30.724  1.00  0.00    -0.278 NA
HETATM   19  C6  UNL     1     -26.822  -0.967 -30.650  1.00  0.00     0.096 C 
HETATM   20  C7  UNL     1     -27.260  -0.577 -29.257  1.00  0.00     0.015 C 
HETATM   21  C8  UNL     1     -26.256   0.264 -28.516  1.00  0.00     0.002 C 
HETATM   22  C9  UNL     1     -24.928  -0.464 -28.419  1.00  0.00     0.015 C 
HETATM   23  C10 UNL     1     -25.000  -1.591 -29.410  1.00  0.00     0.096 C 
ENDBRANCH   1  18
TORSDOF 4
ENDMDL
MODEL 4
REMARK VINA RESULT: -4.969874539      2.275      4.737
REMARK  4 active torsions:
REMARK  status: ('A' for Active; 'I' for Inactive)
REMARK    1  A    between atoms: C2_2  and  C3_3 
REMARK    2  A    between atoms: C2_2  and  N5_19 
REMARK    3  A    between atoms: C3_3  and  C4_4 
REMARK    4  A    between atoms: C3_3  and  N4_13 
REMARK       I    between atoms: C4_4  and  N1_6 
REMARK       I    between atoms: N1_6  and  C5_8 
ROOT
HETATM    1  C3  UNL     1     -24.868  -2.057 -32.043  1.00  0.00     0.096 C 
ENDROOT
BRANCH   1   2
HETATM    2  C2  UNL     1     -25.425  -1.068 -31.072  1.00  0.00     0.011 C 
HETATM    3  C1  UNL     1     -26.311  -0.122 -31.858  1.00  0.00     0.064 C 
BRANCH   2   4
HETATM    4  N5  UNL     1     -25.877  -1.487 -29.797  1.00  0.00    -0.276 NA
HETATM    5  C11 UNL     1     -26.841  -0.422 -29.382  1.00  0.00     0.106 C 
HETATM    6  C12 UNL     1     -27.272  -0.770 -27.976  1.00  0.00     0.090 C 
HETATM    7  S1  UNL     1     -25.651  -1.269 -27.280  1.00  0.00    -0.153 SA
HETATM    8  C13 UNL     1     -24.741  -1.084 -28.875  1.00  0.00     0.169 C 
ENDBRANCH   2   4
ENDBRANCH   1   2
BRANCH   1   9
HETATM    9  C4  UNL     1     -25.985  -2.906 -32.511  1.00  0.00     0.270 C 
HETATM   10  O1  UNL     1     -26.443  -2.698 -33.661  1.00  0.00    -0.266 OA
HETATM   11  N1  UNL     1     -26.577  -3.946 -31.762  1.00  0.00    -0.296 N 
HETATM   12  C5  UNL     1     -27.632  -4.714 -32.280  1.00  0.00     0.188 C 
ATOM     13  H1  UNL     1     -26.231  -4.143 -30.823  1.00  0.00     0.171 HD
HETATM   14  N2  UNL     1     -28.189  -5.676 -31.605  1.00  0.00    -0.373 N 
HETATM   15  N3  UNL     1     -28.123  -4.452 -33.584  1.00  0.00    -0.064 NA
ATOM     16  H22 UNL     1     -27.836  -5.864 -30.667  1.00  0.00     0.158 HD
ATOM     17  H21 UNL     1     -28.955  -6.234 -31.982  1.00  0.00     0.158 HD
ENDBRANCH   1   9
BRANCH   1  18
HETATM   18  N4  UNL     1     -23.865  -1.793 -32.948  1.00  0.00    -0.278 NA
HETATM   19  C6  UNL     1     -22.825  -0.864 -32.427  1.00  0.00     0.096 C 
HETATM   20  C7  UNL     1     -21.529  -1.076 -33.176  1.00  0.00     0.015 C 
HETATM   21  C8  UNL     1     -21.711  -1.628 -34.564  1.00  0.00     0.002 C 
HETATM   22  C9  UNL     1     -22.461  -2.947 -34.511  1.00  0.00     0.015 C 
HETATM   23  C10 UNL     1     -23.060  -3.030 -33.136  1.00  0.00     0.096 C 
ENDBRANCH   1  18
TORSDOF 4
ENDMDL
MODEL 5
REMARK VINA RESULT: -4.884835153      1.751      4.257
REMARK  4 active torsions:
REMARK  status: ('A' for Active; 'I' for Inactive)
REMARK    1  A    between atoms: C2_2  and  C3_3 
REMARK    2  A    between atoms: C2_2  and  N5_19 
REMARK    3  A    between atoms: C3_3  and  C4_4 
REMARK    4  A    between atoms: C3_3  and  N4_13 
REMARK       I    between atoms: C4_4  and  N1_6 
REMARK       I    between atoms: N1_6  and  C5_8 
ROOT
HETATM    1  C3  UNL     1     -25.735  -2.281 -32.370  1.00  0.00     0.096 C 
ENDROOT
BRANCH   1   2
HETATM    2  C2  UNL     1     -24.915  -1.346 -33.197  1.00  0.00     0.011 C 
HETATM    3  C1  UNL     1     -25.720  -0.072 -33.360  1.00  0.00     0.064 C 
BRANCH   2   4
HETATM    4  N5  UNL     1     -23.522  -1.221 -32.974  1.00  0.00    -0.276 NA
HETATM    5  C11 UNL     1     -22.989  -0.700 -34.270  1.00  0.00     0.106 C 
HETATM    6  C12 UNL     1     -21.486  -0.651 -34.117  1.00  0.00     0.090 C 
HETATM    7  S1  UNL     1     -21.219  -2.247 -33.256  1.00  0.00    -0.153 SA
HETATM    8  C13 UNL     1     -23.016  -2.644 -33.120  1.00  0.00     0.169 C 
ENDBRANCH   2   4
ENDBRANCH   1   2
BRANCH   1   9
HETATM    9  C4  UNL     1     -26.088  -1.581 -31.116  1.00  0.00     0.270 C 
HETATM   10  O1  UNL     1     -27.300  -1.351 -30.890  1.00  0.00    -0.266 OA
HETATM   11  N1  UNL     1     -25.160  -1.154 -30.142  1.00  0.00    -0.296 N 
HETATM   12  C5  UNL     1     -25.575  -0.502 -28.971  1.00  0.00     0.188 C 
ATOM     13  H1  UNL     1     -24.166  -1.324 -30.292  1.00  0.00     0.171 HD
HETATM   14  N2  UNL     1     -24.735  -0.102 -28.061  1.00  0.00    -0.373 N 
HETATM   15  N3  UNL     1     -26.954  -0.259 -28.747  1.00  0.00    -0.064 NA
ATOM     16  H22 UNL     1     -23.744  -0.276 -28.222  1.00  0.00     0.158 HD
ATOM     17  H21 UNL     1     -25.037   0.372 -27.211  1.00  0.00     0.158 HD
ENDBRANCH   1   9
BRANCH   1  18
HETATM   18  N4  UNL     1     -26.661  -3.169 -32.870  1.00  0.00    -0.278 NA
HETATM   19  C6  UNL     1     -26.390  -3.581 -34.275  1.00  0.00     0.096 C 
HETATM   20  C7  UNL     1     -27.034  -4.922 -34.546  1.00  0.00     0.015 C 
HETATM   21  C8  UNL     1     -28.227  -5.211 -33.677  1.00  0.00     0.002 C 
HETATM   22  C9  UNL     1     -27.837  -5.150 -32.211  1.00  0.00     0.015 C 
HETATM   23  C10 UNL     1     -26.500  -4.468 -32.165  1.00  0.00     0.096 C 
ENDBRANCH   1  18
TORSDOF 4
ENDMDL
