MODEL 1
REMARK VINA RESULT: -11.315958226      0.000      0.000
REMARK  10 active torsions:
REMARK  status: ('A' for Active; 'I' for Inactive)
REMARK    1  A    between atoms: C4_5  and  O1_6 
REMARK    2  A    between atoms: O1_6  and  C5_7 
REMARK    3  A    between atoms: C8_10  and  N2_11 
REMARK       I    between atoms: N2_11  and  C9_12 
REMARK    4  A    between atoms: N2_11  and  C21_33 
REMARK    5  A    between atoms: C9_12  and  C10_14 
REMARK    6  A    between atoms: C10_14  and  C11_15 
REMARK    7  A    between atoms: C10_14  and  N4_19 
REMARK    8  A    between atoms: C11_15  and  C12_16 
REMARK       I    between atoms: N4_19  and  C13_21 
REMARK    9  A    between atoms: C13_21  and  C14_23 
REMARK   10  A    between atoms: C14_23  and  C15_24 
ROOT
HETATM    1  N1  UNL     1     -13.180  21.178  11.709  1.00  0.00    -0.191 NA
HETATM    2  C1  UNL     1     -12.578  21.825  12.432  1.00  0.00     0.101 C 
HETATM    3  C2  UNL     1     -11.801  22.625  13.333  1.00  0.00     0.069 A 
HETATM    4  C3  UNL     1     -10.445  22.348  13.463  1.00  0.00     0.065 A 
HETATM    5  C4  UNL     1      -9.653  23.082  14.308  1.00  0.00     0.116 A 
HETATM    6  C26 UNL     1     -10.233  24.104  15.027  1.00  0.00     0.151 A 
HETATM    7  F5  UNL     1      -9.502  24.896  15.876  1.00  0.00    -0.203 F 
HETATM    8  C27 UNL     1     -11.576  24.384  14.905  1.00  0.00     0.070 A 
HETATM    9  C28 UNL     1     -12.385  23.646  14.053  1.00  0.00     0.057 A 
HETATM   10 CL1  UNL     1     -14.105  23.984  13.884  1.00  0.00    -0.083 Cl
ENDROOT
BRANCH   5  11
HETATM   11  O1  UNL     1      -8.329  22.785  14.409  1.00  0.00    -0.304 OA
BRANCH  11  12
HETATM   12  C5  UNL     1      -7.280  23.631  14.178  1.00  0.00     0.114 A 
HETATM   13  C6  UNL     1      -7.175  24.410  13.050  1.00  0.00     0.043 A 
HETATM   14  C7  UNL     1      -6.088  25.245  12.871  1.00  0.00     0.032 A 
HETATM   15  C8  UNL     1      -5.060  25.352  13.786  1.00  0.00     0.040 A 
HETATM   16  C24 UNL     1      -5.171  24.570  14.915  1.00  0.00     0.075 A 
HETATM   17  C25 UNL     1      -6.248  23.733  15.110  1.00  0.00     0.152 A 
HETATM   18  F4  UNL     1      -6.343  22.962  16.245  1.00  0.00    -0.203 F 
BRANCH  15  19
HETATM   19  N2  UNL     1      -3.956  26.225  13.545  1.00  0.00    -0.311 N 
HETATM   20  C9  UNL     1      -2.629  25.738  13.492  1.00  0.00     0.248 C 
HETATM   21  O2  UNL     1      -2.494  24.499  13.812  1.00  0.00    -0.271 OA
BRANCH  20  22
HETATM   22  C10 UNL     1      -1.430  26.502  13.117  1.00  0.00     0.185 C 
BRANCH  22  23
HETATM   23  C11 UNL     1      -1.023  26.404  11.688  1.00  0.00     0.134 C 
BRANCH  23  24
HETATM   24  C12 UNL     1      -1.011  25.029  11.132  1.00  0.00     0.233 C 
HETATM   25  N3  UNL     1      -1.982  24.665  10.163  1.00  0.00    -0.062 NA
HETATM   26  O3  UNL     1      -0.177  24.182  11.485  1.00  0.00    -0.277 OA
ENDBRANCH  23  24
ENDBRANCH  22  23
BRANCH  22  27
HETATM   27  N4  UNL     1      -0.316  26.067  13.950  1.00  0.00    -0.347 N 
HETATM   28  C13 UNL     1      -0.289  26.295  15.332  1.00  0.00     0.222 C 
HETATM   29  O4  UNL     1      -1.255  26.893  15.866  1.00  0.00    -0.273 OA
ATOM     30  H4  UNL     1       0.468  25.583  13.513  1.00  0.00     0.163 HD
BRANCH  28  31
HETATM   31  C14 UNL     1       0.835  25.852  16.168  1.00  0.00     0.144 C 
BRANCH  31  32
HETATM   32  C15 UNL     1       1.033  24.374  16.029  1.00  0.00    -0.008 A 
HETATM   33  C16 UNL     1       0.053  23.454  16.316  1.00  0.00     0.056 A 
HETATM   34  C17 UNL     1       0.299  22.086  16.154  1.00  0.00     0.155 A 
HETATM   35  F1  UNL     1      -0.696  21.208  16.448  1.00  0.00    -0.203 F 
HETATM   36  C18 UNL     1       1.520  21.648  15.709  1.00  0.00     0.157 A 
HETATM   37  F2  UNL     1       1.712  20.314  15.570  1.00  0.00    -0.203 F 
HETATM   38  C19 UNL     1       2.508  22.571  15.419  1.00  0.00     0.088 A 
HETATM   39  C20 UNL     1       2.261  23.915  15.580  1.00  0.00     0.126 A 
HETATM   40  F3  UNL     1       3.244  24.795  15.287  1.00  0.00    -0.205 F 
ENDBRANCH  31  32
ENDBRANCH  28  31
ENDBRANCH  22  27
ENDBRANCH  20  22
BRANCH  19  41
HETATM   41  C21 UNL     1      -4.176  27.641  13.403  1.00  0.00     0.093 A 
HETATM   42  C22 UNL     1      -5.413  28.147  14.177  1.00  0.00     0.028 A 
HETATM   43  C23 UNL     1      -4.011  28.569  14.544  1.00  0.00     0.028 A 
ENDBRANCH  19  41
ENDBRANCH  15  19
ENDBRANCH  11  12
ENDBRANCH   5  11
TORSDOF 10
ENDMDL
MODEL 2
REMARK VINA RESULT: -11.185348790      0.978      1.304
REMARK  10 active torsions:
REMARK  status: ('A' for Active; 'I' for Inactive)
REMARK    1  A    between atoms: C4_5  and  O1_6 
REMARK    2  A    between atoms: O1_6  and  C5_7 
REMARK    3  A    between atoms: C8_10  and  N2_11 
REMARK       I    between atoms: N2_11  and  C9_12 
REMARK    4  A    between atoms: N2_11  and  C21_33 
REMARK    5  A    between atoms: C9_12  and  C10_14 
REMARK    6  A    between atoms: C10_14  and  C11_15 
REMARK    7  A    between atoms: C10_14  and  N4_19 
REMARK    8  A    between atoms: C11_15  and  C12_16 
REMARK       I    between atoms: N4_19  and  C13_21 
REMARK    9  A    between atoms: C13_21  and  C14_23 
REMARK   10  A    between atoms: C14_23  and  C15_24 
ROOT
HETATM    1  N1  UNL     1     -13.162  21.239  11.731  1.00  0.00    -0.191 NA
HETATM    2  C1  UNL     1     -12.550  21.876  12.454  1.00  0.00     0.101 C 
HETATM    3  C2  UNL     1     -11.760  22.662  13.356  1.00  0.00     0.069 A 
HETATM    4  C3  UNL     1     -10.425  22.318  13.540  1.00  0.00     0.065 A 
HETATM    5  C4  UNL     1      -9.623  23.036  14.389  1.00  0.00     0.116 A 
HETATM    6  C26 UNL     1     -10.169  24.110  15.056  1.00  0.00     0.151 A 
HETATM    7  F5  UNL     1      -9.424  24.890  15.904  1.00  0.00    -0.203 F 
HETATM    8  C27 UNL     1     -11.491  24.458  14.878  1.00  0.00     0.070 A 
HETATM    9  C28 UNL     1     -12.310  23.737  14.023  1.00  0.00     0.057 A 
HETATM   10 CL1  UNL     1     -14.002  24.161  13.784  1.00  0.00    -0.083 Cl
ENDROOT
BRANCH   5  11
HETATM   11  O1  UNL     1      -8.321  22.671  14.545  1.00  0.00    -0.304 OA
BRANCH  11  12
HETATM   12  C5  UNL     1      -7.226  23.485  14.446  1.00  0.00     0.114 A 
HETATM   13  C6  UNL     1      -6.181  23.454  15.339  1.00  0.00     0.043 A 
HETATM   14  C7  UNL     1      -5.103  24.304  15.189  1.00  0.00     0.032 A 
HETATM   15  C8  UNL     1      -5.000  25.219  14.160  1.00  0.00     0.040 A 
HETATM   16  C24 UNL     1      -6.049  25.245  13.267  1.00  0.00     0.075 A 
HETATM   17  C25 UNL     1      -7.133  24.404  13.402  1.00  0.00     0.152 A 
HETATM   18  F4  UNL     1      -8.169  24.442  12.499  1.00  0.00    -0.203 F 
BRANCH  15  19
HETATM   19  N2  UNL     1      -3.865  26.079  14.058  1.00  0.00    -0.311 N 
HETATM   20  C9  UNL     1      -2.635  25.617  13.534  1.00  0.00     0.248 C 
HETATM   21  O2  UNL     1      -2.589  24.353  13.296  1.00  0.00    -0.271 OA
BRANCH  20  22
HETATM   22  C10 UNL     1      -1.444  26.430  13.250  1.00  0.00     0.185 C 
BRANCH  22  23
HETATM   23  C11 UNL     1      -1.002  26.451  11.827  1.00  0.00     0.134 C 
BRANCH  23  24
HETATM   24  C12 UNL     1      -2.090  26.616  10.835  1.00  0.00     0.233 C 
HETATM   25  N3  UNL     1      -2.437  25.522   9.999  1.00  0.00    -0.062 NA
HETATM   26  O3  UNL     1      -2.713  27.681  10.707  1.00  0.00    -0.277 OA
ENDBRANCH  23  24
ENDBRANCH  22  23
BRANCH  22  27
HETATM   27  N4  UNL     1      -0.341  25.952  14.073  1.00  0.00    -0.347 N 
HETATM   28  C13 UNL     1      -0.234  26.275  15.432  1.00  0.00     0.222 C 
HETATM   29  O4  UNL     1      -1.117  26.999  15.953  1.00  0.00    -0.273 OA
ATOM     30  H4  UNL     1       0.376  25.364  13.647  1.00  0.00     0.163 HD
BRANCH  28  31
HETATM   31  C14 UNL     1       0.879  25.788  16.259  1.00  0.00     0.144 C 
BRANCH  31  32
HETATM   32  C15 UNL     1       1.053  24.312  16.075  1.00  0.00    -0.008 A 
HETATM   33  C16 UNL     1       0.065  23.397  16.353  1.00  0.00     0.056 A 
HETATM   34  C17 UNL     1       0.289  22.032  16.149  1.00  0.00     0.155 A 
HETATM   35  F1  UNL     1      -0.713  21.160  16.436  1.00  0.00    -0.203 F 
HETATM   36  C18 UNL     1       1.495  21.589  15.671  1.00  0.00     0.157 A 
HETATM   37  F2  UNL     1       1.666  20.258  15.491  1.00  0.00    -0.203 F 
HETATM   38  C19 UNL     1       2.491  22.506  15.389  1.00  0.00     0.088 A 
HETATM   39  C20 UNL     1       2.266  23.849  15.591  1.00  0.00     0.126 A 
HETATM   40  F3  UNL     1       3.256  24.723  15.306  1.00  0.00    -0.205 F 
ENDBRANCH  31  32
ENDBRANCH  28  31
ENDBRANCH  22  27
ENDBRANCH  20  22
BRANCH  19  41
HETATM   41  C21 UNL     1      -3.941  27.433  14.543  1.00  0.00     0.093 A 
HETATM   42  C22 UNL     1      -4.716  28.377  13.597  1.00  0.00     0.028 A 
HETATM   43  C23 UNL     1      -5.225  28.030  14.976  1.00  0.00     0.028 A 
ENDBRANCH  19  41
ENDBRANCH  15  19
ENDBRANCH  11  12
ENDBRANCH   5  11
TORSDOF 10
ENDMDL
MODEL 3
REMARK VINA RESULT: -11.019373122      4.233     10.558
REMARK  10 active torsions:
REMARK  status: ('A' for Active; 'I' for Inactive)
REMARK    1  A    between atoms: C4_5  and  O1_6 
REMARK    2  A    between atoms: O1_6  and  C5_7 
REMARK    3  A    between atoms: C8_10  and  N2_11 
REMARK       I    between atoms: N2_11  and  C9_12 
REMARK    4  A    between atoms: N2_11  and  C21_33 
REMARK    5  A    between atoms: C9_12  and  C10_14 
REMARK    6  A    between atoms: C10_14  and  C11_15 
REMARK    7  A    between atoms: C10_14  and  N4_19 
REMARK    8  A    between atoms: C11_15  and  C12_16 
REMARK       I    between atoms: N4_19  and  C13_21 
REMARK    9  A    between atoms: C13_21  and  C14_23 
REMARK   10  A    between atoms: C14_23  and  C15_24 
ROOT
HETATM    1  N1  UNL     1       1.669  20.368  15.619  1.00  0.00    -0.191 NA
HETATM    2  C1  UNL     1       1.474  21.486  15.494  1.00  0.00     0.101 C 
HETATM    3  C2  UNL     1       1.210  22.885  15.321  1.00  0.00     0.069 A 
HETATM    4  C3  UNL     1       0.232  23.267  14.410  1.00  0.00     0.065 A 
HETATM    5  C4  UNL     1      -0.064  24.590  14.206  1.00  0.00     0.116 A 
HETATM    6  C26 UNL     1       0.630  25.536  14.927  1.00  0.00     0.151 A 
HETATM    7  F5  UNL     1       0.376  26.877  14.795  1.00  0.00    -0.203 F 
HETATM    8  C27 UNL     1       1.601  25.165  15.832  1.00  0.00     0.070 A 
HETATM    9  C28 UNL     1       1.908  23.830  16.044  1.00  0.00     0.057 A 
HETATM   10 CL1  UNL     1       3.147  23.334  17.193  1.00  0.00    -0.083 Cl
ENDROOT
BRANCH   5  11
HETATM   11  O1  UNL     1      -1.028  24.927  13.307  1.00  0.00    -0.304 OA
BRANCH  11  12
HETATM   12  C5  UNL     1      -2.347  25.173  13.574  1.00  0.00     0.114 A 
HETATM   13  C6  UNL     1      -3.055  24.507  14.546  1.00  0.00     0.043 A 
HETATM   14  C7  UNL     1      -4.388  24.796  14.767  1.00  0.00     0.032 A 
HETATM   15  C8  UNL     1      -5.083  25.749  14.049  1.00  0.00     0.040 A 
HETATM   16  C24 UNL     1      -4.368  26.414  13.078  1.00  0.00     0.075 A 
HETATM   17  C25 UNL     1      -3.038  26.139  12.844  1.00  0.00     0.152 A 
HETATM   18  F4  UNL     1      -2.340  26.816  11.872  1.00  0.00    -0.203 F 
BRANCH  15  19
HETATM   19  N2  UNL     1      -6.463  26.001  14.316  1.00  0.00    -0.311 N 
HETATM   20  C9  UNL     1      -6.884  27.189  14.958  1.00  0.00     0.248 C 
HETATM   21  O2  UNL     1      -5.931  27.935  15.395  1.00  0.00    -0.271 OA
BRANCH  20  22
HETATM   22  C10 UNL     1      -8.271  27.629  15.164  1.00  0.00     0.185 C 
BRANCH  22  23
HETATM   23  C11 UNL     1      -8.444  28.857  15.989  1.00  0.00     0.134 C 
BRANCH  23  24
HETATM   24  C12 UNL     1      -8.399  28.640  17.454  1.00  0.00     0.233 C 
HETATM   25  N3  UNL     1      -9.590  28.278  18.137  1.00  0.00    -0.062 NA
HETATM   26  O3  UNL     1      -7.354  28.763  18.109  1.00  0.00    -0.277 OA
ENDBRANCH  23  24
ENDBRANCH  22  23
BRANCH  22  27
HETATM   27  N4  UNL     1      -9.022  26.544  15.782  1.00  0.00    -0.347 N 
HETATM   28  C13 UNL     1     -10.243  26.094  15.261  1.00  0.00     0.222 C 
HETATM   29  O4  UNL     1     -10.701  26.645  14.230  1.00  0.00    -0.273 OA
ATOM     30  H4  UNL     1      -8.648  26.098  16.620  1.00  0.00     0.163 HD
BRANCH  28  31
HETATM   31  C14 UNL     1     -10.994  24.997  15.886  1.00  0.00     0.144 C 
BRANCH  31  32
HETATM   32  C15 UNL     1     -11.472  24.035  14.842  1.00  0.00    -0.008 A 
HETATM   33  C16 UNL     1     -10.688  23.030  14.330  1.00  0.00     0.056 A 
HETATM   34  C17 UNL     1     -11.200  22.158  13.363  1.00  0.00     0.155 A 
HETATM   35  F1  UNL     1     -10.394  21.176  12.882  1.00  0.00    -0.203 F 
HETATM   36  C18 UNL     1     -12.489  22.297  12.915  1.00  0.00     0.157 A 
HETATM   37  F2  UNL     1     -12.940  21.430  11.977  1.00  0.00    -0.203 F 
HETATM   38  C19 UNL     1     -13.281  23.307  13.429  1.00  0.00     0.088 A 
HETATM   39  C20 UNL     1     -12.773  24.162  14.379  1.00  0.00     0.126 A 
HETATM   40  F3  UNL     1     -13.569  25.140  14.866  1.00  0.00    -0.205 F 
ENDBRANCH  31  32
ENDBRANCH  28  31
ENDBRANCH  22  27
ENDBRANCH  20  22
BRANCH  19  41
HETATM   41  C21 UNL     1      -7.454  25.013  13.978  1.00  0.00     0.093 A 
HETATM   42  C22 UNL     1      -7.761  24.950  12.465  1.00  0.00     0.028 A 
HETATM   43  C23 UNL     1      -7.108  23.803  13.199  1.00  0.00     0.028 A 
ENDBRANCH  19  41
ENDBRANCH  15  19
ENDBRANCH  11  12
ENDBRANCH   5  11
TORSDOF 10
ENDMDL
MODEL 4
REMARK VINA RESULT: -10.914853479      1.501      1.836
REMARK  10 active torsions:
REMARK  status: ('A' for Active; 'I' for Inactive)
REMARK    1  A    between atoms: C4_5  and  O1_6 
REMARK    2  A    between atoms: O1_6  and  C5_7 
REMARK    3  A    between atoms: C8_10  and  N2_11 
REMARK       I    between atoms: N2_11  and  C9_12 
REMARK    4  A    between atoms: N2_11  and  C21_33 
REMARK    5  A    between atoms: C9_12  and  C10_14 
REMARK    6  A    between atoms: C10_14  and  C11_15 
REMARK    7  A    between atoms: C10_14  and  N4_19 
REMARK    8  A    between atoms: C11_15  and  C12_16 
REMARK       I    between atoms: N4_19  and  C13_21 
REMARK    9  A    between atoms: C13_21  and  C14_23 
REMARK   10  A    between atoms: C14_23  and  C15_24 
ROOT
HETATM    1  N1  UNL     1     -11.956  25.607  17.654  1.00  0.00    -0.191 NA
HETATM    2  C1  UNL     1     -11.759  24.864  16.810  1.00  0.00     0.101 C 
HETATM    3  C2  UNL     1     -11.488  23.931  15.756  1.00  0.00     0.069 A 
HETATM    4  C3  UNL     1     -10.164  23.603  15.485  1.00  0.00     0.065 A 
HETATM    5  C4  UNL     1      -9.846  22.716  14.490  1.00  0.00     0.116 A 
HETATM    6  C26 UNL     1     -10.871  22.152  13.762  1.00  0.00     0.151 A 
HETATM    7  F5  UNL     1     -10.634  21.240  12.766  1.00  0.00    -0.203 F 
HETATM    8  C27 UNL     1     -12.186  22.472  14.024  1.00  0.00     0.070 A 
HETATM    9  C28 UNL     1     -12.516  23.369  15.028  1.00  0.00     0.057 A 
HETATM   10 CL1  UNL     1     -14.189  23.795  15.377  1.00  0.00    -0.083 Cl
ENDROOT
BRANCH   5  11
HETATM   11  O1  UNL     1      -8.540  22.418  14.253  1.00  0.00    -0.304 OA
BRANCH  11  12
HETATM   12  C5  UNL     1      -7.522  23.307  14.044  1.00  0.00     0.114 A 
HETATM   13  C6  UNL     1      -7.318  23.950  12.847  1.00  0.00     0.043 A 
HETATM   14  C7  UNL     1      -6.269  24.836  12.694  1.00  0.00     0.032 A 
HETATM   15  C8  UNL     1      -5.377  25.131  13.707  1.00  0.00     0.040 A 
HETATM   16  C24 UNL     1      -5.587  24.485  14.905  1.00  0.00     0.075 A 
HETATM   17  C25 UNL     1      -6.628  23.598  15.074  1.00  0.00     0.152 A 
HETATM   18  F4  UNL     1      -6.824  22.965  16.279  1.00  0.00    -0.203 F 
BRANCH  15  19
HETATM   19  N2  UNL     1      -4.305  26.050  13.490  1.00  0.00    -0.311 N 
HETATM   20  C9  UNL     1      -2.956  25.627  13.515  1.00  0.00     0.248 C 
HETATM   21  O2  UNL     1      -2.778  24.405  13.878  1.00  0.00    -0.271 OA
BRANCH  20  22
HETATM   22  C10 UNL     1      -1.778  26.437  13.173  1.00  0.00     0.185 C 
BRANCH  22  23
HETATM   23  C11 UNL     1      -1.329  26.357  11.755  1.00  0.00     0.134 C 
BRANCH  23  24
HETATM   24  C12 UNL     1      -1.078  24.985  11.252  1.00  0.00     0.233 C 
HETATM   25  N3  UNL     1      -1.926  24.450  10.247  1.00  0.00    -0.062 NA
HETATM   26  O3  UNL     1      -0.149  24.284  11.680  1.00  0.00    -0.277 OA
ENDBRANCH  23  24
ENDBRANCH  22  23
BRANCH  22  27
HETATM   27  N4  UNL     1      -0.671  26.044  14.035  1.00  0.00    -0.347 N 
HETATM   28  C13 UNL     1      -0.621  26.402  15.389  1.00  0.00     0.222 C 
HETATM   29  O4  UNL     1      -1.560  27.082  15.870  1.00  0.00    -0.273 OA
ATOM     30  H4  UNL     1       0.091  25.492  13.641  1.00  0.00     0.163 HD
BRANCH  28  31
HETATM   31  C14 UNL     1       0.497  26.000  16.255  1.00  0.00     0.144 C 
BRANCH  31  32
HETATM   32  C15 UNL     1       0.785  24.541  16.085  1.00  0.00    -0.008 A 
HETATM   33  C16 UNL     1      -0.157  23.559  16.287  1.00  0.00     0.056 A 
HETATM   34  C17 UNL     1       0.175  22.213  16.101  1.00  0.00     0.155 A 
HETATM   35  F1  UNL     1      -0.784  21.273  16.310  1.00  0.00    -0.203 F 
HETATM   36  C18 UNL     1       1.442  21.857  15.716  1.00  0.00     0.157 A 
HETATM   37  F2  UNL     1       1.717  20.541  15.550  1.00  0.00    -0.203 F 
HETATM   38  C19 UNL     1       2.392  22.841  15.511  1.00  0.00     0.088 A 
HETATM   39  C20 UNL     1       2.061  24.164  15.696  1.00  0.00     0.126 A 
HETATM   40  F3  UNL     1       3.007  25.105  15.487  1.00  0.00    -0.205 F 
ENDBRANCH  31  32
ENDBRANCH  28  31
ENDBRANCH  22  27
ENDBRANCH  20  22
BRANCH  19  41
HETATM   41  C21 UNL     1      -4.585  27.449  13.295  1.00  0.00     0.093 A 
HETATM   42  C22 UNL     1      -5.737  27.970  14.182  1.00  0.00     0.028 A 
HETATM   43  C23 UNL     1      -4.315  28.448  14.353  1.00  0.00     0.028 A 
ENDBRANCH  19  41
ENDBRANCH  15  19
ENDBRANCH  11  12
ENDBRANCH   5  11
TORSDOF 10
ENDMDL
MODEL 5
REMARK VINA RESULT: -10.715323503      4.194     10.497
REMARK  10 active torsions:
REMARK  status: ('A' for Active; 'I' for Inactive)
REMARK    1  A    between atoms: C4_5  and  O1_6 
REMARK    2  A    between atoms: O1_6  and  C5_7 
REMARK    3  A    between atoms: C8_10  and  N2_11 
REMARK       I    between atoms: N2_11  and  C9_12 
REMARK    4  A    between atoms: N2_11  and  C21_33 
REMARK    5  A    between atoms: C9_12  and  C10_14 
REMARK    6  A    between atoms: C10_14  and  C11_15 
REMARK    7  A    between atoms: C10_14  and  N4_19 
REMARK    8  A    between atoms: C11_15  and  C12_16 
REMARK       I    between atoms: N4_19  and  C13_21 
REMARK    9  A    between atoms: C13_21  and  C14_23 
REMARK   10  A    between atoms: C14_23  and  C15_24 
ROOT
HETATM    1  N1  UNL     1       1.678  20.213  15.612  1.00  0.00    -0.191 NA
HETATM    2  C1  UNL     1       1.530  21.338  15.492  1.00  0.00     0.101 C 
HETATM    3  C2  UNL     1       1.324  22.748  15.326  1.00  0.00     0.069 A 
HETATM    4  C3  UNL     1       0.364  23.174  14.414  1.00  0.00     0.065 A 
HETATM    5  C4  UNL     1       0.123  24.508  14.216  1.00  0.00     0.116 A 
HETATM    6  C26 UNL     1       0.855  25.422  14.943  1.00  0.00     0.151 A 
HETATM    7  F5  UNL     1       0.656  26.773  14.816  1.00  0.00    -0.203 F 
HETATM    8  C27 UNL     1       1.809  25.008  15.848  1.00  0.00     0.070 A 
HETATM    9  C28 UNL     1       2.059  23.660  16.054  1.00  0.00     0.057 A 
HETATM   10 CL1  UNL     1       3.275  23.108  17.202  1.00  0.00    -0.083 Cl
ENDROOT
BRANCH   5  11
HETATM   11  O1  UNL     1      -0.824  24.890  13.317  1.00  0.00    -0.304 OA
BRANCH  11  12
HETATM   12  C5  UNL     1      -2.139  25.160  13.579  1.00  0.00     0.114 A 
HETATM   13  C6  UNL     1      -2.866  24.504  14.544  1.00  0.00     0.043 A 
HETATM   14  C7  UNL     1      -4.193  24.818  14.760  1.00  0.00     0.032 A 
HETATM   15  C8  UNL     1      -4.866  25.787  14.042  1.00  0.00     0.040 A 
HETATM   16  C24 UNL     1      -4.133  26.443  13.077  1.00  0.00     0.075 A 
HETATM   17  C25 UNL     1      -2.808  26.142  12.849  1.00  0.00     0.152 A 
HETATM   18  F4  UNL     1      -2.091  26.809  11.883  1.00  0.00    -0.203 F 
BRANCH  15  19
HETATM   19  N2  UNL     1      -6.242  26.065  14.303  1.00  0.00    -0.311 N 
HETATM   20  C9  UNL     1      -6.640  27.243  14.978  1.00  0.00     0.248 C 
HETATM   21  O2  UNL     1      -5.674  27.951  15.448  1.00  0.00    -0.271 OA
BRANCH  20  22
HETATM   22  C10 UNL     1      -8.019  27.710  15.184  1.00  0.00     0.185 C 
BRANCH  22  23
HETATM   23  C11 UNL     1      -8.167  28.940  16.011  1.00  0.00     0.134 C 
BRANCH  23  24
HETATM   24  C12 UNL     1      -8.221  28.708  17.474  1.00  0.00     0.233 C 
HETATM   25  N3  UNL     1      -9.462  28.378  18.079  1.00  0.00    -0.062 NA
HETATM   26  O3  UNL     1      -7.214  28.793  18.194  1.00  0.00    -0.277 OA
ENDBRANCH  23  24
ENDBRANCH  22  23
BRANCH  22  27
HETATM   27  N4  UNL     1      -8.792  26.639  15.798  1.00  0.00    -0.347 N 
HETATM   28  C13 UNL     1     -10.038  26.239  15.296  1.00  0.00     0.222 C 
HETATM   29  O4  UNL     1     -10.499  26.825  14.285  1.00  0.00    -0.273 OA
ATOM     30  H4  UNL     1      -8.415  26.166  16.620  1.00  0.00     0.163 HD
BRANCH  28  31
HETATM   31  C14 UNL     1     -10.812  25.156  15.918  1.00  0.00     0.144 C 
BRANCH  31  32
HETATM   32  C15 UNL     1     -11.371  24.249  14.866  1.00  0.00    -0.008 A 
HETATM   33  C16 UNL     1     -12.564  24.486  14.225  1.00  0.00     0.056 A 
HETATM   34  C17 UNL     1     -13.025  23.603  13.243  1.00  0.00     0.155 A 
HETATM   35  F1  UNL     1     -14.208  23.873  12.632  1.00  0.00    -0.203 F 
HETATM   36  C18 UNL     1     -12.294  22.492  12.909  1.00  0.00     0.157 A 
HETATM   37  F2  UNL     1     -12.782  21.665  11.953  1.00  0.00    -0.203 F 
HETATM   38  C19 UNL     1     -11.094  22.251  13.551  1.00  0.00     0.088 A 
HETATM   39  C20 UNL     1     -10.644  23.122  14.517  1.00  0.00     0.126 A 
HETATM   40  F3  UNL     1      -9.467  22.863  15.127  1.00  0.00    -0.205 F 
ENDBRANCH  31  32
ENDBRANCH  28  31
ENDBRANCH  22  27
ENDBRANCH  20  22
BRANCH  19  41
HETATM   41  C21 UNL     1      -7.254  25.113  13.924  1.00  0.00     0.093 A 
HETATM   42  C22 UNL     1      -7.723  25.271  12.461  1.00  0.00     0.028 A 
HETATM   43  C23 UNL     1      -6.981  24.045  12.936  1.00  0.00     0.028 A 
ENDBRANCH  19  41
ENDBRANCH  15  19
ENDBRANCH  11  12
ENDBRANCH   5  11
TORSDOF 10
ENDMDL
