MODEL 1
REMARK VINA RESULT: -7.251308451      0.000      0.000
REMARK  10 active torsions:
REMARK  status: ('A' for Active; 'I' for Inactive)
REMARK    1  A    between atoms: N1_1  and  C1_5 
REMARK    2  A    between atoms: C1_5  and  C2_6 
REMARK    3  A    between atoms: C2_6  and  N2_7 
REMARK    4  A    between atoms: C2_6  and  C3_11 
REMARK    5  A    between atoms: C3_11  and  C4_12 
REMARK    6  A    between atoms: C9_17  and  C10_18 
REMARK    7  A    between atoms: C10_18  and  N3_19 
REMARK    8  A    between atoms: N3_19  and  C11_22 
REMARK    9  A    between atoms: C11_22  and  C12_23 
REMARK   10  A    between atoms: C11_22  and  C13_26 
ROOT
HETATM    1  C4  UNL     1      -6.566  19.022 -25.075  1.00  0.00    -0.007 C 
HETATM    2  C5  UNL     1      -5.604  17.891 -25.036  1.00  0.00     0.005 C 
HETATM    3  C6  UNL     1      -6.393  16.606 -25.212  1.00  0.00     0.000 C 
HETATM    4  C7  UNL     1      -7.126  16.367 -23.916  1.00  0.00     0.000 C 
HETATM    5  C8  UNL     1      -7.363  17.643 -23.158  1.00  0.00     0.007 C 
HETATM    6  C9  UNL     1      -7.703  18.760 -24.075  1.00  0.00     0.015 C 
ENDROOT
BRANCH   1   7
HETATM    7  C3  UNL     1      -7.193  19.331 -26.385  1.00  0.00     0.039 C 
BRANCH   7   8
HETATM    8  C2  UNL     1      -6.343  20.087 -27.340  1.00  0.00     0.209 C 
BRANCH   8   9
HETATM    9  C1  UNL     1      -5.273  20.894 -26.545  1.00  0.00     0.262 C 
BRANCH   9  10
HETATM   10  N1  UNL     1      -4.503  21.663 -27.484  1.00  0.00    -0.077 N 
ATOM     11  H13 UNL     1      -3.504  21.462 -27.433  1.00  0.00     0.274 HD
ATOM     12  H12 UNL     1      -4.653  21.369 -28.450  1.00  0.00     0.274 HD
ATOM     13  H11 UNL     1      -4.714  22.649 -27.336  1.00  0.00     0.274 HD
ENDBRANCH   9  10
ENDBRANCH   8   9
BRANCH   8  14
HETATM   14  N2  UNL     1      -7.122  21.079 -28.082  1.00  0.00    -0.073 N 
ATOM     15  H23 UNL     1      -7.740  20.671 -28.783  1.00  0.00     0.274 HD
ATOM     16  H22 UNL     1      -7.849  21.527 -27.525  1.00  0.00     0.274 HD
ATOM     17  H21 UNL     1      -6.442  21.734 -28.468  1.00  0.00     0.274 HD
ENDBRANCH   8  14
ENDBRANCH   7   8
ENDBRANCH   1   7
BRANCH   6  18
HETATM   18  C10 UNL     1      -7.917  20.055 -23.312  1.00  0.00     0.238 C 
BRANCH  18  19
HETATM   19  N3  UNL     1      -8.820  19.928 -22.202  1.00  0.00    -0.062 N 
ATOM     20  H32 UNL     1      -9.753  19.643 -22.500  1.00  0.00     0.278 HD
ATOM     21  H31 UNL     1      -8.596  19.121 -21.618  1.00  0.00     0.278 HD
BRANCH  19  22
HETATM   22  C11 UNL     1      -8.848  21.180 -21.423  1.00  0.00     0.278 C 
BRANCH  22  23
HETATM   23  C12 UNL     1      -7.547  21.616 -20.976  1.00  0.00     0.262 C 
HETATM   24  N4  UNL     1      -7.024  22.916 -21.114  1.00  0.00    -0.060 NA
HETATM   25  O1  UNL     1      -6.746  20.798 -20.400  1.00  0.00    -0.275 OA
ENDBRANCH  22  23
BRANCH  22  26
HETATM   26  C13 UNL     1      -9.936  21.054 -20.419  1.00  0.00     0.025 A 
HETATM   27  C14 UNL     1     -11.148  21.869 -20.564  1.00  0.00     0.007 A 
HETATM   28  C15 UNL     1     -10.208  21.959 -19.325  1.00  0.00     0.007 A 
ENDBRANCH  22  26
ENDBRANCH  19  22
ENDBRANCH  18  19
ENDBRANCH   6  18
TORSDOF 10
ENDMDL
MODEL 2
REMARK VINA RESULT: -6.868472415      1.734      2.231
REMARK  10 active torsions:
REMARK  status: ('A' for Active; 'I' for Inactive)
REMARK    1  A    between atoms: N1_1  and  C1_5 
REMARK    2  A    between atoms: C1_5  and  C2_6 
REMARK    3  A    between atoms: C2_6  and  N2_7 
REMARK    4  A    between atoms: C2_6  and  C3_11 
REMARK    5  A    between atoms: C3_11  and  C4_12 
REMARK    6  A    between atoms: C9_17  and  C10_18 
REMARK    7  A    between atoms: C10_18  and  N3_19 
REMARK    8  A    between atoms: N3_19  and  C11_22 
REMARK    9  A    between atoms: C11_22  and  C12_23 
REMARK   10  A    between atoms: C11_22  and  C13_26 
ROOT
HETATM    1  C4  UNL     1      -6.679  19.733 -24.496  1.00  0.00    -0.007 C 
HETATM    2  C5  UNL     1      -5.743  18.595 -24.681  1.00  0.00     0.005 C 
HETATM    3  C6  UNL     1      -6.566  17.320 -24.718  1.00  0.00     0.000 C 
HETATM    4  C7  UNL     1      -7.019  17.055 -23.305  1.00  0.00     0.000 C 
HETATM    5  C8  UNL     1      -7.080  18.313 -22.486  1.00  0.00     0.007 C 
HETATM    6  C9  UNL     1      -7.589  19.455 -23.287  1.00  0.00     0.015 C 
ENDROOT
BRANCH   1   7
HETATM    7  C3  UNL     1      -7.560  20.078 -25.641  1.00  0.00     0.039 C 
BRANCH   7   8
HETATM    8  C2  UNL     1      -6.952  19.921 -26.986  1.00  0.00     0.209 C 
BRANCH   8   9
HETATM    9  C1  UNL     1      -5.947  21.086 -27.234  1.00  0.00     0.262 C 
BRANCH   9  10
HETATM   10  N1  UNL     1      -6.484  21.928 -28.268  1.00  0.00    -0.077 N 
ATOM     11  H13 UNL     1      -6.638  21.427 -29.143  1.00  0.00     0.274 HD
ATOM     12  H12 UNL     1      -7.452  22.199 -28.093  1.00  0.00     0.274 HD
ATOM     13  H11 UNL     1      -5.865  22.730 -28.378  1.00  0.00     0.274 HD
ENDBRANCH   9  10
ENDBRANCH   8   9
BRANCH   8  14
HETATM   14  N2  UNL     1      -7.958  20.028 -28.044  1.00  0.00    -0.073 N 
ATOM     15  H23 UNL     1      -8.402  20.945 -28.093  1.00  0.00     0.274 HD
ATOM     16  H22 UNL     1      -7.561  20.035 -28.983  1.00  0.00     0.274 HD
ATOM     17  H21 UNL     1      -8.614  19.265 -27.883  1.00  0.00     0.274 HD
ENDBRANCH   8  14
ENDBRANCH   7   8
ENDBRANCH   1   7
BRANCH   6  18
HETATM   18  C10 UNL     1      -7.625  20.732 -22.469  1.00  0.00     0.238 C 
BRANCH  18  19
HETATM   19  N3  UNL     1      -8.954  21.220 -22.220  1.00  0.00    -0.062 N 
ATOM     20  H32 UNL     1      -9.031  22.222 -22.392  1.00  0.00     0.278 HD
ATOM     21  H31 UNL     1      -9.617  20.896 -22.925  1.00  0.00     0.278 HD
BRANCH  19  22
HETATM   22  C11 UNL     1      -9.381  20.859 -20.856  1.00  0.00     0.278 C 
BRANCH  22  23
HETATM   23  C12 UNL     1     -10.790  21.061 -20.615  1.00  0.00     0.262 C 
HETATM   24  N4  UNL     1     -11.619  20.225 -19.843  1.00  0.00    -0.060 NA
HETATM   25  O1  UNL     1     -11.401  22.068 -21.120  1.00  0.00    -0.275 OA
ENDBRANCH  22  23
BRANCH  22  26
HETATM   26  C13 UNL     1      -8.407  21.465 -19.911  1.00  0.00     0.025 A 
HETATM   27  C14 UNL     1      -8.755  21.578 -18.490  1.00  0.00     0.007 A 
HETATM   28  C15 UNL     1      -8.439  22.812 -19.387  1.00  0.00     0.007 A 
ENDBRANCH  22  26
ENDBRANCH  19  22
ENDBRANCH  18  19
ENDBRANCH   6  18
TORSDOF 10
ENDMDL
MODEL 3
REMARK VINA RESULT: -6.842726588      2.561      6.066
REMARK  10 active torsions:
REMARK  status: ('A' for Active; 'I' for Inactive)
REMARK    1  A    between atoms: N1_1  and  C1_5 
REMARK    2  A    between atoms: C1_5  and  C2_6 
REMARK    3  A    between atoms: C2_6  and  N2_7 
REMARK    4  A    between atoms: C2_6  and  C3_11 
REMARK    5  A    between atoms: C3_11  and  C4_12 
REMARK    6  A    between atoms: C9_17  and  C10_18 
REMARK    7  A    between atoms: C10_18  and  N3_19 
REMARK    8  A    between atoms: N3_19  and  C11_22 
REMARK    9  A    between atoms: C11_22  and  C12_23 
REMARK   10  A    between atoms: C11_22  and  C13_26 
ROOT
HETATM    1  C4  UNL     1      -6.741  19.962 -22.542  1.00  0.00    -0.007 C 
HETATM    2  C5  UNL     1      -6.590  20.854 -21.365  1.00  0.00     0.005 C 
HETATM    3  C6  UNL     1      -7.828  20.693 -20.501  1.00  0.00     0.000 C 
HETATM    4  C7  UNL     1      -8.952  21.398 -21.218  1.00  0.00     0.000 C 
HETATM    5  C8  UNL     1      -8.715  21.476 -22.701  1.00  0.00     0.007 C 
HETATM    6  C9  UNL     1      -8.098  20.226 -23.214  1.00  0.00     0.015 C 
ENDROOT
BRANCH   1   7
HETATM    7  C3  UNL     1      -6.645  18.500 -22.300  1.00  0.00     0.039 C 
BRANCH   7   8
HETATM    8  C2  UNL     1      -6.682  17.646 -23.514  1.00  0.00     0.209 C 
BRANCH   8   9
HETATM    9  C1  UNL     1      -7.174  16.220 -23.122  1.00  0.00     0.262 C 
BRANCH   9  10
HETATM   10  N1  UNL     1      -7.247  15.427 -24.319  1.00  0.00    -0.077 N 
ATOM     11  H13 UNL     1      -8.207  15.243 -24.611  1.00  0.00     0.274 HD
ATOM     12  H12 UNL     1      -6.946  15.939 -25.149  1.00  0.00     0.274 HD
ATOM     13  H11 UNL     1      -6.711  14.573 -24.167  1.00  0.00     0.274 HD
ENDBRANCH   9  10
ENDBRANCH   8   9
BRANCH   8  14
HETATM   14  N2  UNL     1      -5.345  17.465 -24.083  1.00  0.00    -0.073 N 
ATOM     15  H23 UNL     1      -5.318  16.798 -24.854  1.00  0.00     0.274 HD
ATOM     16  H22 UNL     1      -5.013  18.273 -24.608  1.00  0.00     0.274 HD
ATOM     17  H21 UNL     1      -4.742  17.210 -23.301  1.00  0.00     0.274 HD
ENDBRANCH   8  14
ENDBRANCH   7   8
ENDBRANCH   1   7
BRANCH   6  18
HETATM   18  C10 UNL     1      -7.834  20.314 -24.706  1.00  0.00     0.238 C 
BRANCH  18  19
HETATM   19  N3  UNL     1      -6.454  20.540 -25.035  1.00  0.00    -0.062 N 
ATOM     20  H32 UNL     1      -6.087  21.379 -24.584  1.00  0.00     0.278 HD
ATOM     21  H31 UNL     1      -5.839  19.853 -24.596  1.00  0.00     0.278 HD
BRANCH  19  22
HETATM   22  C11 UNL     1      -6.279  20.579 -26.499  1.00  0.00     0.278 C 
BRANCH  22  23
HETATM   23  C12 UNL     1      -6.897  19.472 -27.188  1.00  0.00     0.262 C 
HETATM   24  N4  UNL     1      -7.964  19.565 -28.102  1.00  0.00    -0.060 NA
HETATM   25  O1  UNL     1      -6.489  18.272 -26.993  1.00  0.00    -0.275 OA
ENDBRANCH  22  23
BRANCH  22  26
HETATM   26  C13 UNL     1      -4.848  20.871 -26.768  1.00  0.00     0.025 A 
HETATM   27  C14 UNL     1      -4.069  21.633 -25.783  1.00  0.00     0.007 A 
HETATM   28  C15 UNL     1      -4.298  22.121 -27.246  1.00  0.00     0.007 A 
ENDBRANCH  22  26
ENDBRANCH  19  22
ENDBRANCH  18  19
ENDBRANCH   6  18
TORSDOF 10
ENDMDL
MODEL 4
REMARK VINA RESULT: -6.818529845      2.372      5.635
REMARK  10 active torsions:
REMARK  status: ('A' for Active; 'I' for Inactive)
REMARK    1  A    between atoms: N1_1  and  C1_5 
REMARK    2  A    between atoms: C1_5  and  C2_6 
REMARK    3  A    between atoms: C2_6  and  N2_7 
REMARK    4  A    between atoms: C2_6  and  C3_11 
REMARK    5  A    between atoms: C3_11  and  C4_12 
REMARK    6  A    between atoms: C9_17  and  C10_18 
REMARK    7  A    between atoms: C10_18  and  N3_19 
REMARK    8  A    between atoms: N3_19  and  C11_22 
REMARK    9  A    between atoms: C11_22  and  C12_23 
REMARK   10  A    between atoms: C11_22  and  C13_26 
ROOT
HETATM    1  C4  UNL     1      -7.156  18.952 -24.123  1.00  0.00    -0.007 C 
HETATM    2  C5  UNL     1      -8.258  18.060 -24.563  1.00  0.00     0.005 C 
HETATM    3  C6  UNL     1      -8.008  16.686 -23.967  1.00  0.00     0.000 C 
HETATM    4  C7  UNL     1      -6.862  16.081 -24.738  1.00  0.00     0.000 C 
HETATM    5  C8  UNL     1      -5.977  17.130 -25.351  1.00  0.00     0.007 C 
HETATM    6  C9  UNL     1      -5.805  18.290 -24.440  1.00  0.00     0.015 C 
ENDROOT
BRANCH   1   7
HETATM    7  C3  UNL     1      -7.131  19.340 -22.690  1.00  0.00     0.039 C 
BRANCH   7   8
HETATM    8  C2  UNL     1      -7.954  20.523 -22.332  1.00  0.00     0.209 C 
BRANCH   8   9
HETATM    9  C1  UNL     1      -7.156  21.422 -21.341  1.00  0.00     0.262 C 
BRANCH   9  10
HETATM   10  N1  UNL     1      -8.059  21.868 -20.315  1.00  0.00    -0.077 N 
ATOM     11  H13 UNL     1      -7.575  22.223 -19.491  1.00  0.00     0.274 HD
ATOM     12  H12 UNL     1      -8.548  22.727 -20.568  1.00  0.00     0.274 HD
ATOM     13  H11 UNL     1      -8.696  21.102 -20.098  1.00  0.00     0.274 HD
ENDBRANCH   9  10
ENDBRANCH   8   9
BRANCH   8  14
HETATM   14  N2  UNL     1      -9.174  20.133 -21.624  1.00  0.00    -0.073 N 
ATOM     15  H23 UNL     1      -9.560  19.241 -21.936  1.00  0.00     0.274 HD
ATOM     16  H22 UNL     1      -9.014  19.864 -20.654  1.00  0.00     0.274 HD
ATOM     17  H21 UNL     1      -9.819  20.916 -21.730  1.00  0.00     0.274 HD
ENDBRANCH   8  14
ENDBRANCH   7   8
ENDBRANCH   1   7
BRANCH   6  18
HETATM   18  C10 UNL     1      -4.933  19.361 -25.069  1.00  0.00     0.238 C 
BRANCH  18  19
HETATM   19  N3  UNL     1      -5.670  20.507 -25.528  1.00  0.00    -0.062 N 
ATOM     20  H32 UNL     1      -6.678  20.365 -25.457  1.00  0.00     0.278 HD
ATOM     21  H31 UNL     1      -5.584  21.297 -24.888  1.00  0.00     0.278 HD
BRANCH  19  22
HETATM   22  C11 UNL     1      -5.257  20.861 -26.898  1.00  0.00     0.278 C 
BRANCH  22  23
HETATM   23  C12 UNL     1      -4.493  22.083 -26.978  1.00  0.00     0.262 C 
HETATM   24  N4  UNL     1      -4.871  23.244 -27.681  1.00  0.00    -0.060 NA
HETATM   25  O1  UNL     1      -3.363  22.187 -26.384  1.00  0.00    -0.275 OA
ENDBRANCH  22  23
BRANCH  22  26
HETATM   26  C13 UNL     1      -6.448  20.712 -27.773  1.00  0.00     0.025 A 
HETATM   27  C14 UNL     1      -7.780  21.023 -27.238  1.00  0.00     0.007 A 
HETATM   28  C15 UNL     1      -7.387  19.612 -27.771  1.00  0.00     0.007 A 
ENDBRANCH  22  26
ENDBRANCH  19  22
ENDBRANCH  18  19
ENDBRANCH   6  18
TORSDOF 10
ENDMDL
MODEL 5
REMARK VINA RESULT: -6.664045626      2.519      6.024
REMARK  10 active torsions:
REMARK  status: ('A' for Active; 'I' for Inactive)
REMARK    1  A    between atoms: N1_1  and  C1_5 
REMARK    2  A    between atoms: C1_5  and  C2_6 
REMARK    3  A    between atoms: C2_6  and  N2_7 
REMARK    4  A    between atoms: C2_6  and  C3_11 
REMARK    5  A    between atoms: C3_11  and  C4_12 
REMARK    6  A    between atoms: C9_17  and  C10_18 
REMARK    7  A    between atoms: C10_18  and  N3_19 
REMARK    8  A    between atoms: N3_19  and  C11_22 
REMARK    9  A    between atoms: C11_22  and  C12_23 
REMARK   10  A    between atoms: C11_22  and  C13_26 
ROOT
HETATM    1  C4  UNL     1      -7.600  18.708 -23.869  1.00  0.00    -0.007 C 
HETATM    2  C5  UNL     1      -8.315  17.504 -24.362  1.00  0.00     0.005 C 
HETATM    3  C6  UNL     1      -7.559  16.283 -23.869  1.00  0.00     0.000 C 
HETATM    4  C7  UNL     1      -6.299  16.191 -24.693  1.00  0.00     0.000 C 
HETATM    5  C8  UNL     1      -5.882  17.528 -25.238  1.00  0.00     0.007 C 
HETATM    6  C9  UNL     1      -6.113  18.610 -24.247  1.00  0.00     0.015 C 
ENDROOT
BRANCH   1   7
HETATM    7  C3  UNL     1      -7.668  18.986 -22.412  1.00  0.00     0.039 C 
BRANCH   7   8
HETATM    8  C2  UNL     1      -8.170  20.333 -22.040  1.00  0.00     0.209 C 
BRANCH   8   9
HETATM    9  C1  UNL     1      -7.170  20.995 -21.044  1.00  0.00     0.262 C 
BRANCH   9  10
HETATM   10  N1  UNL     1      -7.229  22.419 -21.232  1.00  0.00    -0.077 N 
ATOM     11  H13 UNL     1      -7.120  22.936 -20.360  1.00  0.00     0.274 HD
ATOM     12  H12 UNL     1      -6.408  22.787 -21.714  1.00  0.00     0.274 HD
ATOM     13  H11 UNL     1      -8.100  22.640 -21.714  1.00  0.00     0.274 HD
ENDBRANCH   9  10
ENDBRANCH   8   9
BRANCH   8  14
HETATM   14  N2  UNL     1      -9.447  20.252 -21.329  1.00  0.00    -0.073 N 
ATOM     15  H23 UNL     1     -10.115  20.971 -21.607  1.00  0.00     0.274 HD
ATOM     16  H22 UNL     1     -10.013  19.448 -21.599  1.00  0.00     0.274 HD
ATOM     17  H21 UNL     1      -9.214  20.272 -20.336  1.00  0.00     0.274 HD
ENDBRANCH   8  14
ENDBRANCH   7   8
ENDBRANCH   1   7
BRANCH   6  18
HETATM   18  C10 UNL     1      -5.716  19.964 -24.805  1.00  0.00     0.238 C 
BRANCH  18  19
HETATM   19  N3  UNL     1      -5.258  19.915 -26.166  1.00  0.00    -0.062 N 
ATOM     20  H32 UNL     1      -4.246  20.030 -26.232  1.00  0.00     0.278 HD
ATOM     21  H31 UNL     1      -5.328  18.975 -26.558  1.00  0.00     0.278 HD
BRANCH  19  22
HETATM   22  C11 UNL     1      -5.981  20.907 -26.983  1.00  0.00     0.278 C 
BRANCH  22  23
HETATM   23  C12 UNL     1      -7.083  20.352 -27.732  1.00  0.00     0.262 C 
HETATM   24  N4  UNL     1      -7.758  19.152 -27.433  1.00  0.00    -0.060 NA
HETATM   25  O1  UNL     1      -7.533  20.950 -28.772  1.00  0.00    -0.275 OA
ENDBRANCH  22  23
BRANCH  22  26
HETATM   26  C13 UNL     1      -4.964  21.710 -27.709  1.00  0.00     0.025 A 
HETATM   27  C14 UNL     1      -3.847  22.303 -26.965  1.00  0.00     0.007 A 
HETATM   28  C15 UNL     1      -4.882  23.153 -27.762  1.00  0.00     0.007 A 
ENDBRANCH  22  26
ENDBRANCH  19  22
ENDBRANCH  18  19
ENDBRANCH   6  18
TORSDOF 10
ENDMDL
