MODEL 1
REMARK VINA RESULT: -6.107014013      0.000      0.000
REMARK  10 active torsions:
REMARK  status: ('A' for Active; 'I' for Inactive)
REMARK    1  A    between atoms: N1_2  and  C2_4 
REMARK    2  A    between atoms: C2_4  and  C3_5 
REMARK    3  A    between atoms: C3_5  and  C4_6 
REMARK    4  A    between atoms: C3_5  and  C7_9 
REMARK    5  A    between atoms: C7_9  and  O1_10 
REMARK    6  A    between atoms: C7_9  and  C8_12 
REMARK    7  A    between atoms: C8_12  and  O2_13 
REMARK    8  A    between atoms: C8_12  and  C9_15 
REMARK    9  A    between atoms: C9_15  and  N2_16 
REMARK   10  A    between atoms: C9_15  and  C12_21 
REMARK       I    between atoms: N2_16  and  C10_18 
ROOT
HETATM    1  C8  UNL     1      -6.204  19.449 -25.193  1.00  0.00     0.170 C 
ENDROOT
BRANCH   1   2
HETATM    2  C7  UNL     1      -6.894  20.066 -24.028  1.00  0.00     0.154 C 
BRANCH   2   3
HETATM    3  C3  UNL     1      -6.800  19.302 -22.722  1.00  0.00     0.038 C 
BRANCH   3   4
HETATM    4  C2  UNL     1      -7.488  17.985 -22.726  1.00  0.00     0.120 C 
BRANCH   4   5
HETATM    5  N1  UNL     1      -6.719  16.837 -23.013  1.00  0.00    -0.425 N 
HETATM    6  C1  UNL     1      -7.195  15.994 -24.077  1.00  0.00     0.139 C 
ATOM      7  H1  UNL     1      -5.869  16.617 -22.493  1.00  0.00     0.152 HD
ENDBRANCH   4   5
ENDBRANCH   3   4
BRANCH   3   8
HETATM    8  C4  UNL     1      -7.561  20.180 -21.707  1.00  0.00    -0.006 A 
HETATM    9  C5  UNL     1      -7.227  21.597 -21.538  1.00  0.00     0.005 A 
HETATM   10  C6  UNL     1      -6.823  20.627 -20.489  1.00  0.00     0.005 A 
ENDBRANCH   3   8
ENDBRANCH   2   3
BRANCH   2  11
HETATM   11  O1  UNL     1      -8.212  20.452 -24.252  1.00  0.00    -0.392 OA
ATOM     12  H1  UNL     1      -8.229  21.235 -24.792  1.00  0.00     0.210 HD
ENDBRANCH   2  11
ENDBRANCH   1   2
BRANCH   1  13
HETATM   13  O2  UNL     1      -5.096  18.755 -24.732  1.00  0.00    -0.391 OA
ATOM     14  H2  UNL     1      -4.887  18.071 -25.356  1.00  0.00     0.210 HD
ENDBRANCH   1  13
BRANCH   1  15
HETATM   15  C9  UNL     1      -5.836  20.530 -26.174  1.00  0.00     0.119 C 
BRANCH  15  16
HETATM   16  N2  UNL     1      -4.403  20.645 -26.229  1.00  0.00    -0.354 N 
HETATM   17  C10 UNL     1      -3.753  21.871 -26.444  1.00  0.00     0.214 C 
HETATM   18  C11 UNL     1      -2.271  21.913 -26.484  1.00  0.00     0.117 C 
HETATM   19  O3  UNL     1      -4.391  22.942 -26.604  1.00  0.00    -0.274 OA
ATOM     20  H2  UNL     1      -3.839  19.805 -26.107  1.00  0.00     0.162 HD
ENDBRANCH  15  16
BRANCH  15  21
HETATM   21  C12 UNL     1      -6.357  20.328 -27.562  1.00  0.00     0.003 C 
HETATM   22  C13 UNL     1      -7.586  19.459 -27.648  1.00  0.00     0.011 C 
HETATM   23  C14 UNL     1      -6.558  21.628 -28.311  1.00  0.00     0.011 C 
ENDBRANCH  15  21
ENDBRANCH   1  15
TORSDOF 10
ENDMDL
MODEL 2
REMARK VINA RESULT: -5.426598767      1.843      5.845
REMARK  10 active torsions:
REMARK  status: ('A' for Active; 'I' for Inactive)
REMARK    1  A    between atoms: N1_2  and  C2_4 
REMARK    2  A    between atoms: C2_4  and  C3_5 
REMARK    3  A    between atoms: C3_5  and  C4_6 
REMARK    4  A    between atoms: C3_5  and  C7_9 
REMARK    5  A    between atoms: C7_9  and  O1_10 
REMARK    6  A    between atoms: C7_9  and  C8_12 
REMARK    7  A    between atoms: C8_12  and  O2_13 
REMARK    8  A    between atoms: C8_12  and  C9_15 
REMARK    9  A    between atoms: C9_15  and  N2_16 
REMARK   10  A    between atoms: C9_15  and  C12_21 
REMARK       I    between atoms: N2_16  and  C10_18 
ROOT
HETATM    1  C8  UNL     1      -5.771  19.405 -24.891  1.00  0.00     0.170 C 
ENDROOT
BRANCH   1   2
HETATM    2  C7  UNL     1      -6.108  19.775 -26.292  1.00  0.00     0.154 C 
BRANCH   2   3
HETATM    3  C3  UNL     1      -5.630  21.137 -26.752  1.00  0.00     0.038 C 
BRANCH   3   4
HETATM    4  C2  UNL     1      -5.973  21.471 -28.159  1.00  0.00     0.120 C 
BRANCH   4   5
HETATM    5  N1  UNL     1      -6.468  22.764 -28.430  1.00  0.00    -0.425 N 
HETATM    6  C1  UNL     1      -5.490  23.775 -28.735  1.00  0.00     0.139 C 
ATOM      7  H1  UNL     1      -7.466  22.972 -28.412  1.00  0.00     0.152 HD
ENDBRANCH   4   5
ENDBRANCH   3   4
BRANCH   3   8
HETATM    8  C4  UNL     1      -4.091  21.045 -26.696  1.00  0.00    -0.006 A 
HETATM    9  C5  UNL     1      -3.336  21.685 -25.615  1.00  0.00     0.005 A 
HETATM   10  C6  UNL     1      -3.313  22.288 -26.972  1.00  0.00     0.005 A 
ENDBRANCH   3   8
ENDBRANCH   2   3
BRANCH   2  11
HETATM   11  O1  UNL     1      -7.442  19.600 -26.650  1.00  0.00    -0.392 OA
ATOM     12  H1  UNL     1      -7.706  18.704 -26.475  1.00  0.00     0.210 HD
ENDBRANCH   2  11
ENDBRANCH   1   2
BRANCH   1  13
HETATM   13  O2  UNL     1      -5.045  18.223 -24.911  1.00  0.00    -0.391 OA
ATOM     14  H2  UNL     1      -5.480  17.612 -25.493  1.00  0.00     0.210 HD
ENDBRANCH   1  13
BRANCH   1  15
HETATM   15  C9  UNL     1      -7.042  19.284 -24.095  1.00  0.00     0.119 C 
BRANCH  15  16
HETATM   16  N2  UNL     1      -7.093  17.981 -23.488  1.00  0.00    -0.354 N 
HETATM   17  C10 UNL     1      -7.496  16.836 -24.194  1.00  0.00     0.214 C 
HETATM   18  C11 UNL     1      -7.520  15.524 -23.501  1.00  0.00     0.117 C 
HETATM   19  O3  UNL     1      -7.840  16.886 -25.402  1.00  0.00    -0.274 OA
ATOM     20  H2  UNL     1      -6.827  17.886 -22.509  1.00  0.00     0.162 HD
ENDBRANCH  15  16
BRANCH  15  21
HETATM   21  C12 UNL     1      -7.223  20.319 -23.031  1.00  0.00     0.003 C 
HETATM   22  C13 UNL     1      -8.561  21.014 -23.056  1.00  0.00     0.011 C 
HETATM   23  C14 UNL     1      -6.906  19.802 -21.644  1.00  0.00     0.011 C 
ENDBRANCH  15  21
ENDBRANCH   1  15
TORSDOF 10
ENDMDL
MODEL 3
REMARK VINA RESULT: -5.426388014      1.777      5.551
REMARK  10 active torsions:
REMARK  status: ('A' for Active; 'I' for Inactive)
REMARK    1  A    between atoms: N1_2  and  C2_4 
REMARK    2  A    between atoms: C2_4  and  C3_5 
REMARK    3  A    between atoms: C3_5  and  C4_6 
REMARK    4  A    between atoms: C3_5  and  C7_9 
REMARK    5  A    between atoms: C7_9  and  O1_10 
REMARK    6  A    between atoms: C7_9  and  C8_12 
REMARK    7  A    between atoms: C8_12  and  O2_13 
REMARK    8  A    between atoms: C8_12  and  C9_15 
REMARK    9  A    between atoms: C9_15  and  N2_16 
REMARK   10  A    between atoms: C9_15  and  C12_21 
REMARK       I    between atoms: N2_16  and  C10_18 
ROOT
HETATM    1  C8  UNL     1      -5.303  18.854 -24.922  1.00  0.00     0.170 C 
ENDROOT
BRANCH   1   2
HETATM    2  C7  UNL     1      -5.644  20.189 -25.484  1.00  0.00     0.154 C 
BRANCH   2   3
HETATM    3  C3  UNL     1      -5.331  20.389 -26.953  1.00  0.00     0.038 C 
BRANCH   3   4
HETATM    4  C2  UNL     1      -4.444  21.545 -27.244  1.00  0.00     0.120 C 
BRANCH   4   5
HETATM    5  N1  UNL     1      -5.035  22.821 -27.359  1.00  0.00    -0.425 N 
HETATM    6  C1  UNL     1      -5.004  23.429 -28.663  1.00  0.00     0.139 C 
ATOM      7  H1  UNL     1      -5.464  23.288 -26.560  1.00  0.00     0.152 HD
ENDBRANCH   4   5
ENDBRANCH   3   4
BRANCH   3   8
HETATM    8  C4  UNL     1      -6.694  20.723 -27.595  1.00  0.00    -0.006 A 
HETATM    9  C5  UNL     1      -7.931  20.665 -26.810  1.00  0.00     0.005 A 
HETATM   10  C6  UNL     1      -7.653  19.599 -27.805  1.00  0.00     0.005 A 
ENDBRANCH   3   8
ENDBRANCH   2   3
BRANCH   2  11
HETATM   11  O1  UNL     1      -5.181  21.279 -24.752  1.00  0.00    -0.392 OA
ATOM     12  H1  UNL     1      -5.249  21.092 -23.822  1.00  0.00     0.210 HD
ENDBRANCH   2  11
ENDBRANCH   1   2
BRANCH   1  13
HETATM   13  O2  UNL     1      -5.298  17.930 -25.956  1.00  0.00    -0.391 OA
ATOM     14  H2  UNL     1      -6.197  17.708 -26.167  1.00  0.00     0.210 HD
ENDBRANCH   1  13
BRANCH   1  15
HETATM   15  C9  UNL     1      -6.297  18.505 -23.847  1.00  0.00     0.119 C 
BRANCH  15  16
HETATM   16  N2  UNL     1      -7.292  19.541 -23.774  1.00  0.00    -0.354 N 
HETATM   17  C10 UNL     1      -7.585  20.223 -22.582  1.00  0.00     0.214 C 
HETATM   18  C11 UNL     1      -8.623  21.283 -22.585  1.00  0.00     0.117 C 
HETATM   19  O3  UNL     1      -6.993  19.962 -21.504  1.00  0.00    -0.274 OA
ATOM     20  H2  UNL     1      -7.803  19.790 -24.620  1.00  0.00     0.162 HD
ENDBRANCH  15  16
BRANCH  15  21
HETATM   21  C12 UNL     1      -6.983  17.188 -24.023  1.00  0.00     0.003 C 
HETATM   22  C13 UNL     1      -7.147  16.393 -22.753  1.00  0.00     0.011 C 
HETATM   23  C14 UNL     1      -8.298  17.303 -24.764  1.00  0.00     0.011 C 
ENDBRANCH  15  21
ENDBRANCH   1  15
TORSDOF 10
ENDMDL
MODEL 4
REMARK VINA RESULT: -5.279392388      2.482      3.722
REMARK  10 active torsions:
REMARK  status: ('A' for Active; 'I' for Inactive)
REMARK    1  A    between atoms: N1_2  and  C2_4 
REMARK    2  A    between atoms: C2_4  and  C3_5 
REMARK    3  A    between atoms: C3_5  and  C4_6 
REMARK    4  A    between atoms: C3_5  and  C7_9 
REMARK    5  A    between atoms: C7_9  and  O1_10 
REMARK    6  A    between atoms: C7_9  and  C8_12 
REMARK    7  A    between atoms: C8_12  and  O2_13 
REMARK    8  A    between atoms: C8_12  and  C9_15 
REMARK    9  A    between atoms: C9_15  and  N2_16 
REMARK   10  A    between atoms: C9_15  and  C12_21 
REMARK       I    between atoms: N2_16  and  C10_18 
ROOT
HETATM    1  C8  UNL     1      -7.552  19.007 -23.197  1.00  0.00     0.170 C 
ENDROOT
BRANCH   1   2
HETATM    2  C7  UNL     1      -7.939  20.373 -22.751  1.00  0.00     0.154 C 
BRANCH   2   3
HETATM    3  C3  UNL     1      -8.650  20.458 -21.416  1.00  0.00     0.038 C 
BRANCH   3   4
HETATM    4  C2  UNL     1      -9.916  21.237 -21.439  1.00  0.00     0.120 C 
BRANCH   4   5
HETATM    5  N1  UNL     1     -10.945  20.852 -20.553  1.00  0.00    -0.425 N 
HETATM    6  C1  UNL     1     -11.872  21.880 -20.160  1.00  0.00     0.139 C 
ATOM      7  H1  UNL     1     -11.028  19.895 -20.210  1.00  0.00     0.152 HD
ENDBRANCH   4   5
ENDBRANCH   3   4
BRANCH   3   8
HETATM    8  C4  UNL     1      -7.679  21.245 -20.512  1.00  0.00    -0.006 A 
HETATM    9  C5  UNL     1      -8.101  22.485 -19.852  1.00  0.00     0.005 A 
HETATM   10  C6  UNL     1      -7.179  22.559 -21.013  1.00  0.00     0.005 A 
ENDBRANCH   3   8
ENDBRANCH   2   3
BRANCH   2  11
HETATM   11  O1  UNL     1      -8.619  21.137 -23.695  1.00  0.00    -0.392 OA
ATOM     12  H1  UNL     1      -8.187  21.064 -24.539  1.00  0.00     0.210 HD
ENDBRANCH   2  11
ENDBRANCH   1   2
BRANCH   1  13
HETATM   13  O2  UNL     1      -6.464  18.591 -22.445  1.00  0.00    -0.391 OA
ATOM     14  H2  UNL     1      -6.784  18.098 -21.699  1.00  0.00     0.210 HD
ENDBRANCH   1  13
BRANCH   1  15
HETATM   15  C9  UNL     1      -7.253  19.038 -24.672  1.00  0.00     0.119 C 
BRANCH  15  16
HETATM   16  N2  UNL     1      -5.990  19.695 -24.879  1.00  0.00    -0.354 N 
HETATM   17  C10 UNL     1      -5.731  20.490 -26.008  1.00  0.00     0.214 C 
HETATM   18  C11 UNL     1      -4.405  21.140 -26.152  1.00  0.00     0.117 C 
HETATM   19  O3  UNL     1      -6.592  20.671 -26.905  1.00  0.00    -0.274 OA
ATOM     20  H2  UNL     1      -5.256  19.579 -24.182  1.00  0.00     0.162 HD
ENDBRANCH  15  16
BRANCH  15  21
HETATM   21  C12 UNL     1      -7.215  17.699 -25.337  1.00  0.00     0.003 C 
HETATM   22  C13 UNL     1      -5.867  17.025 -25.309  1.00  0.00     0.011 C 
HETATM   23  C14 UNL     1      -8.299  16.764 -24.845  1.00  0.00     0.011 C 
ENDBRANCH  15  21
ENDBRANCH   1  15
TORSDOF 10
ENDMDL
MODEL 5
REMARK VINA RESULT: -5.185061720      7.438      9.876
REMARK  10 active torsions:
REMARK  status: ('A' for Active; 'I' for Inactive)
REMARK    1  A    between atoms: N1_2  and  C2_4 
REMARK    2  A    between atoms: C2_4  and  C3_5 
REMARK    3  A    between atoms: C3_5  and  C4_6 
REMARK    4  A    between atoms: C3_5  and  C7_9 
REMARK    5  A    between atoms: C7_9  and  O1_10 
REMARK    6  A    between atoms: C7_9  and  C8_12 
REMARK    7  A    between atoms: C8_12  and  O2_13 
REMARK    8  A    between atoms: C8_12  and  C9_15 
REMARK    9  A    between atoms: C9_15  and  N2_16 
REMARK   10  A    between atoms: C9_15  and  C12_21 
REMARK       I    between atoms: N2_16  and  C10_18 
ROOT
HETATM    1  C8  UNL     1     -12.059  21.129 -17.609  1.00  0.00     0.170 C 
ENDROOT
BRANCH   1   2
HETATM    2  C7  UNL     1     -13.063  20.044 -17.440  1.00  0.00     0.154 C 
BRANCH   2   3
HETATM    3  C3  UNL     1     -12.680  18.929 -16.486  1.00  0.00     0.038 C 
BRANCH   3   4
HETATM    4  C2  UNL     1     -12.626  17.579 -17.104  1.00  0.00     0.120 C 
BRANCH   4   5
HETATM    5  N1  UNL     1     -13.838  16.871 -17.254  1.00  0.00    -0.425 N 
HETATM    6  C1  UNL     1     -13.835  15.495 -16.833  1.00  0.00     0.139 C 
ATOM      7  H1  UNL     1     -14.672  17.312 -17.641  1.00  0.00     0.152 HD
ENDBRANCH   4   5
ENDBRANCH   3   4
BRANCH   3   8
HETATM    8  C4  UNL     1     -13.833  18.887 -15.462  1.00  0.00    -0.006 A 
HETATM    9  C5  UNL     1     -14.165  20.063 -14.652  1.00  0.00     0.005 A 
HETATM   10  C6  UNL     1     -13.472  18.915 -14.014  1.00  0.00     0.005 A 
ENDBRANCH   3   8
ENDBRANCH   2   3
BRANCH   2  11
HETATM   11  O1  UNL     1     -13.557  19.500 -18.623  1.00  0.00    -0.392 OA
ATOM     12  H1  UNL     1     -14.504  19.433 -18.573  1.00  0.00     0.210 HD
ENDBRANCH   2  11
ENDBRANCH   1   2
BRANCH   1  13
HETATM   13  O2  UNL     1     -12.473  22.229 -16.875  1.00  0.00    -0.391 OA
ATOM     14  H2  UNL     1     -12.192  23.016 -17.326  1.00  0.00     0.210 HD
ENDBRANCH   1  13
BRANCH   1  15
HETATM   15  C9  UNL     1     -11.914  21.439 -19.075  1.00  0.00     0.119 C 
BRANCH  15  16
HETATM   16  N2  UNL     1     -12.881  22.439 -19.440  1.00  0.00    -0.354 N 
HETATM   17  C10 UNL     1     -13.846  22.225 -20.438  1.00  0.00     0.214 C 
HETATM   18  C11 UNL     1     -14.814  23.303 -20.758  1.00  0.00     0.117 C 
HETATM   19  O3  UNL     1     -13.915  21.144 -21.075  1.00  0.00    -0.274 OA
ATOM     20  H2  UNL     1     -12.867  23.336 -18.956  1.00  0.00     0.162 HD
ENDBRANCH  15  16
BRANCH  15  21
HETATM   21  C12 UNL     1     -10.556  21.908 -19.490  1.00  0.00     0.003 C 
HETATM   22  C13 UNL     1      -9.448  21.538 -18.538  1.00  0.00     0.011 C 
HETATM   23  C14 UNL     1     -10.204  21.515 -20.910  1.00  0.00     0.011 C 
ENDBRANCH  15  21
ENDBRANCH   1  15
TORSDOF 10
ENDMDL
