MODEL 1
REMARK VINA RESULT: -7.474454984      0.000      0.000
REMARK  9 active torsions:
REMARK  status: ('A' for Active; 'I' for Inactive)
REMARK    1  A    between atoms: C2_2  and  C3_3 
REMARK    2  A    between atoms: C3_3  and  C4_4 
REMARK    3  A    between atoms: C4_4  and  O2_6 
REMARK    4  A    between atoms: O2_6  and  C5_7 
REMARK    5  A    between atoms: C5_7  and  C6_8 
REMARK    6  A    between atoms: C6_8  and  C7_9 
REMARK    7  A    between atoms: C7_9  and  O3_10 
REMARK    8  A    between atoms: C20_24  and  C21_25 
REMARK    9  A    between atoms: C23_27  and  C24_28 
ROOT
HETATM    1  C6  UNL     1      -5.441 -23.851  28.576  1.00  0.00     0.004 C 
HETATM    2  C8  UNL     1      -6.674 -24.571  28.102  1.00  0.00     0.021 C 
HETATM    3  C9  UNL     1      -6.996 -25.833  28.784  1.00  0.00     0.017 C 
HETATM    4  C10 UNL     1      -7.612 -26.795  27.756  1.00  0.00     0.013 C 
HETATM    5  C11 UNL     1      -7.853 -25.733  30.024  1.00  0.00     0.061 C 
HETATM    6  C12 UNL     1      -8.681 -27.039  30.028  1.00  0.00     0.046 C 
HETATM    7  C13 UNL     1      -8.842 -24.624  30.006  1.00  0.00     0.038 C 
HETATM    8  C14 UNL     1      -8.342 -23.308  30.562  1.00  0.00     0.011 C 
HETATM    9  C15 UNL     1      -7.182 -23.432  31.480  1.00  0.00     0.029 C 
HETATM   10  C16 UNL     1      -7.195 -24.821  32.074  1.00  0.00     0.063 C 
HETATM   11  C17 UNL     1      -8.428 -24.890  32.960  1.00  0.00     0.046 C 
HETATM   12  C18 UNL     1      -6.017 -24.984  33.046  1.00  0.00     0.039 C 
HETATM   13  C19 UNL     1      -5.553 -23.626  33.431  1.00  0.00     0.014 C 
HETATM   14  C20 UNL     1      -4.938 -22.984  32.230  1.00  0.00     0.046 C 
HETATM   15  C25 UNL     1      -5.852 -22.948  30.999  1.00  0.00    -0.028 C 
HETATM   16  C26 UNL     1      -6.044 -21.470  30.710  1.00  0.00     0.016 C 
HETATM   17  C27 UNL     1      -5.165 -23.703  29.971  1.00  0.00     0.024 C 
HETATM   18  O6  UNL     1      -7.100 -25.829  31.175  1.00  0.00    -0.369 OA
ENDROOT
BRANCH   1  19
HETATM   19  C5  UNL     1      -5.236 -22.677  27.651  1.00  0.00     0.190 C 
BRANCH  19  20
HETATM   20  O2  UNL     1      -3.987 -22.048  27.904  1.00  0.00    -0.321 OA
BRANCH  20  21
HETATM   21  C4  UNL     1      -3.345 -21.260  26.976  1.00  0.00     0.258 C 
HETATM   22  O1  UNL     1      -3.565 -20.009  26.978  1.00  0.00    -0.265 OA
BRANCH  21  23
HETATM   23  C3  UNL     1      -2.410 -21.860  25.987  1.00  0.00     0.111 C 
BRANCH  23  24
HETATM   24  C2  UNL     1      -1.583 -22.935  26.683  1.00  0.00     0.005 C 
HETATM   25  C1  UNL     1      -0.749 -23.694  25.702  1.00  0.00     0.005 C 
ENDBRANCH  23  24
ENDBRANCH  21  23
ENDBRANCH  20  21
ENDBRANCH  19  20
ENDBRANCH   1  19
BRANCH   1  26
HETATM   26  C7  UNL     1      -4.277 -24.793  28.103  1.00  0.00     0.175 C 
BRANCH  26  27
HETATM   27  O3  UNL     1      -4.273 -24.874  26.736  1.00  0.00    -0.400 OA
ATOM     28  H3  UNL     1      -3.392 -25.048  26.426  1.00  0.00     0.209 HD
ENDBRANCH  26  27
ENDBRANCH   1  26
BRANCH  14  29
HETATM   29  C21 UNL     1      -4.296 -21.683  32.544  1.00  0.00     0.040 A 
HETATM   30  C22 UNL     1      -4.435 -21.022  33.745  1.00  0.00     0.070 A 
HETATM   31  C23 UNL     1      -3.687 -19.877  33.615  1.00  0.00     0.138 A 
HETATM   32  O5  UNL     1      -3.161 -19.888  32.425  1.00  0.00    -0.235 OA
HETATM   33  N1  UNL     1      -3.501 -20.939  31.771  1.00  0.00    -0.264 N 
ATOM     34  H1  UNL     1      -3.212 -21.168  30.820  1.00  0.00     0.194 HD
BRANCH  31  35
HETATM   35  C24 UNL     1      -3.515 -18.830  34.637  1.00  0.00     0.297 C 
HETATM   36  O4  UNL     1      -3.493 -19.118  35.858  1.00  0.00    -0.299 OA
ENDBRANCH  31  35
ENDBRANCH  14  29
TORSDOF 9
ENDMDL
MODEL 2
REMARK VINA RESULT: -6.936001295      3.041      6.192
REMARK  9 active torsions:
REMARK  status: ('A' for Active; 'I' for Inactive)
REMARK    1  A    between atoms: C2_2  and  C3_3 
REMARK    2  A    between atoms: C3_3  and  C4_4 
REMARK    3  A    between atoms: C4_4  and  O2_6 
REMARK    4  A    between atoms: O2_6  and  C5_7 
REMARK    5  A    between atoms: C5_7  and  C6_8 
REMARK    6  A    between atoms: C6_8  and  C7_9 
REMARK    7  A    between atoms: C7_9  and  O3_10 
REMARK    8  A    between atoms: C20_24  and  C21_25 
REMARK    9  A    between atoms: C23_27  and  C24_28 
ROOT
HETATM    1  C6  UNL     1      -6.676 -23.309  30.910  1.00  0.00     0.004 C 
HETATM    2  C8  UNL     1      -5.289 -23.388  31.487  1.00  0.00     0.021 C 
HETATM    3  C9  UNL     1      -5.004 -22.500  32.624  1.00  0.00     0.017 C 
HETATM    4  C10 UNL     1      -3.539 -22.046  32.527  1.00  0.00     0.013 C 
HETATM    5  C11 UNL     1      -5.323 -23.037  34.000  1.00  0.00     0.061 C 
HETATM    6  C12 UNL     1      -4.257 -22.398  34.920  1.00  0.00     0.046 C 
HETATM    7  C13 UNL     1      -5.157 -24.507  34.144  1.00  0.00     0.038 C 
HETATM    8  C14 UNL     1      -6.388 -25.327  33.825  1.00  0.00     0.011 C 
HETATM    9  C15 UNL     1      -7.665 -24.577  33.919  1.00  0.00     0.029 C 
HETATM   10  C16 UNL     1      -7.463 -23.414  34.861  1.00  0.00     0.063 C 
HETATM   11  C17 UNL     1      -7.242 -24.020  36.238  1.00  0.00     0.046 C 
HETATM   12  C18 UNL     1      -8.770 -22.621  35.000  1.00  0.00     0.039 C 
HETATM   13  C19 UNL     1      -9.884 -23.497  34.556  1.00  0.00     0.014 C 
HETATM   14  C20 UNL     1      -9.752 -23.713  33.084  1.00  0.00     0.046 C 
HETATM   15  C25 UNL     1      -8.386 -24.259  32.649  1.00  0.00    -0.028 C 
HETATM   16  C26 UNL     1      -8.699 -25.604  32.018  1.00  0.00     0.016 C 
HETATM   17  C27 UNL     1      -7.825 -23.265  31.757  1.00  0.00     0.024 C 
HETATM   18  O6  UNL     1      -6.509 -22.530  34.485  1.00  0.00    -0.369 OA
ENDROOT
BRANCH   1  19
HETATM   19  C5  UNL     1      -6.691 -24.191  29.686  1.00  0.00     0.190 C 
BRANCH  19  20
HETATM   20  O2  UNL     1      -5.367 -24.501  29.271  1.00  0.00    -0.321 OA
BRANCH  20  21
HETATM   21  C4  UNL     1      -4.879 -24.182  28.025  1.00  0.00     0.258 C 
HETATM   22  O1  UNL     1      -5.657 -23.631  27.185  1.00  0.00    -0.265 OA
BRANCH  21  23
HETATM   23  C3  UNL     1      -3.466 -24.476  27.664  1.00  0.00     0.111 C 
BRANCH  23  24
HETATM   24  C2  UNL     1      -2.720 -23.158  27.493  1.00  0.00     0.005 C 
HETATM   25  C1  UNL     1      -1.614 -23.290  26.496  1.00  0.00     0.005 C 
ENDBRANCH  23  24
ENDBRANCH  21  23
ENDBRANCH  20  21
ENDBRANCH  19  20
ENDBRANCH   1  19
BRANCH   1  26
HETATM   26  C7  UNL     1      -6.699 -21.890  30.238  1.00  0.00     0.175 C 
BRANCH  26  27
HETATM   27  O3  UNL     1      -7.370 -21.951  29.046  1.00  0.00    -0.400 OA
ATOM     28  H3  UNL     1      -7.202 -21.164  28.541  1.00  0.00     0.209 HD
ENDBRANCH  26  27
ENDBRANCH   1  26
BRANCH  14  29
HETATM   29  C21 UNL     1     -10.908 -24.445  32.508  1.00  0.00     0.040 A 
HETATM   30  C22 UNL     1     -11.545 -24.089  31.339  1.00  0.00     0.070 A 
HETATM   31  C23 UNL     1     -12.543 -25.019  31.176  1.00  0.00     0.138 A 
HETATM   32  O5  UNL     1     -12.477 -25.845  32.180  1.00  0.00    -0.235 OA
HETATM   33  N1  UNL     1     -11.523 -25.532  32.981  1.00  0.00    -0.264 N 
ATOM     34  H1  UNL     1     -11.277 -26.030  33.837  1.00  0.00     0.194 HD
BRANCH  31  35
HETATM   35  C24 UNL     1     -13.509 -25.071  30.065  1.00  0.00     0.297 C 
HETATM   36  O4  UNL     1     -13.201 -25.589  28.964  1.00  0.00    -0.299 OA
ENDBRANCH  31  35
ENDBRANCH  14  29
TORSDOF 9
ENDMDL
MODEL 3
REMARK VINA RESULT: -6.757238393      2.489      6.092
REMARK  9 active torsions:
REMARK  status: ('A' for Active; 'I' for Inactive)
REMARK    1  A    between atoms: C2_2  and  C3_3 
REMARK    2  A    between atoms: C3_3  and  C4_4 
REMARK    3  A    between atoms: C4_4  and  O2_6 
REMARK    4  A    between atoms: O2_6  and  C5_7 
REMARK    5  A    between atoms: C5_7  and  C6_8 
REMARK    6  A    between atoms: C6_8  and  C7_9 
REMARK    7  A    between atoms: C7_9  and  O3_10 
REMARK    8  A    between atoms: C20_24  and  C21_25 
REMARK    9  A    between atoms: C23_27  and  C24_28 
ROOT
HETATM    1  C6  UNL     1      -8.192 -23.463  34.181  1.00  0.00     0.004 C 
HETATM    2  C8  UNL     1      -9.044 -24.631  34.593  1.00  0.00     0.021 C 
HETATM    3  C9  UNL     1     -10.398 -24.685  34.024  1.00  0.00     0.017 C 
HETATM    4  C10 UNL     1     -11.343 -25.283  35.078  1.00  0.00     0.013 C 
HETATM    5  C11 UNL     1     -10.546 -25.385  32.693  1.00  0.00     0.061 C 
HETATM    6  C12 UNL     1     -11.958 -26.014  32.743  1.00  0.00     0.046 C 
HETATM    7  C13 UNL     1      -9.604 -26.515  32.480  1.00  0.00     0.038 C 
HETATM    8  C14 UNL     1      -8.285 -26.139  31.841  1.00  0.00     0.011 C 
HETATM    9  C15 UNL     1      -8.315 -24.869  31.074  1.00  0.00     0.029 C 
HETATM   10  C16 UNL     1      -9.738 -24.611  30.640  1.00  0.00     0.063 C 
HETATM   11  C17 UNL     1     -10.078 -25.702  29.637  1.00  0.00     0.046 C 
HETATM   12  C18 UNL     1      -9.810 -23.311  29.827  1.00  0.00     0.039 C 
HETATM   13  C19 UNL     1      -8.439 -22.998  29.348  1.00  0.00     0.014 C 
HETATM   14  C20 UNL     1      -7.602 -22.634  30.531  1.00  0.00     0.046 C 
HETATM   15  C25 UNL     1      -7.591 -23.691  31.643  1.00  0.00    -0.028 C 
HETATM   16  C26 UNL     1      -6.140 -24.123  31.743  1.00  0.00     0.016 C 
HETATM   17  C27 UNL     1      -8.133 -23.039  32.817  1.00  0.00     0.024 C 
HETATM   18  O6  UNL     1     -10.633 -24.488  31.650  1.00  0.00    -0.369 OA
ENDROOT
BRANCH   1  19
HETATM   19  C5  UNL     1      -6.919 -23.542  34.987  1.00  0.00     0.190 C 
BRANCH  19  20
HETATM   20  O2  UNL     1      -6.299 -22.266  35.079  1.00  0.00    -0.321 OA
BRANCH  20  21
HETATM   21  C4  UNL     1      -4.983 -22.048  34.742  1.00  0.00     0.258 C 
HETATM   22  O1  UNL     1      -4.720 -21.293  33.756  1.00  0.00    -0.265 OA
BRANCH  21  23
HETATM   23  C3  UNL     1      -3.885 -22.684  35.518  1.00  0.00     0.111 C 
BRANCH  23  24
HETATM   24  C2  UNL     1      -3.187 -23.709  34.632  1.00  0.00     0.005 C 
HETATM   25  C1  UNL     1      -2.456 -24.723  35.451  1.00  0.00     0.005 C 
ENDBRANCH  23  24
ENDBRANCH  21  23
ENDBRANCH  20  21
ENDBRANCH  19  20
ENDBRANCH   1  19
BRANCH   1  26
HETATM   26  C7  UNL     1      -8.896 -22.246  34.880  1.00  0.00     0.175 C 
BRANCH  26  27
HETATM   27  O3  UNL     1      -8.886 -22.422  36.238  1.00  0.00    -0.400 OA
ATOM     28  H3  UNL     1      -8.595 -23.302  36.448  1.00  0.00     0.209 HD
ENDBRANCH  26  27
ENDBRANCH   1  26
BRANCH  14  29
HETATM   29  C21 UNL     1      -6.252 -22.147  30.147  1.00  0.00     0.040 A 
HETATM   30  C22 UNL     1      -5.614 -22.484  28.974  1.00  0.00     0.070 A 
HETATM   31  C23 UNL     1      -4.408 -21.826  29.019  1.00  0.00     0.138 A 
HETATM   32  O5  UNL     1      -4.366 -21.163  30.138  1.00  0.00    -0.235 OA
HETATM   33  N1  UNL     1      -5.438 -21.333  30.824  1.00  0.00    -0.264 N 
ATOM     34  H1  UNL     1      -5.636 -20.915  31.734  1.00  0.00     0.194 HD
BRANCH  31  35
HETATM   35  C24 UNL     1      -3.357 -21.866  27.987  1.00  0.00     0.297 C 
HETATM   36  O4  UNL     1      -2.837 -20.809  27.555  1.00  0.00    -0.299 OA
ENDBRANCH  31  35
ENDBRANCH  14  29
TORSDOF 9
ENDMDL
MODEL 4
REMARK VINA RESULT: -6.651836949      2.642      6.442
REMARK  9 active torsions:
REMARK  status: ('A' for Active; 'I' for Inactive)
REMARK    1  A    between atoms: C2_2  and  C3_3 
REMARK    2  A    between atoms: C3_3  and  C4_4 
REMARK    3  A    between atoms: C4_4  and  O2_6 
REMARK    4  A    between atoms: O2_6  and  C5_7 
REMARK    5  A    between atoms: C5_7  and  C6_8 
REMARK    6  A    between atoms: C6_8  and  C7_9 
REMARK    7  A    between atoms: C7_9  and  O3_10 
REMARK    8  A    between atoms: C20_24  and  C21_25 
REMARK    9  A    between atoms: C23_27  and  C24_28 
ROOT
HETATM    1  C6  UNL     1      -8.545 -23.784  33.891  1.00  0.00     0.004 C 
HETATM    2  C8  UNL     1      -9.396 -24.878  34.477  1.00  0.00     0.021 C 
HETATM    3  C9  UNL     1     -10.844 -24.773  34.244  1.00  0.00     0.017 C 
HETATM    4  C10 UNL     1     -11.574 -25.315  35.482  1.00  0.00     0.013 C 
HETATM    5  C11 UNL     1     -11.373 -25.402  32.976  1.00  0.00     0.061 C 
HETATM    6  C12 UNL     1     -12.793 -25.888  33.349  1.00  0.00     0.046 C 
HETATM    7  C13 UNL     1     -10.633 -26.611  32.529  1.00  0.00     0.038 C 
HETATM    8  C14 UNL     1      -9.468 -26.344  31.600  1.00  0.00     0.011 C 
HETATM    9  C15 UNL     1      -9.541 -25.047  30.882  1.00  0.00     0.029 C 
HETATM   10  C16 UNL     1     -10.991 -24.631  30.802  1.00  0.00     0.063 C 
HETATM   11  C17 UNL     1     -11.670 -25.642  29.891  1.00  0.00     0.046 C 
HETATM   12  C18 UNL     1     -11.111 -23.299  30.048  1.00  0.00     0.039 C 
HETATM   13  C19 UNL     1      -9.865 -23.106  29.263  1.00  0.00     0.014 C 
HETATM   14  C20 UNL     1      -8.741 -22.875  30.219  1.00  0.00     0.046 C 
HETATM   15  C25 UNL     1      -8.583 -23.971  31.280  1.00  0.00    -0.028 C 
HETATM   16  C26 UNL     1      -7.203 -24.550  31.028  1.00  0.00     0.016 C 
HETATM   17  C27 UNL     1      -8.762 -23.315  32.560  1.00  0.00     0.024 C 
HETATM   18  O6  UNL     1     -11.605 -24.460  31.996  1.00  0.00    -0.369 OA
ENDROOT
BRANCH   1  19
HETATM   19  C5  UNL     1      -7.135 -24.023  34.372  1.00  0.00     0.190 C 
BRANCH  19  20
HETATM   20  O2  UNL     1      -6.250 -23.042  33.847  1.00  0.00    -0.321 OA
BRANCH  20  21
HETATM   21  C4  UNL     1      -5.122 -22.619  34.511  1.00  0.00     0.258 C 
HETATM   22  O1  UNL     1      -5.235 -22.198  35.704  1.00  0.00    -0.265 OA
BRANCH  21  23
HETATM   23  C3  UNL     1      -3.791 -22.654  33.847  1.00  0.00     0.111 C 
BRANCH  23  24
HETATM   24  C2  UNL     1      -3.880 -21.892  32.530  1.00  0.00     0.005 C 
HETATM   25  C1  UNL     1      -3.885 -20.415  32.760  1.00  0.00     0.005 C 
ENDBRANCH  23  24
ENDBRANCH  21  23
ENDBRANCH  20  21
ENDBRANCH  19  20
ENDBRANCH   1  19
BRANCH   1  26
HETATM   26  C7  UNL     1      -8.932 -22.533  34.756  1.00  0.00     0.175 C 
BRANCH  26  27
HETATM   27  O3  UNL     1      -8.261 -22.567  35.949  1.00  0.00    -0.400 OA
ATOM     28  H3  UNL     1      -8.034 -21.684  36.217  1.00  0.00     0.209 HD
ENDBRANCH  26  27
ENDBRANCH   1  26
BRANCH  14  29
HETATM   29  C21 UNL     1      -7.475 -22.510  29.534  1.00  0.00     0.040 A 
HETATM   30  C22 UNL     1      -7.190 -22.817  28.221  1.00  0.00     0.070 A 
HETATM   31  C23 UNL     1      -5.936 -22.304  27.995  1.00  0.00     0.138 A 
HETATM   32  O5  UNL     1      -5.538 -21.745  29.101  1.00  0.00    -0.235 OA
HETATM   33  N1  UNL     1      -6.423 -21.850  30.025  1.00  0.00    -0.264 N 
ATOM     34  H1  UNL     1      -6.338 -21.490  30.976  1.00  0.00     0.194 HD
BRANCH  31  35
HETATM   35  C24 UNL     1      -5.182 -22.374  26.731  1.00  0.00     0.297 C 
HETATM   36  O4  UNL     1      -5.678 -22.915  25.713  1.00  0.00    -0.299 OA
ENDBRANCH  31  35
ENDBRANCH  14  29
TORSDOF 9
ENDMDL
MODEL 5
REMARK VINA RESULT: -6.614430776      2.831      6.113
REMARK  9 active torsions:
REMARK  status: ('A' for Active; 'I' for Inactive)
REMARK    1  A    between atoms: C2_2  and  C3_3 
REMARK    2  A    between atoms: C3_3  and  C4_4 
REMARK    3  A    between atoms: C4_4  and  O2_6 
REMARK    4  A    between atoms: O2_6  and  C5_7 
REMARK    5  A    between atoms: C5_7  and  C6_8 
REMARK    6  A    between atoms: C6_8  and  C7_9 
REMARK    7  A    between atoms: C7_9  and  O3_10 
REMARK    8  A    between atoms: C20_24  and  C21_25 
REMARK    9  A    between atoms: C23_27  and  C24_28 
ROOT
HETATM    1  C6  UNL     1      -6.036 -23.124  30.706  1.00  0.00     0.004 C 
HETATM    2  C8  UNL     1      -4.871 -23.416  31.611  1.00  0.00     0.021 C 
HETATM    3  C9  UNL     1      -4.907 -22.797  32.944  1.00  0.00     0.017 C 
HETATM    4  C10 UNL     1      -3.470 -22.439  33.351  1.00  0.00     0.013 C 
HETATM    5  C11 UNL     1      -5.608 -23.575  34.033  1.00  0.00     0.061 C 
HETATM    6  C12 UNL     1      -4.839 -23.212  35.324  1.00  0.00     0.046 C 
HETATM    7  C13 UNL     1      -5.508 -25.052  33.901  1.00  0.00     0.038 C 
HETATM    8  C14 UNL     1      -6.608 -25.701  33.090  1.00  0.00     0.011 C 
HETATM    9  C15 UNL     1      -7.851 -24.896  32.988  1.00  0.00     0.029 C 
HETATM   10  C16 UNL     1      -7.910 -23.964  34.175  1.00  0.00     0.063 C 
HETATM   11  C17 UNL     1      -8.093 -24.848  35.398  1.00  0.00     0.046 C 
HETATM   12  C18 UNL     1      -9.193 -23.123  34.116  1.00  0.00     0.039 C 
HETATM   13  C19 UNL     1     -10.147 -23.811  33.208  1.00  0.00     0.014 C 
HETATM   14  C20 UNL     1      -9.606 -23.735  31.817  1.00  0.00     0.046 C 
HETATM   15  C25 UNL     1      -8.180 -24.279  31.667  1.00  0.00    -0.028 C 
HETATM   16  C26 UNL     1      -8.317 -25.444  30.704  1.00  0.00     0.016 C 
HETATM   17  C27 UNL     1      -7.378 -23.168  31.196  1.00  0.00     0.024 C 
HETATM   18  O6  UNL     1      -6.878 -23.092  34.271  1.00  0.00    -0.369 OA
ENDROOT
BRANCH   1  19
HETATM   19  C5  UNL     1      -5.715 -23.738  29.366  1.00  0.00     0.190 C 
BRANCH  19  20
HETATM   20  O2  UNL     1      -6.323 -23.000  28.314  1.00  0.00    -0.321 OA
BRANCH  20  21
HETATM   21  C4  UNL     1      -5.888 -23.060  27.010  1.00  0.00     0.258 C 
HETATM   22  O1  UNL     1      -6.367 -22.242  26.166  1.00  0.00    -0.265 OA
BRANCH  21  23
HETATM   23  C3  UNL     1      -4.874 -24.066  26.593  1.00  0.00     0.111 C 
BRANCH  23  24
HETATM   24  C2  UNL     1      -3.547 -23.356  26.354  1.00  0.00     0.005 C 
HETATM   25  C1  UNL     1      -2.538 -23.736  27.388  1.00  0.00     0.005 C 
ENDBRANCH  23  24
ENDBRANCH  21  23
ENDBRANCH  20  21
ENDBRANCH  19  20
ENDBRANCH   1  19
BRANCH   1  26
HETATM   26  C7  UNL     1      -5.851 -21.601  30.372  1.00  0.00     0.175 C 
BRANCH  26  27
HETATM   27  O3  UNL     1      -4.597 -21.385  29.866  1.00  0.00    -0.400 OA
ATOM     28  H3  UNL     1      -4.038 -22.126  30.064  1.00  0.00     0.209 HD
ENDBRANCH  26  27
ENDBRANCH   1  26
BRANCH  14  29
HETATM   29  C21 UNL     1     -10.561 -24.253  30.805  1.00  0.00     0.040 A 
HETATM   30  C22 UNL     1     -11.483 -25.248  31.049  1.00  0.00     0.070 A 
HETATM   31  C23 UNL     1     -12.152 -25.417  29.862  1.00  0.00     0.138 A 
HETATM   32  O5  UNL     1     -11.647 -24.578  29.005  1.00  0.00    -0.235 OA
HETATM   33  N1  UNL     1     -10.708 -23.879  29.532  1.00  0.00    -0.264 N 
ATOM     34  H1  UNL     1     -10.164 -23.158  29.057  1.00  0.00     0.194 HD
BRANCH  31  35
HETATM   35  C24 UNL     1     -13.243 -26.374  29.608  1.00  0.00     0.297 C 
HETATM   36  O4  UNL     1     -13.881 -26.354  28.527  1.00  0.00    -0.299 OA
ENDBRANCH  31  35
ENDBRANCH  14  29
TORSDOF 9
ENDMDL
