MODEL 1
REMARK VINA RESULT: -7.369392231      0.000      0.000
REMARK  8 active torsions:
REMARK  status: ('A' for Active; 'I' for Inactive)
REMARK    1  A    between atoms: O1_2  and  C2_3 
REMARK    2  A    between atoms: C6_7  and  O2_8 
REMARK    3  A    between atoms: O2_8  and  C7_9 
REMARK    4  A    between atoms: C7_9  and  C8_10 
REMARK    5  A    between atoms: C8_10  and  O3_13 
REMARK    6  A    between atoms: O3_13  and  C11_14 
REMARK    7  A    between atoms: C11_14  and  C12_15 
REMARK    8  A    between atoms: C15_20  and  O6_21 
ROOT
HETATM    1  C11 UNL     1      -4.111 -23.355  29.585  1.00  0.00     0.212 C 
ENDROOT
BRANCH   1   2
HETATM    2  O3  UNL     1      -3.584 -22.575  28.586  1.00  0.00    -0.375 OA
BRANCH   2   3
HETATM    3  C8  UNL     1      -3.614 -23.103  27.326  1.00  0.00     0.075 C 
HETATM    4  C9  UNL     1      -2.252 -23.171  26.664  1.00  0.00     0.048 C 
HETATM    5  C10 UNL     1      -4.484 -22.201  26.461  1.00  0.00     0.048 C 
BRANCH   3   6
HETATM    6  C7  UNL     1      -4.210 -24.481  27.260  1.00  0.00     0.212 C 
BRANCH   6   7
HETATM    7  O2  UNL     1      -5.468 -24.481  26.595  1.00  0.00    -0.347 OA
BRANCH   7   8
HETATM    8  C6  UNL     1      -5.918 -25.743  26.161  1.00  0.00     0.081 A 
HETATM    9  C4  UNL     1      -5.720 -26.178  24.859  1.00  0.00    -0.025 A 
HETATM   10  C3  UNL     1      -6.166 -27.418  24.444  1.00  0.00     0.047 A 
HETATM   11  C5  UNL     1      -5.022 -25.310  23.874  1.00  0.00     0.051 C 
HETATM   12  C2  UNL     1      -6.819 -28.240  25.344  1.00  0.00     0.075 A 
HETATM   13  C27 UNL     1      -7.031 -27.840  26.643  1.00  0.00    -0.020 A 
HETATM   14  C25 UNL     1      -6.573 -26.588  27.035  1.00  0.00    -0.019 A 
HETATM   15  C28 UNL     1      -7.731 -28.708  27.625  1.00  0.00     0.052 C 
HETATM   16  C26 UNL     1      -6.811 -26.184  28.435  1.00  0.00     0.052 C 
BRANCH  12  17
HETATM   17  O1  UNL     1      -7.258 -29.483  24.907  1.00  0.00    -0.355 OA
HETATM   18  C1  UNL     1      -6.418 -30.358  24.168  1.00  0.00     0.210 C 
ENDBRANCH  12  17
ENDBRANCH   7   8
ENDBRANCH   6   7
ENDBRANCH   3   6
ENDBRANCH   2   3
ENDBRANCH   1   2
BRANCH   1  19
HETATM   19  C12 UNL     1      -5.009 -22.491  30.462  1.00  0.00     0.116 C 
HETATM   20  C13 UNL     1      -4.798 -21.061  29.920  1.00  0.00     0.054 C 
HETATM   21  O4  UNL     1      -4.575 -22.576  31.769  1.00  0.00    -0.301 OA
HETATM   22  C14 UNL     1      -5.225 -22.755  32.949  1.00  0.00     0.289 C 
HETATM   23  O5  UNL     1      -4.804 -22.023  33.891  1.00  0.00    -0.262 OA
HETATM   24  C15 UNL     1      -6.333 -23.635  33.374  1.00  0.00     0.222 C 
HETATM   25  C16 UNL     1      -6.866 -24.492  32.263  1.00  0.00     0.081 C 
HETATM   26  C17 UNL     1      -7.213 -23.650  31.061  1.00  0.00    -0.045 A 
HETATM   27  C18 UNL     1      -8.550 -23.796  30.715  1.00  0.00     0.015 A 
HETATM   28  C22 UNL     1      -6.420 -22.816  30.321  1.00  0.00    -0.015 A 
HETATM   29  C19 UNL     1      -9.125 -23.135  29.653  1.00  0.00    -0.051 A 
HETATM   30  C20 UNL     1      -8.330 -22.298  28.908  1.00  0.00    -0.051 A 
HETATM   31  C24 UNL     1     -10.288 -22.803  28.774  1.00  0.00     0.043 A 
HETATM   32  C21 UNL     1      -6.983 -22.148  29.254  1.00  0.00     0.018 A 
HETATM   33  C23 UNL     1      -9.421 -21.898  27.972  1.00  0.00     0.043 A 
BRANCH  24  34
HETATM   34  O6  UNL     1      -7.360 -22.827  33.851  1.00  0.00    -0.385 OA
ATOM     35  H6  UNL     1      -7.714 -23.237  34.631  1.00  0.00     0.210 HD
ENDBRANCH  24  34
ENDBRANCH   1  19
TORSDOF 8
ENDMDL
MODEL 2
REMARK VINA RESULT: -7.315222087      1.555      2.610
REMARK  8 active torsions:
REMARK  status: ('A' for Active; 'I' for Inactive)
REMARK    1  A    between atoms: O1_2  and  C2_3 
REMARK    2  A    between atoms: C6_7  and  O2_8 
REMARK    3  A    between atoms: O2_8  and  C7_9 
REMARK    4  A    between atoms: C7_9  and  C8_10 
REMARK    5  A    between atoms: C8_10  and  O3_13 
REMARK    6  A    between atoms: O3_13  and  C11_14 
REMARK    7  A    between atoms: C11_14  and  C12_15 
REMARK    8  A    between atoms: C15_20  and  O6_21 
ROOT
HETATM    1  C11 UNL     1      -4.032 -22.927  29.266  1.00  0.00     0.212 C 
ENDROOT
BRANCH   1   2
HETATM    2  O3  UNL     1      -4.478 -22.745  27.980  1.00  0.00    -0.375 OA
BRANCH   2   3
HETATM    3  C8  UNL     1      -3.581 -23.016  26.985  1.00  0.00     0.075 C 
HETATM    4  C9  UNL     1      -2.438 -23.909  27.425  1.00  0.00     0.048 C 
HETATM    5  C10 UNL     1      -2.966 -21.696  26.537  1.00  0.00     0.048 C 
BRANCH   3   6
HETATM    6  C7  UNL     1      -4.196 -23.647  25.768  1.00  0.00     0.212 C 
BRANCH   6   7
HETATM    7  O2  UNL     1      -5.564 -23.979  25.979  1.00  0.00    -0.347 OA
BRANCH   7   8
HETATM    8  C6  UNL     1      -5.888 -25.337  25.794  1.00  0.00     0.081 A 
HETATM    9  C4  UNL     1      -5.771 -25.951  24.555  1.00  0.00    -0.025 A 
HETATM   10  C3  UNL     1      -6.091 -27.284  24.386  1.00  0.00     0.047 A 
HETATM   11  C5  UNL     1      -5.296 -25.180  23.376  1.00  0.00     0.051 C 
HETATM   12  C2  UNL     1      -6.535 -28.018  25.470  1.00  0.00     0.075 A 
HETATM   13  C27 UNL     1      -6.663 -27.440  26.712  1.00  0.00    -0.020 A 
HETATM   14  C25 UNL     1      -6.334 -26.098  26.856  1.00  0.00    -0.019 A 
HETATM   15  C28 UNL     1      -7.140 -28.211  27.889  1.00  0.00     0.052 C 
HETATM   16  C26 UNL     1      -6.478 -25.502  28.199  1.00  0.00     0.052 C 
BRANCH  12  17
HETATM   17  O1  UNL     1      -6.852 -29.356  25.278  1.00  0.00    -0.355 OA
HETATM   18  C1  UNL     1      -6.085 -30.193  24.423  1.00  0.00     0.210 C 
ENDBRANCH  12  17
ENDBRANCH   7   8
ENDBRANCH   6   7
ENDBRANCH   3   6
ENDBRANCH   2   3
ENDBRANCH   1   2
BRANCH   1  19
HETATM   19  C12 UNL     1      -4.986 -22.221  30.221  1.00  0.00     0.116 C 
HETATM   20  C13 UNL     1      -6.255 -21.979  29.374  1.00  0.00     0.054 C 
HETATM   21  O4  UNL     1      -4.429 -21.017  30.604  1.00  0.00    -0.301 OA
HETATM   22  C14 UNL     1      -4.301 -20.399  31.807  1.00  0.00     0.289 C 
HETATM   23  O5  UNL     1      -4.540 -19.157  31.782  1.00  0.00    -0.262 OA
HETATM   24  C15 UNL     1      -3.935 -20.874  33.157  1.00  0.00     0.222 C 
HETATM   25  C16 UNL     1      -3.675 -22.351  33.214  1.00  0.00     0.081 C 
HETATM   26  C17 UNL     1      -4.826 -23.117  32.615  1.00  0.00    -0.045 A 
HETATM   27  C18 UNL     1      -5.371 -24.005  33.534  1.00  0.00     0.015 A 
HETATM   28  C22 UNL     1      -5.363 -23.047  31.358  1.00  0.00    -0.015 A 
HETATM   29  C19 UNL     1      -6.436 -24.827  33.240  1.00  0.00    -0.051 A 
HETATM   30  C20 UNL     1      -6.975 -24.758  31.979  1.00  0.00    -0.051 A 
HETATM   31  C24 UNL     1      -7.437 -25.877  33.604  1.00  0.00     0.043 A 
HETATM   32  C21 UNL     1      -6.429 -23.865  31.051  1.00  0.00     0.018 A 
HETATM   33  C23 UNL     1      -8.015 -25.797  32.235  1.00  0.00     0.043 A 
BRANCH  24  34
HETATM   34  O6  UNL     1      -4.987 -20.569  34.016  1.00  0.00    -0.385 OA
ATOM     35  H6  UNL     1      -4.986 -21.210  34.716  1.00  0.00     0.210 HD
ENDBRANCH  24  34
ENDBRANCH   1  19
TORSDOF 8
ENDMDL
MODEL 3
REMARK VINA RESULT: -7.250219282      0.640      1.802
REMARK  8 active torsions:
REMARK  status: ('A' for Active; 'I' for Inactive)
REMARK    1  A    between atoms: O1_2  and  C2_3 
REMARK    2  A    between atoms: C6_7  and  O2_8 
REMARK    3  A    between atoms: O2_8  and  C7_9 
REMARK    4  A    between atoms: C7_9  and  C8_10 
REMARK    5  A    between atoms: C8_10  and  O3_13 
REMARK    6  A    between atoms: O3_13  and  C11_14 
REMARK    7  A    between atoms: C11_14  and  C12_15 
REMARK    8  A    between atoms: C15_20  and  O6_21 
ROOT
HETATM    1  C11 UNL     1      -3.900 -22.955  29.828  1.00  0.00     0.212 C 
ENDROOT
BRANCH   1   2
HETATM    2  O3  UNL     1      -3.524 -22.184  28.756  1.00  0.00    -0.375 OA
BRANCH   2   3
HETATM    3  C8  UNL     1      -3.564 -22.789  27.531  1.00  0.00     0.075 C 
HETATM    4  C9  UNL     1      -2.207 -22.898  26.864  1.00  0.00     0.048 C 
HETATM    5  C10 UNL     1      -4.441 -21.942  26.619  1.00  0.00     0.048 C 
BRANCH   3   6
HETATM    6  C7  UNL     1      -4.159 -24.169  27.555  1.00  0.00     0.212 C 
BRANCH   6   7
HETATM    7  O2  UNL     1      -5.441 -24.201  26.939  1.00  0.00    -0.347 OA
BRANCH   7   8
HETATM    8  C6  UNL     1      -5.807 -25.441  26.379  1.00  0.00     0.081 A 
HETATM    9  C4  UNL     1      -6.545 -26.373  27.095  1.00  0.00    -0.025 A 
HETATM   10  C3  UNL     1      -6.899 -27.585  26.535  1.00  0.00     0.047 A 
HETATM   11  C5  UNL     1      -6.973 -26.084  28.489  1.00  0.00     0.051 C 
HETATM   12  C2  UNL     1      -6.511 -27.874  25.240  1.00  0.00     0.075 A 
HETATM   13  C27 UNL     1      -5.778 -26.973  24.503  1.00  0.00    -0.020 A 
HETATM   14  C25 UNL     1      -5.435 -25.760  25.089  1.00  0.00    -0.019 A 
HETATM   15  C28 UNL     1      -5.350 -27.265  23.111  1.00  0.00     0.052 C 
HETATM   16  C26 UNL     1      -4.650 -24.810  24.275  1.00  0.00     0.052 C 
BRANCH  12  17
HETATM   17  O1  UNL     1      -6.877 -29.098  24.697  1.00  0.00    -0.355 OA
HETATM   18  C1  UNL     1      -8.208 -29.366  24.281  1.00  0.00     0.210 C 
ENDBRANCH  12  17
ENDBRANCH   7   8
ENDBRANCH   6   7
ENDBRANCH   3   6
ENDBRANCH   2   3
ENDBRANCH   1   2
BRANCH   1  19
HETATM   19  C12 UNL     1      -4.877 -22.161  30.686  1.00  0.00     0.116 C 
HETATM   20  C13 UNL     1      -4.840 -20.741  30.081  1.00  0.00     0.054 C 
HETATM   21  O4  UNL     1      -4.416 -22.139  31.987  1.00  0.00    -0.301 OA
HETATM   22  C14 UNL     1      -5.023 -22.339  33.186  1.00  0.00     0.289 C 
HETATM   23  O5  UNL     1      -4.676 -21.523  34.088  1.00  0.00    -0.262 OA
HETATM   24  C15 UNL     1      -6.017 -23.321  33.669  1.00  0.00     0.222 C 
HETATM   25  C16 UNL     1      -6.465 -24.280  32.605  1.00  0.00     0.081 C 
HETATM   26  C17 UNL     1      -6.924 -23.537  31.377  1.00  0.00    -0.045 A 
HETATM   27  C18 UNL     1      -8.241 -23.849  31.064  1.00  0.00     0.015 A 
HETATM   28  C22 UNL     1      -6.244 -22.650  30.587  1.00  0.00    -0.015 A 
HETATM   29  C19 UNL     1      -8.904 -23.305  29.987  1.00  0.00    -0.051 A 
HETATM   30  C20 UNL     1      -8.222 -22.415  29.193  1.00  0.00    -0.051 A 
HETATM   31  C24 UNL     1     -10.111 -23.145  29.119  1.00  0.00     0.043 A 
HETATM   32  C21 UNL     1      -6.896 -22.099  29.505  1.00  0.00     0.018 A 
HETATM   33  C23 UNL     1      -9.365 -22.184  28.262  1.00  0.00     0.043 A 
BRANCH  24  34
HETATM   34  O6  UNL     1      -7.123 -22.615  34.132  1.00  0.00    -0.385 OA
ATOM     35  H6  UNL     1      -7.580 -23.167  34.755  1.00  0.00     0.210 HD
ENDBRANCH  24  34
ENDBRANCH   1  19
TORSDOF 8
ENDMDL
MODEL 4
REMARK VINA RESULT: -7.160893033      2.258      4.471
REMARK  8 active torsions:
REMARK  status: ('A' for Active; 'I' for Inactive)
REMARK    1  A    between atoms: O1_2  and  C2_3 
REMARK    2  A    between atoms: C6_7  and  O2_8 
REMARK    3  A    between atoms: O2_8  and  C7_9 
REMARK    4  A    between atoms: C7_9  and  C8_10 
REMARK    5  A    between atoms: C8_10  and  O3_13 
REMARK    6  A    between atoms: O3_13  and  C11_14 
REMARK    7  A    between atoms: C11_14  and  C12_15 
REMARK    8  A    between atoms: C15_20  and  O6_21 
ROOT
HETATM    1  C11 UNL     1      -3.938 -22.610  29.550  1.00  0.00     0.212 C 
ENDROOT
BRANCH   1   2
HETATM    2  O3  UNL     1      -4.538 -22.610  28.315  1.00  0.00    -0.375 OA
BRANCH   2   3
HETATM    3  C8  UNL     1      -4.291 -23.697  27.523  1.00  0.00     0.075 C 
HETATM    4  C9  UNL     1      -2.861 -24.193  27.603  1.00  0.00     0.048 C 
HETATM    5  C10 UNL     1      -4.540 -23.288  26.077  1.00  0.00     0.048 C 
BRANCH   3   6
HETATM    6  C7  UNL     1      -5.186 -24.870  27.807  1.00  0.00     0.212 C 
BRANCH   6   7
HETATM    7  O2  UNL     1      -6.381 -24.822  27.036  1.00  0.00    -0.347 OA
BRANCH   7   8
HETATM    8  C6  UNL     1      -7.563 -24.614  27.772  1.00  0.00     0.081 A 
HETATM    9  C4  UNL     1      -8.085 -25.595  28.603  1.00  0.00    -0.025 A 
HETATM   10  C3  UNL     1      -9.245 -25.379  29.321  1.00  0.00     0.047 A 
HETATM   11  C5  UNL     1      -7.403 -26.909  28.737  1.00  0.00     0.051 C 
HETATM   12  C2  UNL     1      -9.896 -24.164  29.210  1.00  0.00     0.075 A 
HETATM   13  C27 UNL     1      -9.406 -23.170  28.395  1.00  0.00    -0.020 A 
HETATM   14  C25 UNL     1      -8.237 -23.412  27.684  1.00  0.00    -0.019 A 
HETATM   15  C28 UNL     1     -10.091 -21.859  28.260  1.00  0.00     0.052 C 
HETATM   16  C26 UNL     1      -7.730 -22.328  26.818  1.00  0.00     0.052 C 
BRANCH  12  17
HETATM   17  O1  UNL     1     -11.061 -23.968  29.940  1.00  0.00    -0.355 OA
HETATM   18  C1  UNL     1     -11.049 -23.867  31.357  1.00  0.00     0.210 C 
ENDBRANCH  12  17
ENDBRANCH   7   8
ENDBRANCH   6   7
ENDBRANCH   3   6
ENDBRANCH   2   3
ENDBRANCH   1   2
BRANCH   1  19
HETATM   19  C12 UNL     1      -4.902 -22.008  30.565  1.00  0.00     0.116 C 
HETATM   20  C13 UNL     1      -6.189 -21.747  29.751  1.00  0.00     0.054 C 
HETATM   21  O4  UNL     1      -4.380 -20.818  31.029  1.00  0.00    -0.301 OA
HETATM   22  C14 UNL     1      -4.257 -20.285  32.273  1.00  0.00     0.289 C 
HETATM   23  O5  UNL     1      -4.537 -19.054  32.343  1.00  0.00    -0.262 OA
HETATM   24  C15 UNL     1      -3.859 -20.846  33.581  1.00  0.00     0.222 C 
HETATM   25  C16 UNL     1      -3.550 -22.313  33.527  1.00  0.00     0.081 C 
HETATM   26  C17 UNL     1      -4.683 -23.072  32.884  1.00  0.00    -0.045 A 
HETATM   27  C18 UNL     1      -5.187 -24.042  33.741  1.00  0.00     0.015 A 
HETATM   28  C22 UNL     1      -5.238 -22.927  31.642  1.00  0.00    -0.015 A 
HETATM   29  C19 UNL     1      -6.229 -24.876  33.399  1.00  0.00    -0.051 A 
HETATM   30  C20 UNL     1      -6.785 -24.732  32.151  1.00  0.00    -0.051 A 
HETATM   31  C24 UNL     1      -7.189 -25.982  33.694  1.00  0.00     0.043 A 
HETATM   32  C21 UNL     1      -6.281 -23.756  31.286  1.00  0.00     0.018 A 
HETATM   33  C23 UNL     1      -7.787 -25.822  32.340  1.00  0.00     0.043 A 
BRANCH  24  34
HETATM   34  O6  UNL     1      -4.909 -20.640  34.471  1.00  0.00    -0.385 OA
ATOM     35  H6  UNL     1      -5.054 -21.452  34.942  1.00  0.00     0.210 HD
ENDBRANCH  24  34
ENDBRANCH   1  19
TORSDOF 8
ENDMDL
MODEL 5
REMARK VINA RESULT: -7.143082152      2.723      5.337
REMARK  8 active torsions:
REMARK  status: ('A' for Active; 'I' for Inactive)
REMARK    1  A    between atoms: O1_2  and  C2_3 
REMARK    2  A    between atoms: C6_7  and  O2_8 
REMARK    3  A    between atoms: O2_8  and  C7_9 
REMARK    4  A    between atoms: C7_9  and  C8_10 
REMARK    5  A    between atoms: C8_10  and  O3_13 
REMARK    6  A    between atoms: O3_13  and  C11_14 
REMARK    7  A    between atoms: C11_14  and  C12_15 
REMARK    8  A    between atoms: C15_20  and  O6_21 
ROOT
HETATM    1  C11 UNL     1     -10.578 -25.324  30.077  1.00  0.00     0.212 C 
ENDROOT
BRANCH   1   2
HETATM    2  O3  UNL     1      -9.410 -25.710  29.468  1.00  0.00    -0.375 OA
BRANCH   2   3
HETATM    3  C8  UNL     1      -9.050 -27.020  29.624  1.00  0.00     0.075 C 
HETATM    4  C9  UNL     1     -10.123 -27.870  30.275  1.00  0.00     0.048 C 
HETATM    5  C10 UNL     1      -7.832 -27.064  30.538  1.00  0.00     0.048 C 
BRANCH   3   6
HETATM    6  C7  UNL     1      -8.661 -27.700  28.341  1.00  0.00     0.212 C 
BRANCH   6   7
HETATM    7  O2  UNL     1      -7.248 -27.768  28.188  1.00  0.00    -0.347 OA
BRANCH   7   8
HETATM    8  C6  UNL     1      -6.755 -27.298  26.955  1.00  0.00     0.081 A 
HETATM    9  C4  UNL     1      -6.855 -28.053  25.795  1.00  0.00    -0.025 A 
HETATM   10  C3  UNL     1      -6.368 -27.582  24.592  1.00  0.00     0.047 A 
HETATM   11  C5  UNL     1      -7.492 -29.396  25.825  1.00  0.00     0.051 C 
HETATM   12  C2  UNL     1      -5.771 -26.335  24.543  1.00  0.00     0.075 A 
HETATM   13  C27 UNL     1      -5.655 -25.561  25.675  1.00  0.00    -0.020 A 
HETATM   14  C25 UNL     1      -6.154 -26.058  26.872  1.00  0.00    -0.019 A 
HETATM   15  C28 UNL     1      -5.015 -24.220  25.644  1.00  0.00     0.052 C 
HETATM   16  C26 UNL     1      -6.019 -25.207  28.071  1.00  0.00     0.052 C 
BRANCH  12  17
HETATM   17  O1  UNL     1      -5.288 -25.880  23.324  1.00  0.00    -0.355 OA
HETATM   18  C1  UNL     1      -4.626 -26.744  22.410  1.00  0.00     0.210 C 
ENDBRANCH  12  17
ENDBRANCH   7   8
ENDBRANCH   6   7
ENDBRANCH   3   6
ENDBRANCH   2   3
ENDBRANCH   1   2
BRANCH   1  19
HETATM   19  C12 UNL     1     -10.513 -23.830  30.364  1.00  0.00     0.116 C 
HETATM   20  C13 UNL     1     -10.596 -23.740  31.904  1.00  0.00     0.054 C 
HETATM   21  O4  UNL     1     -11.607 -23.214  29.790  1.00  0.00    -0.301 OA
HETATM   22  C14 UNL     1     -11.747 -22.086  29.046  1.00  0.00     0.289 C 
HETATM   23  O5  UNL     1     -12.748 -21.378  29.357  1.00  0.00    -0.262 OA
HETATM   24  C15 UNL     1     -10.970 -21.500  27.934  1.00  0.00     0.222 C 
HETATM   25  C16 UNL     1      -9.760 -22.309  27.569  1.00  0.00     0.081 C 
HETATM   26  C17 UNL     1      -8.919 -22.591  28.788  1.00  0.00    -0.045 A 
HETATM   27  C18 UNL     1      -7.629 -22.102  28.632  1.00  0.00     0.015 A 
HETATM   28  C22 UNL     1      -9.254 -23.228  29.952  1.00  0.00    -0.015 A 
HETATM   29  C19 UNL     1      -6.658 -22.227  29.601  1.00  0.00    -0.051 A 
HETATM   30  C20 UNL     1      -6.993 -22.867  30.769  1.00  0.00    -0.051 A 
HETATM   31  C24 UNL     1      -5.274 -22.012  30.122  1.00  0.00     0.043 A 
HETATM   32  C21 UNL     1      -8.292 -23.361  30.930  1.00  0.00     0.018 A 
HETATM   33  C23 UNL     1      -5.643 -22.708  31.385  1.00  0.00     0.043 A 
BRANCH  24  34
HETATM   34  O6  UNL     1     -10.559 -20.229  28.325  1.00  0.00    -0.385 OA
ATOM     35  H6  UNL     1      -9.620 -20.257  28.463  1.00  0.00     0.210 HD
ENDBRANCH  24  34
ENDBRANCH   1  19
TORSDOF 8
ENDMDL
