MODEL 1
REMARK VINA RESULT: -7.459210122      0.000      0.000
REMARK  6 active torsions:
REMARK  status: ('A' for Active; 'I' for Inactive)
REMARK    1  A    between atoms: C2_2  and  O1_3 
REMARK    2  A    between atoms: O1_3  and  C3_4 
REMARK    3  A    between atoms: C5_6  and  O2_7 
REMARK    4  A    between atoms: C6_9  and  C7_10 
REMARK    5  A    between atoms: C7_10  and  C14_22 
REMARK    6  A    between atoms: N1_11  and  C8_13 
ROOT
HETATM    1  C7  UNL     1      13.139  14.796   3.892  1.00  0.00     0.066 C 
HETATM    2  N1  UNL     1      12.502  13.696   4.002  1.00  0.00    -0.356 N 
ATOM      3  H1  UNL     1      11.495  13.758   4.148  1.00  0.00     0.166 HD
ENDROOT
BRANCH   1   4
HETATM    4  C6  UNL     1      14.614  14.723   3.677  1.00  0.00     0.205 C 
HETATM    5  C5  UNL     1      15.009  14.596   2.243  1.00  0.00     0.158 C 
HETATM    6  C4  UNL     1      16.047  15.649   2.012  1.00  0.00     0.095 C 
HETATM    7  C3  UNL     1      16.355  16.114   3.393  1.00  0.00     0.263 C 
HETATM    8  O3  UNL     1      15.244  15.836   4.161  1.00  0.00    -0.347 OA
BRANCH   5   9
HETATM    9  O2  UNL     1      13.901  14.835   1.434  1.00  0.00    -0.392 OA
ATOM     10  H2  UNL     1      14.049  14.474   0.567  1.00  0.00     0.210 HD
ENDBRANCH   5   9
BRANCH   7  11
HETATM   11  O1  UNL     1      17.509  15.552   3.852  1.00  0.00    -0.362 OA
BRANCH  11  12
HETATM   12  C2  UNL     1      18.001  16.078   5.024  1.00  0.00     0.166 C 
HETATM   13  C1  UNL     1      18.997  17.171   4.725  1.00  0.00     0.033 C 
ENDBRANCH  11  12
ENDBRANCH   7  11
ENDBRANCH   1   4
BRANCH   1  14
HETATM   14  C14 UNL     1      12.403  16.042   3.947  1.00  0.00     0.095 C 
HETATM   15 CL3  UNL     1      12.765  17.244   5.181  1.00  0.00    -0.079 Cl
HETATM   16  C15 UNL     1      11.417  16.341   3.121  1.00  0.00     0.139 C 
HETATM   17  N2  UNL     1      10.703  17.593   3.202  1.00  0.00    -0.087 NA
HETATM   18 CL4  UNL     1      10.876  15.263   1.851  1.00  0.00    -0.066 Cl
ENDBRANCH   1  14
BRANCH   2  19
HETATM   19  C8  UNL     1      13.057  12.410   3.939  1.00  0.00     0.035 A 
HETATM   20  C9  UNL     1      12.577  11.515   3.008  1.00  0.00     0.056 A 
HETATM   21  C10 UNL     1      13.101  10.238   2.918  1.00  0.00     0.076 A 
HETATM   22 CL1  UNL     1      12.491   9.095   1.732  1.00  0.00    -0.081 Cl
HETATM   23  C11 UNL     1      14.127   9.830   3.771  1.00  0.00     0.159 A 
HETATM   24  F1  UNL     1      14.658   8.578   3.702  1.00  0.00    -0.203 F 
HETATM   25  C12 UNL     1      14.611  10.723   4.705  1.00  0.00     0.076 A 
HETATM   26 CL2  UNL     1      15.904  10.239   5.795  1.00  0.00    -0.081 Cl
HETATM   27  C13 UNL     1      14.069  12.010   4.782  1.00  0.00     0.056 A 
ENDBRANCH   2  19
TORSDOF 6
ENDMDL
MODEL 2
REMARK VINA RESULT: -7.367663481      0.228      1.821
REMARK  6 active torsions:
REMARK  status: ('A' for Active; 'I' for Inactive)
REMARK    1  A    between atoms: C2_2  and  O1_3 
REMARK    2  A    between atoms: O1_3  and  C3_4 
REMARK    3  A    between atoms: C5_6  and  O2_7 
REMARK    4  A    between atoms: C6_9  and  C7_10 
REMARK    5  A    between atoms: C7_10  and  C14_22 
REMARK    6  A    between atoms: N1_11  and  C8_13 
ROOT
HETATM    1  C7  UNL     1      13.311  14.762   4.033  1.00  0.00     0.066 C 
HETATM    2  N1  UNL     1      12.648  13.676   4.123  1.00  0.00    -0.356 N 
ATOM      3  H1  UNL     1      11.645  13.759   4.288  1.00  0.00     0.166 HD
ENDROOT
BRANCH   1   4
HETATM    4  C6  UNL     1      14.780  14.657   3.791  1.00  0.00     0.205 C 
HETATM    5  C5  UNL     1      15.152  14.613   2.346  1.00  0.00     0.158 C 
HETATM    6  C4  UNL     1      16.221  15.645   2.169  1.00  0.00     0.095 C 
HETATM    7  C3  UNL     1      16.561  16.008   3.572  1.00  0.00     0.263 C 
HETATM    8  O3  UNL     1      15.452  15.715   4.337  1.00  0.00    -0.347 OA
BRANCH   5   9
HETATM    9  O2  UNL     1      14.042  14.939   1.571  1.00  0.00    -0.392 OA
ATOM     10  H2  UNL     1      13.729  14.168   1.111  1.00  0.00     0.210 HD
ENDBRANCH   5   9
BRANCH   7  11
HETATM   11  O1  UNL     1      17.703  15.380   3.976  1.00  0.00    -0.362 OA
BRANCH  11  12
HETATM   12  C2  UNL     1      18.318  15.919   5.082  1.00  0.00     0.166 C 
HETATM   13  C1  UNL     1      19.009  17.209   4.715  1.00  0.00     0.033 C 
ENDBRANCH  11  12
ENDBRANCH   7  11
ENDBRANCH   1   4
BRANCH   1  14
HETATM   14  C14 UNL     1      12.609  16.024   4.134  1.00  0.00     0.095 C 
HETATM   15 CL3  UNL     1      13.048  17.197   5.370  1.00  0.00    -0.079 Cl
HETATM   16  C15 UNL     1      11.600  16.360   3.351  1.00  0.00     0.139 C 
HETATM   17  N2  UNL     1      10.921  17.627   3.477  1.00  0.00    -0.087 NA
HETATM   18 CL4  UNL     1      10.985  15.315   2.087  1.00  0.00    -0.066 Cl
ENDBRANCH   1  14
BRANCH   2  19
HETATM   19  C8  UNL     1      13.167  12.378   4.017  1.00  0.00     0.035 A 
HETATM   20  C9  UNL     1      14.182  11.988   4.863  1.00  0.00     0.056 A 
HETATM   21  C10 UNL     1      14.718  10.715   4.786  1.00  0.00     0.076 A 
HETATM   22 CL1  UNL     1      16.012  10.215   5.864  1.00  0.00    -0.081 Cl
HETATM   23  C11 UNL     1      14.241   9.799   3.848  1.00  0.00     0.159 A 
HETATM   24  F1  UNL     1      14.752   8.541   3.752  1.00  0.00    -0.203 F 
HETATM   25  C12 UNL     1      13.224  10.185   2.998  1.00  0.00     0.076 A 
HETATM   26 CL2  UNL     1      12.600   9.054   1.804  1.00  0.00    -0.081 Cl
HETATM   27  C13 UNL     1      12.694  11.476   3.090  1.00  0.00     0.056 A 
ENDBRANCH   2  19
TORSDOF 6
ENDMDL
MODEL 3
REMARK VINA RESULT: -7.312955996      0.865      1.558
REMARK  6 active torsions:
REMARK  status: ('A' for Active; 'I' for Inactive)
REMARK    1  A    between atoms: C2_2  and  O1_3 
REMARK    2  A    between atoms: O1_3  and  C3_4 
REMARK    3  A    between atoms: C5_6  and  O2_7 
REMARK    4  A    between atoms: C6_9  and  C7_10 
REMARK    5  A    between atoms: C7_10  and  C14_22 
REMARK    6  A    between atoms: N1_11  and  C8_13 
ROOT
HETATM    1  C7  UNL     1      12.961  14.655   3.644  1.00  0.00     0.066 C 
HETATM    2  N1  UNL     1      12.384  13.550   3.918  1.00  0.00    -0.356 N 
ATOM      3  H1  UNL     1      11.411  13.599   4.220  1.00  0.00     0.166 HD
ENDROOT
BRANCH   1   4
HETATM    4  C6  UNL     1      14.384  14.600   3.200  1.00  0.00     0.205 C 
HETATM    5  C5  UNL     1      14.552  14.359   1.737  1.00  0.00     0.158 C 
HETATM    6  C4  UNL     1      15.499  15.413   1.255  1.00  0.00     0.095 C 
HETATM    7  C3  UNL     1      16.003  16.004   2.525  1.00  0.00     0.263 C 
HETATM    8  O3  UNL     1      15.040  15.766   3.483  1.00  0.00    -0.347 OA
BRANCH   5   9
HETATM    9  O2  UNL     1      13.321  14.498   1.099  1.00  0.00    -0.392 OA
ATOM     10  H2  UNL     1      13.426  14.383   0.162  1.00  0.00     0.210 HD
ENDBRANCH   5   9
BRANCH   7  11
HETATM   11  O1  UNL     1      17.237  15.513   2.837  1.00  0.00    -0.362 OA
BRANCH  11  12
HETATM   12  C2  UNL     1      17.586  15.582   4.166  1.00  0.00     0.166 C 
HETATM   13  C1  UNL     1      17.895  14.203   4.693  1.00  0.00     0.033 C 
ENDBRANCH  11  12
ENDBRANCH   7  11
ENDBRANCH   1   4
BRANCH   1  14
HETATM   14  C14 UNL     1      12.204  15.885   3.742  1.00  0.00     0.095 C 
HETATM   15 CL3  UNL     1      10.977  16.281   2.545  1.00  0.00    -0.079 Cl
HETATM   16  C15 UNL     1      12.398  16.785   4.690  1.00  0.00     0.139 C 
HETATM   17  N2  UNL     1      11.626  18.002   4.760  1.00  0.00    -0.087 NA
HETATM   18 CL4  UNL     1      13.600  16.598   5.951  1.00  0.00    -0.066 Cl
ENDBRANCH   1  14
BRANCH   2  19
HETATM   19  C8  UNL     1      12.962  12.275   3.844  1.00  0.00     0.035 A 
HETATM   20  C9  UNL     1      12.507  11.385   2.895  1.00  0.00     0.056 A 
HETATM   21  C10 UNL     1      13.054  10.118   2.794  1.00  0.00     0.076 A 
HETATM   22 CL1  UNL     1      12.476   8.981   1.586  1.00  0.00    -0.081 Cl
HETATM   23  C11 UNL     1      14.079   9.716   3.651  1.00  0.00     0.159 A 
HETATM   24  F1  UNL     1      14.633   8.475   3.571  1.00  0.00    -0.203 F 
HETATM   25  C12 UNL     1      14.538  10.605   4.602  1.00  0.00     0.076 A 
HETATM   26 CL2  UNL     1      15.829  10.129   5.699  1.00  0.00    -0.081 Cl
HETATM   27  C13 UNL     1      13.973  11.881   4.691  1.00  0.00     0.056 A 
ENDBRANCH   2  19
TORSDOF 6
ENDMDL
MODEL 4
REMARK VINA RESULT: -7.290818456      3.678      6.639
REMARK  6 active torsions:
REMARK  status: ('A' for Active; 'I' for Inactive)
REMARK    1  A    between atoms: C2_2  and  O1_3 
REMARK    2  A    between atoms: O1_3  and  C3_4 
REMARK    3  A    between atoms: C5_6  and  O2_7 
REMARK    4  A    between atoms: C6_9  and  C7_10 
REMARK    5  A    between atoms: C7_10  and  C14_22 
REMARK    6  A    between atoms: N1_11  and  C8_13 
ROOT
HETATM    1  C7  UNL     1      15.828  13.827   4.460  1.00  0.00     0.066 C 
HETATM    2  N1  UNL     1      16.144  14.430   5.538  1.00  0.00    -0.356 N 
ATOM      3  H1  UNL     1      16.712  13.911   6.208  1.00  0.00     0.166 HD
ENDROOT
BRANCH   1   4
HETATM    4  C6  UNL     1      14.998  14.572   3.469  1.00  0.00     0.205 C 
HETATM    5  C5  UNL     1      15.796  15.362   2.486  1.00  0.00     0.158 C 
HETATM    6  C4  UNL     1      15.262  14.993   1.137  1.00  0.00     0.095 C 
HETATM    7  C3  UNL     1      14.029  14.229   1.472  1.00  0.00     0.263 C 
HETATM    8  O3  UNL     1      14.207  13.725   2.742  1.00  0.00    -0.347 OA
BRANCH   5   9
HETATM    9  O2  UNL     1      17.138  15.002   2.581  1.00  0.00    -0.392 OA
ATOM     10  H2  UNL     1      17.254  14.361   3.273  1.00  0.00     0.210 HD
ENDBRANCH   5   9
BRANCH   7  11
HETATM   11  O1  UNL     1      12.917  15.006   1.327  1.00  0.00    -0.362 OA
BRANCH  11  12
HETATM   12  C2  UNL     1      11.721  14.394   1.619  1.00  0.00     0.166 C 
HETATM   13  C1  UNL     1      11.457  13.277   0.640  1.00  0.00     0.033 C 
ENDBRANCH  11  12
ENDBRANCH   7  11
ENDBRANCH   1   4
BRANCH   1  14
HETATM   14  C14 UNL     1      16.312  12.481   4.239  1.00  0.00     0.095 C 
HETATM   15 CL3  UNL     1      17.930  12.202   3.603  1.00  0.00    -0.079 Cl
HETATM   16  C15 UNL     1      15.586  11.400   4.463  1.00  0.00     0.139 C 
HETATM   17  N2  UNL     1      16.100  10.071   4.233  1.00  0.00    -0.087 NA
HETATM   18 CL4  UNL     1      13.939  11.463   5.057  1.00  0.00    -0.066 Cl
ENDBRANCH   1  14
BRANCH   2  19
HETATM   19  C8  UNL     1      15.786  15.738   5.890  1.00  0.00     0.035 A 
HETATM   20  C9  UNL     1      14.645  15.946   6.635  1.00  0.00     0.056 A 
HETATM   21  C10 UNL     1      14.261  17.224   7.000  1.00  0.00     0.076 A 
HETATM   22 CL1  UNL     1      12.806  17.492   7.948  1.00  0.00    -0.081 Cl
HETATM   23  C11 UNL     1      15.023  18.329   6.621  1.00  0.00     0.159 A 
HETATM   24  F1  UNL     1      14.665  19.597   6.968  1.00  0.00    -0.203 F 
HETATM   25  C12 UNL     1      16.167  18.127   5.876  1.00  0.00     0.076 A 
HETATM   26 CL2  UNL     1      17.149  19.500   5.382  1.00  0.00    -0.081 Cl
HETATM   27  C13 UNL     1      16.539  16.828   5.515  1.00  0.00     0.056 A 
ENDBRANCH   2  19
TORSDOF 6
ENDMDL
MODEL 5
REMARK VINA RESULT: -7.270414603      3.676      6.690
REMARK  6 active torsions:
REMARK  status: ('A' for Active; 'I' for Inactive)
REMARK    1  A    between atoms: C2_2  and  O1_3 
REMARK    2  A    between atoms: O1_3  and  C3_4 
REMARK    3  A    between atoms: C5_6  and  O2_7 
REMARK    4  A    between atoms: C6_9  and  C7_10 
REMARK    5  A    between atoms: C7_10  and  C14_22 
REMARK    6  A    between atoms: N1_11  and  C8_13 
ROOT
HETATM    1  C7  UNL     1      15.813  13.812   4.462  1.00  0.00     0.066 C 
HETATM    2  N1  UNL     1      16.111  14.401   5.554  1.00  0.00    -0.356 N 
ATOM      3  H1  UNL     1      16.681  13.878   6.220  1.00  0.00     0.166 HD
ENDROOT
BRANCH   1   4
HETATM    4  C6  UNL     1      14.981  14.563   3.477  1.00  0.00     0.205 C 
HETATM    5  C5  UNL     1      15.775  15.382   2.515  1.00  0.00     0.158 C 
HETATM    6  C4  UNL     1      15.258  15.028   1.155  1.00  0.00     0.095 C 
HETATM    7  C3  UNL     1      14.033  14.241   1.466  1.00  0.00     0.263 C 
HETATM    8  O3  UNL     1      14.208  13.718   2.729  1.00  0.00    -0.347 OA
BRANCH   5   9
HETATM    9  O2  UNL     1      17.122  15.039   2.615  1.00  0.00    -0.392 OA
ATOM     10  H2  UNL     1      17.557  15.611   3.237  1.00  0.00     0.210 HD
ENDBRANCH   5   9
BRANCH   7  11
HETATM   11  O1  UNL     1      12.912  15.004   1.326  1.00  0.00    -0.362 OA
BRANCH  11  12
HETATM   12  C2  UNL     1      11.725  14.379   1.629  1.00  0.00     0.166 C 
HETATM   13  C1  UNL     1      11.452  13.274   0.639  1.00  0.00     0.033 C 
ENDBRANCH  11  12
ENDBRANCH   7  11
ENDBRANCH   1   4
BRANCH   1  14
HETATM   14  C14 UNL     1      16.320  12.478   4.222  1.00  0.00     0.095 C 
HETATM   15 CL3  UNL     1      17.937  12.236   3.571  1.00  0.00    -0.079 Cl
HETATM   16  C15 UNL     1      15.615  11.382   4.438  1.00  0.00     0.139 C 
HETATM   17  N2  UNL     1      16.150  10.065   4.189  1.00  0.00    -0.087 NA
HETATM   18 CL4  UNL     1      13.971  11.409   5.045  1.00  0.00    -0.066 Cl
ENDBRANCH   1  14
BRANCH   2  19
HETATM   19  C8  UNL     1      15.730  15.697   5.926  1.00  0.00     0.035 A 
HETATM   20  C9  UNL     1      16.516  16.764   5.549  1.00  0.00     0.056 A 
HETATM   21  C10 UNL     1      16.170  18.057   5.899  1.00  0.00     0.076 A 
HETATM   22 CL1  UNL     1      17.171  19.419   5.421  1.00  0.00    -0.081 Cl
HETATM   23  C11 UNL     1      15.015  18.307   6.641  1.00  0.00     0.159 A 
HETATM   24  F1  UNL     1      14.653  19.570   6.998  1.00  0.00    -0.203 F 
HETATM   25  C12 UNL     1      14.224  17.241   7.020  1.00  0.00     0.076 A 
HETATM   26 CL2  UNL     1      12.762  17.523   7.957  1.00  0.00    -0.081 Cl
HETATM   27  C13 UNL     1      14.590  15.941   6.658  1.00  0.00     0.056 A 
ENDBRANCH   2  19
TORSDOF 6
ENDMDL
