MODEL 1
REMARK VINA RESULT: -7.639996301      0.000      0.000
REMARK  8 active torsions:
REMARK  status: ('A' for Active; 'I' for Inactive)
REMARK    1  A    between atoms: C3_6  and  N3_7 
REMARK    2  A    between atoms: C4_12  and  N5_13 
REMARK    3  A    between atoms: N5_13  and  C5_15 
REMARK    4  A    between atoms: C9_19  and  O1_20 
REMARK    5  A    between atoms: O1_20  and  C10_21 
REMARK    6  A    between atoms: C10_21  and  C11_22 
REMARK    7  A    between atoms: C11_22  and  C12_24 
REMARK    8  A    between atoms: C13_25  and  C14_26 
ROOT
HETATM    1  N1  UNL     1      12.984   8.899   1.882  1.00  0.00    -0.188 NA
HETATM    2  C1  UNL     1      13.776   8.929   2.717  1.00  0.00     0.138 C 
HETATM    3  C2  UNL     1      14.764   8.946   3.756  1.00  0.00     0.217 A 
HETATM    4  N2  UNL     1      15.442   7.819   3.992  1.00  0.00    -0.166 N 
ATOM      5  H2  UNL     1      15.244   6.986   3.437  1.00  0.00     0.186 HD
HETATM    6  C3  UNL     1      16.381   7.774   4.952  1.00  0.00     0.692 A 
HETATM    7  N4  UNL     1      16.615   8.886   5.662  1.00  0.00    -0.022 N 
ATOM      8  H4  UNL     1      17.328   8.856   6.392  1.00  0.00     0.203 HD
HETATM    9  C4  UNL     1      15.957  10.039   5.458  1.00  0.00     0.699 A 
HETATM   10  N6  UNL     1      15.025  10.053   4.491  1.00  0.00    -0.165 N 
ATOM     11  H6  UNL     1      14.504  10.912   4.307  1.00  0.00     0.186 HD
ENDROOT
BRANCH   6  12
HETATM   12  N3  UNL     1      17.039   6.663   5.174  1.00  0.00    -0.234 N 
ATOM     13  H32 UNL     1      16.883   5.826   4.613  1.00  0.00     0.174 HD
ATOM     14  H31 UNL     1      17.729   6.619   5.925  1.00  0.00     0.174 HD
ENDBRANCH   6  12
BRANCH   9  15
HETATM   15  N5  UNL     1      16.214  11.080   6.161  1.00  0.00    -0.191 N 
ATOM     16  H5  UNL     1      16.712  10.957   7.043  1.00  0.00     0.184 HD
BRANCH  15  17
HETATM   17  C5  UNL     1      15.841  12.394   5.778  1.00  0.00     0.051 A 
HETATM   18  C6  UNL     1      14.828  13.028   6.463  1.00  0.00     0.030 A 
HETATM   19  C7  UNL     1      14.466  14.303   6.092  1.00  0.00     0.005 A 
HETATM   20  C8  UNL     1      15.111  14.912   5.063  1.00  0.00     0.037 A 
HETATM   21  C9  UNL     1      16.146  14.312   4.336  1.00  0.00     0.071 A 
HETATM   22  C15 UNL     1      16.492  13.042   4.720  1.00  0.00     0.066 A 
BRANCH  21  23
HETATM   23  O1  UNL     1      16.695  15.022   3.343  1.00  0.00    -0.348 OA
BRANCH  23  24
HETATM   24  C10 UNL     1      16.221  15.775   2.304  1.00  0.00     0.217 C 
BRANCH  24  25
HETATM   25  C11 UNL     1      15.783  15.077   1.065  1.00  0.00     0.217 C 
HETATM   26  F1  UNL     1      16.817  14.178   0.736  1.00  0.00    -0.243 F 
BRANCH  25  27
HETATM   27  C12 UNL     1      14.585  14.239   1.242  1.00  0.00     0.012 C 
HETATM   28  C13 UNL     1      13.543  14.728   1.891  1.00  0.00     0.030 C 
BRANCH  28  29
HETATM   29  C14 UNL     1      12.308  13.893   2.087  1.00  0.00     0.206 C 
HETATM   30 CL1  UNL     1      11.204  14.830   3.116  1.00  0.00    -0.079 Cl
HETATM   31 CL2  UNL     1      11.532  13.537   0.539  1.00  0.00    -0.079 Cl
HETATM   32 CL3  UNL     1      12.831  12.396   2.896  1.00  0.00    -0.079 Cl
ENDBRANCH  28  29
ENDBRANCH  25  27
ENDBRANCH  24  25
ENDBRANCH  23  24
ENDBRANCH  21  23
ENDBRANCH  15  17
ENDBRANCH   9  15
TORSDOF 8
ENDMDL
MODEL 2
REMARK VINA RESULT: -7.517684491      4.719      7.530
REMARK  8 active torsions:
REMARK  status: ('A' for Active; 'I' for Inactive)
REMARK    1  A    between atoms: C3_6  and  N3_7 
REMARK    2  A    between atoms: C4_12  and  N5_13 
REMARK    3  A    between atoms: N5_13  and  C5_15 
REMARK    4  A    between atoms: C9_19  and  O1_20 
REMARK    5  A    between atoms: O1_20  and  C10_21 
REMARK    6  A    between atoms: C10_21  and  C11_22 
REMARK    7  A    between atoms: C11_22  and  C12_24 
REMARK    8  A    between atoms: C13_25  and  C14_26 
ROOT
HETATM    1  N1  UNL     1      16.757  16.009   4.957  1.00  0.00    -0.188 NA
HETATM    2  C1  UNL     1      15.654  16.340   4.925  1.00  0.00     0.138 C 
HETATM    3  C2  UNL     1      14.285  16.764   4.901  1.00  0.00     0.217 A 
HETATM    4  N2  UNL     1      13.944  17.814   5.653  1.00  0.00    -0.166 N 
ATOM      5  H2  UNL     1      14.653  18.283   6.218  1.00  0.00     0.186 HD
HETATM    6  C3  UNL     1      12.676  18.259   5.672  1.00  0.00     0.692 A 
HETATM    7  N4  UNL     1      11.769  17.621   4.919  1.00  0.00    -0.022 N 
ATOM      8  H4  UNL     1      10.806  17.956   4.930  1.00  0.00     0.203 HD
HETATM    9  C4  UNL     1      12.069  16.562   4.149  1.00  0.00     0.699 A 
HETATM   10  N6  UNL     1      13.345  16.141   4.152  1.00  0.00    -0.165 N 
ATOM     11  H6  UNL     1      13.611  15.339   3.579  1.00  0.00     0.186 HD
ENDROOT
BRANCH   6  12
HETATM   12  N3  UNL     1      12.353  19.291   6.413  1.00  0.00    -0.234 N 
ATOM     13  H32 UNL     1      13.032  20.015   6.649  1.00  0.00     0.174 HD
ATOM     14  H31 UNL     1      11.402  19.386   6.771  1.00  0.00     0.174 HD
ENDBRANCH   6  12
BRANCH   9  15
HETATM   15  N5  UNL     1      11.170  15.981   3.444  1.00  0.00    -0.191 N 
ATOM     16  H5  UNL     1      10.236  16.391   3.419  1.00  0.00     0.184 HD
BRANCH  15  17
HETATM   17  C5  UNL     1      11.404  14.799   2.698  1.00  0.00     0.051 A 
HETATM   18  C6  UNL     1      11.440  14.872   1.322  1.00  0.00     0.030 A 
HETATM   19  C7  UNL     1      11.667  13.725   0.597  1.00  0.00     0.005 A 
HETATM   20  C8  UNL     1      11.853  12.546   1.245  1.00  0.00     0.037 A 
HETATM   21  C9  UNL     1      11.826  12.417   2.639  1.00  0.00     0.071 A 
HETATM   22  C15 UNL     1      11.598  13.570   3.345  1.00  0.00     0.066 A 
BRANCH  21  23
HETATM   23  O1  UNL     1      12.022  11.196   3.151  1.00  0.00    -0.348 OA
BRANCH  23  24
HETATM   24  C10 UNL     1      12.243   9.947   2.639  1.00  0.00     0.217 C 
BRANCH  24  25
HETATM   25  C11 UNL     1      13.490   9.234   3.027  1.00  0.00     0.217 C 
HETATM   26  F1  UNL     1      14.096   8.822   1.824  1.00  0.00    -0.243 F 
BRANCH  25  27
HETATM   27  C12 UNL     1      14.489  10.092   3.687  1.00  0.00     0.012 C 
HETATM   28  C13 UNL     1      15.256   9.581   4.634  1.00  0.00     0.030 C 
BRANCH  28  29
HETATM   29  C14 UNL     1      16.283  10.435   5.325  1.00  0.00     0.206 C 
HETATM   30 CL1  UNL     1      15.490  11.967   5.745  1.00  0.00    -0.079 Cl
HETATM   31 CL2  UNL     1      16.882   9.645   6.789  1.00  0.00    -0.079 Cl
HETATM   32 CL3  UNL     1      17.601  10.690   4.154  1.00  0.00    -0.079 Cl
ENDBRANCH  28  29
ENDBRANCH  25  27
ENDBRANCH  24  25
ENDBRANCH  23  24
ENDBRANCH  21  23
ENDBRANCH  15  17
ENDBRANCH   9  15
TORSDOF 8
ENDMDL
MODEL 3
REMARK VINA RESULT: -7.487988104      4.671      7.222
REMARK  8 active torsions:
REMARK  status: ('A' for Active; 'I' for Inactive)
REMARK    1  A    between atoms: C3_6  and  N3_7 
REMARK    2  A    between atoms: C4_12  and  N5_13 
REMARK    3  A    between atoms: N5_13  and  C5_15 
REMARK    4  A    between atoms: C9_19  and  O1_20 
REMARK    5  A    between atoms: O1_20  and  C10_21 
REMARK    6  A    between atoms: C10_21  and  C11_22 
REMARK    7  A    between atoms: C11_22  and  C12_24 
REMARK    8  A    between atoms: C13_25  and  C14_26 
ROOT
HETATM    1  N1  UNL     1      14.977  18.686   7.212  1.00  0.00    -0.188 NA
HETATM    2  C1  UNL     1      14.833  18.025   6.280  1.00  0.00     0.138 C 
HETATM    3  C2  UNL     1      14.672  17.206   5.114  1.00  0.00     0.217 A 
HETATM    4  N2  UNL     1      15.771  16.870   4.432  1.00  0.00    -0.166 N 
ATOM      5  H2  UNL     1      16.683  17.199   4.749  1.00  0.00     0.186 HD
HETATM    6  C3  UNL     1      15.684  16.103   3.331  1.00  0.00     0.692 A 
HETATM    7  N4  UNL     1      14.471  15.688   2.942  1.00  0.00    -0.022 N 
ATOM      8  H4  UNL     1      14.401  15.106   2.108  1.00  0.00     0.203 HD
HETATM    9  C4  UNL     1      13.342  16.003   3.599  1.00  0.00     0.699 A 
HETATM   10  N6  UNL     1      13.461  16.771   4.695  1.00  0.00    -0.165 N 
ATOM     11  H6  UNL     1      12.625  17.030   5.220  1.00  0.00     0.186 HD
ENDROOT
BRANCH   6  12
HETATM   12  N3  UNL     1      16.768  15.780   2.670  1.00  0.00    -0.234 N 
ATOM     13  H32 UNL     1      17.579  15.371   3.136  1.00  0.00     0.174 HD
ATOM     14  H31 UNL     1      16.818  15.935   1.663  1.00  0.00     0.174 HD
ENDBRANCH   6  12
BRANCH   9  15
HETATM   15  N5  UNL     1      12.201  15.585   3.191  1.00  0.00    -0.191 N 
ATOM     16  H5  UNL     1      11.399  16.209   3.276  1.00  0.00     0.184 HD
BRANCH  15  17
HETATM   17  C5  UNL     1      11.995  14.300   2.628  1.00  0.00     0.051 A 
HETATM   18  C6  UNL     1      11.567  14.202   1.322  1.00  0.00     0.030 A 
HETATM   19  C7  UNL     1      11.366  12.956   0.775  1.00  0.00     0.005 A 
HETATM   20  C8  UNL     1      11.593  11.848   1.527  1.00  0.00     0.037 A 
HETATM   21  C9  UNL     1      12.029  11.892   2.857  1.00  0.00     0.071 A 
HETATM   22  C15 UNL     1      12.222  13.142   3.384  1.00  0.00     0.066 A 
BRANCH  21  23
HETATM   23  O1  UNL     1      12.212  10.724   3.486  1.00  0.00    -0.348 OA
BRANCH  23  24
HETATM   24  C10 UNL     1      12.407   9.427   3.098  1.00  0.00     0.217 C 
BRANCH  24  25
HETATM   25  C11 UNL     1      13.800   8.907   3.044  1.00  0.00     0.217 C 
HETATM   26  F1  UNL     1      14.148   8.860   1.680  1.00  0.00    -0.243 F 
BRANCH  25  27
HETATM   27  C12 UNL     1      14.796   9.796   3.666  1.00  0.00     0.012 C 
HETATM   28  C13 UNL     1      15.397   9.417   4.780  1.00  0.00     0.030 C 
BRANCH  28  29
HETATM   29  C14 UNL     1      16.417  10.306   5.436  1.00  0.00     0.206 C 
HETATM   30 CL1  UNL     1      15.607  11.842   5.808  1.00  0.00    -0.079 Cl
HETATM   31 CL2  UNL     1      17.033   9.574   6.922  1.00  0.00    -0.079 Cl
HETATM   32 CL3  UNL     1      17.725  10.538   4.249  1.00  0.00    -0.079 Cl
ENDBRANCH  28  29
ENDBRANCH  25  27
ENDBRANCH  24  25
ENDBRANCH  23  24
ENDBRANCH  21  23
ENDBRANCH  15  17
ENDBRANCH   9  15
TORSDOF 8
ENDMDL
MODEL 4
REMARK VINA RESULT: -7.476675449      2.883      5.286
REMARK  8 active torsions:
REMARK  status: ('A' for Active; 'I' for Inactive)
REMARK    1  A    between atoms: C3_6  and  N3_7 
REMARK    2  A    between atoms: C4_12  and  N5_13 
REMARK    3  A    between atoms: N5_13  and  C5_15 
REMARK    4  A    between atoms: C9_19  and  O1_20 
REMARK    5  A    between atoms: O1_20  and  C10_21 
REMARK    6  A    between atoms: C10_21  and  C11_22 
REMARK    7  A    between atoms: C11_22  and  C12_24 
REMARK    8  A    between atoms: C13_25  and  C14_26 
ROOT
HETATM    1  N1  UNL     1      18.185  14.685   8.516  1.00  0.00    -0.188 NA
HETATM    2  C1  UNL     1      17.821  14.127   7.577  1.00  0.00     0.138 C 
HETATM    3  C2  UNL     1      17.374  13.447   6.396  1.00  0.00     0.217 A 
HETATM    4  N2  UNL     1      17.736  13.949   5.212  1.00  0.00    -0.166 N 
ATOM      5  H2  UNL     1      18.312  14.790   5.175  1.00  0.00     0.186 HD
HETATM    6  C3  UNL     1      17.348  13.355   4.070  1.00  0.00     0.692 A 
HETATM    7  N4  UNL     1      16.593  12.251   4.155  1.00  0.00    -0.022 N 
ATOM      8  H4  UNL     1      16.297  11.798   3.291  1.00  0.00     0.203 HD
HETATM    9  C4  UNL     1      16.207  11.714   5.324  1.00  0.00     0.699 A 
HETATM   10  N6  UNL     1      16.610  12.330   6.448  1.00  0.00    -0.165 N 
ATOM     11  H6  UNL     1      16.337  11.951   7.355  1.00  0.00     0.186 HD
ENDROOT
BRANCH   6  12
HETATM   12  N3  UNL     1      17.710  13.856   2.915  1.00  0.00    -0.234 N 
ATOM     13  H32 UNL     1      17.824  14.861   2.778  1.00  0.00     0.174 HD
ATOM     14  H31 UNL     1      17.884  13.238   2.122  1.00  0.00     0.174 HD
ENDBRANCH   6  12
BRANCH   9  15
HETATM   15  N5  UNL     1      15.484  10.656   5.359  1.00  0.00    -0.191 N 
ATOM     16  H5  UNL     1      15.574  10.036   6.163  1.00  0.00     0.184 HD
BRANCH  15  17
HETATM   17  C5  UNL     1      14.565  10.304   4.338  1.00  0.00     0.051 A 
HETATM   18  C6  UNL     1      14.740   9.116   3.661  1.00  0.00     0.030 A 
HETATM   19  C7  UNL     1      13.849   8.773   2.671  1.00  0.00     0.005 A 
HETATM   20  C8  UNL     1      12.816   9.606   2.378  1.00  0.00     0.037 A 
HETATM   21  C9  UNL     1      12.593  10.822   3.035  1.00  0.00     0.071 A 
HETATM   22  C15 UNL     1      13.491  11.147   4.018  1.00  0.00     0.066 A 
BRANCH  21  23
HETATM   23  O1  UNL     1      11.538  11.550   2.648  1.00  0.00    -0.348 OA
BRANCH  23  24
HETATM   24  C10 UNL     1      11.223  12.302   1.550  1.00  0.00     0.217 C 
BRANCH  24  25
HETATM   25  C11 UNL     1      12.082  13.474   1.225  1.00  0.00     0.217 C 
HETATM   26  F1  UNL     1      11.369  14.230   0.274  1.00  0.00    -0.243 F 
BRANCH  25  27
HETATM   27  C12 UNL     1      12.300  14.388   2.359  1.00  0.00     0.012 C 
HETATM   28  C13 UNL     1      13.523  14.552   2.832  1.00  0.00     0.030 C 
BRANCH  28  29
HETATM   29  C14 UNL     1      13.775  15.478   3.989  1.00  0.00     0.206 C 
HETATM   30 CL1  UNL     1      13.890  14.472   5.448  1.00  0.00    -0.079 Cl
HETATM   31 CL2  UNL     1      15.275  16.384   3.761  1.00  0.00    -0.079 Cl
HETATM   32 CL3  UNL     1      12.375  16.577   4.072  1.00  0.00    -0.079 Cl
ENDBRANCH  28  29
ENDBRANCH  25  27
ENDBRANCH  24  25
ENDBRANCH  23  24
ENDBRANCH  21  23
ENDBRANCH  15  17
ENDBRANCH   9  15
TORSDOF 8
ENDMDL
MODEL 5
REMARK VINA RESULT: -7.330814252      4.107      6.548
REMARK  8 active torsions:
REMARK  status: ('A' for Active; 'I' for Inactive)
REMARK    1  A    between atoms: C3_6  and  N3_7 
REMARK    2  A    between atoms: C4_12  and  N5_13 
REMARK    3  A    between atoms: N5_13  and  C5_15 
REMARK    4  A    between atoms: C9_19  and  O1_20 
REMARK    5  A    between atoms: O1_20  and  C10_21 
REMARK    6  A    between atoms: C10_21  and  C11_22 
REMARK    7  A    between atoms: C11_22  and  C12_24 
REMARK    8  A    between atoms: C13_25  and  C14_26 
ROOT
HETATM    1  N1  UNL     1      14.506  16.765   7.567  1.00  0.00    -0.188 NA
HETATM    2  C1  UNL     1      14.895  16.294   6.591  1.00  0.00     0.138 C 
HETATM    3  C2  UNL     1      15.397  15.706   5.383  1.00  0.00     0.217 A 
HETATM    4  N2  UNL     1      16.662  15.277   5.377  1.00  0.00    -0.166 N 
ATOM      5  H2  UNL     1      17.233  15.375   6.217  1.00  0.00     0.186 HD
HETATM    6  C3  UNL     1      17.188  14.717   4.274  1.00  0.00     0.692 A 
HETATM    7  N4  UNL     1      16.412  14.604   3.188  1.00  0.00    -0.022 N 
ATOM      8  H4  UNL     1      16.808  14.179   2.350  1.00  0.00     0.203 HD
HETATM    9  C4  UNL     1      15.136  15.022   3.152  1.00  0.00     0.699 A 
HETATM   10  N6  UNL     1      14.638  15.578   4.269  1.00  0.00    -0.165 N 
ATOM     11  H6  UNL     1      13.672  15.907   4.279  1.00  0.00     0.186 HD
ENDROOT
BRANCH   6  12
HETATM   12  N3  UNL     1      18.430  14.299   4.280  1.00  0.00    -0.234 N 
ATOM     13  H32 UNL     1      19.147  14.756   4.844  1.00  0.00     0.174 HD
ATOM     14  H31 UNL     1      18.702  13.497   3.710  1.00  0.00     0.174 HD
ENDBRANCH   6  12
BRANCH   9  15
HETATM   15  N5  UNL     1      14.428  14.894   2.090  1.00  0.00    -0.191 N 
ATOM     16  H5  UNL     1      14.602  15.533   1.314  1.00  0.00     0.184 HD
BRANCH  15  17
HETATM   17  C5  UNL     1      13.416  13.912   1.939  1.00  0.00     0.051 A 
HETATM   18  C6  UNL     1      12.434  14.105   0.993  1.00  0.00     0.030 A 
HETATM   19  C7  UNL     1      11.451  13.153   0.845  1.00  0.00     0.005 A 
HETATM   20  C8  UNL     1      11.467  12.044   1.629  1.00  0.00     0.037 A 
HETATM   21  C9  UNL     1      12.442  11.800   2.604  1.00  0.00     0.071 A 
HETATM   22  C15 UNL     1      13.412  12.760   2.736  1.00  0.00     0.066 A 
BRANCH  21  23
HETATM   23  O1  UNL     1      12.340  10.668   3.310  1.00  0.00    -0.348 OA
BRANCH  23  24
HETATM   24  C10 UNL     1      12.513   9.336   3.049  1.00  0.00     0.217 C 
BRANCH  24  25
HETATM   25  C11 UNL     1      13.902   8.812   2.939  1.00  0.00     0.217 C 
HETATM   26  F1  UNL     1      14.196   8.770   1.562  1.00  0.00    -0.243 F 
BRANCH  25  27
HETATM   27  C12 UNL     1      14.924   9.696   3.524  1.00  0.00     0.012 C 
HETATM   28  C13 UNL     1      15.271   9.536   4.789  1.00  0.00     0.030 C 
BRANCH  28  29
HETATM   29  C14 UNL     1      16.311  10.425   5.412  1.00  0.00     0.206 C 
HETATM   30 CL1  UNL     1      17.533  10.752   4.165  1.00  0.00    -0.079 Cl
HETATM   31 CL2  UNL     1      15.596  11.943   5.968  1.00  0.00    -0.079 Cl
HETATM   32 CL3  UNL     1      17.007   9.513   6.774  1.00  0.00    -0.079 Cl
ENDBRANCH  28  29
ENDBRANCH  25  27
ENDBRANCH  24  25
ENDBRANCH  23  24
ENDBRANCH  21  23
ENDBRANCH  15  17
ENDBRANCH   9  15
TORSDOF 8
ENDMDL
