MODEL 1
REMARK VINA RESULT: -5.367073605      0.000      0.000
REMARK  2 active torsions:
REMARK  status: ('A' for Active; 'I' for Inactive)
REMARK    1  A    between atoms: C3_3  and  N1_5 
REMARK    2  A    between atoms: C7_8  and  O1_9 
ROOT
HETATM    1  C1  UNL     1      -3.889   3.426  86.930  1.00  0.00     0.099 C 
HETATM    2  C2  UNL     1      -2.925   3.889  86.340  1.00  0.00    -0.153 C 
HETATM    3  C3  UNL     1      -1.757   4.424  85.642  1.00  0.00     0.284 C 
HETATM    4  C4  UNL     1      -0.534   3.701  86.169  1.00  0.00     0.056 C 
ENDROOT
BRANCH   3   5
HETATM    5  N1  UNL     1      -1.898   4.190  84.212  1.00  0.00     0.103 N 
HETATM    6  C5  UNL     1      -1.221   2.965  83.875  1.00  0.00     0.276 C 
HETATM    7  C6  UNL     1      -0.979   2.792  82.406  1.00  0.00     0.062 C 
HETATM    8  C7  UNL     1      -1.786   3.821  81.625  1.00  0.00     0.121 C 
HETATM    9  C8  UNL     1      -1.277   5.182  82.052  1.00  0.00     0.062 C 
HETATM   10  C9  UNL     1      -1.356   5.344  83.535  1.00  0.00     0.276 C 
BRANCH   8  11
HETATM   11  O1  UNL     1      -1.577   3.707  80.260  1.00  0.00    -0.395 OA
ATOM     12  H1  UNL     1      -2.346   3.965  79.765  1.00  0.00     0.210 HD
ENDBRANCH   8  11
ENDBRANCH   3   5
TORSDOF 2
ENDMDL
MODEL 2
REMARK VINA RESULT: -5.360435304      1.362      1.814
REMARK  2 active torsions:
REMARK  status: ('A' for Active; 'I' for Inactive)
REMARK    1  A    between atoms: C3_3  and  N1_5 
REMARK    2  A    between atoms: C7_8  and  O1_9 
ROOT
HETATM    1  C1  UNL     1      -2.883   6.960  85.045  1.00  0.00     0.099 C 
HETATM    2  C2  UNL     1      -2.069   6.080  84.816  1.00  0.00    -0.153 C 
HETATM    3  C3  UNL     1      -1.102   5.012  84.563  1.00  0.00     0.284 C 
HETATM    4  C4  UNL     1      -1.114   4.086  85.761  1.00  0.00     0.056 C 
ENDROOT
BRANCH   3   5
HETATM    5  N1  UNL     1      -1.490   4.283  83.363  1.00  0.00     0.103 N 
HETATM    6  C5  UNL     1      -0.985   2.938  83.456  1.00  0.00     0.276 C 
HETATM    7  C6  UNL     1      -0.997   2.197  82.154  1.00  0.00     0.062 C 
HETATM    8  C7  UNL     1      -1.825   2.963  81.130  1.00  0.00     0.121 C 
HETATM    9  C8  UNL     1      -1.137   4.296  80.932  1.00  0.00     0.062 C 
HETATM   10  C9  UNL     1      -0.964   5.011  82.232  1.00  0.00     0.276 C 
BRANCH   8  11
HETATM   11  O1  UNL     1      -1.848   2.318  79.904  1.00  0.00    -0.395 OA
ATOM     12  H1  UNL     1      -2.310   2.827  79.249  1.00  0.00     0.210 HD
ENDBRANCH   8  11
ENDBRANCH   3   5
TORSDOF 2
ENDMDL
MODEL 3
REMARK VINA RESULT: -5.202052860      2.732      4.631
REMARK  2 active torsions:
REMARK  status: ('A' for Active; 'I' for Inactive)
REMARK    1  A    between atoms: C3_3  and  N1_5 
REMARK    2  A    between atoms: C7_8  and  O1_9 
ROOT
HETATM    1  C1  UNL     1      -0.908   5.932  82.073  1.00  0.00     0.099 C 
HETATM    2  C2  UNL     1      -1.285   6.079  83.224  1.00  0.00    -0.153 C 
HETATM    3  C3  UNL     1      -1.759   6.266  84.595  1.00  0.00     0.284 C 
HETATM    4  C4  UNL     1      -2.968   7.177  84.544  1.00  0.00     0.056 C 
ENDROOT
BRANCH   3   5
HETATM    5  N1  UNL     1      -2.130   4.975  85.159  1.00  0.00     0.103 N 
HETATM    6  C5  UNL     1      -3.184   5.175  86.120  1.00  0.00     0.276 C 
HETATM    7  C6  UNL     1      -3.407   4.003  87.025  1.00  0.00     0.062 C 
HETATM    8  C7  UNL     1      -2.660   2.788  86.491  1.00  0.00     0.121 C 
HETATM    9  C8  UNL     1      -1.190   3.147  86.505  1.00  0.00     0.062 C 
HETATM   10  C9  UNL     1      -0.936   4.403  85.736  1.00  0.00     0.276 C 
BRANCH   8  11
HETATM   11  O1  UNL     1      -2.827   1.683  87.311  1.00  0.00    -0.395 OA
ATOM     12  H1  UNL     1      -3.370   1.021  86.900  1.00  0.00     0.210 HD
ENDBRANCH   8  11
ENDBRANCH   3   5
TORSDOF 2
ENDMDL
MODEL 4
REMARK VINA RESULT: -5.098702577      2.794      4.440
REMARK  2 active torsions:
REMARK  status: ('A' for Active; 'I' for Inactive)
REMARK    1  A    between atoms: C3_3  and  N1_5 
REMARK    2  A    between atoms: C7_8  and  O1_9 
ROOT
HETATM    1  C1  UNL     1      -0.278   8.229  84.653  1.00  0.00     0.099 C 
HETATM    2  C2  UNL     1      -0.947   7.249  84.367  1.00  0.00    -0.153 C 
HETATM    3  C3  UNL     1      -1.729   6.067  84.009  1.00  0.00     0.284 C 
HETATM    4  C4  UNL     1      -1.063   5.419  82.812  1.00  0.00     0.056 C 
ENDROOT
BRANCH   3   5
HETATM    5  N1  UNL     1      -1.748   5.140  85.132  1.00  0.00     0.103 N 
HETATM    6  C5  UNL     1      -1.185   3.885  84.707  1.00  0.00     0.276 C 
HETATM    7  C6  UNL     1      -1.470   2.748  85.639  1.00  0.00     0.062 C 
HETATM    8  C7  UNL     1      -2.027   3.283  86.952  1.00  0.00     0.121 C 
HETATM    9  C8  UNL     1      -3.328   3.981  86.615  1.00  0.00     0.062 C 
HETATM   10  C9  UNL     1      -3.120   5.029  85.570  1.00  0.00     0.276 C 
BRANCH   8  11
HETATM   11  O1  UNL     1      -2.321   2.259  87.838  1.00  0.00    -0.395 OA
ATOM     12  H1  UNL     1      -3.174   2.377  88.240  1.00  0.00     0.210 HD
ENDBRANCH   8  11
ENDBRANCH   3   5
TORSDOF 2
ENDMDL
MODEL 5
REMARK VINA RESULT: -5.026473726      2.632      4.437
REMARK  2 active torsions:
REMARK  status: ('A' for Active; 'I' for Inactive)
REMARK    1  A    between atoms: C3_3  and  N1_5 
REMARK    2  A    between atoms: C7_8  and  O1_9 
ROOT
HETATM    1  C1  UNL     1      -0.866   7.817  84.761  1.00  0.00     0.099 C 
HETATM    2  C2  UNL     1      -1.303   6.815  84.217  1.00  0.00    -0.153 C 
HETATM    3  C3  UNL     1      -1.803   5.610  83.556  1.00  0.00     0.284 C 
HETATM    4  C4  UNL     1      -0.743   5.147  82.578  1.00  0.00     0.056 C 
ENDROOT
BRANCH   3   5
HETATM    5  N1  UNL     1      -2.049   4.577  84.553  1.00  0.00     0.103 N 
HETATM    6  C5  UNL     1      -3.059   5.046  85.465  1.00  0.00     0.276 C 
HETATM    7  C6  UNL     1      -3.149   4.250  86.731  1.00  0.00     0.062 C 
HETATM    8  C7  UNL     1      -2.348   2.962  86.588  1.00  0.00     0.121 C 
HETATM    9  C8  UNL     1      -0.908   3.373  86.365  1.00  0.00     0.062 C 
HETATM   10  C9  UNL     1      -0.787   4.298  85.197  1.00  0.00     0.276 C 
BRANCH   8  11
HETATM   11  O1  UNL     1      -2.390   2.202  87.746  1.00  0.00    -0.395 OA
ATOM     12  H1  UNL     1      -1.863   1.415  87.668  1.00  0.00     0.210 HD
ENDBRANCH   8  11
ENDBRANCH   3   5
TORSDOF 2
ENDMDL
