MODEL 1
REMARK VINA RESULT: -6.301037204      0.000      0.000
REMARK  3 active torsions:
REMARK  status: ('A' for Active; 'I' for Inactive)
REMARK       I    between atoms: C1_2  and  N1_3 
REMARK    1  A    between atoms: C1_2  and  C5_8 
REMARK    2  A    between atoms: N1_3  and  C2_5 
REMARK    3  A    between atoms: C7_10  and  C8_11 
ROOT
HETATM    1  C5  UNL     1      -0.356   5.495  84.837  1.00  0.00     0.084 A 
HETATM    2  C6  UNL     1       1.064   5.846  84.653  1.00  0.00     0.022 A 
HETATM    3  C7  UNL     1       0.121   5.548  83.478  1.00  0.00     0.032 A 
ENDROOT
BRANCH   3   4
HETATM    4  C8  UNL     1       0.653   4.515  82.577  1.00  0.00     0.214 C 
HETATM    5  C9  UNL     1      -0.275   3.415  82.146  1.00  0.00     0.201 C 
HETATM    6  O2  UNL     1       0.555   2.305  81.864  1.00  0.00    -0.387 OA
HETATM    7  C10 UNL     1       1.631   2.655  81.101  1.00  0.00     0.195 C 
HETATM    8  C11 UNL     1       1.566   3.994  80.465  1.00  0.00     0.259 C 
HETATM    9  N2  UNL     1       1.194   5.066  81.328  1.00  0.00    -0.067 N 
ATOM     10  H22 UNL     1       0.550   5.717  80.881  1.00  0.00     0.277 HD
ATOM     11  H21 UNL     1       1.964   5.716  81.493  1.00  0.00     0.277 HD
ENDBRANCH   3   4
BRANCH   1  12
HETATM   12  C1  UNL     1      -0.725   4.319  85.619  1.00  0.00     0.222 C 
HETATM   13  O1  UNL     1       0.156   3.539  86.018  1.00  0.00    -0.273 OA
HETATM   14  N1  UNL     1      -2.078   3.989  85.970  1.00  0.00    -0.356 N 
ATOM     15  H1  UNL     1      -2.829   4.606  85.660  1.00  0.00     0.162 HD
BRANCH  14  16
HETATM   16  C2  UNL     1      -2.417   2.818  86.746  1.00  0.00     0.084 A 
HETATM   17  C3  UNL     1      -2.747   3.028  88.171  1.00  0.00     0.027 A 
HETATM   18  C4  UNL     1      -3.821   2.611  87.197  1.00  0.00     0.027 A 
ENDBRANCH  14  16
ENDBRANCH   1  12
TORSDOF 3
ENDMDL
MODEL 2
REMARK VINA RESULT: -6.290974655      1.695      1.900
REMARK  3 active torsions:
REMARK  status: ('A' for Active; 'I' for Inactive)
REMARK       I    between atoms: C1_2  and  N1_3 
REMARK    1  A    between atoms: C1_2  and  C5_8 
REMARK    2  A    between atoms: N1_3  and  C2_5 
REMARK    3  A    between atoms: C7_10  and  C8_11 
ROOT
HETATM    1  C5  UNL     1      -1.029   5.791  84.254  1.00  0.00     0.084 A 
HETATM    2  C6  UNL     1       0.304   5.261  84.593  1.00  0.00     0.022 A 
HETATM    3  C7  UNL     1      -0.313   5.129  83.193  1.00  0.00     0.032 A 
ENDROOT
BRANCH   3   4
HETATM    4  C8  UNL     1      -0.323   3.740  82.711  1.00  0.00     0.214 C 
HETATM    5  C9  UNL     1      -1.477   3.305  81.852  1.00  0.00     0.201 C 
HETATM    6  O2  UNL     1      -1.596   1.910  82.053  1.00  0.00    -0.387 OA
HETATM    7  C10 UNL     1      -0.388   1.279  81.978  1.00  0.00     0.195 C 
HETATM    8  C11 UNL     1       0.724   2.077  81.406  1.00  0.00     0.259 C 
HETATM    9  N2  UNL     1       0.876   3.390  81.941  1.00  0.00    -0.067 N 
ATOM     10  H22 UNL     1       1.088   4.079  81.220  1.00  0.00     0.277 HD
ATOM     11  H21 UNL     1       1.731   3.488  82.489  1.00  0.00     0.277 HD
ENDBRANCH   3   4
BRANCH   1  12
HETATM   12  C1  UNL     1      -2.209   5.325  84.974  1.00  0.00     0.222 C 
HETATM   13  O1  UNL     1      -3.324   5.810  84.717  1.00  0.00    -0.273 OA
HETATM   14  N1  UNL     1      -2.172   4.313  85.993  1.00  0.00    -0.356 N 
ATOM     15  H1  UNL     1      -1.274   3.893  86.233  1.00  0.00     0.162 HD
BRANCH  14  16
HETATM   16  C2  UNL     1      -3.357   3.868  86.692  1.00  0.00     0.084 A 
HETATM   17  C3  UNL     1      -3.402   2.450  87.102  1.00  0.00     0.027 A 
HETATM   18  C4  UNL     1      -3.280   3.537  88.141  1.00  0.00     0.027 A 
ENDBRANCH  14  16
ENDBRANCH   1  12
TORSDOF 3
ENDMDL
MODEL 3
REMARK VINA RESULT: -6.162289595      2.228      5.689
REMARK  3 active torsions:
REMARK  status: ('A' for Active; 'I' for Inactive)
REMARK       I    between atoms: C1_2  and  N1_3 
REMARK    1  A    between atoms: C1_2  and  C5_8 
REMARK    2  A    between atoms: N1_3  and  C2_5 
REMARK    3  A    between atoms: C7_10  and  C8_11 
ROOT
HETATM    1  C5  UNL     1      -1.140   4.594  83.638  1.00  0.00     0.084 A 
HETATM    2  C6  UNL     1      -2.246   5.418  84.158  1.00  0.00     0.022 A 
HETATM    3  C7  UNL     1      -1.327   4.591  85.067  1.00  0.00     0.032 A 
ENDROOT
BRANCH   3   4
HETATM    4  C8  UNL     1      -2.077   3.698  85.964  1.00  0.00     0.214 C 
HETATM    5  C9  UNL     1      -1.428   2.404  86.367  1.00  0.00     0.201 C 
HETATM    6  O2  UNL     1      -2.493   1.516  86.648  1.00  0.00    -0.387 OA
HETATM    7  C10 UNL     1      -3.448   2.096  87.431  1.00  0.00     0.195 C 
HETATM    8  C11 UNL     1      -3.063   3.373  88.082  1.00  0.00     0.259 C 
HETATM    9  N2  UNL     1      -2.459   4.341  87.227  1.00  0.00    -0.067 N 
ATOM     10  H22 UNL     1      -1.675   4.816  87.673  1.00  0.00     0.277 HD
ATOM     11  H21 UNL     1      -3.056   5.156  87.082  1.00  0.00     0.277 HD
ENDBRANCH   3   4
BRANCH   1  12
HETATM   12  C1  UNL     1      -1.409   3.518  82.690  1.00  0.00     0.222 C 
HETATM   13  O1  UNL     1      -2.252   3.681  81.792  1.00  0.00    -0.273 OA
HETATM   14  N1  UNL     1      -0.749   2.243  82.724  1.00  0.00    -0.356 N 
ATOM     15  H1  UNL     1      -0.052   2.072  83.449  1.00  0.00     0.162 HD
BRANCH  14  16
HETATM   16  C2  UNL     1      -1.034   1.193  81.773  1.00  0.00     0.084 A 
HETATM   17  C3  UNL     1      -0.235   1.178  80.530  1.00  0.00     0.027 A 
HETATM   18  C4  UNL     1      -0.049   0.096  81.565  1.00  0.00     0.027 A 
ENDBRANCH  14  16
ENDBRANCH   1  12
TORSDOF 3
ENDMDL
MODEL 4
REMARK VINA RESULT: -5.695784571      3.491      4.945
REMARK  3 active torsions:
REMARK  status: ('A' for Active; 'I' for Inactive)
REMARK       I    between atoms: C1_2  and  N1_3 
REMARK    1  A    between atoms: C1_2  and  C5_8 
REMARK    2  A    between atoms: N1_3  and  C2_5 
REMARK    3  A    between atoms: C7_10  and  C8_11 
ROOT
HETATM    1  C5  UNL     1      -0.609   6.923  83.908  1.00  0.00     0.084 A 
HETATM    2  C6  UNL     1      -0.601   5.806  84.869  1.00  0.00     0.022 A 
HETATM    3  C7  UNL     1      -0.007   5.693  83.458  1.00  0.00     0.032 A 
ENDROOT
BRANCH   3   4
HETATM    4  C8  UNL     1      -0.542   4.545  82.712  1.00  0.00     0.214 C 
HETATM    5  C9  UNL     1      -1.074   4.795  81.329  1.00  0.00     0.201 C 
HETATM    6  O2  UNL     1      -2.040   3.787  81.105  1.00  0.00    -0.387 OA
HETATM    7  C10 UNL     1      -1.585   2.553  81.469  1.00  0.00     0.195 C 
HETATM    8  C11 UNL     1      -0.125   2.450  81.713  1.00  0.00     0.259 C 
HETATM    9  N2  UNL     1       0.431   3.458  82.554  1.00  0.00    -0.067 N 
ATOM     10  H22 UNL     1       1.333   3.792  82.213  1.00  0.00     0.277 HD
ATOM     11  H21 UNL     1       0.745   3.085  83.450  1.00  0.00     0.277 HD
ENDBRANCH   3   4
BRANCH   1  12
HETATM   12  C1  UNL     1      -1.873   7.516  83.483  1.00  0.00     0.222 C 
HETATM   13  O1  UNL     1      -2.920   7.251  84.098  1.00  0.00    -0.273 OA
HETATM   14  N1  UNL     1      -1.997   8.413  82.368  1.00  0.00    -0.356 N 
ATOM     15  H1  UNL     1      -1.160   8.653  81.838  1.00  0.00     0.162 HD
BRANCH  14  16
HETATM   16  C2  UNL     1      -3.262   8.988  81.968  1.00  0.00     0.084 A 
HETATM   17  C3  UNL     1      -3.238  10.374  81.458  1.00  0.00     0.027 A 
HETATM   18  C4  UNL     1      -3.542   9.227  80.526  1.00  0.00     0.027 A 
ENDBRANCH  14  16
ENDBRANCH   1  12
TORSDOF 3
ENDMDL
MODEL 5
REMARK VINA RESULT: -5.637439712      1.983      5.445
REMARK  3 active torsions:
REMARK  status: ('A' for Active; 'I' for Inactive)
REMARK       I    between atoms: C1_2  and  N1_3 
REMARK    1  A    between atoms: C1_2  and  C5_8 
REMARK    2  A    between atoms: N1_3  and  C2_5 
REMARK    3  A    between atoms: C7_10  and  C8_11 
ROOT
HETATM    1  C5  UNL     1      -1.146   5.190  83.881  1.00  0.00     0.084 A 
HETATM    2  C6  UNL     1      -2.620   5.173  83.909  1.00  0.00     0.022 A 
HETATM    3  C7  UNL     1      -1.762   5.101  85.181  1.00  0.00     0.032 A 
ENDROOT
BRANCH   3   4
HETATM    4  C8  UNL     1      -2.113   3.954  86.032  1.00  0.00     0.214 C 
HETATM    5  C9  UNL     1      -0.989   3.171  86.649  1.00  0.00     0.201 C 
HETATM    6  O2  UNL     1      -1.499   1.866  86.846  1.00  0.00    -0.387 OA
HETATM    7  C10 UNL     1      -2.738   1.884  87.417  1.00  0.00     0.195 C 
HETATM    8  C11 UNL     1      -3.164   3.181  87.997  1.00  0.00     0.259 C 
HETATM    9  N2  UNL     1      -2.983   4.319  87.157  1.00  0.00    -0.067 N 
ATOM     10  H22 UNL     1      -2.635   5.127  87.670  1.00  0.00     0.277 HD
ATOM     11  H21 UNL     1      -3.870   4.717  86.847  1.00  0.00     0.277 HD
ENDBRANCH   3   4
BRANCH   1  12
HETATM   12  C1  UNL     1      -0.414   4.156  83.157  1.00  0.00     0.222 C 
HETATM   13  O1  UNL     1       0.769   4.348  82.831  1.00  0.00    -0.273 OA
HETATM   14  N1  UNL     1      -0.983   2.891  82.783  1.00  0.00    -0.356 N 
ATOM     15  H1  UNL     1      -1.953   2.698  83.032  1.00  0.00     0.162 HD
BRANCH  14  16
HETATM   16  C2  UNL     1      -0.236   1.883  82.066  1.00  0.00     0.084 A 
HETATM   17  C3  UNL     1      -0.901   0.582  81.849  1.00  0.00     0.027 A 
HETATM   18  C4  UNL     1      -0.641   1.505  80.684  1.00  0.00     0.027 A 
ENDBRANCH  14  16
ENDBRANCH   1  12
TORSDOF 3
ENDMDL
