MODEL 1
REMARK VINA RESULT: -6.997720741      0.000      0.000
REMARK  8 active torsions:
REMARK  status: ('A' for Active; 'I' for Inactive)
REMARK    1  A    between atoms: N1_2  and  C2_4 
REMARK    2  A    between atoms: C2_4  and  O1_6 
REMARK    3  A    between atoms: O1_6  and  C3_7 
REMARK    4  A    between atoms: C3_7  and  N2_8 
REMARK    5  A    between atoms: N2_8  and  N3_9 
REMARK    6  A    between atoms: N3_9  and  C4_11 
REMARK    7  A    between atoms: C6_16  and  N6_17 
REMARK    8  A    between atoms: C7_20  and  N7_21 
ROOT
HETATM    1  C4  UNL     1     -45.163 -31.580   0.032  1.00  0.00     0.697 A 
HETATM    2  N4  UNL     1     -45.325 -32.305   1.145  1.00  0.00    -0.175 N 
ATOM      3  H4  UNL     1     -45.759 -33.226   1.089  1.00  0.00     0.185 HD
HETATM    4  C5  UNL     1     -44.929 -31.838   2.315  1.00  0.00     0.168 A 
HETATM    5  N5  UNL     1     -45.116 -32.533   3.540  1.00  0.00    -0.079 NA
HETATM    6  C6  UNL     1     -44.325 -30.575   2.388  1.00  0.00     0.188 A 
HETATM    7  C7  UNL     1     -44.178 -29.866   1.233  1.00  0.00     0.151 A 
HETATM    8  N8  UNL     1     -44.592 -30.354   0.064  1.00  0.00    -0.173 N 
ATOM      9  H8  UNL     1     -44.479 -29.811  -0.792  1.00  0.00     0.186 HD
ENDROOT
BRANCH   1  10
HETATM   10  N3  UNL     1     -45.334 -32.107  -1.119  1.00  0.00    -0.134 N 
ATOM     11  H3  UNL     1     -44.574 -32.713  -1.428  1.00  0.00     0.201 HD
BRANCH  10  12
HETATM   12  N2  UNL     1     -46.351 -31.994  -1.991  1.00  0.00    -0.100 NA
BRANCH  12  13
HETATM   13  C3  UNL     1     -47.517 -32.741  -1.613  1.00  0.00     0.313 C 
BRANCH  13  14
HETATM   14  O1  UNL     1     -48.365 -31.895  -0.954  1.00  0.00    -0.309 OA
BRANCH  14  15
HETATM   15  C2  UNL     1     -48.739 -31.553   0.246  1.00  0.00     0.210 C 
HETATM   16  S1  UNL     1     -49.497 -32.488   1.336  1.00  0.00    -0.033 SA
BRANCH  15  17
HETATM   17  N1  UNL     1     -48.468 -30.201   0.675  1.00  0.00    -0.366 N 
HETATM   18  C1  UNL     1     -48.139 -30.055   2.096  1.00  0.00     0.149 C 
ATOM     19  H1  UNL     1     -48.503 -29.407   0.037  1.00  0.00     0.161 HD
ENDBRANCH  15  17
ENDBRANCH  14  15
ENDBRANCH  13  14
ENDBRANCH  12  13
ENDBRANCH  10  12
ENDBRANCH   1  10
BRANCH   7  20
HETATM   20  N7  UNL     1     -43.570 -28.686   1.302  1.00  0.00    -0.383 N 
ATOM     21  H72 UNL     1     -43.970 -27.923   1.849  1.00  0.00     0.157 HD
ATOM     22  H71 UNL     1     -42.710 -28.562   0.768  1.00  0.00     0.157 HD
ENDBRANCH   7  20
BRANCH   6  23
HETATM   23  N6  UNL     1     -43.851 -30.090   3.648  1.00  0.00    -0.108 N 
HETATM   24  O2  UNL     1     -42.797 -30.507   4.089  1.00  0.00    -0.532 OA
HETATM   25  O3  UNL     1     -44.576 -29.154   4.313  1.00  0.00    -0.532 OA
ENDBRANCH   6  23
TORSDOF 8
ENDMDL
MODEL 2
REMARK VINA RESULT: -6.761688578      1.142      1.262
REMARK  8 active torsions:
REMARK  status: ('A' for Active; 'I' for Inactive)
REMARK    1  A    between atoms: N1_2  and  C2_4 
REMARK    2  A    between atoms: C2_4  and  O1_6 
REMARK    3  A    between atoms: O1_6  and  C3_7 
REMARK    4  A    between atoms: C3_7  and  N2_8 
REMARK    5  A    between atoms: N2_8  and  N3_9 
REMARK    6  A    between atoms: N3_9  and  C4_11 
REMARK    7  A    between atoms: C6_16  and  N6_17 
REMARK    8  A    between atoms: C7_20  and  N7_21 
ROOT
HETATM    1  C4  UNL     1     -45.057 -31.578   0.042  1.00  0.00     0.697 A 
HETATM    2  N4  UNL     1     -45.252 -32.284   1.162  1.00  0.00    -0.175 N 
ATOM      3  H4  UNL     1     -45.673 -33.210   1.109  1.00  0.00     0.185 HD
HETATM    4  C5  UNL     1     -44.902 -31.790   2.336  1.00  0.00     0.168 A 
HETATM    5  N5  UNL     1     -45.126 -32.463   3.567  1.00  0.00    -0.079 NA
HETATM    6  C6  UNL     1     -44.314 -30.519   2.407  1.00  0.00     0.188 A 
HETATM    7  C7  UNL     1     -44.132 -29.831   1.244  1.00  0.00     0.151 A 
HETATM    8  N8  UNL     1     -44.499 -30.346   0.071  1.00  0.00    -0.173 N 
ATOM      9  H8  UNL     1     -44.361 -29.818  -0.792  1.00  0.00     0.186 HD
ENDROOT
BRANCH   1  10
HETATM   10  N3  UNL     1     -45.181 -32.129  -1.104  1.00  0.00    -0.134 N 
ATOM     11  H3  UNL     1     -44.458 -32.812  -1.329  1.00  0.00     0.201 HD
BRANCH  10  12
HETATM   12  N2  UNL     1     -46.108 -31.956  -2.062  1.00  0.00    -0.100 NA
BRANCH  12  13
HETATM   13  C3  UNL     1     -47.205 -32.877  -1.972  1.00  0.00     0.313 C 
BRANCH  13  14
HETATM   14  O1  UNL     1     -48.196 -32.282  -1.242  1.00  0.00    -0.309 OA
BRANCH  14  15
HETATM   15  C2  UNL     1     -48.668 -32.206  -0.030  1.00  0.00     0.210 C 
HETATM   16  S1  UNL     1     -48.758 -30.879   0.901  1.00  0.00    -0.033 SA
BRANCH  15  17
HETATM   17  N1  UNL     1     -49.167 -33.418   0.574  1.00  0.00    -0.366 N 
HETATM   18  C1  UNL     1     -48.413 -33.886   1.741  1.00  0.00     0.149 C 
ATOM     19  H1  UNL     1     -49.984 -33.913   0.216  1.00  0.00     0.161 HD
ENDBRANCH  15  17
ENDBRANCH  14  15
ENDBRANCH  13  14
ENDBRANCH  12  13
ENDBRANCH  10  12
ENDBRANCH   1  10
BRANCH   7  20
HETATM   20  N7  UNL     1     -43.539 -28.644   1.312  1.00  0.00    -0.383 N 
ATOM     21  H72 UNL     1     -42.873 -28.351   0.597  1.00  0.00     0.157 HD
ATOM     22  H71 UNL     1     -43.750 -28.052   2.115  1.00  0.00     0.157 HD
ENDBRANCH   7  20
BRANCH   6  23
HETATM   23  N6  UNL     1     -43.891 -30.006   3.673  1.00  0.00    -0.108 N 
HETATM   24  O2  UNL     1     -42.843 -30.393   4.154  1.00  0.00    -0.532 OA
HETATM   25  O3  UNL     1     -44.656 -29.074   4.299  1.00  0.00    -0.532 OA
ENDBRANCH   6  23
TORSDOF 8
ENDMDL
MODEL 3
REMARK VINA RESULT: -6.756411792      2.407      3.465
REMARK  8 active torsions:
REMARK  status: ('A' for Active; 'I' for Inactive)
REMARK    1  A    between atoms: N1_2  and  C2_4 
REMARK    2  A    between atoms: C2_4  and  O1_6 
REMARK    3  A    between atoms: O1_6  and  C3_7 
REMARK    4  A    between atoms: C3_7  and  N2_8 
REMARK    5  A    between atoms: N2_8  and  N3_9 
REMARK    6  A    between atoms: N3_9  and  C4_11 
REMARK    7  A    between atoms: C6_16  and  N6_17 
REMARK    8  A    between atoms: C7_20  and  N7_21 
ROOT
HETATM    1  C4  UNL     1     -45.078 -31.779  -0.224  1.00  0.00     0.697 A 
HETATM    2  N4  UNL     1     -45.477 -32.427   0.876  1.00  0.00    -0.175 N 
ATOM      3  H4  UNL     1     -45.951 -33.325   0.790  1.00  0.00     0.185 HD
HETATM    4  C5  UNL     1     -45.262 -31.913   2.074  1.00  0.00     0.168 A 
HETATM    5  N5  UNL     1     -45.702 -32.522   3.279  1.00  0.00    -0.079 NA
HETATM    6  C6  UNL     1     -44.602 -30.681   2.191  1.00  0.00     0.188 A 
HETATM    7  C7  UNL     1     -44.211 -30.052   1.047  1.00  0.00     0.151 A 
HETATM    8  N8  UNL     1     -44.445 -30.585  -0.152  1.00  0.00    -0.173 N 
ATOM      9  H8  UNL     1     -44.151 -30.102  -1.001  1.00  0.00     0.186 HD
ENDROOT
BRANCH   1  10
HETATM   10  N3  UNL     1     -45.079 -32.364  -1.360  1.00  0.00    -0.134 N 
ATOM     11  H3  UNL     1     -44.246 -32.921  -1.553  1.00  0.00     0.201 HD
BRANCH  10  12
HETATM   12  N2  UNL     1     -45.996 -32.366  -2.343  1.00  0.00    -0.100 NA
BRANCH  12  13
HETATM   13  C3  UNL     1     -47.060 -33.306  -2.132  1.00  0.00     0.313 C 
BRANCH  13  14
HETATM   14  O1  UNL     1     -46.672 -34.507  -2.658  1.00  0.00    -0.309 OA
BRANCH  14  15
HETATM   15  C2  UNL     1     -46.726 -35.788  -2.429  1.00  0.00     0.210 C 
HETATM   16  S1  UNL     1     -48.063 -36.691  -2.245  1.00  0.00    -0.033 SA
BRANCH  15  17
HETATM   17  N1  UNL     1     -45.477 -36.505  -2.319  1.00  0.00    -0.366 N 
HETATM   18  C1  UNL     1     -45.590 -37.875  -1.809  1.00  0.00     0.149 C 
ATOM     19  H1  UNL     1     -44.583 -36.088  -2.578  1.00  0.00     0.161 HD
ENDBRANCH  15  17
ENDBRANCH  14  15
ENDBRANCH  13  14
ENDBRANCH  12  13
ENDBRANCH  10  12
ENDBRANCH   1  10
BRANCH   7  20
HETATM   20  N7  UNL     1     -43.552 -28.904   1.164  1.00  0.00    -0.383 N 
ATOM     21  H72 UNL     1     -43.061 -28.669   2.027  1.00  0.00     0.157 HD
ATOM     22  H71 UNL     1     -43.579 -28.256   0.377  1.00  0.00     0.157 HD
ENDBRANCH   7  20
BRANCH   6  23
HETATM   23  N6  UNL     1     -44.325 -30.149   3.489  1.00  0.00    -0.108 N 
HETATM   24  O2  UNL     1     -45.118 -29.382   4.001  1.00  0.00    -0.532 OA
HETATM   25  O3  UNL     1     -43.194 -30.533   4.135  1.00  0.00    -0.532 OA
ENDBRANCH   6  23
TORSDOF 8
ENDMDL
MODEL 4
REMARK VINA RESULT: -6.586209322      2.264      4.688
REMARK  8 active torsions:
REMARK  status: ('A' for Active; 'I' for Inactive)
REMARK    1  A    between atoms: N1_2  and  C2_4 
REMARK    2  A    between atoms: C2_4  and  O1_6 
REMARK    3  A    between atoms: O1_6  and  C3_7 
REMARK    4  A    between atoms: C3_7  and  N2_8 
REMARK    5  A    between atoms: N2_8  and  N3_9 
REMARK    6  A    between atoms: N3_9  and  C4_11 
REMARK    7  A    between atoms: C6_16  and  N6_17 
REMARK    8  A    between atoms: C7_20  and  N7_21 
ROOT
HETATM    1  C4  UNL     1     -45.376 -31.763  -0.482  1.00  0.00     0.697 A 
HETATM    2  N4  UNL     1     -46.333 -32.696  -0.414  1.00  0.00    -0.175 N 
ATOM      3  H4  UNL     1     -46.134 -33.647  -0.722  1.00  0.00     0.185 HD
HETATM    4  C5  UNL     1     -47.533 -32.394   0.048  1.00  0.00     0.168 A 
HETATM    5  N5  UNL     1     -48.608 -33.321   0.100  1.00  0.00    -0.079 NA
HETATM    6  C6  UNL     1     -47.801 -31.087   0.478  1.00  0.00     0.188 A 
HETATM    7  C7  UNL     1     -46.801 -30.165   0.393  1.00  0.00     0.151 A 
HETATM    8  N8  UNL     1     -45.599 -30.490  -0.083  1.00  0.00    -0.173 N 
ATOM      9  H8  UNL     1     -44.860 -29.789  -0.146  1.00  0.00     0.186 HD
ENDROOT
BRANCH   1  10
HETATM   10  N3  UNL     1     -44.162 -32.091  -0.712  1.00  0.00    -0.134 N 
ATOM     11  H3  UNL     1     -44.043 -33.009  -1.141  1.00  0.00     0.201 HD
BRANCH  10  12
HETATM   12  N2  UNL     1     -43.017 -31.425  -0.483  1.00  0.00    -0.100 NA
BRANCH  12  13
HETATM   13  C3  UNL     1     -42.416 -31.737   0.783  1.00  0.00     0.313 C 
BRANCH  13  14
HETATM   14  O1  UNL     1     -43.099 -31.056   1.752  1.00  0.00    -0.309 OA
BRANCH  14  15
HETATM   15  C2  UNL     1     -43.611 -31.209   2.940  1.00  0.00     0.210 C 
HETATM   16  S1  UNL     1     -44.906 -32.105   3.337  1.00  0.00    -0.033 SA
BRANCH  15  17
HETATM   17  N1  UNL     1     -42.982 -30.514   4.038  1.00  0.00    -0.366 N 
HETATM   18  C1  UNL     1     -43.834 -29.538   4.725  1.00  0.00     0.149 C 
ATOM     19  H1  UNL     1     -42.016 -30.689   4.316  1.00  0.00     0.161 HD
ENDBRANCH  15  17
ENDBRANCH  14  15
ENDBRANCH  13  14
ENDBRANCH  12  13
ENDBRANCH  10  12
ENDBRANCH   1  10
BRANCH   7  20
HETATM   20  N7  UNL     1     -47.048 -28.938   0.838  1.00  0.00    -0.383 N 
ATOM     21  H72 UNL     1     -47.205 -28.764   1.832  1.00  0.00     0.157 HD
ATOM     22  H71 UNL     1     -47.106 -28.185   0.153  1.00  0.00     0.157 HD
ENDBRANCH   7  20
BRANCH   6  23
HETATM   23  N6  UNL     1     -49.085 -30.773   1.024  1.00  0.00    -0.108 N 
HETATM   24  O2  UNL     1     -49.998 -30.481   0.275  1.00  0.00    -0.532 OA
HETATM   25  O3  UNL     1     -49.266 -30.835   2.369  1.00  0.00    -0.532 OA
ENDBRANCH   6  23
TORSDOF 8
ENDMDL
MODEL 5
REMARK VINA RESULT: -6.559290126      3.146      4.052
REMARK  8 active torsions:
REMARK  status: ('A' for Active; 'I' for Inactive)
REMARK    1  A    between atoms: N1_2  and  C2_4 
REMARK    2  A    between atoms: C2_4  and  O1_6 
REMARK    3  A    between atoms: O1_6  and  C3_7 
REMARK    4  A    between atoms: C3_7  and  N2_8 
REMARK    5  A    between atoms: N2_8  and  N3_9 
REMARK    6  A    between atoms: N3_9  and  C4_11 
REMARK    7  A    between atoms: C6_16  and  N6_17 
REMARK    8  A    between atoms: C7_20  and  N7_21 
ROOT
HETATM    1  C4  UNL     1     -44.895 -32.184  -1.230  1.00  0.00     0.697 A 
HETATM    2  N4  UNL     1     -45.881 -32.092  -0.329  1.00  0.00    -0.175 N 
ATOM      3  H4  UNL     1     -46.841 -32.288  -0.609  1.00  0.00     0.185 HD
HETATM    4  C5  UNL     1     -45.620 -31.749   0.919  1.00  0.00     0.168 A 
HETATM    5  N5  UNL     1     -46.623 -31.585   1.912  1.00  0.00    -0.079 NA
HETATM    6  C6  UNL     1     -44.298 -31.488   1.305  1.00  0.00     0.188 A 
HETATM    7  C7  UNL     1     -43.322 -31.592   0.359  1.00  0.00     0.151 A 
HETATM    8  N8  UNL     1     -43.608 -31.932  -0.897  1.00  0.00    -0.173 N 
ATOM      9  H8  UNL     1     -42.869 -32.002  -1.597  1.00  0.00     0.186 HD
ENDROOT
BRANCH   1  10
HETATM   10  N3  UNL     1     -45.102 -32.725  -2.368  1.00  0.00    -0.134 N 
ATOM     11  H3  UNL     1     -45.041 -32.087  -3.161  1.00  0.00     0.201 HD
BRANCH  10  12
HETATM   12  N2  UNL     1     -45.387 -33.998  -2.693  1.00  0.00    -0.100 NA
BRANCH  12  13
HETATM   13  C3  UNL     1     -46.776 -34.330  -2.552  1.00  0.00     0.313 C 
BRANCH  13  14
HETATM   14  O1  UNL     1     -46.919 -35.665  -2.807  1.00  0.00    -0.309 OA
BRANCH  14  15
HETATM   15  C2  UNL     1     -46.714 -36.836  -2.272  1.00  0.00     0.210 C 
HETATM   16  S1  UNL     1     -47.841 -37.916  -1.827  1.00  0.00    -0.033 SA
BRANCH  15  17
HETATM   17  N1  UNL     1     -45.348 -37.237  -2.036  1.00  0.00    -0.366 N 
HETATM   18  C1  UNL     1     -45.188 -38.511  -1.329  1.00  0.00     0.149 C 
ATOM     19  H1  UNL     1     -44.552 -36.675  -2.339  1.00  0.00     0.161 HD
ENDBRANCH  15  17
ENDBRANCH  14  15
ENDBRANCH  13  14
ENDBRANCH  12  13
ENDBRANCH  10  12
ENDBRANCH   1  10
BRANCH   7  20
HETATM   20  N7  UNL     1     -42.065 -31.382   0.738  1.00  0.00    -0.383 N 
ATOM     21  H72 UNL     1     -41.847 -30.709   1.474  1.00  0.00     0.157 HD
ATOM     22  H71 UNL     1     -41.329 -31.891   0.250  1.00  0.00     0.157 HD
ENDBRANCH   7  20
BRANCH   6  23
HETATM   23  N6  UNL     1     -44.010 -31.166   2.668  1.00  0.00    -0.108 N 
HETATM   24  O2  UNL     1     -43.708 -32.055   3.441  1.00  0.00    -0.532 OA
HETATM   25  O3  UNL     1     -44.052 -29.868   3.065  1.00  0.00    -0.532 OA
ENDBRANCH   6  23
TORSDOF 8
ENDMDL
