MODEL 1
REMARK VINA RESULT: -6.619835617      0.000      0.000
REMARK  4 active torsions:
REMARK  status: ('A' for Active; 'I' for Inactive)
REMARK    1  A    between atoms: C4_5  and  N2_6 
REMARK    2  A    between atoms: N2_6  and  C5_8 
REMARK    3  A    between atoms: C5_8  and  N3_10 
REMARK    4  A    between atoms: C9_14  and  C10_15 
ROOT
HETATM    1  N3  UNL     1      17.820   6.400  12.684  1.00  0.00    -0.358 N 
HETATM    2  C6  UNL     1      17.154   7.432  11.927  1.00  0.00     0.125 C 
HETATM    3  C7  UNL     1      16.571   8.428  12.889  1.00  0.00     0.020 C 
HETATM    4  C8  UNL     1      17.175   8.446  14.233  1.00  0.00     0.010 C 
HETATM    5  C9  UNL     1      18.575   7.986  14.368  1.00  0.00     0.033 C 
HETATM    6  C15 UNL     1      18.976   6.869  13.436  1.00  0.00     0.132 C 
ENDROOT
BRANCH   1   7
HETATM    7  C5  UNL     1      17.390   5.061  12.697  1.00  0.00     0.170 C 
HETATM    8  S1  UNL     1      16.845   4.452  11.258  1.00  0.00    -0.041 SA
BRANCH   7   9
HETATM    9  N2  UNL     1      17.379   4.200  13.806  1.00  0.00    -0.362 N 
ATOM     10  H2  UNL     1      17.717   3.245  13.685  1.00  0.00     0.162 HD
BRANCH   9  11
HETATM   11  C4  UNL     1      16.908   4.608  15.121  1.00  0.00     0.087 C 
HETATM   12  C3  UNL     1      15.530   5.163  15.028  1.00  0.00     0.044 C 
HETATM   13  C2  UNL     1      14.542   4.614  15.985  1.00  0.00     0.118 C 
HETATM   14  N1  UNL     1      14.577   3.225  16.234  1.00  0.00    -0.416 N 
HETATM   15  C1  UNL     1      13.851   2.812  17.410  1.00  0.00     0.143 C 
HETATM   16  C17 UNL     1      15.822   2.558  16.060  1.00  0.00     0.118 C 
HETATM   17  C16 UNL     1      17.021   3.472  16.115  1.00  0.00     0.044 C 
ENDBRANCH   9  11
ENDBRANCH   7   9
ENDBRANCH   1   7
BRANCH   5  18
HETATM   18  C10 UNL     1      19.596   9.125  14.354  1.00  0.00     0.127 C 
HETATM   19  C11 UNL     1      19.213  10.252  15.250  1.00  0.00     0.032 C 
HETATM   20  C12 UNL     1      20.283  11.320  15.123  1.00  0.00     0.004 C 
HETATM   21  C13 UNL     1      20.352  11.762  13.702  1.00  0.00     0.026 C 
HETATM   22  C14 UNL     1      19.731  10.796  12.749  1.00  0.00     0.168 C 
HETATM   23  O1  UNL     1      19.894   9.476  13.065  1.00  0.00    -0.385 OA
ENDBRANCH   5  18
TORSDOF 4
ENDMDL
MODEL 2
REMARK VINA RESULT: -6.558411275      3.088      7.199
REMARK  4 active torsions:
REMARK  status: ('A' for Active; 'I' for Inactive)
REMARK    1  A    between atoms: C4_5  and  N2_6 
REMARK    2  A    between atoms: N2_6  and  C5_8 
REMARK    3  A    between atoms: C5_8  and  N3_10 
REMARK    4  A    between atoms: C9_14  and  C10_15 
ROOT
HETATM    1  N3  UNL     1      16.994   6.340  12.808  1.00  0.00    -0.358 N 
HETATM    2  C6  UNL     1      17.828   7.058  13.742  1.00  0.00     0.125 C 
HETATM    3  C7  UNL     1      16.946   7.699  14.775  1.00  0.00     0.020 C 
HETATM    4  C8  UNL     1      15.608   7.102  14.929  1.00  0.00     0.010 C 
HETATM    5  C9  UNL     1      15.437   5.680  14.558  1.00  0.00     0.033 C 
HETATM    6  C15 UNL     1      16.281   5.215  13.396  1.00  0.00     0.132 C 
ENDROOT
BRANCH   1   7
HETATM    7  C5  UNL     1      16.878   6.696  11.453  1.00  0.00     0.170 C 
HETATM    8  S1  UNL     1      17.954   5.985  10.414  1.00  0.00    -0.041 SA
BRANCH   7   9
HETATM    9  N2  UNL     1      15.947   7.590  10.903  1.00  0.00    -0.362 N 
ATOM     10  H2  UNL     1      15.433   7.306  10.068  1.00  0.00     0.162 HD
BRANCH   9  11
HETATM   11  C4  UNL     1      15.680   8.904  11.469  1.00  0.00     0.087 C 
HETATM   12  C3  UNL     1      16.755   9.860  11.089  1.00  0.00     0.044 C 
HETATM   13  C2  UNL     1      16.307  11.153  10.525  1.00  0.00     0.118 C 
HETATM   14  N1  UNL     1      15.226  11.129   9.618  1.00  0.00    -0.416 N 
HETATM   15  C1  UNL     1      14.615  12.416   9.384  1.00  0.00     0.143 C 
HETATM   16  C17 UNL     1      14.293  10.061   9.736  1.00  0.00     0.118 C 
HETATM   17  C16 UNL     1      14.297   9.389  11.088  1.00  0.00     0.044 C 
ENDBRANCH   9  11
ENDBRANCH   7   9
ENDBRANCH   1   7
BRANCH   5  18
HETATM   18  C10 UNL     1      15.539   4.722  15.747  1.00  0.00     0.127 C 
HETATM   19  C11 UNL     1      16.002   3.363  15.353  1.00  0.00     0.032 C 
HETATM   20  C12 UNL     1      16.031   2.509  16.608  1.00  0.00     0.004 C 
HETATM   21  C13 UNL     1      14.659   2.465  17.188  1.00  0.00     0.026 C 
HETATM   22  C14 UNL     1      13.770   3.558  16.696  1.00  0.00     0.168 C 
HETATM   23  O1  UNL     1      14.385   4.760  16.483  1.00  0.00    -0.385 OA
ENDBRANCH   5  18
TORSDOF 4
ENDMDL
MODEL 3
REMARK VINA RESULT: -6.514659719      2.956      6.772
REMARK  4 active torsions:
REMARK  status: ('A' for Active; 'I' for Inactive)
REMARK    1  A    between atoms: C4_5  and  N2_6 
REMARK    2  A    between atoms: N2_6  and  C5_8 
REMARK    3  A    between atoms: C5_8  and  N3_10 
REMARK    4  A    between atoms: C9_14  and  C10_15 
ROOT
HETATM    1  N3  UNL     1      17.468   6.604  12.745  1.00  0.00    -0.358 N 
HETATM    2  C6  UNL     1      18.063   7.037  13.986  1.00  0.00     0.125 C 
HETATM    3  C7  UNL     1      16.979   7.584  14.869  1.00  0.00     0.020 C 
HETATM    4  C8  UNL     1      15.612   7.136  14.553  1.00  0.00     0.010 C 
HETATM    5  C9  UNL     1      15.451   5.834  13.868  1.00  0.00     0.033 C 
HETATM    6  C15 UNL     1      16.545   5.486  12.889  1.00  0.00     0.132 C 
ENDROOT
BRANCH   1   7
HETATM    7  C5  UNL     1      17.751   7.208  11.506  1.00  0.00     0.170 C 
HETATM    8  S1  UNL     1      18.339   6.211  10.323  1.00  0.00    -0.041 SA
BRANCH   7   9
HETATM    9  N2  UNL     1      17.584   8.563  11.183  1.00  0.00    -0.362 N 
ATOM     10  H2  UNL     1      18.363   9.061  10.753  1.00  0.00     0.162 HD
BRANCH   9  11
HETATM   11  C4  UNL     1      16.348   9.290  11.432  1.00  0.00     0.087 C 
HETATM   12  C3  UNL     1      16.382  10.617  10.761  1.00  0.00     0.044 C 
HETATM   13  C2  UNL     1      15.203  10.959   9.933  1.00  0.00     0.118 C 
HETATM   14  N1  UNL     1      14.648   9.936   9.135  1.00  0.00    -0.416 N 
HETATM   15  C1  UNL     1      13.322  10.219   8.639  1.00  0.00     0.143 C 
HETATM   16  C17 UNL     1      14.826   8.593   9.570  1.00  0.00     0.118 C 
HETATM   17  C16 UNL     1      15.142   8.462  11.040  1.00  0.00     0.044 C 
ENDBRANCH   9  11
ENDBRANCH   7   9
ENDBRANCH   1   7
BRANCH   5  18
HETATM   18  C10 UNL     1      15.158   4.675  14.822  1.00  0.00     0.127 C 
HETATM   19  C11 UNL     1      14.493   5.118  16.079  1.00  0.00     0.032 C 
HETATM   20  C12 UNL     1      14.286   3.889  16.944  1.00  0.00     0.004 C 
HETATM   21  C13 UNL     1      15.613   3.273  17.225  1.00  0.00     0.026 C 
HETATM   22  C14 UNL     1      16.683   3.710  16.281  1.00  0.00     0.168 C 
HETATM   23  O1  UNL     1      16.278   3.907  14.990  1.00  0.00    -0.385 OA
ENDBRANCH   5  18
TORSDOF 4
ENDMDL
MODEL 4
REMARK VINA RESULT: -6.494293380      3.113      6.559
REMARK  4 active torsions:
REMARK  status: ('A' for Active; 'I' for Inactive)
REMARK    1  A    between atoms: C4_5  and  N2_6 
REMARK    2  A    between atoms: N2_6  and  C5_8 
REMARK    3  A    between atoms: C5_8  and  N3_10 
REMARK    4  A    between atoms: C9_14  and  C10_15 
ROOT
HETATM    1  N3  UNL     1      18.216   5.731  12.851  1.00  0.00    -0.358 N 
HETATM    2  C6  UNL     1      18.679   6.283  14.101  1.00  0.00     0.125 C 
HETATM    3  C7  UNL     1      17.570   7.097  14.703  1.00  0.00     0.020 C 
HETATM    4  C8  UNL     1      16.212   6.776  14.227  1.00  0.00     0.010 C 
HETATM    5  C9  UNL     1      15.964   5.410  13.715  1.00  0.00     0.033 C 
HETATM    6  C15 UNL     1      17.126   4.774  12.993  1.00  0.00     0.132 C 
ENDROOT
BRANCH   1   7
HETATM    7  C5  UNL     1      18.764   6.086  11.605  1.00  0.00     0.170 C 
HETATM    8  S1  UNL     1      20.416   6.166  11.529  1.00  0.00    -0.041 SA
BRANCH   7   9
HETATM    9  N2  UNL     1      18.051   6.377  10.433  1.00  0.00    -0.362 N 
ATOM     10  H2  UNL     1      17.693   5.601   9.874  1.00  0.00     0.162 HD
BRANCH   9  11
HETATM   11  C4  UNL     1      17.797   7.735   9.977  1.00  0.00     0.087 C 
HETATM   12  C3  UNL     1      17.126   7.720   8.649  1.00  0.00     0.044 C 
HETATM   13  C2  UNL     1      15.909   8.556   8.525  1.00  0.00     0.118 C 
HETATM   14  N1  UNL     1      15.011   8.564   9.613  1.00  0.00    -0.416 N 
HETATM   15  C1  UNL     1      14.052   9.643   9.587  1.00  0.00     0.143 C 
HETATM   16  C17 UNL     1      15.542   8.296  10.906  1.00  0.00     0.118 C 
HETATM   17  C16 UNL     1      17.030   8.524  11.017  1.00  0.00     0.044 C 
ENDBRANCH   9  11
ENDBRANCH   7   9
ENDBRANCH   1   7
BRANCH   5  18
HETATM   18  C10 UNL     1      15.365   4.466  14.760  1.00  0.00     0.127 C 
HETATM   19  C11 UNL     1      14.655   5.192  15.850  1.00  0.00     0.032 C 
HETATM   20  C12 UNL     1      14.137   4.153  16.828  1.00  0.00     0.004 C 
HETATM   21  C13 UNL     1      15.294   3.378  17.359  1.00  0.00     0.026 C 
HETATM   22  C14 UNL     1      16.522   3.493  16.520  1.00  0.00     0.168 C 
HETATM   23  O1  UNL     1      16.305   3.561  15.172  1.00  0.00    -0.385 OA
ENDBRANCH   5  18
TORSDOF 4
ENDMDL
MODEL 5
REMARK VINA RESULT: -6.457131429      3.068      6.865
REMARK  4 active torsions:
REMARK  status: ('A' for Active; 'I' for Inactive)
REMARK    1  A    between atoms: C4_5  and  N2_6 
REMARK    2  A    between atoms: N2_6  and  C5_8 
REMARK    3  A    between atoms: C5_8  and  N3_10 
REMARK    4  A    between atoms: C9_14  and  C10_15 
ROOT
HETATM    1  N3  UNL     1      17.618   6.399  13.026  1.00  0.00    -0.358 N 
HETATM    2  C6  UNL     1      18.056   6.920  14.299  1.00  0.00     0.125 C 
HETATM    3  C7  UNL     1      16.867   7.491  15.016  1.00  0.00     0.020 C 
HETATM    4  C8  UNL     1      15.554   6.991  14.572  1.00  0.00     0.010 C 
HETATM    5  C9  UNL     1      15.498   5.647  13.954  1.00  0.00     0.033 C 
HETATM    6  C15 UNL     1      16.705   5.269  13.131  1.00  0.00     0.132 C 
ENDROOT
BRANCH   1   7
HETATM    7  C5  UNL     1      18.032   6.936  11.794  1.00  0.00     0.170 C 
HETATM    8  S1  UNL     1      19.351   6.225  11.092  1.00  0.00    -0.041 SA
BRANCH   7   9
HETATM    9  N2  UNL     1      17.439   8.009  11.111  1.00  0.00    -0.362 N 
ATOM     10  H2  UNL     1      17.985   8.859  10.969  1.00  0.00     0.162 HD
BRANCH   9  11
HETATM   11  C4  UNL     1      16.079   7.964  10.595  1.00  0.00     0.087 C 
HETATM   12  C3  UNL     1      15.187   8.834  11.409  1.00  0.00     0.044 C 
HETATM   13  C2  UNL     1      14.339   9.785  10.654  1.00  0.00     0.118 C 
HETATM   14  N1  UNL     1      14.923  10.447   9.553  1.00  0.00    -0.416 N 
HETATM   15  C1  UNL     1      13.976  11.071   8.661  1.00  0.00     0.143 C 
HETATM   16  C17 UNL     1      15.997   9.792   8.887  1.00  0.00     0.118 C 
HETATM   17  C16 UNL     1      16.045   8.302   9.120  1.00  0.00     0.044 C 
ENDBRANCH   9  11
ENDBRANCH   7   9
ENDBRANCH   1   7
BRANCH   5  18
HETATM   18  C10 UNL     1      15.117   4.539  14.938  1.00  0.00     0.127 C 
HETATM   19  C11 UNL     1      14.458   5.062  16.167  1.00  0.00     0.032 C 
HETATM   20  C12 UNL     1      14.160   3.876  17.065  1.00  0.00     0.004 C 
HETATM   21  C13 UNL     1      15.441   3.189  17.391  1.00  0.00     0.026 C 
HETATM   22  C14 UNL     1      16.553   3.530  16.456  1.00  0.00     0.168 C 
HETATM   23  O1  UNL     1      16.184   3.710  15.152  1.00  0.00    -0.385 OA
ENDBRANCH   5  18
TORSDOF 4
ENDMDL
