MODEL 1
REMARK VINA RESULT: -8.442925808      0.000      0.000
REMARK  3 active torsions:
REMARK  status: ('A' for Active; 'I' for Inactive)
REMARK       I    between atoms: N2_7  and  C6_8 
REMARK       I    between atoms: C6_8  and  N3_10 
REMARK    1  A    between atoms: N3_10  and  C7_12 
REMARK    2  A    between atoms: C7_12  and  C8_13 
REMARK    3  A    between atoms: C11_16  and  C12_17 
REMARK       I    between atoms: C12_17  and  N4_19 
ROOT
HETATM    1  N1  UNL     1      24.205   5.702   9.978  1.00  0.00    -0.197 NA
HETATM    2  C1  UNL     1      23.411   6.531   9.808  1.00  0.00     0.065 C 
HETATM    3  C2  UNL     1      22.429   7.587   9.603  1.00  0.00     0.111 C 
HETATM    4  C3  UNL     1      22.233   8.431  10.837  1.00  0.00     0.022 C 
HETATM    5  C4  UNL     1      21.833   7.674  12.044  1.00  0.00     0.021 C 
HETATM    6  C5  UNL     1      21.238   6.340  11.841  1.00  0.00     0.127 C 
HETATM    7  N2  UNL     1      20.914   5.988  10.496  1.00  0.00    -0.333 N 
HETATM    8  C6  UNL     1      20.390   4.695  10.230  1.00  0.00     0.318 C 
HETATM    9  O1  UNL     1      20.085   4.334   9.046  1.00  0.00    -0.247 OA
HETATM   10  N3  UNL     1      20.206   3.799  11.311  1.00  0.00    -0.341 N 
ATOM     11  H3  UNL     1      20.447   4.076  12.263  1.00  0.00     0.164 HD
HETATM   12  C18 UNL     1      21.088   6.879   9.362  1.00  0.00     0.146 C 
ENDROOT
BRANCH  10  13
HETATM   13  C7  UNL     1      19.675   2.493  11.042  1.00  0.00     0.156 C 
BRANCH  13  14
HETATM   14  C8  UNL     1      18.321   2.271  11.660  1.00  0.00     0.140 C 
HETATM   15  C9  UNL     1      17.185   2.542  10.712  1.00  0.00     0.036 C 
HETATM   16  C10 UNL     1      16.116   3.123  11.635  1.00  0.00     0.044 C 
HETATM   17  C11 UNL     1      16.805   2.986  13.006  1.00  0.00     0.214 C 
HETATM   18  O3  UNL     1      18.111   3.252  12.637  1.00  0.00    -0.370 OA
BRANCH  17  19
HETATM   19  C12 UNL     1      16.194   3.904  13.953  1.00  0.00     0.248 C 
HETATM   20  O2  UNL     1      15.642   4.933  13.397  1.00  0.00    -0.270 OA
HETATM   21  N4  UNL     1      16.119   3.833  15.340  1.00  0.00    -0.350 N 
HETATM   22  C13 UNL     1      16.631   2.848  16.234  1.00  0.00     0.126 C 
HETATM   23  C17 UNL     1      15.403   4.914  16.072  1.00  0.00     0.126 C 
HETATM   24  C14 UNL     1      15.527   2.075  16.935  1.00  0.00     0.020 C 
HETATM   25  C15 UNL     1      14.639   3.102  17.605  1.00  0.00     0.003 C 
HETATM   26  C16 UNL     1      14.201   4.202  16.692  1.00  0.00     0.020 C 
ENDBRANCH  17  19
ENDBRANCH  13  14
ENDBRANCH  10  13
TORSDOF 3
ENDMDL
MODEL 2
REMARK VINA RESULT: -7.985796265      1.327      2.237
REMARK  3 active torsions:
REMARK  status: ('A' for Active; 'I' for Inactive)
REMARK       I    between atoms: N2_7  and  C6_8 
REMARK       I    between atoms: C6_8  and  N3_10 
REMARK    1  A    between atoms: N3_10  and  C7_12 
REMARK    2  A    between atoms: C7_12  and  C8_13 
REMARK    3  A    between atoms: C11_16  and  C12_17 
REMARK       I    between atoms: C12_17  and  N4_19 
ROOT
HETATM    1  N1  UNL     1      17.960   7.512  10.374  1.00  0.00    -0.197 NA
HETATM    2  C1  UNL     1      19.076   7.685  10.113  1.00  0.00     0.065 C 
HETATM    3  C2  UNL     1      20.473   7.918   9.770  1.00  0.00     0.111 C 
HETATM    4  C3  UNL     1      20.706   7.889   8.281  1.00  0.00     0.022 C 
HETATM    5  C4  UNL     1      20.283   6.637   7.615  1.00  0.00     0.021 C 
HETATM    6  C5  UNL     1      20.131   5.438   8.460  1.00  0.00     0.127 C 
HETATM    7  N2  UNL     1      20.602   5.545   9.804  1.00  0.00    -0.333 N 
HETATM    8  C6  UNL     1      20.432   4.442  10.682  1.00  0.00     0.318 C 
HETATM    9  O1  UNL     1      20.836   4.488  11.891  1.00  0.00    -0.247 OA
HETATM   10  N3  UNL     1      19.799   3.273  10.193  1.00  0.00    -0.341 N 
ATOM     11  H3  UNL     1      19.471   3.224   9.229  1.00  0.00     0.164 HD
HETATM   12  C18 UNL     1      21.254   6.726  10.340  1.00  0.00     0.146 C 
ENDROOT
BRANCH  10  13
HETATM   13  C7  UNL     1      19.629   2.159  11.082  1.00  0.00     0.156 C 
BRANCH  13  14
HETATM   14  C8  UNL     1      18.237   2.067  11.648  1.00  0.00     0.140 C 
HETATM   15  C9  UNL     1      17.170   2.467  10.666  1.00  0.00     0.036 C 
HETATM   16  C10 UNL     1      16.133   3.141  11.561  1.00  0.00     0.044 C 
HETATM   17  C11 UNL     1      16.753   2.914  12.953  1.00  0.00     0.214 C 
HETATM   18  O3  UNL     1      18.092   3.050  12.634  1.00  0.00    -0.370 OA
BRANCH  17  19
HETATM   19  C12 UNL     1      16.204   3.876  13.894  1.00  0.00     0.248 C 
HETATM   20  O2  UNL     1      15.692   4.922  13.331  1.00  0.00    -0.270 OA
HETATM   21  N4  UNL     1      16.151   3.832  15.284  1.00  0.00    -0.350 N 
HETATM   22  C13 UNL     1      16.631   2.837  16.185  1.00  0.00     0.126 C 
HETATM   23  C17 UNL     1      15.501   4.958  16.009  1.00  0.00     0.126 C 
HETATM   24  C14 UNL     1      15.504   2.131  16.919  1.00  0.00     0.020 C 
HETATM   25  C15 UNL     1      14.678   3.210  17.586  1.00  0.00     0.003 C 
HETATM   26  C16 UNL     1      14.278   4.315  16.662  1.00  0.00     0.020 C 
ENDBRANCH  17  19
ENDBRANCH  13  14
ENDBRANCH  10  13
TORSDOF 3
ENDMDL
MODEL 3
REMARK VINA RESULT: -7.920938164      5.398      8.489
REMARK  3 active torsions:
REMARK  status: ('A' for Active; 'I' for Inactive)
REMARK       I    between atoms: N2_7  and  C6_8 
REMARK       I    between atoms: C6_8  and  N3_10 
REMARK    1  A    between atoms: N3_10  and  C7_12 
REMARK    2  A    between atoms: C7_12  and  C8_13 
REMARK    3  A    between atoms: C11_16  and  C12_17 
REMARK       I    between atoms: C12_17  and  N4_19 
ROOT
HETATM    1  N1  UNL     1      16.593   1.365  14.419  1.00  0.00    -0.197 NA
HETATM    2  C1  UNL     1      16.766   2.083  15.312  1.00  0.00     0.065 C 
HETATM    3  C2  UNL     1      16.970   2.973  16.448  1.00  0.00     0.111 C 
HETATM    4  C3  UNL     1      15.668   3.466  17.026  1.00  0.00     0.022 C 
HETATM    5  C4  UNL     1      14.790   4.164  16.061  1.00  0.00     0.021 C 
HETATM    6  C5  UNL     1      15.417   4.700  14.838  1.00  0.00     0.127 C 
HETATM    7  N2  UNL     1      16.844   4.677  14.795  1.00  0.00    -0.333 N 
HETATM    8  C6  UNL     1      17.504   5.128  13.622  1.00  0.00     0.318 C 
HETATM    9  O1  UNL     1      18.777   5.128  13.535  1.00  0.00    -0.247 OA
HETATM   10  N3  UNL     1      16.723   5.585  12.533  1.00  0.00    -0.341 N 
ATOM     11  H3  UNL     1      15.705   5.590  12.590  1.00  0.00     0.164 HD
HETATM   12  C18 UNL     1      17.679   4.216  15.891  1.00  0.00     0.146 C 
ENDROOT
BRANCH  10  13
HETATM   13  C7  UNL     1      17.391   6.042  11.348  1.00  0.00     0.156 C 
BRANCH  13  14
HETATM   14  C8  UNL     1      16.988   7.436  10.947  1.00  0.00     0.140 C 
HETATM   15  C9  UNL     1      16.138   8.127  11.979  1.00  0.00     0.036 C 
HETATM   16  C10 UNL     1      15.190   8.961  11.121  1.00  0.00     0.044 C 
HETATM   17  C11 UNL     1      15.741   8.675   9.711  1.00  0.00     0.214 C 
HETATM   18  O3  UNL     1      16.101   7.350   9.867  1.00  0.00    -0.370 OA
BRANCH  17  19
HETATM   19  C12 UNL     1      14.716   8.961   8.720  1.00  0.00     0.248 C 
HETATM   20  O2  UNL     1      13.963   7.947   8.442  1.00  0.00    -0.270 OA
HETATM   21  N4  UNL     1      14.436  10.145   8.044  1.00  0.00    -0.350 N 
HETATM   22  C13 UNL     1      15.081  11.414   8.119  1.00  0.00     0.126 C 
HETATM   23  C17 UNL     1      13.297  10.167   7.085  1.00  0.00     0.126 C 
HETATM   24  C14 UNL     1      14.184  12.483   8.719  1.00  0.00     0.020 C 
HETATM   25  C15 UNL     1      12.913  12.493   7.898  1.00  0.00     0.003 C 
HETATM   26  C16 UNL     1      12.303  11.139   7.720  1.00  0.00     0.020 C 
ENDBRANCH  17  19
ENDBRANCH  13  14
ENDBRANCH  10  13
TORSDOF 3
ENDMDL
MODEL 4
REMARK VINA RESULT: -7.851290778      4.120      5.171
REMARK  3 active torsions:
REMARK  status: ('A' for Active; 'I' for Inactive)
REMARK       I    between atoms: N2_7  and  C6_8 
REMARK       I    between atoms: C6_8  and  N3_10 
REMARK    1  A    between atoms: N3_10  and  C7_12 
REMARK    2  A    between atoms: C7_12  and  C8_13 
REMARK    3  A    between atoms: C11_16  and  C12_17 
REMARK       I    between atoms: C12_17  and  N4_19 
ROOT
HETATM    1  N1  UNL     1      13.822   8.696  12.287  1.00  0.00    -0.197 NA
HETATM    2  C1  UNL     1      14.107   9.430  11.436  1.00  0.00     0.065 C 
HETATM    3  C2  UNL     1      14.445  10.356  10.363  1.00  0.00     0.111 C 
HETATM    4  C3  UNL     1      13.692  10.054   9.092  1.00  0.00     0.022 C 
HETATM    5  C4  UNL     1      13.881   8.680   8.576  1.00  0.00     0.021 C 
HETATM    6  C5  UNL     1      15.069   7.940   9.039  1.00  0.00     0.127 C 
HETATM    7  N2  UNL     1      16.034   8.687   9.781  1.00  0.00    -0.333 N 
HETATM    8  C6  UNL     1      17.172   8.016  10.301  1.00  0.00     0.318 C 
HETATM    9  O1  UNL     1      18.061   8.640  10.969  1.00  0.00    -0.247 OA
HETATM   10  N3  UNL     1      17.310   6.627  10.066  1.00  0.00    -0.341 N 
ATOM     11  H3  UNL     1      16.606   6.116   9.534  1.00  0.00     0.164 HD
HETATM   12  C18 UNL     1      15.926  10.112  10.042  1.00  0.00     0.146 C 
ENDROOT
BRANCH  10  13
HETATM   13  C7  UNL     1      18.462   5.950  10.592  1.00  0.00     0.156 C 
BRANCH  13  14
HETATM   14  C8  UNL     1      18.122   4.984  11.696  1.00  0.00     0.140 C 
HETATM   15  C9  UNL     1      17.314   3.805  11.225  1.00  0.00     0.036 C 
HETATM   16  C10 UNL     1      16.400   3.534  12.417  1.00  0.00     0.044 C 
HETATM   17  C11 UNL     1      16.925   4.567  13.432  1.00  0.00     0.214 C 
HETATM   18  O3  UNL     1      17.223   5.607  12.571  1.00  0.00    -0.370 OA
BRANCH  17  19
HETATM   19  C12 UNL     1      15.907   4.823  14.438  1.00  0.00     0.248 C 
HETATM   20  O2  UNL     1      14.989   5.647  14.051  1.00  0.00    -0.270 OA
HETATM   21  N4  UNL     1      15.783   4.317  15.728  1.00  0.00    -0.350 N 
HETATM   22  C13 UNL     1      16.624   3.413  16.440  1.00  0.00     0.126 C 
HETATM   23  C17 UNL     1      14.613   4.734  16.548  1.00  0.00     0.126 C 
HETATM   24  C14 UNL     1      15.943   2.084  16.714  1.00  0.00     0.020 C 
HETATM   25  C15 UNL     1      14.647   2.402  17.430  1.00  0.00     0.003 C 
HETATM   26  C16 UNL     1      13.821   3.441  16.741  1.00  0.00     0.020 C 
ENDBRANCH  17  19
ENDBRANCH  13  14
ENDBRANCH  10  13
TORSDOF 3
ENDMDL
MODEL 5
REMARK VINA RESULT: -7.804424898      4.465      5.133
REMARK  3 active torsions:
REMARK  status: ('A' for Active; 'I' for Inactive)
REMARK       I    between atoms: N2_7  and  C6_8 
REMARK       I    between atoms: C6_8  and  N3_10 
REMARK    1  A    between atoms: N3_10  and  C7_12 
REMARK    2  A    between atoms: C7_12  and  C8_13 
REMARK    3  A    between atoms: C11_16  and  C12_17 
REMARK       I    between atoms: C12_17  and  N4_19 
ROOT
HETATM    1  N1  UNL     1      16.036  10.494   6.925  1.00  0.00    -0.197 NA
HETATM    2  C1  UNL     1      15.348  10.782   7.812  1.00  0.00     0.065 C 
HETATM    3  C2  UNL     1      14.486  11.166   8.924  1.00  0.00     0.111 C 
HETATM    4  C3  UNL     1      15.155  12.151   9.849  1.00  0.00     0.022 C 
HETATM    5  C4  UNL     1      16.441  11.688  10.416  1.00  0.00     0.021 C 
HETATM    6  C5  UNL     1      16.700  10.236  10.414  1.00  0.00     0.127 C 
HETATM    7  N2  UNL     1      15.602   9.397  10.053  1.00  0.00    -0.333 N 
HETATM    8  C6  UNL     1      15.805   7.994   9.978  1.00  0.00     0.318 C 
HETATM    9  O1  UNL     1      14.857   7.202   9.661  1.00  0.00    -0.247 OA
HETATM   10  N3  UNL     1      17.091   7.475  10.264  1.00  0.00    -0.341 N 
ATOM     11  H3  UNL     1      17.858   8.097  10.519  1.00  0.00     0.164 HD
HETATM   12  C18 UNL     1      14.270   9.892   9.752  1.00  0.00     0.146 C 
ENDROOT
BRANCH  10  13
HETATM   13  C7  UNL     1      17.295   6.056  10.190  1.00  0.00     0.156 C 
BRANCH  13  14
HETATM   14  C8  UNL     1      17.478   5.417  11.541  1.00  0.00     0.140 C 
HETATM   15  C9  UNL     1      17.327   3.920  11.513  1.00  0.00     0.036 C 
HETATM   16  C10 UNL     1      16.674   3.630  12.862  1.00  0.00     0.044 C 
HETATM   17  C11 UNL     1      16.657   5.037  13.490  1.00  0.00     0.214 C 
HETATM   18  O3  UNL     1      16.406   5.791  12.359  1.00  0.00    -0.370 OA
BRANCH  17  19
HETATM   19  C12 UNL     1      15.658   5.088  14.545  1.00  0.00     0.248 C 
HETATM   20  O2  UNL     1      14.637   5.829  14.259  1.00  0.00    -0.270 OA
HETATM   21  N4  UNL     1      15.644   4.466  15.789  1.00  0.00    -0.350 N 
HETATM   22  C13 UNL     1      16.610   3.609  16.393  1.00  0.00     0.126 C 
HETATM   23  C17 UNL     1      14.467   4.674  16.677  1.00  0.00     0.126 C 
HETATM   24  C14 UNL     1      16.094   2.192  16.571  1.00  0.00     0.020 C 
HETATM   25  C15 UNL     1      14.801   2.296  17.350  1.00  0.00     0.003 C 
HETATM   26  C16 UNL     1      13.836   3.286  16.780  1.00  0.00     0.020 C 
ENDBRANCH  17  19
ENDBRANCH  13  14
ENDBRANCH  10  13
TORSDOF 3
ENDMDL
