MODEL 1
REMARK VINA RESULT: -9.436746525      0.000      0.000
REMARK  6 active torsions:
REMARK  status: ('A' for Active; 'I' for Inactive)
REMARK    1  A    between atoms: C2_2  and  S1_4 
REMARK    2  A    between atoms: S1_4  and  N1_7 
REMARK       I    between atoms: N1_7  and  C4_9 
REMARK    3  A    between atoms: C4_9  and  C5_11 
REMARK    4  A    between atoms: C6_12  and  C7_13 
REMARK    5  A    between atoms: C15_21  and  O4_22 
REMARK    6  A    between atoms: C24_33  and  S2_34 
ROOT
HETATM    1  C7  UNL     1     -10.777  -8.603  30.207  1.00  0.00    -0.019 C 
HETATM    2  C8  UNL     1      -9.994  -7.514  30.906  1.00  0.00     0.020 C 
HETATM    3  C9  UNL     1     -11.631  -9.263  31.264  1.00  0.00     0.013 C 
HETATM    4  C10 UNL     1     -10.759  -9.898  32.301  1.00  0.00     0.002 C 
HETATM    5  C11 UNL     1      -9.438 -10.330  31.828  1.00  0.00     0.011 C 
HETATM    6  C12 UNL     1      -9.352 -10.707  30.361  1.00  0.00    -0.020 C 
HETATM    7  C13 UNL     1      -7.816 -10.618  30.130  1.00  0.00     0.017 C 
HETATM    8  C14 UNL     1      -9.894  -9.607  29.495  1.00  0.00     0.036 C 
HETATM    9  C15 UNL     1     -10.590 -10.025  28.247  1.00  0.00     0.124 C 
HETATM   10  C16 UNL     1     -10.052 -11.356  27.701  1.00  0.00     0.039 C 
HETATM   11  C17 UNL     1     -10.436 -12.342  28.746  1.00  0.00     0.022 C 
HETATM   12  C18 UNL     1     -10.362 -13.752  28.278  1.00  0.00     0.018 C 
HETATM   13  C19 UNL     1      -9.159 -14.079  27.448  1.00  0.00     0.023 C 
HETATM   14  C20 UNL     1     -11.584 -14.037  27.389  1.00  0.00     0.023 C 
HETATM   15  C21 UNL     1     -10.510 -14.683  29.442  1.00  0.00     0.135 C 
HETATM   16  O5  UNL     1     -10.402 -15.872  29.174  1.00  0.00    -0.297 OA
HETATM   17  C22 UNL     1     -10.764 -14.260  30.812  1.00  0.00     0.080 C 
HETATM   18  C23 UNL     1     -10.620 -12.784  31.086  1.00  0.00     0.029 C 
HETATM   19  C24 UNL     1      -9.709 -12.101  30.065  1.00  0.00     0.021 C 
ENDROOT
BRANCH   1  20
HETATM   20  C6  UNL     1     -11.735  -7.930  29.297  1.00  0.00    -0.011 C 
HETATM   21  C5  UNL     1     -12.816  -7.273  29.663  1.00  0.00     0.072 C 
BRANCH  21  22
HETATM   22  C4  UNL     1     -13.738  -6.627  28.774  1.00  0.00     0.254 C 
HETATM   23  N1  UNL     1     -15.148  -6.604  28.936  1.00  0.00    -0.247 N 
ATOM     24  H1  UNL     1     -15.556  -7.082  29.739  1.00  0.00     0.182 HD
HETATM   25  O3  UNL     1     -13.276  -6.020  27.752  1.00  0.00    -0.268 OA
BRANCH  23  26
HETATM   26  S1  UNL     1     -16.190  -5.805  27.841  1.00  0.00     0.260 S 
HETATM   27  O1  UNL     1     -16.021  -6.303  26.436  1.00  0.00    -0.200 OA
HETATM   28  O2  UNL     1     -15.948  -4.321  27.819  1.00  0.00    -0.200 OA
BRANCH  26  29
HETATM   29  C2  UNL     1     -17.890  -6.021  28.252  1.00  0.00     0.044 C 
HETATM   30  C1  UNL     1     -18.261  -6.459  29.441  1.00  0.00     0.033 C 
HETATM   31  C3  UNL     1     -18.922  -5.697  27.241  1.00  0.00     0.062 C 
ENDBRANCH  26  29
ENDBRANCH  23  26
ENDBRANCH  21  22
ENDBRANCH   1  20
BRANCH   9  32
HETATM   32  O4  UNL     1     -10.405  -9.138  27.177  1.00  0.00    -0.395 OA
ATOM     33  H4  UNL     1      -9.723  -9.409  26.573  1.00  0.00     0.210 HD
ENDBRANCH   9  32
BRANCH  19  34
HETATM   34  S2  UNL     1      -8.263 -13.209  29.998  1.00  0.00    -0.162 SA
HETATM   35  C25 UNL     1      -7.638 -13.701  31.588  1.00  0.00     0.090 C 
ENDBRANCH  19  34
TORSDOF 6
ENDMDL
MODEL 2
REMARK VINA RESULT: -9.334054762      1.426      1.781
REMARK  6 active torsions:
REMARK  status: ('A' for Active; 'I' for Inactive)
REMARK    1  A    between atoms: C2_2  and  S1_4 
REMARK    2  A    between atoms: S1_4  and  N1_7 
REMARK       I    between atoms: N1_7  and  C4_9 
REMARK    3  A    between atoms: C4_9  and  C5_11 
REMARK    4  A    between atoms: C6_12  and  C7_13 
REMARK    5  A    between atoms: C15_21  and  O4_22 
REMARK    6  A    between atoms: C24_33  and  S2_34 
ROOT
HETATM    1  C7  UNL     1     -12.019  -7.429  30.317  1.00  0.00    -0.019 C 
HETATM    2  C8  UNL     1     -11.551  -6.169  31.012  1.00  0.00     0.020 C 
HETATM    3  C9  UNL     1     -12.476  -8.374  31.405  1.00  0.00     0.013 C 
HETATM    4  C10 UNL     1     -11.324  -8.723  32.294  1.00  0.00     0.002 C 
HETATM    5  C11 UNL     1     -10.004  -8.676  31.655  1.00  0.00     0.011 C 
HETATM    6  C12 UNL     1      -9.982  -8.949  30.162  1.00  0.00    -0.020 C 
HETATM    7  C13 UNL     1      -8.599  -8.348  29.779  1.00  0.00     0.017 C 
HETATM    8  C14 UNL     1     -10.954  -8.058  29.443  1.00  0.00     0.036 C 
HETATM    9  C15 UNL     1     -11.627  -8.636  28.247  1.00  0.00     0.124 C 
HETATM   10  C16 UNL     1     -10.758  -9.692  27.548  1.00  0.00     0.039 C 
HETATM   11  C17 UNL     1     -10.670 -10.789  28.550  1.00  0.00     0.022 C 
HETATM   12  C18 UNL     1     -10.202 -12.077  27.972  1.00  0.00     0.018 C 
HETATM   13  C19 UNL     1      -9.070 -11.957  26.998  1.00  0.00     0.023 C 
HETATM   14  C20 UNL     1     -11.366 -12.716  27.196  1.00  0.00     0.023 C 
HETATM   15  C21 UNL     1      -9.896 -13.047  29.070  1.00  0.00     0.135 C 
HETATM   16  O5  UNL     1      -9.442 -14.123  28.703  1.00  0.00    -0.297 OA
HETATM   17  C22 UNL     1     -10.102 -12.783  30.488  1.00  0.00     0.080 C 
HETATM   18  C23 UNL     1     -10.410 -11.353  30.856  1.00  0.00     0.029 C 
HETATM   19  C24 UNL     1      -9.903 -10.370  29.800  1.00  0.00     0.021 C 
ENDROOT
BRANCH   1  20
HETATM   20  C6  UNL     1     -13.248  -7.077  29.566  1.00  0.00    -0.011 C 
HETATM   21  C5  UNL     1     -13.780  -5.875  29.476  1.00  0.00     0.072 C 
BRANCH  21  22
HETATM   22  C4  UNL     1     -14.971  -5.545  28.747  1.00  0.00     0.254 C 
HETATM   23  N1  UNL     1     -16.266  -6.056  29.027  1.00  0.00    -0.247 N 
ATOM     24  H1  UNL     1     -16.376  -6.713  29.799  1.00  0.00     0.182 HD
HETATM   25  O3  UNL     1     -14.883  -4.733  27.769  1.00  0.00    -0.268 OA
BRANCH  23  26
HETATM   26  S1  UNL     1     -17.647  -5.613  28.123  1.00  0.00     0.260 S 
HETATM   27  O1  UNL     1     -17.466  -5.866  26.656  1.00  0.00    -0.200 OA
HETATM   28  O2  UNL     1     -17.980  -4.156  28.286  1.00  0.00    -0.200 OA
BRANCH  26  29
HETATM   29  C2  UNL     1     -19.086  -6.505  28.614  1.00  0.00     0.044 C 
HETATM   30  C1  UNL     1     -19.293  -6.836  29.876  1.00  0.00     0.033 C 
HETATM   31  C3  UNL     1     -20.084  -6.883  27.589  1.00  0.00     0.062 C 
ENDBRANCH  26  29
ENDBRANCH  23  26
ENDBRANCH  21  22
ENDBRANCH   1  20
BRANCH   9  32
HETATM   32  O4  UNL     1     -11.872  -7.699  27.233  1.00  0.00    -0.395 OA
ATOM     33  H4  UNL     1     -12.203  -8.084  26.431  1.00  0.00     0.210 HD
ENDBRANCH   9  32
BRANCH  19  34
HETATM   34  S2  UNL     1      -8.196 -10.935  29.498  1.00  0.00    -0.162 SA
HETATM   35  C25 UNL     1      -7.333 -11.482  30.954  1.00  0.00     0.090 C 
ENDBRANCH  19  34
TORSDOF 6
ENDMDL
MODEL 3
REMARK VINA RESULT: -9.121486239      1.196      1.392
REMARK  6 active torsions:
REMARK  status: ('A' for Active; 'I' for Inactive)
REMARK    1  A    between atoms: C2_2  and  S1_4 
REMARK    2  A    between atoms: S1_4  and  N1_7 
REMARK       I    between atoms: N1_7  and  C4_9 
REMARK    3  A    between atoms: C4_9  and  C5_11 
REMARK    4  A    between atoms: C6_12  and  C7_13 
REMARK    5  A    between atoms: C15_21  and  O4_22 
REMARK    6  A    between atoms: C24_33  and  S2_34 
ROOT
HETATM    1  C7  UNL     1     -11.259  -8.329  30.894  1.00  0.00    -0.019 C 
HETATM    2  C8  UNL     1     -10.504  -7.236  31.618  1.00  0.00     0.020 C 
HETATM    3  C9  UNL     1     -11.826  -9.238  31.960  1.00  0.00     0.013 C 
HETATM    4  C10 UNL     1     -10.714  -9.866  32.739  1.00  0.00     0.002 C 
HETATM    5  C11 UNL     1      -9.455 -10.036  32.005  1.00  0.00     0.011 C 
HETATM    6  C12 UNL     1      -9.582 -10.205  30.502  1.00  0.00    -0.020 C 
HETATM    7  C13 UNL     1      -8.134  -9.863  30.050  1.00  0.00     0.017 C 
HETATM    8  C14 UNL     1     -10.400  -9.094  29.909  1.00  0.00     0.036 C 
HETATM    9  C15 UNL     1     -11.249  -9.446  28.737  1.00  0.00     0.124 C 
HETATM   10  C16 UNL     1     -10.656 -10.602  27.918  1.00  0.00     0.039 C 
HETATM   11  C17 UNL     1     -10.726 -11.760  28.850  1.00  0.00     0.022 C 
HETATM   12  C18 UNL     1     -10.564 -13.073  28.169  1.00  0.00     0.018 C 
HETATM   13  C19 UNL     1      -9.495 -13.111  27.121  1.00  0.00     0.023 C 
HETATM   14  C20 UNL     1     -11.879 -13.416  27.451  1.00  0.00     0.023 C 
HETATM   15  C21 UNL     1     -10.389 -14.156  29.187  1.00  0.00     0.135 C 
HETATM   16  O5  UNL     1     -10.185 -15.273  28.730  1.00  0.00    -0.297 OA
HETATM   17  C22 UNL     1     -10.447 -13.954  30.629  1.00  0.00     0.080 C 
HETATM   18  C23 UNL     1     -10.439 -12.520  31.096  1.00  0.00     0.029 C 
HETATM   19  C24 UNL     1      -9.813 -11.586  30.060  1.00  0.00     0.021 C 
ENDROOT
BRANCH   1  20
HETATM   20  C6  UNL     1     -12.438  -7.693  30.258  1.00  0.00    -0.011 C 
HETATM   21  C5  UNL     1     -12.966  -6.535  30.597  1.00  0.00     0.072 C 
BRANCH  21  22
HETATM   22  C4  UNL     1     -14.108  -5.928  29.976  1.00  0.00     0.254 C 
HETATM   23  N1  UNL     1     -14.856  -6.497  28.911  1.00  0.00    -0.247 N 
ATOM     24  H1  UNL     1     -14.571  -7.404  28.543  1.00  0.00     0.182 HD
HETATM   25  O3  UNL     1     -14.500  -4.791  30.397  1.00  0.00    -0.268 OA
BRANCH  23  26
HETATM   26  S1  UNL     1     -16.215  -5.723  28.222  1.00  0.00     0.260 S 
HETATM   27  O1  UNL     1     -15.878  -4.364  27.683  1.00  0.00    -0.200 OA
HETATM   28  O2  UNL     1     -17.324  -5.542  29.221  1.00  0.00    -0.200 OA
BRANCH  26  29
HETATM   29  C2  UNL     1     -16.904  -6.640  26.883  1.00  0.00     0.044 C 
HETATM   30  C1  UNL     1     -18.197  -6.607  26.619  1.00  0.00     0.033 C 
HETATM   31  C3  UNL     1     -16.009  -7.458  26.035  1.00  0.00     0.062 C 
ENDBRANCH  26  29
ENDBRANCH  23  26
ENDBRANCH  21  22
ENDBRANCH   1  20
BRANCH   9  32
HETATM   32  O4  UNL     1     -11.364  -8.412  27.797  1.00  0.00    -0.395 OA
ATOM     33  H4  UNL     1     -11.471  -7.553  28.188  1.00  0.00     0.210 HD
ENDBRANCH   9  32
BRANCH  19  34
HETATM   34  S2  UNL     1      -8.277 -12.454  29.599  1.00  0.00    -0.162 SA
HETATM   35  C25 UNL     1      -7.335 -13.065  30.978  1.00  0.00     0.090 C 
ENDBRANCH  19  34
TORSDOF 6
ENDMDL
MODEL 4
REMARK VINA RESULT: -9.055738733      1.667      2.478
REMARK  6 active torsions:
REMARK  status: ('A' for Active; 'I' for Inactive)
REMARK    1  A    between atoms: C2_2  and  S1_4 
REMARK    2  A    between atoms: S1_4  and  N1_7 
REMARK       I    between atoms: N1_7  and  C4_9 
REMARK    3  A    between atoms: C4_9  and  C5_11 
REMARK    4  A    between atoms: C6_12  and  C7_13 
REMARK    5  A    between atoms: C15_21  and  O4_22 
REMARK    6  A    between atoms: C24_33  and  S2_34 
ROOT
HETATM    1  C7  UNL     1     -12.304  -7.075  30.580  1.00  0.00    -0.019 C 
HETATM    2  C8  UNL     1     -11.873  -5.838  31.336  1.00  0.00     0.020 C 
HETATM    3  C9  UNL     1     -12.673  -8.106  31.621  1.00  0.00     0.013 C 
HETATM    4  C10 UNL     1     -11.474  -8.450  32.446  1.00  0.00     0.002 C 
HETATM    5  C11 UNL     1     -10.182  -8.297  31.767  1.00  0.00     0.011 C 
HETATM    6  C12 UNL     1     -10.202  -8.476  30.260  1.00  0.00    -0.020 C 
HETATM    7  C13 UNL     1      -8.866  -7.783  29.870  1.00  0.00     0.017 C 
HETATM    8  C14 UNL     1     -11.243  -7.594  29.632  1.00  0.00     0.036 C 
HETATM    9  C15 UNL     1     -11.930  -8.130  28.425  1.00  0.00     0.124 C 
HETATM   10  C16 UNL     1     -11.037  -9.096  27.632  1.00  0.00     0.039 C 
HETATM   11  C17 UNL     1     -10.858 -10.246  28.559  1.00  0.00     0.022 C 
HETATM   12  C18 UNL     1     -10.349 -11.470  27.885  1.00  0.00     0.018 C 
HETATM   13  C19 UNL     1      -9.261 -11.233  26.883  1.00  0.00     0.023 C 
HETATM   14  C20 UNL     1     -11.509 -12.119  27.110  1.00  0.00     0.023 C 
HETATM   15  C21 UNL     1      -9.956 -12.489  28.908  1.00  0.00     0.135 C 
HETATM   16  O5  UNL     1      -9.464 -13.516  28.459  1.00  0.00    -0.297 OA
HETATM   17  C22 UNL     1     -10.122 -12.323  30.346  1.00  0.00     0.080 C 
HETATM   18  C23 UNL     1     -10.486 -10.937  30.815  1.00  0.00     0.029 C 
HETATM   19  C24 UNL     1     -10.067  -9.866  29.806  1.00  0.00     0.021 C 
ENDROOT
BRANCH   1  20
HETATM   20  C6  UNL     1     -13.576  -6.740  29.894  1.00  0.00    -0.011 C 
HETATM   21  C5  UNL     1     -14.182  -5.571  29.920  1.00  0.00     0.072 C 
BRANCH  21  22
HETATM   22  C4  UNL     1     -15.414  -5.258  29.254  1.00  0.00     0.254 C 
HETATM   23  N1  UNL     1     -16.710  -5.517  29.773  1.00  0.00    -0.247 N 
ATOM     24  H1  UNL     1     -16.791  -5.963  30.686  1.00  0.00     0.182 HD
HETATM   25  O3  UNL     1     -15.364  -4.705  28.107  1.00  0.00    -0.268 OA
BRANCH  23  26
HETATM   26  S1  UNL     1     -18.139  -5.110  28.929  1.00  0.00     0.260 S 
HETATM   27  O1  UNL     1     -18.114  -3.698  28.424  1.00  0.00    -0.200 OA
HETATM   28  O2  UNL     1     -19.360  -5.250  29.795  1.00  0.00    -0.200 OA
BRANCH  26  29
HETATM   29  C2  UNL     1     -18.409  -6.142  27.526  1.00  0.00     0.044 C 
HETATM   30  C1  UNL     1     -19.297  -5.827  26.600  1.00  0.00     0.033 C 
HETATM   31  C3  UNL     1     -17.618  -7.385  27.383  1.00  0.00     0.062 C 
ENDBRANCH  26  29
ENDBRANCH  23  26
ENDBRANCH  21  22
ENDBRANCH   1  20
BRANCH   9  32
HETATM   32  O4  UNL     1     -12.257  -7.146  27.482  1.00  0.00    -0.395 OA
ATOM     33  H4  UNL     1     -12.868  -7.444  26.818  1.00  0.00     0.210 HD
ENDBRANCH   9  32
BRANCH  19  34
HETATM   34  S2  UNL     1      -8.347 -10.324  29.412  1.00  0.00    -0.162 SA
HETATM   35  C25 UNL     1      -7.434 -11.004  30.778  1.00  0.00     0.090 C 
ENDBRANCH  19  34
TORSDOF 6
ENDMDL
MODEL 5
REMARK VINA RESULT: -8.750958502      1.472      1.626
REMARK  6 active torsions:
REMARK  status: ('A' for Active; 'I' for Inactive)
REMARK    1  A    between atoms: C2_2  and  S1_4 
REMARK    2  A    between atoms: S1_4  and  N1_7 
REMARK       I    between atoms: N1_7  and  C4_9 
REMARK    3  A    between atoms: C4_9  and  C5_11 
REMARK    4  A    between atoms: C6_12  and  C7_13 
REMARK    5  A    between atoms: C15_21  and  O4_22 
REMARK    6  A    between atoms: C24_33  and  S2_34 
ROOT
HETATM    1  C7  UNL     1     -11.705  -7.817  30.465  1.00  0.00    -0.019 C 
HETATM    2  C8  UNL     1     -11.144  -6.581  31.132  1.00  0.00     0.020 C 
HETATM    3  C9  UNL     1     -12.165  -8.733  31.576  1.00  0.00     0.013 C 
HETATM    4  C10 UNL     1     -10.999  -9.138  32.419  1.00  0.00     0.002 C 
HETATM    5  C11 UNL     1      -9.705  -9.163  31.727  1.00  0.00     0.011 C 
HETATM    6  C12 UNL     1      -9.757  -9.442  30.236  1.00  0.00    -0.020 C 
HETATM    7  C13 UNL     1      -8.362  -8.915  29.795  1.00  0.00     0.017 C 
HETATM    8  C14 UNL     1     -10.710  -8.504  29.552  1.00  0.00     0.036 C 
HETATM    9  C15 UNL     1     -11.459  -9.050  28.387  1.00  0.00     0.124 C 
HETATM   10  C16 UNL     1     -10.675 -10.153  27.660  1.00  0.00     0.039 C 
HETATM   11  C17 UNL     1     -10.604 -11.249  28.663  1.00  0.00     0.022 C 
HETATM   12  C18 UNL     1     -10.227 -12.562  28.075  1.00  0.00     0.018 C 
HETATM   13  C19 UNL     1      -9.131 -12.504  27.056  1.00  0.00     0.023 C 
HETATM   14  C20 UNL     1     -11.453 -13.142  27.350  1.00  0.00     0.023 C 
HETATM   15  C21 UNL     1      -9.928 -13.542  29.165  1.00  0.00     0.135 C 
HETATM   16  O5  UNL     1      -9.546 -14.642  28.787  1.00  0.00    -0.297 OA
HETATM   17  C22 UNL     1     -10.062 -13.263  30.589  1.00  0.00     0.080 C 
HETATM   18  C23 UNL     1     -10.282 -11.818  30.961  1.00  0.00     0.029 C 
HETATM   19  C24 UNL     1      -9.766 -10.866  29.880  1.00  0.00     0.021 C 
ENDROOT
BRANCH   1  20
HETATM   20  C6  UNL     1     -12.943  -7.404  29.761  1.00  0.00    -0.011 C 
HETATM   21  C5  UNL     1     -13.468  -6.196  29.769  1.00  0.00     0.072 C 
BRANCH  21  22
HETATM   22  C4  UNL     1     -14.669  -5.808  29.086  1.00  0.00     0.254 C 
HETATM   23  N1  UNL     1     -15.964  -6.324  29.354  1.00  0.00    -0.247 N 
ATOM     24  H1  UNL     1     -16.068  -7.030  30.082  1.00  0.00     0.182 HD
HETATM   25  O3  UNL     1     -14.589  -4.932  28.163  1.00  0.00    -0.268 OA
BRANCH  23  26
HETATM   26  S1  UNL     1     -17.356  -5.809  28.507  1.00  0.00     0.260 S 
HETATM   27  O1  UNL     1     -18.452  -6.832  28.548  1.00  0.00    -0.200 OA
HETATM   28  O2  UNL     1     -17.061  -5.531  27.059  1.00  0.00    -0.200 OA
BRANCH  26  29
HETATM   29  C2  UNL     1     -18.031  -4.320  29.166  1.00  0.00     0.044 C 
HETATM   30  C1  UNL     1     -19.085  -4.335  29.962  1.00  0.00     0.033 C 
HETATM   31  C3  UNL     1     -17.398  -3.027  28.822  1.00  0.00     0.062 C 
ENDBRANCH  26  29
ENDBRANCH  23  26
ENDBRANCH  21  22
ENDBRANCH   1  20
BRANCH   9  32
HETATM   32  O4  UNL     1     -11.696  -8.105  27.379  1.00  0.00    -0.395 OA
ATOM     33  H4  UNL     1     -12.483  -8.274  26.876  1.00  0.00     0.210 HD
ENDBRANCH   9  32
BRANCH  19  34
HETATM   34  S2  UNL     1      -8.105 -11.521  29.513  1.00  0.00    -0.162 SA
HETATM   35  C25 UNL     1      -7.140 -11.928  30.950  1.00  0.00     0.090 C 
ENDBRANCH  19  34
TORSDOF 6
ENDMDL
