MODEL 1
REMARK VINA RESULT: -9.840685128      0.000      0.000
REMARK  7 active torsions:
REMARK  status: ('A' for Active; 'I' for Inactive)
REMARK    1  A    between atoms: C2_2  and  C4_4 
REMARK    2  A    between atoms: C4_4  and  N1_6 
REMARK    3  A    between atoms: C4_4  and  N2_10 
REMARK    4  A    between atoms: N2_10  and  C6_12 
REMARK    5  A    between atoms: C7_15  and  C8_16 
REMARK    6  A    between atoms: C8_16  and  O1_17 
REMARK    7  A    between atoms: C8_16  and  N4_19 
REMARK       I    between atoms: N5_22  and  C11_23 
REMARK       I    between atoms: C11_23  and  N6_25 
ROOT
HETATM    1  C6  UNL     1     -11.239 -10.115   7.086  1.00  0.00     0.146 A 
HETATM    2  N3  UNL     1     -12.260  -9.787   6.283  1.00  0.00    -0.333 N 
ATOM      3  H3  UNL     1     -12.103  -9.191   5.470  1.00  0.00     0.168 HD
HETATM    4  C7  UNL     1     -13.446 -10.232   6.545  1.00  0.00     0.092 A 
HETATM    5  C18 UNL     1     -13.562 -11.045   7.681  1.00  0.00     0.087 A 
HETATM    6  S1  UNL     1     -11.966 -11.090   8.262  1.00  0.00    -0.064 SA
ENDROOT
BRANCH   4   7
HETATM    7  C8  UNL     1     -14.672  -9.956   5.770  1.00  0.00     0.166 C 
BRANCH   7   8
HETATM    8  O1  UNL     1     -15.184  -8.755   5.859  1.00  0.00    -0.344 OA
ATOM      9  H1  UNL     1     -16.123  -8.671   5.748  1.00  0.00     0.219 HD
ENDBRANCH   7   8
BRANCH   7  10
HETATM   10  N4  UNL     1     -15.408 -10.781   4.928  1.00  0.00    -0.357 N 
HETATM   11  C9  UNL     1     -16.891 -10.703   4.964  1.00  0.00     0.145 C 
HETATM   12  C10 UNL     1     -17.422 -10.349   3.570  1.00  0.00     0.147 C 
HETATM   13  N5  UNL     1     -16.872 -11.270   2.621  1.00  0.00    -0.331 N 
HETATM   14  C11 UNL     1     -17.026 -11.198   1.232  1.00  0.00     0.320 C 
HETATM   15  C16 UNL     1     -16.077 -12.375   3.207  1.00  0.00     0.147 C 
HETATM   16  O2  UNL     1     -16.434 -12.147   0.575  1.00  0.00    -0.247 OA
HETATM   17  N6  UNL     1     -17.709 -10.272   0.446  1.00  0.00    -0.331 N 
HETATM   18  C12 UNL     1     -18.479  -9.119   0.788  1.00  0.00     0.130 C 
HETATM   19  C15 UNL     1     -17.746 -10.326  -1.039  1.00  0.00     0.164 C 
HETATM   20  C13 UNL     1     -19.667  -9.237  -0.184  1.00  0.00     0.058 C 
HETATM   21  C14 UNL     1     -18.968  -9.587  -1.469  1.00  0.00     0.189 C 
HETATM   22  F1  UNL     1     -19.789 -10.366  -2.275  1.00  0.00    -0.248 F 
HETATM   23  C17 UNL     1     -14.901 -11.738   3.990  1.00  0.00     0.145 C 
ENDBRANCH   7  10
ENDBRANCH   4   7
BRANCH   1  24
HETATM   24  N2  UNL     1      -9.996  -9.743   6.953  1.00  0.00    -0.338 N 
ATOM     25  H2  UNL     1      -9.802  -8.742   6.922  1.00  0.00     0.164 HD
BRANCH  24  26
HETATM   26  C4  UNL     1      -8.888 -10.638   6.848  1.00  0.00     0.196 C 
HETATM   27  C5  UNL     1      -8.539 -11.387   8.104  1.00  0.00     0.071 C 
BRANCH  26  28
HETATM   28  C2  UNL     1      -7.649  -9.897   6.363  1.00  0.00     0.033 C 
HETATM   29  C1  UNL     1      -7.148 -10.470   5.057  1.00  0.00     0.014 C 
HETATM   30  C3  UNL     1      -6.521  -9.953   7.358  1.00  0.00     0.014 C 
ENDBRANCH  26  28
BRANCH  26  31
HETATM   31  N1  UNL     1      -9.244 -11.653   5.842  1.00  0.00    -0.053 N 
ATOM     32  H13 UNL     1      -8.838 -11.457   4.927  1.00  0.00     0.277 HD
ATOM     33  H12 UNL     1      -8.786 -12.549   6.009  1.00  0.00     0.277 HD
ATOM     34  H11 UNL     1     -10.261 -11.731   5.812  1.00  0.00     0.277 HD
ENDBRANCH  26  31
ENDBRANCH  24  26
ENDBRANCH   1  24
TORSDOF 7
ENDMDL
MODEL 2
REMARK VINA RESULT: -9.391335618      0.700      1.007
REMARK  7 active torsions:
REMARK  status: ('A' for Active; 'I' for Inactive)
REMARK    1  A    between atoms: C2_2  and  C4_4 
REMARK    2  A    between atoms: C4_4  and  N1_6 
REMARK    3  A    between atoms: C4_4  and  N2_10 
REMARK    4  A    between atoms: N2_10  and  C6_12 
REMARK    5  A    between atoms: C7_15  and  C8_16 
REMARK    6  A    between atoms: C8_16  and  O1_17 
REMARK    7  A    between atoms: C8_16  and  N4_19 
REMARK       I    between atoms: N5_22  and  C11_23 
REMARK       I    between atoms: C11_23  and  N6_25 
ROOT
HETATM    1  C6  UNL     1     -11.186  -9.928   6.971  1.00  0.00     0.146 A 
HETATM    2  N3  UNL     1     -12.262  -9.633   6.229  1.00  0.00    -0.333 N 
ATOM      3  H3  UNL     1     -12.178  -9.003   5.432  1.00  0.00     0.168 HD
HETATM    4  C7  UNL     1     -13.407 -10.153   6.531  1.00  0.00     0.092 A 
HETATM    5  C18 UNL     1     -13.422 -11.009   7.642  1.00  0.00     0.087 A 
HETATM    6  S1  UNL     1     -11.799 -10.982   8.144  1.00  0.00    -0.064 SA
ENDROOT
BRANCH   4   7
HETATM    7  C8  UNL     1     -14.684  -9.923   5.825  1.00  0.00     0.166 C 
BRANCH   7   8
HETATM    8  O1  UNL     1     -15.264  -8.762   5.994  1.00  0.00    -0.344 OA
ATOM      9  H1  UNL     1     -15.414  -8.475   6.887  1.00  0.00     0.219 HD
ENDBRANCH   7   8
BRANCH   7  10
HETATM   10  N4  UNL     1     -15.405 -10.756   4.979  1.00  0.00    -0.357 N 
HETATM   11  C9  UNL     1     -16.890 -10.709   5.022  1.00  0.00     0.145 C 
HETATM   12  C10 UNL     1     -17.434 -10.353   3.633  1.00  0.00     0.147 C 
HETATM   13  N5  UNL     1     -16.869 -11.254   2.673  1.00  0.00    -0.331 N 
HETATM   14  C11 UNL     1     -17.030 -11.173   1.286  1.00  0.00     0.320 C 
HETATM   15  C16 UNL     1     -16.049 -12.347   3.247  1.00  0.00     0.147 C 
HETATM   16  O2  UNL     1     -16.422 -12.103   0.618  1.00  0.00    -0.247 OA
HETATM   17  N6  UNL     1     -17.736 -10.254   0.511  1.00  0.00    -0.331 N 
HETATM   18  C12 UNL     1     -18.528  -9.120   0.867  1.00  0.00     0.130 C 
HETATM   19  C15 UNL     1     -17.777 -10.296  -0.974  1.00  0.00     0.164 C 
HETATM   20  C13 UNL     1     -19.717  -9.255  -0.102  1.00  0.00     0.058 C 
HETATM   21  C14 UNL     1     -19.016  -9.578  -1.392  1.00  0.00     0.189 C 
HETATM   22  F1  UNL     1     -19.824 -10.367  -2.202  1.00  0.00    -0.248 F 
HETATM   23  C17 UNL     1     -14.883 -11.693   4.030  1.00  0.00     0.145 C 
ENDBRANCH   7  10
ENDBRANCH   4   7
BRANCH   1  24
HETATM   24  N2  UNL     1      -9.974  -9.481   6.793  1.00  0.00    -0.338 N 
ATOM     25  H2  UNL     1      -9.837  -8.470   6.791  1.00  0.00     0.164 HD
BRANCH  24  26
HETATM   26  C4  UNL     1      -8.825 -10.307   6.601  1.00  0.00     0.196 C 
HETATM   27  C5  UNL     1      -9.100 -11.691   6.082  1.00  0.00     0.071 C 
BRANCH  26  28
HETATM   28  C2  UNL     1      -8.028 -10.422   7.895  1.00  0.00     0.033 C 
HETATM   29  C1  UNL     1      -6.542 -10.375   7.625  1.00  0.00     0.014 C 
HETATM   30  C3  UNL     1      -8.326 -11.695   8.640  1.00  0.00     0.014 C 
ENDBRANCH  26  28
BRANCH  26  31
HETATM   31  N1  UNL     1      -7.978  -9.645   5.594  1.00  0.00    -0.053 N 
ATOM     32  H13 UNL     1      -8.381  -8.770   5.257  1.00  0.00     0.277 HD
ATOM     33  H12 UNL     1      -7.122  -9.259   5.993  1.00  0.00     0.277 HD
ATOM     34  H11 UNL     1      -7.797 -10.309   4.842  1.00  0.00     0.277 HD
ENDBRANCH  26  31
ENDBRANCH  24  26
ENDBRANCH   1  24
TORSDOF 7
ENDMDL
MODEL 3
REMARK VINA RESULT: -9.151731055      2.798      3.732
REMARK  7 active torsions:
REMARK  status: ('A' for Active; 'I' for Inactive)
REMARK    1  A    between atoms: C2_2  and  C4_4 
REMARK    2  A    between atoms: C4_4  and  N1_6 
REMARK    3  A    between atoms: C4_4  and  N2_10 
REMARK    4  A    between atoms: N2_10  and  C6_12 
REMARK    5  A    between atoms: C7_15  and  C8_16 
REMARK    6  A    between atoms: C8_16  and  O1_17 
REMARK    7  A    between atoms: C8_16  and  N4_19 
REMARK       I    between atoms: N5_22  and  C11_23 
REMARK       I    between atoms: C11_23  and  N6_25 
ROOT
HETATM    1  C6  UNL     1     -14.192 -10.188   8.015  1.00  0.00     0.146 A 
HETATM    2  N3  UNL     1     -15.160  -9.274   8.166  1.00  0.00    -0.333 N 
ATOM      3  H3  UNL     1     -15.176  -8.675   8.991  1.00  0.00     0.168 HD
HETATM    4  C7  UNL     1     -16.074  -9.156   7.258  1.00  0.00     0.092 A 
HETATM    5  C18 UNL     1     -15.966 -10.022   6.160  1.00  0.00     0.087 A 
HETATM    6  S1  UNL     1     -14.573 -10.917   6.537  1.00  0.00    -0.064 SA
ENDROOT
BRANCH   4   7
HETATM    7  C8  UNL     1     -17.208  -8.212   7.278  1.00  0.00     0.166 C 
BRANCH   7   8
HETATM    8  O1  UNL     1     -17.330  -7.440   8.329  1.00  0.00    -0.344 OA
ATOM      9  H1  UNL     1     -17.325  -7.859   9.181  1.00  0.00     0.219 HD
ENDBRANCH   7   8
BRANCH   7  10
HETATM   10  N4  UNL     1     -18.209  -7.988   6.341  1.00  0.00    -0.357 N 
HETATM   11  C9  UNL     1     -18.013  -6.924   5.323  1.00  0.00     0.145 C 
HETATM   12  C10 UNL     1     -18.104  -7.531   3.918  1.00  0.00     0.147 C 
HETATM   13  N5  UNL     1     -19.326  -8.271   3.815  1.00  0.00    -0.331 N 
HETATM   14  C11 UNL     1     -19.709  -9.067   2.730  1.00  0.00     0.320 C 
HETATM   15  C16 UNL     1     -20.229  -8.156   4.985  1.00  0.00     0.147 C 
HETATM   16  O2  UNL     1     -20.863  -9.643   2.864  1.00  0.00    -0.247 OA
HETATM   17  N6  UNL     1     -19.048  -9.339   1.533  1.00  0.00    -0.331 N 
HETATM   18  C12 UNL     1     -17.793  -8.894   1.017  1.00  0.00     0.130 C 
HETATM   19  C15 UNL     1     -19.590 -10.245   0.486  1.00  0.00     0.164 C 
HETATM   20  C13 UNL     1     -18.139  -8.628  -0.460  1.00  0.00     0.058 C 
HETATM   21  C14 UNL     1     -18.946  -9.850  -0.801  1.00  0.00     0.189 C 
HETATM   22  F1  UNL     1     -19.886  -9.556  -1.781  1.00  0.00    -0.248 F 
HETATM   23  C17 UNL     1     -19.457  -8.680   6.222  1.00  0.00     0.145 C 
ENDBRANCH   7  10
ENDBRANCH   4   7
BRANCH   1  24
HETATM   24  N2  UNL     1     -13.211 -10.424   8.842  1.00  0.00    -0.338 N 
ATOM     25  H2  UNL     1     -13.412 -10.991   9.666  1.00  0.00     0.164 HD
BRANCH  24  26
HETATM   26  C4  UNL     1     -11.877  -9.946   8.675  1.00  0.00     0.196 C 
HETATM   27  C5  UNL     1     -11.736  -8.686   7.867  1.00  0.00     0.071 C 
BRANCH  26  28
HETATM   28  C2  UNL     1     -10.998 -11.024   8.052  1.00  0.00     0.033 C 
HETATM   29  C1  UNL     1      -9.698 -11.171   8.810  1.00  0.00     0.014 C 
HETATM   30  C3  UNL     1     -10.666 -10.732   6.613  1.00  0.00     0.014 C 
ENDBRANCH  26  28
BRANCH  26  31
HETATM   31  N1  UNL     1     -11.354  -9.641  10.018  1.00  0.00    -0.053 N 
ATOM     32  H13 UNL     1     -11.965  -9.977  10.762  1.00  0.00     0.277 HD
ATOM     33  H12 UNL     1     -10.531 -10.196  10.254  1.00  0.00     0.277 HD
ATOM     34  H11 UNL     1     -11.181  -8.638  10.074  1.00  0.00     0.277 HD
ENDBRANCH  26  31
ENDBRANCH  24  26
ENDBRANCH   1  24
TORSDOF 7
ENDMDL
MODEL 4
REMARK VINA RESULT: -9.134511610      4.082      9.661
REMARK  7 active torsions:
REMARK  status: ('A' for Active; 'I' for Inactive)
REMARK    1  A    between atoms: C2_2  and  C4_4 
REMARK    2  A    between atoms: C4_4  and  N1_6 
REMARK    3  A    between atoms: C4_4  and  N2_10 
REMARK    4  A    between atoms: N2_10  and  C6_12 
REMARK    5  A    between atoms: C7_15  and  C8_16 
REMARK    6  A    between atoms: C8_16  and  O1_17 
REMARK    7  A    between atoms: C8_16  and  N4_19 
REMARK       I    between atoms: N5_22  and  C11_23 
REMARK       I    between atoms: C11_23  and  N6_25 
ROOT
HETATM    1  C6  UNL     1     -19.309  -8.640   2.604  1.00  0.00     0.146 A 
HETATM    2  N3  UNL     1     -18.120  -8.505   3.205  1.00  0.00    -0.333 N 
ATOM      3  H3  UNL     1     -17.280  -8.343   2.651  1.00  0.00     0.168 HD
HETATM    4  C7  UNL     1     -18.044  -8.581   4.494  1.00  0.00     0.092 A 
HETATM    5  C18 UNL     1     -19.253  -8.803   5.170  1.00  0.00     0.087 A 
HETATM    6  S1  UNL     1     -20.374  -8.882   3.896  1.00  0.00    -0.064 SA
ENDROOT
BRANCH   4   7
HETATM    7  C8  UNL     1     -16.816  -8.465   5.305  1.00  0.00     0.166 C 
BRANCH   7   8
HETATM    8  O1  UNL     1     -16.236  -7.293   5.355  1.00  0.00    -0.344 OA
ATOM      9  H1  UNL     1     -16.009  -6.954   6.213  1.00  0.00     0.219 HD
ENDBRANCH   7   8
BRANCH   7  10
HETATM   10  N4  UNL     1     -16.141  -9.420   6.055  1.00  0.00    -0.357 N 
HETATM   11  C9  UNL     1     -15.515 -10.571   5.355  1.00  0.00     0.145 C 
HETATM   12  C10 UNL     1     -14.012 -10.603   5.656  1.00  0.00     0.147 C 
HETATM   13  N5  UNL     1     -13.828 -10.567   7.076  1.00  0.00    -0.331 N 
HETATM   14  C11 UNL     1     -12.599 -10.460   7.736  1.00  0.00     0.320 C 
HETATM   15  C16 UNL     1     -15.075 -10.648   7.873  1.00  0.00     0.147 C 
HETATM   16  O2  UNL     1     -12.681 -10.445   9.030  1.00  0.00    -0.247 OA
HETATM   17  N6  UNL     1     -11.305 -10.365   7.226  1.00  0.00    -0.331 N 
HETATM   18  C12 UNL     1     -10.810 -10.362   5.886  1.00  0.00     0.130 C 
HETATM   19  C15 UNL     1     -10.096 -10.224   8.079  1.00  0.00     0.164 C 
HETATM   20  C13 UNL     1      -9.560 -11.253   6.014  1.00  0.00     0.058 C 
HETATM   21  C14 UNL     1      -8.941 -10.719   7.275  1.00  0.00     0.189 C 
HETATM   22  F1  UNL     1      -8.241 -11.721   7.937  1.00  0.00    -0.248 F 
HETATM   23  C17 UNL     1     -15.960  -9.440   7.476  1.00  0.00     0.145 C 
ENDBRANCH   7  10
ENDBRANCH   4   7
BRANCH   1  24
HETATM   24  N2  UNL     1     -19.541  -8.590   1.321  1.00  0.00    -0.338 N 
ATOM     25  H2  UNL     1     -19.785  -7.685   0.919  1.00  0.00     0.164 HD
BRANCH  24  26
HETATM   26  C4  UNL     1     -19.478  -9.712   0.441  1.00  0.00     0.196 C 
HETATM   27  C5  UNL     1     -19.170 -11.032   1.093  1.00  0.00     0.071 C 
BRANCH  26  28
HETATM   28  C2  UNL     1     -18.457  -9.467  -0.664  1.00  0.00     0.033 C 
HETATM   29  C1  UNL     1     -17.944  -8.045  -0.624  1.00  0.00     0.014 C 
HETATM   30  C3  UNL     1     -19.025  -9.718  -2.035  1.00  0.00     0.014 C 
ENDBRANCH  26  28
BRANCH  26  31
HETATM   31  N1  UNL     1     -20.806  -9.853  -0.179  1.00  0.00    -0.053 N 
ATOM     32  H13 UNL     1     -21.062  -9.044  -0.747  1.00  0.00     0.277 HD
ATOM     33  H12 UNL     1     -20.821 -10.553  -0.921  1.00  0.00     0.277 HD
ATOM     34  H11 UNL     1     -21.484 -10.046   0.557  1.00  0.00     0.277 HD
ENDBRANCH  26  31
ENDBRANCH  24  26
ENDBRANCH   1  24
TORSDOF 7
ENDMDL
MODEL 5
REMARK VINA RESULT: -9.079296390      4.216      9.479
REMARK  7 active torsions:
REMARK  status: ('A' for Active; 'I' for Inactive)
REMARK    1  A    between atoms: C2_2  and  C4_4 
REMARK    2  A    between atoms: C4_4  and  N1_6 
REMARK    3  A    between atoms: C4_4  and  N2_10 
REMARK    4  A    between atoms: N2_10  and  C6_12 
REMARK    5  A    between atoms: C7_15  and  C8_16 
REMARK    6  A    between atoms: C8_16  and  O1_17 
REMARK    7  A    between atoms: C8_16  and  N4_19 
REMARK       I    between atoms: N5_22  and  C11_23 
REMARK       I    between atoms: C11_23  and  N6_25 
ROOT
HETATM    1  C6  UNL     1     -18.676  -7.487   2.898  1.00  0.00     0.146 A 
HETATM    2  N3  UNL     1     -17.656  -7.447   3.766  1.00  0.00    -0.333 N 
ATOM      3  H3  UNL     1     -16.721  -7.194   3.447  1.00  0.00     0.168 HD
HETATM    4  C7  UNL     1     -17.865  -7.731   5.010  1.00  0.00     0.092 A 
HETATM    5  C18 UNL     1     -19.183  -8.065   5.352  1.00  0.00     0.087 A 
HETATM    6  S1  UNL     1     -19.990  -7.940   3.862  1.00  0.00    -0.064 SA
ENDROOT
BRANCH   4   7
HETATM    7  C8  UNL     1     -16.853  -7.744   6.085  1.00  0.00     0.166 C 
BRANCH   7   8
HETATM    8  O1  UNL     1     -16.480  -6.589   6.574  1.00  0.00    -0.344 OA
ATOM      9  H1  UNL     1     -15.669  -6.218   6.247  1.00  0.00     0.219 HD
ENDBRANCH   7   8
BRANCH   7  10
HETATM   10  N4  UNL     1     -16.201  -8.810   6.692  1.00  0.00    -0.357 N 
HETATM   11  C9  UNL     1     -15.717  -9.931   5.847  1.00  0.00     0.145 C 
HETATM   12  C10 UNL     1     -14.203 -10.097   6.026  1.00  0.00     0.147 C 
HETATM   13  N5  UNL     1     -13.916 -10.206   7.426  1.00  0.00    -0.331 N 
HETATM   14  C11 UNL     1     -12.639 -10.247   7.994  1.00  0.00     0.320 C 
HETATM   15  C16 UNL     1     -15.106 -10.274   8.307  1.00  0.00     0.147 C 
HETATM   16  O2  UNL     1     -12.628 -10.348   9.287  1.00  0.00    -0.247 OA
HETATM   17  N6  UNL     1     -11.381 -10.196   7.395  1.00  0.00    -0.331 N 
HETATM   18  C12 UNL     1     -10.983 -10.101   6.026  1.00  0.00     0.130 C 
HETATM   19  C15 UNL     1     -10.107 -10.220   8.160  1.00  0.00     0.164 C 
HETATM   20  C13 UNL     1      -9.800 -11.086   5.977  1.00  0.00     0.058 C 
HETATM   21  C14 UNL     1      -9.053 -10.716   7.229  1.00  0.00     0.189 C 
HETATM   22  F1  UNL     1      -8.387 -11.822   7.743  1.00  0.00    -0.248 F 
HETATM   23  C17 UNL     1     -15.922  -8.976   8.088  1.00  0.00     0.145 C 
ENDBRANCH   7  10
ENDBRANCH   4   7
BRANCH   1  24
HETATM   24  N2  UNL     1     -18.619  -7.230   1.620  1.00  0.00    -0.338 N 
ATOM     25  H2  UNL     1     -18.978  -6.329   1.302  1.00  0.00     0.164 HD
BRANCH  24  26
HETATM   26  C4  UNL     1     -18.092  -8.120   0.636  1.00  0.00     0.196 C 
HETATM   27  C5  UNL     1     -17.235  -7.483  -0.422  1.00  0.00     0.071 C 
BRANCH  26  28
HETATM   28  C2  UNL     1     -19.218  -8.887  -0.047  1.00  0.00     0.033 C 
HETATM   29  C1  UNL     1     -19.584 -10.127   0.736  1.00  0.00     0.014 C 
HETATM   30  C3  UNL     1     -18.857  -9.310  -1.445  1.00  0.00     0.014 C 
ENDBRANCH  26  28
BRANCH  26  31
HETATM   31  N1  UNL     1     -17.234  -9.087   1.341  1.00  0.00    -0.053 N 
ATOM     32  H13 UNL     1     -16.911  -9.840   0.734  1.00  0.00     0.277 HD
ATOM     33  H12 UNL     1     -16.321  -8.701   1.581  1.00  0.00     0.277 HD
ATOM     34  H11 UNL     1     -17.742  -9.431   2.156  1.00  0.00     0.277 HD
ENDBRANCH  26  31
ENDBRANCH  24  26
ENDBRANCH   1  24
TORSDOF 7
ENDMDL
