MODEL 1
REMARK VINA RESULT: -7.947373412      0.000      0.000
REMARK  6 active torsions:
REMARK  status: ('A' for Active; 'I' for Inactive)
REMARK    1  A    between atoms: C2_2  and  C3_3 
REMARK    2  A    between atoms: C3_3  and  N1_4 
REMARK    3  A    between atoms: N3_15  and  N4_17 
REMARK    4  A    between atoms: N4_17  and  C12_19 
REMARK    5  A    between atoms: C12_19  and  N5_21 
REMARK    6  A    between atoms: N5_21  and  C13_23 
ROOT
HETATM    1  C1  UNL     1     -21.856  -2.333  22.254  1.00  0.00     0.066 C 
HETATM    2  C2  UNL     1     -22.718  -3.420  21.648  1.00  0.00     0.028 C 
HETATM    3  N3  UNL     1     -22.525  -4.586  22.114  1.00  0.00    -0.305 N 
ATOM      4  H3  UNL     1     -21.814  -4.659  22.841  1.00  0.00     0.186 HD
ENDROOT
BRANCH   2   5
HETATM    5  C3  UNL     1     -23.632  -3.035  20.577  1.00  0.00     0.328 C 
BRANCH   5   6
HETATM    6  N1  UNL     1     -23.397  -3.609  19.286  1.00  0.00     0.115 N 
HETATM    7  C4  UNL     1     -22.645  -2.614  18.534  1.00  0.00     0.302 C 
HETATM    8  C5  UNL     1     -23.150  -2.339  17.169  1.00  0.00     0.268 C 
HETATM    9  N2  UNL     1     -24.546  -1.982  17.117  1.00  0.00    -0.062 N 
HETATM   10  C6  UNL     1     -25.053  -2.412  15.828  1.00  0.00     0.237 C 
HETATM   11  C9  UNL     1     -24.768  -0.558  17.221  1.00  0.00     0.237 C 
HETATM   12  C10 UNL     1     -25.322  -2.654  18.139  1.00  0.00     0.289 C 
HETATM   13  C7  UNL     1     -25.030  -1.197  14.921  1.00  0.00     0.029 C 
HETATM   14  C8  UNL     1     -24.970  -0.005  15.851  1.00  0.00     0.029 C 
HETATM   15  C11 UNL     1     -24.613  -3.911  18.544  1.00  0.00     0.344 C 
HETATM   16 CL1  UNL     1     -25.746  -4.920  19.416  1.00  0.00    -0.090 Cl
ENDBRANCH   5   6
ENDBRANCH   2   5
BRANCH   3  17
HETATM   17  N4  UNL     1     -23.151  -5.771  21.769  1.00  0.00    -0.276 N 
ATOM     18  H4  UNL     1     -22.879  -6.262  20.918  1.00  0.00     0.189 HD
BRANCH  17  19
HETATM   19  C12 UNL     1     -24.170  -6.300  22.599  1.00  0.00     0.187 C 
HETATM   20  S1  UNL     1     -25.205  -5.238  23.317  1.00  0.00    -0.040 SA
BRANCH  19  21
HETATM   21  N5  UNL     1     -24.290  -7.693  22.788  1.00  0.00    -0.358 N 
ATOM     22  H5  UNL     1     -23.540  -8.150  23.306  1.00  0.00     0.162 HD
BRANCH  21  23
HETATM   23  C13 UNL     1     -25.354  -8.529  22.327  1.00  0.00     0.021 C 
HETATM   24  C14 UNL     1     -26.207  -7.928  21.244  1.00  0.00     0.037 C 
HETATM   25  C15 UNL     1     -26.273  -8.897  23.483  1.00  0.00     0.037 C 
HETATM   26  C16 UNL     1     -24.745  -9.806  21.747  1.00  0.00     0.037 C 
ENDBRANCH  21  23
ENDBRANCH  19  21
ENDBRANCH  17  19
ENDBRANCH   3  17
TORSDOF 6
ENDMDL
MODEL 2
REMARK VINA RESULT: -7.925310632      1.239      1.390
REMARK  6 active torsions:
REMARK  status: ('A' for Active; 'I' for Inactive)
REMARK    1  A    between atoms: C2_2  and  C3_3 
REMARK    2  A    between atoms: C3_3  and  N1_4 
REMARK    3  A    between atoms: N3_15  and  N4_17 
REMARK    4  A    between atoms: N4_17  and  C12_19 
REMARK    5  A    between atoms: C12_19  and  N5_21 
REMARK    6  A    between atoms: N5_21  and  C13_23 
ROOT
HETATM    1  C1  UNL     1     -22.650  -1.384  20.545  1.00  0.00     0.066 C 
HETATM    2  C2  UNL     1     -23.317  -2.723  20.318  1.00  0.00     0.028 C 
HETATM    3  N3  UNL     1     -22.872  -3.677  21.030  1.00  0.00    -0.305 N 
ATOM      4  H3  UNL     1     -22.116  -3.433  21.671  1.00  0.00     0.186 HD
ENDROOT
BRANCH   2   5
HETATM    5  C3  UNL     1     -24.353  -2.794  19.292  1.00  0.00     0.328 C 
BRANCH   5   6
HETATM    6  N1  UNL     1     -24.009  -3.455  18.068  1.00  0.00     0.115 N 
HETATM    7  C4  UNL     1     -23.327  -2.461  17.252  1.00  0.00     0.302 C 
HETATM    8  C5  UNL     1     -23.799  -2.361  15.852  1.00  0.00     0.268 C 
HETATM    9  N2  UNL     1     -25.220  -2.153  15.721  1.00  0.00    -0.062 N 
HETATM   10  C6  UNL     1     -25.629  -2.745  14.462  1.00  0.00     0.237 C 
HETATM   11  C9  UNL     1     -25.583  -0.754  15.684  1.00  0.00     0.237 C 
HETATM   12  C10 UNL     1     -25.969  -2.805  16.775  1.00  0.00     0.289 C 
HETATM   13  C7  UNL     1     -25.685  -1.620  13.447  1.00  0.00     0.029 C 
HETATM   14  C8  UNL     1     -25.781  -0.349  14.263  1.00  0.00     0.029 C 
HETATM   15  C11 UNL     1     -25.159  -3.942  17.319  1.00  0.00     0.344 C 
HETATM   16 CL1  UNL     1     -26.224  -4.978  18.244  1.00  0.00    -0.090 Cl
ENDBRANCH   5   6
ENDBRANCH   2   5
BRANCH   3  17
HETATM   17  N4  UNL     1     -23.273  -5.000  21.054  1.00  0.00    -0.276 N 
ATOM     18  H4  UNL     1     -23.247  -5.557  20.200  1.00  0.00     0.189 HD
BRANCH  17  19
HETATM   19  C12 UNL     1     -23.721  -5.582  22.265  1.00  0.00     0.187 C 
HETATM   20  S1  UNL     1     -24.186  -4.568  23.478  1.00  0.00    -0.040 SA
BRANCH  19  21
HETATM   21  N5  UNL     1     -23.771  -6.984  22.412  1.00  0.00    -0.358 N 
ATOM     22  H5  UNL     1     -22.900  -7.449  22.667  1.00  0.00     0.162 HD
BRANCH  21  23
HETATM   23  C13 UNL     1     -24.918  -7.820  22.240  1.00  0.00     0.021 C 
HETATM   24  C14 UNL     1     -25.977  -7.261  21.329  1.00  0.00     0.037 C 
HETATM   25  C15 UNL     1     -25.572  -8.103  23.585  1.00  0.00     0.037 C 
HETATM   26  C16 UNL     1     -24.461  -9.141  21.620  1.00  0.00     0.037 C 
ENDBRANCH  21  23
ENDBRANCH  19  21
ENDBRANCH  17  19
ENDBRANCH   3  17
TORSDOF 6
ENDMDL
MODEL 3
REMARK VINA RESULT: -7.895614576      2.334      3.540
REMARK  6 active torsions:
REMARK  status: ('A' for Active; 'I' for Inactive)
REMARK    1  A    between atoms: C2_2  and  C3_3 
REMARK    2  A    between atoms: C3_3  and  N1_4 
REMARK    3  A    between atoms: N3_15  and  N4_17 
REMARK    4  A    between atoms: N4_17  and  C12_19 
REMARK    5  A    between atoms: C12_19  and  N5_21 
REMARK    6  A    between atoms: N5_21  and  C13_23 
ROOT
HETATM    1  C1  UNL     1     -28.925  -4.998  19.565  1.00  0.00     0.066 C 
HETATM    2  C2  UNL     1     -27.452  -4.651  19.525  1.00  0.00     0.028 C 
HETATM    3  N3  UNL     1     -26.879  -4.595  20.658  1.00  0.00    -0.305 N 
ATOM      4  H3  UNL     1     -27.474  -4.788  21.464  1.00  0.00     0.186 HD
ENDROOT
BRANCH   2   5
HETATM    5  C3  UNL     1     -26.861  -4.375  18.220  1.00  0.00     0.328 C 
BRANCH   5   6
HETATM    6  N1  UNL     1     -26.445  -3.028  17.967  1.00  0.00     0.115 N 
HETATM    7  C4  UNL     1     -27.486  -2.434  17.140  1.00  0.00     0.302 C 
HETATM    8  C5  UNL     1     -27.004  -1.704  15.945  1.00  0.00     0.268 C 
HETATM    9  N2  UNL     1     -26.137  -2.477  15.091  1.00  0.00    -0.062 N 
HETATM   10  C6  UNL     1     -25.239  -1.548  14.434  1.00  0.00     0.237 C 
HETATM   11  C9  UNL     1     -26.854  -3.194  14.061  1.00  0.00     0.237 C 
HETATM   12  C10 UNL     1     -25.326  -3.416  15.838  1.00  0.00     0.289 C 
HETATM   13  C7  UNL     1     -25.824  -1.268  13.063  1.00  0.00     0.029 C 
HETATM   14  C8  UNL     1     -26.774  -2.415  12.792  1.00  0.00     0.029 C 
HETATM   15  C11 UNL     1     -25.183  -2.925  17.247  1.00  0.00     0.344 C 
HETATM   16 CL1  UNL     1     -23.863  -3.796  17.997  1.00  0.00    -0.090 Cl
ENDBRANCH   5   6
ENDBRANCH   2   5
BRANCH   3  17
HETATM   17  N4  UNL     1     -25.557  -4.307  20.946  1.00  0.00    -0.276 N 
ATOM     18  H4  UNL     1     -25.199  -3.362  20.808  1.00  0.00     0.189 HD
BRANCH  17  19
HETATM   19  C12 UNL     1     -24.701  -5.326  21.432  1.00  0.00     0.187 C 
HETATM   20  S1  UNL     1     -23.480  -4.883  22.446  1.00  0.00    -0.040 SA
BRANCH  19  21
HETATM   21  N5  UNL     1     -24.904  -6.671  21.060  1.00  0.00    -0.358 N 
ATOM     22  H5  UNL     1     -24.856  -6.883  20.064  1.00  0.00     0.162 HD
BRANCH  21  23
HETATM   23  C13 UNL     1     -25.171  -7.769  21.937  1.00  0.00     0.021 C 
HETATM   24  C14 UNL     1     -25.991  -7.424  23.150  1.00  0.00     0.037 C 
HETATM   25  C15 UNL     1     -23.866  -8.383  22.425  1.00  0.00     0.037 C 
HETATM   26  C16 UNL     1     -25.959  -8.824  21.160  1.00  0.00     0.037 C 
ENDBRANCH  21  23
ENDBRANCH  19  21
ENDBRANCH  17  19
ENDBRANCH   3  17
TORSDOF 6
ENDMDL
MODEL 4
REMARK VINA RESULT: -7.878974649      1.285      1.683
REMARK  6 active torsions:
REMARK  status: ('A' for Active; 'I' for Inactive)
REMARK    1  A    between atoms: C2_2  and  C3_3 
REMARK    2  A    between atoms: C3_3  and  N1_4 
REMARK    3  A    between atoms: N3_15  and  N4_17 
REMARK    4  A    between atoms: N4_17  and  C12_19 
REMARK    5  A    between atoms: C12_19  and  N5_21 
REMARK    6  A    between atoms: N5_21  and  C13_23 
ROOT
HETATM    1  C1  UNL     1     -22.321  -2.697  20.754  1.00  0.00     0.066 C 
HETATM    2  C2  UNL     1     -23.471  -3.583  20.324  1.00  0.00     0.028 C 
HETATM    3  N3  UNL     1     -23.576  -4.679  20.958  1.00  0.00    -0.305 N 
ATOM      4  H3  UNL     1     -22.875  -4.839  21.681  1.00  0.00     0.186 HD
ENDROOT
BRANCH   2   5
HETATM    5  C3  UNL     1     -24.300  -3.119  19.216  1.00  0.00     0.328 C 
BRANCH   5   6
HETATM    6  N1  UNL     1     -24.085  -3.737  17.942  1.00  0.00     0.115 N 
HETATM    7  C4  UNL     1     -23.338  -2.773  17.147  1.00  0.00     0.302 C 
HETATM    8  C5  UNL     1     -23.861  -2.541  15.780  1.00  0.00     0.268 C 
HETATM    9  N2  UNL     1     -25.256  -2.179  15.735  1.00  0.00    -0.062 N 
HETATM   10  C6  UNL     1     -25.783  -2.649  14.469  1.00  0.00     0.237 C 
HETATM   11  C9  UNL     1     -25.469  -0.750  15.793  1.00  0.00     0.237 C 
HETATM   12  C10 UNL     1     -26.021  -2.811  16.789  1.00  0.00     0.289 C 
HETATM   13  C7  UNL     1     -25.765  -1.466  13.520  1.00  0.00     0.029 C 
HETATM   14  C8  UNL     1     -25.686  -0.242  14.408  1.00  0.00     0.029 C 
HETATM   15  C11 UNL     1     -25.313  -4.057  17.227  1.00  0.00     0.344 C 
HETATM   16 CL1  UNL     1     -26.440  -5.029  18.148  1.00  0.00    -0.090 Cl
ENDBRANCH   5   6
ENDBRANCH   2   5
BRANCH   3  17
HETATM   17  N4  UNL     1     -24.512  -5.685  20.799  1.00  0.00    -0.276 N 
ATOM     18  H4  UNL     1     -24.633  -6.130  19.889  1.00  0.00     0.189 HD
BRANCH  17  19
HETATM   19  C12 UNL     1     -25.303  -6.096  21.900  1.00  0.00     0.187 C 
HETATM   20  S1  UNL     1     -25.270  -5.164  23.259  1.00  0.00    -0.040 SA
BRANCH  19  21
HETATM   21  N5  UNL     1     -26.094  -7.260  21.819  1.00  0.00    -0.358 N 
ATOM     22  H5  UNL     1     -27.009  -7.162  21.379  1.00  0.00     0.162 HD
BRANCH  21  23
HETATM   23  C13 UNL     1     -25.747  -8.564  22.293  1.00  0.00     0.021 C 
HETATM   24  C14 UNL     1     -24.324  -8.709  22.759  1.00  0.00     0.037 C 
HETATM   25  C15 UNL     1     -25.980  -9.600  21.202  1.00  0.00     0.037 C 
HETATM   26  C16 UNL     1     -26.636  -8.893  23.492  1.00  0.00     0.037 C 
ENDBRANCH  21  23
ENDBRANCH  19  21
ENDBRANCH  17  19
ENDBRANCH   3  17
TORSDOF 6
ENDMDL
MODEL 5
REMARK VINA RESULT: -7.853014133      1.508      1.936
REMARK  6 active torsions:
REMARK  status: ('A' for Active; 'I' for Inactive)
REMARK    1  A    between atoms: C2_2  and  C3_3 
REMARK    2  A    between atoms: C3_3  and  N1_4 
REMARK    3  A    between atoms: N3_15  and  N4_17 
REMARK    4  A    between atoms: N4_17  and  C12_19 
REMARK    5  A    between atoms: C12_19  and  N5_21 
REMARK    6  A    between atoms: N5_21  and  C13_23 
ROOT
HETATM    1  C1  UNL     1     -21.927  -2.269  22.709  1.00  0.00     0.066 C 
HETATM    2  C2  UNL     1     -22.446  -3.366  21.804  1.00  0.00     0.028 C 
HETATM    3  N3  UNL     1     -22.590  -4.501  22.358  1.00  0.00    -0.305 N 
ATOM      4  H3  UNL     1     -22.339  -4.544  23.346  1.00  0.00     0.186 HD
ENDROOT
BRANCH   2   5
HETATM    5  C3  UNL     1     -22.679  -3.028  20.404  1.00  0.00     0.328 C 
BRANCH   5   6
HETATM    6  N1  UNL     1     -24.019  -2.683  20.034  1.00  0.00     0.115 N 
HETATM    7  C4  UNL     1     -24.454  -3.706  19.093  1.00  0.00     0.302 C 
HETATM    8  C5  UNL     1     -25.090  -3.197  17.856  1.00  0.00     0.268 C 
HETATM    9  N2  UNL     1     -24.296  -2.232  17.138  1.00  0.00    -0.062 N 
HETATM   10  C6  UNL     1     -25.213  -1.354  16.437  1.00  0.00     0.237 C 
HETATM   11  C9  UNL     1     -23.431  -2.837  16.150  1.00  0.00     0.237 C 
HETATM   12  C10 UNL     1     -23.496  -1.412  18.023  1.00  0.00     0.289 C 
HETATM   13  C7  UNL     1     -25.312  -1.869  15.014  1.00  0.00     0.029 C 
HETATM   14  C8  UNL     1     -24.081  -2.727  14.813  1.00  0.00     0.029 C 
HETATM   15  C11 UNL     1     -24.135  -1.388  19.378  1.00  0.00     0.344 C 
HETATM   16 CL1  UNL     1     -23.438  -0.065  20.287  1.00  0.00    -0.090 Cl
ENDBRANCH   5   6
ENDBRANCH   2   5
BRANCH   3  17
HETATM   17  N4  UNL     1     -23.040  -5.684  21.801  1.00  0.00    -0.276 N 
ATOM     18  H4  UNL     1     -22.410  -6.256  21.240  1.00  0.00     0.189 HD
BRANCH  17  19
HETATM   19  C12 UNL     1     -24.378  -6.100  22.012  1.00  0.00     0.187 C 
HETATM   20  S1  UNL     1     -25.323  -5.178  22.998  1.00  0.00    -0.040 SA
BRANCH  19  21
HETATM   21  N5  UNL     1     -24.875  -7.262  21.385  1.00  0.00    -0.358 N 
ATOM     22  H5  UNL     1     -25.024  -7.210  20.377  1.00  0.00     0.162 HD
BRANCH  21  23
HETATM   23  C13 UNL     1     -25.191  -8.505  22.016  1.00  0.00     0.021 C 
HETATM   24  C14 UNL     1     -26.498  -8.521  22.762  1.00  0.00     0.037 C 
HETATM   25  C15 UNL     1     -24.096  -8.890  23.001  1.00  0.00     0.037 C 
HETATM   26  C16 UNL     1     -25.290  -9.582  20.935  1.00  0.00     0.037 C 
ENDBRANCH  21  23
ENDBRANCH  19  21
ENDBRANCH  17  19
ENDBRANCH   3  17
TORSDOF 6
ENDMDL
