MODEL 1
REMARK VINA RESULT: -7.753571327      0.000      0.000
REMARK  6 active torsions:
REMARK  status: ('A' for Active; 'I' for Inactive)
REMARK    1  A    between atoms: C2_2  and  C3_3 
REMARK    2  A    between atoms: C8_9  and  C9_10 
REMARK    3  A    between atoms: C10_11  and  C11_12 
REMARK    4  A    between atoms: C11_12  and  C12_13 
REMARK    5  A    between atoms: C21_23  and  O3_24 
REMARK    6  A    between atoms: C22_27  and  O5_28 
ROOT
HETATM    1  C3  UNL     1      16.999  -6.167   7.273  1.00  0.00    -0.024 C 
HETATM    2  C4  UNL     1      17.450  -7.051   6.101  1.00  0.00     0.019 C 
HETATM    3  C5  UNL     1      16.523  -4.873   6.688  1.00  0.00     0.046 C 
HETATM    4  C6  UNL     1      17.475  -3.796   7.169  1.00  0.00     0.139 C 
HETATM    5  O1  UNL     1      18.534  -3.534   6.300  1.00  0.00    -0.342 OA
HETATM    6  C7  UNL     1      19.703  -3.464   7.033  1.00  0.00     0.111 A 
HETATM    7  C8  UNL     1      21.056  -3.126   6.942  1.00  0.00     0.097 A 
HETATM    8  O4  UNL     1      21.635  -3.301   8.099  1.00  0.00    -0.289 OA
HETATM    9  C22 UNL     1      20.743  -3.748   8.983  1.00  0.00     0.193 A 
HETATM   10  C23 UNL     1      19.537  -3.857   8.326  1.00  0.00     0.043 A 
HETATM   11  C24 UNL     1      18.100  -4.359   8.392  1.00  0.00     0.057 C 
HETATM   12  C25 UNL     1      18.183  -5.860   8.079  1.00  0.00     0.025 C 
ENDROOT
BRANCH   7  13
HETATM   13  C9  UNL     1      21.631  -2.632   5.626  1.00  0.00     0.086 C 
HETATM   14  C10 UNL     1      23.060  -2.240   5.894  1.00  0.00     0.072 C 
HETATM   15  C16 UNL     1      23.377  -0.858   6.055  1.00  0.00     0.136 C 
HETATM   16  O2  UNL     1      24.514  -0.460   6.109  1.00  0.00    -0.297 OA
HETATM   17  C17 UNL     1      22.319   0.202   6.168  1.00  0.00     0.058 C 
HETATM   18  C18 UNL     1      22.863   1.565   5.872  1.00  0.00     0.018 C 
HETATM   19  C19 UNL     1      21.285  -0.145   5.126  1.00  0.00     0.022 C 
HETATM   20  C20 UNL     1      20.141   0.854   5.284  1.00  0.00     0.013 C 
HETATM   21  C21 UNL     1      20.742  -1.513   5.176  1.00  0.00     0.134 C 
BRANCH  14  22
HETATM   22  C11 UNL     1      23.936  -2.898   4.829  1.00  0.00     0.040 C 
BRANCH  22  23
HETATM   23  C12 UNL     1      23.716  -2.378   3.487  1.00  0.00    -0.024 C 
HETATM   24  C13 UNL     1      24.637  -1.838   2.730  1.00  0.00    -0.091 C 
HETATM   25  C14 UNL     1      26.065  -1.658   3.092  1.00  0.00     0.042 C 
HETATM   26  C15 UNL     1      24.233  -1.345   1.345  1.00  0.00     0.042 C 
ENDBRANCH  22  23
ENDBRANCH  14  22
BRANCH  21  27
HETATM   27  O3  UNL     1      20.208  -1.815   3.898  1.00  0.00    -0.394 OA
ATOM     28  H3  UNL     1      19.362  -1.394   3.799  1.00  0.00     0.210 HD
ENDBRANCH  21  27
ENDBRANCH   7  13
BRANCH   9  29
HETATM   29  O5  UNL     1      20.979  -4.044  10.324  1.00  0.00    -0.340 OA
ATOM     30  H5  UNL     1      21.217  -4.890  10.683  1.00  0.00     0.220 HD
ENDBRANCH   9  29
BRANCH   1  31
HETATM   31  C2  UNL     1      15.874  -6.791   7.986  1.00  0.00    -0.028 C 
HETATM   32  C1  UNL     1      16.017  -7.503   9.119  1.00  0.00     0.007 C 
ENDBRANCH   1  31
TORSDOF 6
ENDMDL
MODEL 2
REMARK VINA RESULT: -7.554881170      2.295      7.960
REMARK  6 active torsions:
REMARK  status: ('A' for Active; 'I' for Inactive)
REMARK    1  A    between atoms: C2_2  and  C3_3 
REMARK    2  A    between atoms: C8_9  and  C9_10 
REMARK    3  A    between atoms: C10_11  and  C11_12 
REMARK    4  A    between atoms: C11_12  and  C12_13 
REMARK    5  A    between atoms: C21_23  and  O3_24 
REMARK    6  A    between atoms: C22_27  and  O5_28 
ROOT
HETATM    1  C3  UNL     1      21.786  -0.578   5.321  1.00  0.00    -0.024 C 
HETATM    2  C4  UNL     1      20.699   0.493   5.494  1.00  0.00     0.019 C 
HETATM    3  C5  UNL     1      21.184  -1.687   4.513  1.00  0.00     0.046 C 
HETATM    4  C6  UNL     1      21.125  -2.905   5.412  1.00  0.00     0.139 C 
HETATM    5  O1  UNL     1      19.920  -3.058   6.096  1.00  0.00    -0.342 OA
HETATM    6  C7  UNL     1      20.193  -3.362   7.416  1.00  0.00     0.111 A 
HETATM    7  C8  UNL     1      19.596  -3.771   8.611  1.00  0.00     0.097 A 
HETATM    8  O4  UNL     1      20.502  -3.879   9.545  1.00  0.00    -0.289 OA
HETATM    9  C22 UNL     1      21.697  -3.561   9.047  1.00  0.00     0.193 A 
HETATM   10  C23 UNL     1      21.513  -3.232   7.722  1.00  0.00     0.043 A 
HETATM   11  C24 UNL     1      22.144  -2.652   6.462  1.00  0.00     0.057 C 
HETATM   12  C25 UNL     1      22.081  -1.130   6.645  1.00  0.00     0.025 C 
ENDROOT
BRANCH   7  13
HETATM   13  C9  UNL     1      18.099  -4.023   8.668  1.00  0.00     0.086 C 
HETATM   14  C10 UNL     1      17.852  -4.918   9.854  1.00  0.00     0.072 C 
HETATM   15  C16 UNL     1      17.643  -6.312   9.634  1.00  0.00     0.136 C 
HETATM   16  O2  UNL     1      17.281  -7.055  10.512  1.00  0.00    -0.297 OA
HETATM   17  C17 UNL     1      17.857  -6.956   8.295  1.00  0.00     0.058 C 
HETATM   18  C18 UNL     1      17.157  -8.276   8.194  1.00  0.00     0.018 C 
HETATM   19  C19 UNL     1      17.254  -6.008   7.288  1.00  0.00     0.022 C 
HETATM   20  C20 UNL     1      17.547  -6.582   5.904  1.00  0.00     0.013 C 
HETATM   21  C21 UNL     1      17.725  -4.614   7.342  1.00  0.00     0.134 C 
BRANCH  14  22
HETATM   22  C11 UNL     1      16.723  -4.302  10.680  1.00  0.00     0.040 C 
BRANCH  22  23
HETATM   23  C12 UNL     1      17.190  -3.469  11.780  1.00  0.00    -0.024 C 
HETATM   24  C13 UNL     1      17.509  -3.908  12.971  1.00  0.00    -0.091 C 
HETATM   25  C14 UNL     1      17.457  -5.322  13.421  1.00  0.00     0.042 C 
HETATM   26  C15 UNL     1      17.982  -2.895  14.008  1.00  0.00     0.042 C 
ENDBRANCH  22  23
ENDBRANCH  14  22
BRANCH  21  27
HETATM   27  O3  UNL     1      16.745  -3.800   6.720  1.00  0.00    -0.394 OA
ATOM     28  H3  UNL     1      16.892  -3.787   5.781  1.00  0.00     0.210 HD
ENDBRANCH  21  27
ENDBRANCH   7  13
BRANCH   9  29
HETATM   29  O5  UNL     1      22.910  -3.566   9.733  1.00  0.00    -0.340 OA
ATOM     30  H5  UNL     1      23.661  -3.012   9.558  1.00  0.00     0.220 HD
ENDBRANCH   9  29
BRANCH   1  31
HETATM   31  C2  UNL     1      22.931  -0.035   4.575  1.00  0.00    -0.028 C 
HETATM   32  C1  UNL     1      23.672  -0.763   3.718  1.00  0.00     0.007 C 
ENDBRANCH   1  31
TORSDOF 6
ENDMDL
MODEL 3
REMARK VINA RESULT: -7.540098690      1.304      1.610
REMARK  6 active torsions:
REMARK  status: ('A' for Active; 'I' for Inactive)
REMARK    1  A    between atoms: C2_2  and  C3_3 
REMARK    2  A    between atoms: C8_9  and  C9_10 
REMARK    3  A    between atoms: C10_11  and  C11_12 
REMARK    4  A    between atoms: C11_12  and  C12_13 
REMARK    5  A    between atoms: C21_23  and  O3_24 
REMARK    6  A    between atoms: C22_27  and  O5_28 
ROOT
HETATM    1  C3  UNL     1      16.439  -6.155   6.526  1.00  0.00    -0.024 C 
HETATM    2  C4  UNL     1      17.196  -7.160   5.645  1.00  0.00     0.019 C 
HETATM    3  C5  UNL     1      16.356  -4.872   5.757  1.00  0.00     0.046 C 
HETATM    4  C6  UNL     1      17.171  -3.848   6.521  1.00  0.00     0.139 C 
HETATM    5  O1  UNL     1      18.498  -3.743   6.107  1.00  0.00    -0.342 OA
HETATM    6  C7  UNL     1      19.311  -3.718   7.224  1.00  0.00     0.111 A 
HETATM    7  C8  UNL     1      20.629  -3.504   7.637  1.00  0.00     0.097 A 
HETATM    8  O4  UNL     1      20.714  -3.641   8.933  1.00  0.00    -0.289 OA
HETATM    9  C22 UNL     1      19.515  -3.943   9.431  1.00  0.00     0.193 A 
HETATM   10  C23 UNL     1      18.635  -3.998   8.372  1.00  0.00     0.043 A 
HETATM   11  C24 UNL     1      17.232  -4.369   7.910  1.00  0.00     0.057 C 
HETATM   12  C25 UNL     1      17.264  -5.890   7.707  1.00  0.00     0.025 C 
ENDROOT
BRANCH   7  13
HETATM   13  C9  UNL     1      21.701  -3.161   6.619  1.00  0.00     0.086 C 
HETATM   14  C10 UNL     1      22.876  -2.616   7.388  1.00  0.00     0.072 C 
HETATM   15  C16 UNL     1      23.075  -1.203   7.432  1.00  0.00     0.136 C 
HETATM   16  O2  UNL     1      24.075  -0.708   7.887  1.00  0.00    -0.297 OA
HETATM   17  C17 UNL     1      22.054  -0.231   6.916  1.00  0.00     0.058 C 
HETATM   18  C18 UNL     1      22.653   1.116   6.650  1.00  0.00     0.018 C 
HETATM   19  C19 UNL     1      21.565  -0.811   5.611  1.00  0.00     0.022 C 
HETATM   20  C20 UNL     1      20.448   0.101   5.109  1.00  0.00     0.013 C 
HETATM   21  C21 UNL     1      21.072  -2.197   5.659  1.00  0.00     0.134 C 
BRANCH  14  22
HETATM   22  C11 UNL     1      24.130  -3.346   6.911  1.00  0.00     0.040 C 
BRANCH  22  23
HETATM   23  C12 UNL     1      24.436  -3.127   5.504  1.00  0.00    -0.024 C 
HETATM   24  C13 UNL     1      25.507  -2.522   5.054  1.00  0.00    -0.091 C 
HETATM   25  C14 UNL     1      26.599  -1.954   5.883  1.00  0.00     0.042 C 
HETATM   26  C15 UNL     1      25.671  -2.378   3.545  1.00  0.00     0.042 C 
ENDBRANCH  22  23
ENDBRANCH  14  22
BRANCH  21  27
HETATM   27  O3  UNL     1      21.135  -2.726   4.345  1.00  0.00    -0.394 OA
ATOM     28  H3  UNL     1      20.323  -2.541   3.887  1.00  0.00     0.210 HD
ENDBRANCH  21  27
ENDBRANCH   7  13
BRANCH   9  29
HETATM   29  O5  UNL     1      19.203  -4.156  10.772  1.00  0.00    -0.340 OA
ATOM     30  H5  UNL     1      18.332  -4.199  11.150  1.00  0.00     0.220 HD
ENDBRANCH   9  29
BRANCH   1  31
HETATM   31  C2  UNL     1      15.070  -6.626   6.785  1.00  0.00    -0.028 C 
HETATM   32  C1  UNL     1      13.991  -6.175   6.117  1.00  0.00     0.007 C 
ENDBRANCH   1  31
TORSDOF 6
ENDMDL
MODEL 4
REMARK VINA RESULT: -7.535804174      3.295      6.789
REMARK  6 active torsions:
REMARK  status: ('A' for Active; 'I' for Inactive)
REMARK    1  A    between atoms: C2_2  and  C3_3 
REMARK    2  A    between atoms: C8_9  and  C9_10 
REMARK    3  A    between atoms: C10_11  and  C11_12 
REMARK    4  A    between atoms: C11_12  and  C12_13 
REMARK    5  A    between atoms: C21_23  and  O3_24 
REMARK    6  A    between atoms: C22_27  and  O5_28 
ROOT
HETATM    1  C3  UNL     1      18.047  -4.652  11.798  1.00  0.00    -0.024 C 
HETATM    2  C4  UNL     1      17.279  -3.426  11.282  1.00  0.00     0.019 C 
HETATM    3  C5  UNL     1      19.342  -4.706  11.046  1.00  0.00     0.046 C 
HETATM    4  C6  UNL     1      19.309  -5.966  10.205  1.00  0.00     0.139 C 
HETATM    5  O1  UNL     1      18.829  -5.782   8.910  1.00  0.00    -0.342 OA
HETATM    6  C7  UNL     1      17.928  -6.789   8.621  1.00  0.00     0.111 A 
HETATM    7  C8  UNL     1      17.183  -7.352   7.582  1.00  0.00     0.097 A 
HETATM    8  O4  UNL     1      16.490  -8.363   8.032  1.00  0.00    -0.289 OA
HETATM    9  C22 UNL     1      16.723  -8.521   9.335  1.00  0.00     0.193 A 
HETATM   10  C23 UNL     1      17.614  -7.540   9.712  1.00  0.00     0.043 A 
HETATM   11  C24 UNL     1      18.314  -6.843  10.872  1.00  0.00     0.057 C 
HETATM   12  C25 UNL     1      17.286  -5.845  11.421  1.00  0.00     0.025 C 
ENDROOT
BRANCH   7  13
HETATM   13  C9  UNL     1      17.270  -6.774   6.181  1.00  0.00     0.086 C 
HETATM   14  C10 UNL     1      17.094  -5.284   6.312  1.00  0.00     0.072 C 
HETATM   15  C16 UNL     1      15.825  -4.710   6.003  1.00  0.00     0.136 C 
HETATM   16  O2  UNL     1      15.658  -3.518   5.929  1.00  0.00    -0.297 OA
HETATM   17  C17 UNL     1      14.605  -5.547   5.748  1.00  0.00     0.058 C 
HETATM   18  C18 UNL     1      13.546  -4.780   5.017  1.00  0.00     0.018 C 
HETATM   19  C19 UNL     1      15.070  -6.686   4.875  1.00  0.00     0.022 C 
HETATM   20  C20 UNL     1      13.874  -7.616   4.682  1.00  0.00     0.013 C 
HETATM   21  C21 UNL     1      16.213  -7.467   5.376  1.00  0.00     0.134 C 
BRANCH  14  22
HETATM   22  C11 UNL     1      18.222  -4.606   5.534  1.00  0.00     0.040 C 
BRANCH  22  23
HETATM   23  C12 UNL     1      18.932  -3.590   6.298  1.00  0.00    -0.024 C 
HETATM   24  C13 UNL     1      19.997  -2.949   5.888  1.00  0.00    -0.091 C 
HETATM   25  C14 UNL     1      20.673  -3.134   4.579  1.00  0.00     0.042 C 
HETATM   26  C15 UNL     1      20.616  -1.912   6.818  1.00  0.00     0.042 C 
ENDBRANCH  22  23
ENDBRANCH  14  22
BRANCH  21  27
HETATM   27  O3  UNL     1      16.811  -8.121   4.269  1.00  0.00    -0.394 OA
ATOM     28  H3  UNL     1      16.783  -9.061   4.402  1.00  0.00     0.210 HD
ENDBRANCH  21  27
ENDBRANCH   7  13
BRANCH   9  29
HETATM   29  O5  UNL     1      16.175  -9.497  10.164  1.00  0.00    -0.340 OA
ATOM     30  H5  UNL     1      15.988 -10.399   9.930  1.00  0.00     0.220 HD
ENDBRANCH   9  29
BRANCH   1  31
HETATM   31  C2  UNL     1      18.352  -4.504  13.229  1.00  0.00    -0.028 C 
HETATM   32  C1  UNL     1      19.386  -3.781  13.697  1.00  0.00     0.007 C 
ENDBRANCH   1  31
TORSDOF 6
ENDMDL
MODEL 5
REMARK VINA RESULT: -7.324645234      1.643      2.378
REMARK  6 active torsions:
REMARK  status: ('A' for Active; 'I' for Inactive)
REMARK    1  A    between atoms: C2_2  and  C3_3 
REMARK    2  A    between atoms: C8_9  and  C9_10 
REMARK    3  A    between atoms: C10_11  and  C11_12 
REMARK    4  A    between atoms: C11_12  and  C12_13 
REMARK    5  A    between atoms: C21_23  and  O3_24 
REMARK    6  A    between atoms: C22_27  and  O5_28 
ROOT
HETATM    1  C3  UNL     1      16.747  -6.101   6.703  1.00  0.00    -0.024 C 
HETATM    2  C4  UNL     1      17.398  -7.034   5.670  1.00  0.00     0.019 C 
HETATM    3  C5  UNL     1      16.521  -4.786   6.023  1.00  0.00     0.046 C 
HETATM    4  C6  UNL     1      17.408  -3.773   6.719  1.00  0.00     0.139 C 
HETATM    5  O1  UNL     1      18.659  -3.602   6.130  1.00  0.00    -0.342 OA
HETATM    6  C7  UNL     1      19.622  -3.604   7.121  1.00  0.00     0.111 A 
HETATM    7  C8  UNL     1      20.978  -3.366   7.356  1.00  0.00     0.097 A 
HETATM    8  O4  UNL     1      21.251  -3.564   8.617  1.00  0.00    -0.289 OA
HETATM    9  C22 UNL     1      20.143  -3.931   9.262  1.00  0.00     0.193 A 
HETATM   10  C23 UNL     1      19.124  -3.964   8.335  1.00  0.00     0.043 A 
HETATM   11  C24 UNL     1      17.679  -4.360   8.055  1.00  0.00     0.057 C 
HETATM   12  C25 UNL     1      17.724  -5.867   7.768  1.00  0.00     0.025 C 
ENDROOT
BRANCH   7  13
HETATM   13  C9  UNL     1      21.885  -2.935   6.217  1.00  0.00     0.086 C 
HETATM   14  C10 UNL     1      23.161  -2.433   6.840  1.00  0.00     0.072 C 
HETATM   15  C16 UNL     1      23.362  -1.025   6.959  1.00  0.00     0.136 C 
HETATM   16  O2  UNL     1      24.419  -0.552   7.295  1.00  0.00    -0.297 OA
HETATM   17  C17 UNL     1      22.274  -0.031   6.674  1.00  0.00     0.058 C 
HETATM   18  C18 UNL     1      22.825   1.339   6.422  1.00  0.00     0.018 C 
HETATM   19  C19 UNL     1      21.597  -0.520   5.417  1.00  0.00     0.022 C 
HETATM   20  C20 UNL     1      20.415   0.412   5.156  1.00  0.00     0.013 C 
HETATM   21  C21 UNL     1      21.118  -1.912   5.436  1.00  0.00     0.134 C 
BRANCH  14  22
HETATM   22  C11 UNL     1      24.331  -3.111   6.128  1.00  0.00     0.040 C 
BRANCH  22  23
HETATM   23  C12 UNL     1      24.821  -4.301   6.810  1.00  0.00    -0.024 C 
HETATM   24  C13 UNL     1      25.842  -4.330   7.629  1.00  0.00    -0.091 C 
HETATM   25  C14 UNL     1      26.683  -3.169   8.013  1.00  0.00     0.042 C 
HETATM   26  C15 UNL     1      26.220  -5.666   8.259  1.00  0.00     0.042 C 
ENDBRANCH  22  23
ENDBRANCH  14  22
BRANCH  21  27
HETATM   27  O3  UNL     1      20.984  -2.343   4.091  1.00  0.00    -0.394 OA
ATOM     28  H3  UNL     1      21.486  -1.770   3.522  1.00  0.00     0.210 HD
ENDBRANCH  21  27
ENDBRANCH   7  13
BRANCH   9  29
HETATM   29  O5  UNL     1      20.031  -4.222  10.620  1.00  0.00    -0.340 OA
ATOM     30  H5  UNL     1      19.650  -3.664  11.288  1.00  0.00     0.220 HD
ENDBRANCH   9  29
BRANCH   1  31
HETATM   31  C2  UNL     1      15.442  -6.631   7.125  1.00  0.00    -0.028 C 
HETATM   32  C1  UNL     1      14.289  -6.362   6.485  1.00  0.00     0.007 C 
ENDBRANCH   1  31
TORSDOF 6
ENDMDL
