MODEL 1
REMARK VINA RESULT: -7.158517320      0.000      0.000
REMARK  7 active torsions:
REMARK  status: ('A' for Active; 'I' for Inactive)
REMARK    1  A    between atoms: C2_2  and  C3_3 
REMARK    2  A    between atoms: C3_3  and  C5_5 
REMARK    3  A    between atoms: C7_7  and  O1_8 
REMARK    4  A    between atoms: C10_12  and  C11_13 
REMARK    5  A    between atoms: N1_22  and  O2_24 
REMARK    6  A    between atoms: O2_24  and  C20_25 
REMARK    7  A    between atoms: C20_25  and  C21_26 
ROOT
HETATM    1  C5  UNL     1     -11.867 -20.765  10.071  1.00  0.00    -0.054 C 
HETATM    2  C6  UNL     1     -12.463 -19.557  10.763  1.00  0.00     0.068 C 
HETATM    3  C7  UNL     1     -12.484 -18.341   9.914  1.00  0.00     0.122 C 
HETATM    4  C8  UNL     1     -11.308 -18.144   8.989  1.00  0.00     0.038 C 
HETATM    5  C9  UNL     1     -10.958 -19.422   8.351  1.00  0.00     0.011 C 
HETATM    6  C10 UNL     1      -9.854 -19.494   7.390  1.00  0.00     0.001 C 
HETATM    7  C18 UNL     1      -9.707 -21.042   7.306  1.00  0.00     0.061 C 
HETATM    8  C19 UNL     1      -9.729 -21.372   8.785  1.00  0.00     0.023 C 
HETATM    9  N1  UNL     1      -9.048 -22.316   9.303  1.00  0.00    -0.274 N 
ATOM     10  H1  UNL     1      -9.142 -22.444  10.311  1.00  0.00     0.193 HD
HETATM   11  C24 UNL     1     -10.586 -20.423   9.453  1.00  0.00     0.025 C 
HETATM   12  C25 UNL     1      -9.650 -19.699  10.458  1.00  0.00     0.027 C 
ENDROOT
BRANCH   6  13
HETATM   13  C11 UNL     1     -10.096 -18.914   6.041  1.00  0.00    -0.005 C 
HETATM   14  C12 UNL     1     -11.520 -18.576   5.740  1.00  0.00     0.009 C 
HETATM   15  C13 UNL     1     -11.596 -17.864   4.414  1.00  0.00     0.028 C 
HETATM   16  C14 UNL     1     -10.514 -18.219   3.485  1.00  0.00    -0.024 C 
HETATM   17  C15 UNL     1      -9.583 -19.123   3.689  1.00  0.00    -0.087 C 
HETATM   18  C16 UNL     1      -8.515 -19.436   2.710  1.00  0.00     0.043 C 
HETATM   19  C17 UNL     1      -9.603 -19.872   4.974  1.00  0.00     0.038 C 
ENDBRANCH   6  13
BRANCH   3  20
HETATM   20  O1  UNL     1     -13.628 -18.452   9.084  1.00  0.00    -0.395 OA
ATOM     21  H1  UNL     1     -14.348 -18.063   9.567  1.00  0.00     0.210 HD
ENDBRANCH   3  20
BRANCH   1  22
HETATM   22  C3  UNL     1     -12.140 -21.990  10.758  1.00  0.00    -0.043 C 
HETATM   23  C4  UNL     1     -12.201 -21.972  12.103  1.00  0.00     0.023 C 
BRANCH  22  24
HETATM   24  C2  UNL     1     -12.453 -23.243  10.120  1.00  0.00     0.000 C 
HETATM   25  C1  UNL     1     -11.848 -24.386  10.196  1.00  0.00     0.012 C 
ENDBRANCH  22  24
ENDBRANCH   1  22
BRANCH   9  26
HETATM   26  O2  UNL     1      -8.214 -23.164   8.665  1.00  0.00    -0.280 OA
BRANCH  26  27
HETATM   27  C20 UNL     1      -8.670 -23.969   7.599  1.00  0.00     0.205 C 
BRANCH  27  28
HETATM   28  C21 UNL     1      -7.642 -24.150   6.524  1.00  0.00     0.012 A 
HETATM   29  C22 UNL     1      -8.083 -23.675   5.121  1.00  0.00     0.007 A 
HETATM   30  C23 UNL     1      -7.001 -22.996   5.858  1.00  0.00     0.007 A 
ENDBRANCH  27  28
ENDBRANCH  26  27
ENDBRANCH   9  26
TORSDOF 7
ENDMDL
MODEL 2
REMARK VINA RESULT: -7.079638217      2.627      5.903
REMARK  7 active torsions:
REMARK  status: ('A' for Active; 'I' for Inactive)
REMARK    1  A    between atoms: C2_2  and  C3_3 
REMARK    2  A    between atoms: C3_3  and  C5_5 
REMARK    3  A    between atoms: C7_7  and  O1_8 
REMARK    4  A    between atoms: C10_12  and  C11_13 
REMARK    5  A    between atoms: N1_22  and  O2_24 
REMARK    6  A    between atoms: O2_24  and  C20_25 
REMARK    7  A    between atoms: C20_25  and  C21_26 
ROOT
HETATM    1  C5  UNL     1      -8.694 -20.359   8.354  1.00  0.00    -0.054 C 
HETATM    2  C6  UNL     1      -8.563 -21.798   8.806  1.00  0.00     0.068 C 
HETATM    3  C7  UNL     1      -8.305 -22.745   7.694  1.00  0.00     0.122 C 
HETATM    4  C8  UNL     1      -8.995 -22.452   6.384  1.00  0.00     0.038 C 
HETATM    5  C9  UNL     1      -8.919 -21.012   6.094  1.00  0.00     0.011 C 
HETATM    6  C10 UNL     1      -9.504 -20.471   4.863  1.00  0.00     0.001 C 
HETATM    7  C18 UNL     1      -9.452 -18.955   5.216  1.00  0.00     0.061 C 
HETATM    8  C19 UNL     1     -10.022 -19.010   6.619  1.00  0.00     0.023 C 
HETATM    9  N1  UNL     1     -10.764 -18.098   7.110  1.00  0.00    -0.274 N 
ATOM     10  H1  UNL     1     -11.090 -18.243   8.066  1.00  0.00     0.193 HD
HETATM   11  C24 UNL     1      -9.623 -20.255   7.228  1.00  0.00     0.025 C 
HETATM   12  C25 UNL     1     -10.959 -20.984   7.530  1.00  0.00     0.027 C 
ENDROOT
BRANCH   6  13
HETATM   13  C11 UNL     1      -8.773 -20.741   3.595  1.00  0.00    -0.005 C 
HETATM   14  C12 UNL     1      -8.837 -22.154   3.111  1.00  0.00     0.009 C 
HETATM   15  C13 UNL     1      -8.191 -22.249   1.754  1.00  0.00     0.028 C 
HETATM   16  C14 UNL     1      -7.150 -21.238   1.519  1.00  0.00    -0.024 C 
HETATM   17  C15 UNL     1      -6.714 -20.358   2.390  1.00  0.00    -0.087 C 
HETATM   18  C16 UNL     1      -5.658 -19.361   2.092  1.00  0.00     0.043 C 
HETATM   19  C17 UNL     1      -7.314 -20.363   3.752  1.00  0.00     0.038 C 
ENDBRANCH   6  13
BRANCH   3  20
HETATM   20  O1  UNL     1      -6.913 -22.683   7.432  1.00  0.00    -0.395 OA
ATOM     21  H1  UNL     1      -6.757 -23.239   6.677  1.00  0.00     0.210 HD
ENDBRANCH   3  20
BRANCH   1  22
HETATM   22  C3  UNL     1      -8.618 -19.427   9.437  1.00  0.00    -0.043 C 
HETATM   23  C4  UNL     1      -9.390 -19.638  10.520  1.00  0.00     0.023 C 
BRANCH  22  24
HETATM   24  C2  UNL     1      -7.705 -18.316   9.510  1.00  0.00     0.000 C 
HETATM   25  C1  UNL     1      -7.611 -17.269   8.754  1.00  0.00     0.012 C 
ENDBRANCH  22  24
ENDBRANCH   1  22
BRANCH   9  26
HETATM   26  O2  UNL     1     -11.165 -16.960   6.505  1.00  0.00    -0.280 OA
BRANCH  26  27
HETATM   27  C20 UNL     1     -10.759 -15.697   6.986  1.00  0.00     0.205 C 
BRANCH  27  28
HETATM   28  C21 UNL     1     -10.462 -14.723   5.887  1.00  0.00     0.012 A 
HETATM   29  C22 UNL     1     -11.137 -13.341   6.048  1.00  0.00     0.007 A 
HETATM   30  C23 UNL     1      -9.672 -13.496   6.127  1.00  0.00     0.007 A 
ENDBRANCH  27  28
ENDBRANCH  26  27
ENDBRANCH   9  26
TORSDOF 7
ENDMDL
MODEL 3
REMARK VINA RESULT: -7.046158858      3.136      6.968
REMARK  7 active torsions:
REMARK  status: ('A' for Active; 'I' for Inactive)
REMARK    1  A    between atoms: C2_2  and  C3_3 
REMARK    2  A    between atoms: C3_3  and  C5_5 
REMARK    3  A    between atoms: C7_7  and  O1_8 
REMARK    4  A    between atoms: C10_12  and  C11_13 
REMARK    5  A    between atoms: N1_22  and  O2_24 
REMARK    6  A    between atoms: O2_24  and  C20_25 
REMARK    7  A    between atoms: C20_25  and  C21_26 
ROOT
HETATM    1  C5  UNL     1      -8.157 -21.540   5.281  1.00  0.00    -0.054 C 
HETATM    2  C6  UNL     1      -7.589 -22.941   5.196  1.00  0.00     0.068 C 
HETATM    3  C7  UNL     1      -6.671 -23.138   4.048  1.00  0.00     0.122 C 
HETATM    4  C8  UNL     1      -7.025 -22.416   2.771  1.00  0.00     0.038 C 
HETATM    5  C9  UNL     1      -7.458 -21.045   3.078  1.00  0.00     0.011 C 
HETATM    6  C10 UNL     1      -7.842 -20.129   1.999  1.00  0.00     0.001 C 
HETATM    7  C18 UNL     1      -8.507 -19.011   2.856  1.00  0.00     0.061 C 
HETATM    8  C19 UNL     1      -9.374 -19.873   3.753  1.00  0.00     0.023 C 
HETATM    9  N1  UNL     1     -10.525 -19.516   4.166  1.00  0.00    -0.274 N 
ATOM     10  H1  UNL     1     -11.018 -20.180   4.765  1.00  0.00     0.193 HD
HETATM   11  C24 UNL     1      -8.693 -21.123   3.985  1.00  0.00     0.025 C 
HETATM   12  C25 UNL     1      -9.648 -22.197   3.397  1.00  0.00     0.027 C 
ENDROOT
BRANCH   6  13
HETATM   13  C11 UNL     1      -6.742 -19.570   1.167  1.00  0.00    -0.005 C 
HETATM   14  C12 UNL     1      -6.209 -18.249   1.621  1.00  0.00     0.009 C 
HETATM   15  C13 UNL     1      -5.010 -17.879   0.786  1.00  0.00     0.028 C 
HETATM   16  C14 UNL     1      -5.028 -18.453  -0.567  1.00  0.00    -0.024 C 
HETATM   17  C15 UNL     1      -5.999 -19.162  -1.096  1.00  0.00    -0.087 C 
HETATM   18  C16 UNL     1      -5.957 -19.715  -2.470  1.00  0.00     0.043 C 
HETATM   19  C17 UNL     1      -7.208 -19.422  -0.268  1.00  0.00     0.038 C 
ENDBRANCH   6  13
BRANCH   3  20
HETATM   20  O1  UNL     1      -5.409 -22.632   4.453  1.00  0.00    -0.395 OA
ATOM     21  H1  UNL     1      -5.239 -22.997   5.314  1.00  0.00     0.210 HD
ENDBRANCH   3  20
BRANCH   1  22
HETATM   22  C3  UNL     1      -8.770 -21.263   6.544  1.00  0.00    -0.043 C 
HETATM   23  C4  UNL     1      -8.925 -22.277   7.417  1.00  0.00     0.023 C 
BRANCH  22  24
HETATM   24  C2  UNL     1      -9.157 -19.956   7.006  1.00  0.00     0.000 C 
HETATM   25  C1  UNL     1     -10.087 -19.612   7.839  1.00  0.00     0.012 C 
ENDBRANCH  22  24
ENDBRANCH   1  22
BRANCH   9  26
HETATM   26  O2  UNL     1     -11.165 -18.359   3.899  1.00  0.00    -0.280 OA
BRANCH  26  27
HETATM   27  C20 UNL     1     -11.640 -17.532   4.940  1.00  0.00     0.205 C 
BRANCH  27  28
HETATM   28  C21 UNL     1     -10.544 -16.785   5.637  1.00  0.00     0.012 A 
HETATM   29  C22 UNL     1     -10.801 -15.269   5.805  1.00  0.00     0.007 A 
HETATM   30  C23 UNL     1     -10.744 -16.174   6.969  1.00  0.00     0.007 A 
ENDBRANCH  27  28
ENDBRANCH  26  27
ENDBRANCH   9  26
TORSDOF 7
ENDMDL
MODEL 4
REMARK VINA RESULT: -6.916012708      2.629      5.788
REMARK  7 active torsions:
REMARK  status: ('A' for Active; 'I' for Inactive)
REMARK    1  A    between atoms: C2_2  and  C3_3 
REMARK    2  A    between atoms: C3_3  and  C5_5 
REMARK    3  A    between atoms: C7_7  and  O1_8 
REMARK    4  A    between atoms: C10_12  and  C11_13 
REMARK    5  A    between atoms: N1_22  and  O2_24 
REMARK    6  A    between atoms: O2_24  and  C20_25 
REMARK    7  A    between atoms: C20_25  and  C21_26 
ROOT
HETATM    1  C5  UNL     1      -8.995 -19.883   8.025  1.00  0.00    -0.054 C 
HETATM    2  C6  UNL     1      -8.973 -21.284   8.598  1.00  0.00     0.068 C 
HETATM    3  C7  UNL     1      -8.695 -22.332   7.586  1.00  0.00     0.122 C 
HETATM    4  C8  UNL     1      -9.283 -22.115   6.213  1.00  0.00     0.038 C 
HETATM    5  C9  UNL     1      -9.109 -20.710   5.814  1.00  0.00     0.011 C 
HETATM    6  C10 UNL     1      -9.582 -20.246   4.506  1.00  0.00     0.001 C 
HETATM    7  C18 UNL     1      -9.470 -18.710   4.740  1.00  0.00     0.061 C 
HETATM    8  C19 UNL     1     -10.132 -18.620   6.100  1.00  0.00     0.023 C 
HETATM    9  N1  UNL     1     -10.853 -17.634   6.464  1.00  0.00    -0.274 N 
ATOM     10  H1  UNL     1     -11.248 -17.683   7.404  1.00  0.00     0.193 HD
HETATM   11  C24 UNL     1      -9.841 -19.828   6.833  1.00  0.00     0.025 C 
HETATM   12  C25 UNL     1     -11.233 -20.462   7.099  1.00  0.00     0.027 C 
ENDROOT
BRANCH   6  13
HETATM   13  C11 UNL     1      -8.788 -20.657   3.317  1.00  0.00    -0.005 C 
HETATM   14  C12 UNL     1      -8.879 -22.105   2.959  1.00  0.00     0.009 C 
HETATM   15  C13 UNL     1      -8.155 -22.347   1.660  1.00  0.00     0.028 C 
HETATM   16  C14 UNL     1      -7.062 -21.399   1.403  1.00  0.00    -0.024 C 
HETATM   17  C15 UNL     1      -6.644 -20.458   2.218  1.00  0.00    -0.087 C 
HETATM   18  C16 UNL     1      -5.534 -19.530   1.900  1.00  0.00     0.043 C 
HETATM   19  C17 UNL     1      -7.326 -20.317   3.533  1.00  0.00     0.038 C 
ENDBRANCH   6  13
BRANCH   3  20
HETATM   20  O1  UNL     1      -7.288 -22.361   7.416  1.00  0.00    -0.395 OA
ATOM     21  H1  UNL     1      -7.110 -23.030   6.765  1.00  0.00     0.210 HD
ENDBRANCH   3  20
BRANCH   1  22
HETATM   22  C3  UNL     1      -8.938 -18.869   9.033  1.00  0.00    -0.043 C 
HETATM   23  C4  UNL     1      -7.922 -17.985   8.997  1.00  0.00     0.023 C 
BRANCH  22  24
HETATM   24  C2  UNL     1      -9.940 -18.651  10.044  1.00  0.00     0.000 C 
HETATM   25  C1  UNL     1     -10.958 -17.850  10.043  1.00  0.00     0.012 C 
ENDBRANCH  22  24
ENDBRANCH   1  22
BRANCH   9  26
HETATM   26  O2  UNL     1     -11.151 -16.532   5.744  1.00  0.00    -0.280 OA
BRANCH  26  27
HETATM   27  C20 UNL     1     -10.791 -15.246   6.198  1.00  0.00     0.205 C 
BRANCH  27  28
HETATM   28  C21 UNL     1     -10.057 -15.273   7.505  1.00  0.00     0.012 A 
HETATM   29  C22 UNL     1      -8.610 -14.730   7.444  1.00  0.00     0.007 A 
HETATM   30  C23 UNL     1      -9.664 -14.030   8.203  1.00  0.00     0.007 A 
ENDBRANCH  27  28
ENDBRANCH  26  27
ENDBRANCH   9  26
TORSDOF 7
ENDMDL
MODEL 5
REMARK VINA RESULT: -6.818881798      2.525      5.822
REMARK  7 active torsions:
REMARK  status: ('A' for Active; 'I' for Inactive)
REMARK    1  A    between atoms: C2_2  and  C3_3 
REMARK    2  A    between atoms: C3_3  and  C5_5 
REMARK    3  A    between atoms: C7_7  and  O1_8 
REMARK    4  A    between atoms: C10_12  and  C11_13 
REMARK    5  A    between atoms: N1_22  and  O2_24 
REMARK    6  A    between atoms: O2_24  and  C20_25 
REMARK    7  A    between atoms: C20_25  and  C21_26 
ROOT
HETATM    1  C5  UNL     1      -9.296 -19.708   8.898  1.00  0.00    -0.054 C 
HETATM    2  C6  UNL     1      -9.343 -20.979   9.721  1.00  0.00     0.068 C 
HETATM    3  C7  UNL     1      -8.854 -22.174   8.991  1.00  0.00     0.122 C 
HETATM    4  C8  UNL     1      -9.182 -22.246   7.520  1.00  0.00     0.038 C 
HETATM    5  C9  UNL     1      -8.975 -20.928   6.899  1.00  0.00     0.011 C 
HETATM    6  C10 UNL     1      -9.211 -20.739   5.465  1.00  0.00     0.001 C 
HETATM    7  C18 UNL     1      -9.185 -19.182   5.419  1.00  0.00     0.061 C 
HETATM    8  C19 UNL     1     -10.091 -18.887   6.599  1.00  0.00     0.023 C 
HETATM    9  N1  UNL     1     -10.893 -17.898   6.636  1.00  0.00    -0.274 N 
ATOM     10  H1  UNL     1     -11.454 -17.800   7.483  1.00  0.00     0.193 HD
HETATM   11  C24 UNL     1      -9.908 -19.922   7.587  1.00  0.00     0.025 C 
HETATM   12  C25 UNL     1     -11.307 -20.582   7.718  1.00  0.00     0.027 C 
ENDROOT
BRANCH   6  13
HETATM   13  C11 UNL     1      -8.198 -21.309   4.535  1.00  0.00    -0.005 C 
HETATM   14  C12 UNL     1      -7.177 -22.195   5.171  1.00  0.00     0.009 C 
HETATM   15  C13 UNL     1      -6.317 -22.817   4.102  1.00  0.00     0.028 C 
HETATM   16  C14 UNL     1      -6.205 -22.006   2.881  1.00  0.00    -0.024 C 
HETATM   17  C15 UNL     1      -6.710 -20.806   2.699  1.00  0.00    -0.087 C 
HETATM   18  C16 UNL     1      -6.562 -20.037   1.441  1.00  0.00     0.043 C 
HETATM   19  C17 UNL     1      -7.471 -20.189   3.818  1.00  0.00     0.038 C 
ENDBRANCH   6  13
BRANCH   3  20
HETATM   20  O1  UNL     1      -7.439 -22.147   9.082  1.00  0.00    -0.395 OA
ATOM     21  H1  UNL     1      -7.232 -21.752   9.921  1.00  0.00     0.210 HD
ENDBRANCH   3  20
BRANCH   1  22
HETATM   22  C3  UNL     1      -9.455 -18.527   9.689  1.00  0.00    -0.043 C 
HETATM   23  C4  UNL     1     -10.389 -18.525  10.660  1.00  0.00     0.023 C 
BRANCH  22  24
HETATM   24  C2  UNL     1      -8.626 -17.353   9.598  1.00  0.00     0.000 C 
HETATM   25  C1  UNL     1      -7.743 -17.028   8.707  1.00  0.00     0.012 C 
ENDBRANCH  22  24
ENDBRANCH   1  22
BRANCH   9  26
HETATM   26  O2  UNL     1     -11.082 -16.966   5.679  1.00  0.00    -0.280 OA
BRANCH  26  27
HETATM   27  C20 UNL     1     -10.817 -15.602   5.928  1.00  0.00     0.205 C 
BRANCH  27  28
HETATM   28  C21 UNL     1     -10.845 -15.260   7.387  1.00  0.00     0.012 A 
HETATM   29  C22 UNL     1      -9.991 -14.032   7.779  1.00  0.00     0.007 A 
HETATM   30  C23 UNL     1     -11.462 -14.010   7.881  1.00  0.00     0.007 A 
ENDBRANCH  27  28
ENDBRANCH  26  27
ENDBRANCH   9  26
TORSDOF 7
ENDMDL
