MODEL 1
REMARK VINA RESULT: -5.235722618      0.000      0.000
REMARK  5 active torsions:
REMARK  status: ('A' for Active; 'I' for Inactive)
REMARK    1  A    between atoms: C2_2  and  C3_3 
REMARK    2  A    between atoms: C3_3  and  N1_4 
REMARK    3  A    between atoms: C3_3  and  C13_17 
REMARK    4  A    between atoms: N1_4  and  C4_5 
REMARK    5  A    between atoms: C8_11  and  C9_12 
ROOT
HETATM    1  C4  UNL     1      35.074  -6.245  56.230  1.00  0.00     0.128 A 
HETATM    2  C5  UNL     1      34.576  -5.757  57.446  1.00  0.00     0.070 A 
HETATM    3  C6  UNL     1      34.358  -6.547  58.552  1.00  0.00     0.008 A 
HETATM    4  C7  UNL     1      33.828  -5.982  59.828  1.00  0.00     0.068 C 
HETATM    5  N2  UNL     1      34.631  -7.859  58.477  1.00  0.00    -0.362 N 
ATOM      6  H2  UNL     1      34.470  -8.449  59.294  1.00  0.00     0.165 HD
HETATM    7  C8  UNL     1      35.107  -8.410  57.358  1.00  0.00     0.034 A 
HETATM    8  C12 UNL     1      35.329  -7.640  56.252  1.00  0.00     0.075 A 
HETATM    9  S1  UNL     1      35.958  -8.466  54.804  1.00  0.00    -0.047 SA
ENDROOT
BRANCH   1  10
HETATM   10  N1  UNL     1      35.275  -5.573  55.238  1.00  0.00    -0.408 NA
BRANCH  10  11
HETATM   11  C3  UNL     1      35.601  -4.569  54.407  1.00  0.00     0.117 C 
BRANCH  11  12
HETATM   12  C2  UNL     1      36.928  -4.573  53.673  1.00  0.00     0.068 C 
HETATM   13  C1  UNL     1      38.015  -5.383  54.240  1.00  0.00     0.012 C 
ENDBRANCH  11  12
BRANCH  11  14
HETATM   14  C13 UNL     1      34.504  -4.098  53.439  1.00  0.00     0.226 C 
HETATM   15  C14 UNL     1      34.908  -2.975  52.553  1.00  0.00     0.078 C 
HETATM   16  F1  UNL     1      33.959  -5.083  52.692  1.00  0.00    -0.218 F 
HETATM   17 CL1  UNL     1      33.153  -3.476  54.470  1.00  0.00    -0.075 Cl
ENDBRANCH  11  14
ENDBRANCH  10  11
ENDBRANCH   1  10
BRANCH   7  18
HETATM   18  C9  UNL     1      35.385  -9.887  57.306  1.00  0.00     0.029 C 
HETATM   19  C10 UNL     1      36.499 -10.246  58.284  1.00  0.00     0.016 C 
HETATM   20  C11 UNL     1      34.153 -10.655  57.743  1.00  0.00     0.016 C 
ENDBRANCH   7  18
TORSDOF 5
ENDMDL
MODEL 2
REMARK VINA RESULT: -5.185361739      2.160      3.175
REMARK  5 active torsions:
REMARK  status: ('A' for Active; 'I' for Inactive)
REMARK    1  A    between atoms: C2_2  and  C3_3 
REMARK    2  A    between atoms: C3_3  and  N1_4 
REMARK    3  A    between atoms: C3_3  and  C13_17 
REMARK    4  A    between atoms: N1_4  and  C4_5 
REMARK    5  A    between atoms: C8_11  and  C9_12 
ROOT
HETATM    1  C4  UNL     1      34.539  -6.725  54.157  1.00  0.00     0.128 A 
HETATM    2  C5  UNL     1      34.585  -7.724  53.175  1.00  0.00     0.070 A 
HETATM    3  C6  UNL     1      34.612  -9.071  53.459  1.00  0.00     0.008 A 
HETATM    4  C7  UNL     1      34.658 -10.100  52.379  1.00  0.00     0.068 C 
HETATM    5  N2  UNL     1      34.595  -9.464  54.742  1.00  0.00    -0.362 N 
ATOM      6  H2  UNL     1      34.615 -10.461  54.958  1.00  0.00     0.165 HD
HETATM    7  C8  UNL     1      34.553  -8.581  55.742  1.00  0.00     0.034 A 
HETATM    8  C12 UNL     1      34.525  -7.242  55.478  1.00  0.00     0.075 A 
HETATM    9  S1  UNL     1      34.478  -6.141  56.877  1.00  0.00    -0.047 SA
ENDROOT
BRANCH   1  10
HETATM   10  N1  UNL     1      34.516  -5.530  53.936  1.00  0.00    -0.408 NA
BRANCH  10  11
HETATM   11  C3  UNL     1      34.871  -4.265  53.658  1.00  0.00     0.117 C 
BRANCH  11  12
HETATM   12  C2  UNL     1      36.234  -3.956  53.067  1.00  0.00     0.068 C 
HETATM   13  C1  UNL     1      37.379  -4.734  53.561  1.00  0.00     0.012 C 
ENDBRANCH  11  12
BRANCH  11  14
HETATM   14  C13 UNL     1      33.818  -3.399  52.947  1.00  0.00     0.226 C 
HETATM   15  C14 UNL     1      34.349  -2.132  52.378  1.00  0.00     0.078 C 
HETATM   16  F1  UNL     1      33.106  -4.051  52.001  1.00  0.00    -0.218 F 
HETATM   17 CL1  UNL     1      32.614  -2.926  54.212  1.00  0.00    -0.075 Cl
ENDBRANCH  11  14
ENDBRANCH  10  11
ENDBRANCH   1  10
BRANCH   7  18
HETATM   18  C9  UNL     1      34.552  -9.058  57.168  1.00  0.00     0.029 C 
HETATM   19  C10 UNL     1      33.610 -10.248  57.323  1.00  0.00     0.016 C 
HETATM   20  C11 UNL     1      35.938  -9.546  57.545  1.00  0.00     0.016 C 
ENDBRANCH   7  18
TORSDOF 5
ENDMDL
MODEL 3
REMARK VINA RESULT: -5.071274660      2.704      3.646
REMARK  5 active torsions:
REMARK  status: ('A' for Active; 'I' for Inactive)
REMARK    1  A    between atoms: C2_2  and  C3_3 
REMARK    2  A    between atoms: C3_3  and  N1_4 
REMARK    3  A    between atoms: C3_3  and  C13_17 
REMARK    4  A    between atoms: N1_4  and  C4_5 
REMARK    5  A    between atoms: C8_11  and  C9_12 
ROOT
HETATM    1  C4  UNL     1      34.608  -6.306  57.536  1.00  0.00     0.128 A 
HETATM    2  C5  UNL     1      33.863  -5.120  57.588  1.00  0.00     0.070 A 
HETATM    3  C6  UNL     1      33.182  -4.696  58.707  1.00  0.00     0.008 A 
HETATM    4  C7  UNL     1      32.403  -3.423  58.716  1.00  0.00     0.068 C 
HETATM    5  N2  UNL     1      33.223  -5.451  59.816  1.00  0.00    -0.362 N 
ATOM      6  H2  UNL     1      32.720  -5.141  60.648  1.00  0.00     0.165 HD
HETATM    7  C8  UNL     1      33.907  -6.596  59.856  1.00  0.00     0.034 A 
HETATM    8  C12 UNL     1      34.588  -7.030  58.755  1.00  0.00     0.075 A 
HETATM    9  S1  UNL     1      35.464  -8.575  58.902  1.00  0.00    -0.047 SA
ENDROOT
BRANCH   1  10
HETATM   10  N1  UNL     1      35.217  -6.705  56.563  1.00  0.00    -0.408 NA
BRANCH  10  11
HETATM   11  C3  UNL     1      35.999  -6.776  55.473  1.00  0.00     0.117 C 
BRANCH  11  12
HETATM   12  C2  UNL     1      35.535  -7.523  54.237  1.00  0.00     0.068 C 
HETATM   13  C1  UNL     1      34.091  -7.747  54.081  1.00  0.00     0.012 C 
ENDBRANCH  11  12
BRANCH  11  14
HETATM   14  C13 UNL     1      36.681  -5.471  55.033  1.00  0.00     0.226 C 
HETATM   15  C14 UNL     1      35.832  -4.588  54.191  1.00  0.00     0.078 C 
HETATM   16  F1  UNL     1      37.210  -4.749  56.047  1.00  0.00    -0.218 F 
HETATM   17 CL1  UNL     1      38.090  -5.958  54.007  1.00  0.00    -0.075 Cl
ENDBRANCH  11  14
ENDBRANCH  10  11
ENDBRANCH   1  10
BRANCH   7  18
HETATM   18  C9  UNL     1      33.917  -7.424  61.112  1.00  0.00     0.029 C 
HETATM   19  C10 UNL     1      34.720  -6.717  62.199  1.00  0.00     0.016 C 
HETATM   20  C11 UNL     1      32.502  -7.572  61.638  1.00  0.00     0.016 C 
ENDBRANCH   7  18
TORSDOF 5
ENDMDL
MODEL 4
REMARK VINA RESULT: -5.028862025      2.927      3.835
REMARK  5 active torsions:
REMARK  status: ('A' for Active; 'I' for Inactive)
REMARK    1  A    between atoms: C2_2  and  C3_3 
REMARK    2  A    between atoms: C3_3  and  N1_4 
REMARK    3  A    between atoms: C3_3  and  C13_17 
REMARK    4  A    between atoms: N1_4  and  C4_5 
REMARK    5  A    between atoms: C8_11  and  C9_12 
ROOT
HETATM    1  C4  UNL     1      34.665  -6.681  57.517  1.00  0.00     0.128 A 
HETATM    2  C5  UNL     1      34.006  -5.445  57.556  1.00  0.00     0.070 A 
HETATM    3  C6  UNL     1      33.432  -4.921  58.692  1.00  0.00     0.008 A 
HETATM    4  C7  UNL     1      32.741  -3.598  58.684  1.00  0.00     0.068 C 
HETATM    5  N2  UNL     1      33.497  -5.623  59.834  1.00  0.00    -0.362 N 
ATOM      6  H2  UNL     1      33.072  -5.240  60.679  1.00  0.00     0.165 HD
HETATM    7  C8  UNL     1      34.104  -6.811  59.890  1.00  0.00     0.034 A 
HETATM    8  C12 UNL     1      34.679  -7.343  58.772  1.00  0.00     0.075 A 
HETATM    9  S1  UNL     1      35.458  -8.936  58.942  1.00  0.00    -0.047 SA
ENDROOT
BRANCH   1  10
HETATM   10  N1  UNL     1      35.180  -7.168  56.530  1.00  0.00    -0.408 NA
BRANCH  10  11
HETATM   11  C3  UNL     1      35.652  -7.364  55.288  1.00  0.00     0.117 C 
BRANCH  11  12
HETATM   12  C2  UNL     1      37.091  -7.024  54.945  1.00  0.00     0.068 C 
HETATM   13  C1  UNL     1      37.482  -5.608  54.985  1.00  0.00     0.012 C 
ENDBRANCH  11  12
BRANCH  11  14
HETATM   14  C13 UNL     1      35.288  -8.699  54.619  1.00  0.00     0.226 C 
HETATM   15  C14 UNL     1      36.450  -9.453  54.082  1.00  0.00     0.078 C 
HETATM   16  F1  UNL     1      34.537  -9.520  55.387  1.00  0.00    -0.218 F 
HETATM   17 CL1  UNL     1      34.246  -8.284  53.199  1.00  0.00    -0.075 Cl
ENDBRANCH  11  14
ENDBRANCH  10  11
ENDBRANCH   1  10
BRANCH   7  18
HETATM   18  C9  UNL     1      34.142  -7.577  61.184  1.00  0.00     0.029 C 
HETATM   19  C10 UNL     1      35.058  -6.874  62.181  1.00  0.00     0.016 C 
HETATM   20  C11 UNL     1      32.759  -7.604  61.803  1.00  0.00     0.016 C 
ENDBRANCH   7  18
TORSDOF 5
ENDMDL
MODEL 5
REMARK VINA RESULT: -5.002456850      2.934      4.168
REMARK  5 active torsions:
REMARK  status: ('A' for Active; 'I' for Inactive)
REMARK    1  A    between atoms: C2_2  and  C3_3 
REMARK    2  A    between atoms: C3_3  and  N1_4 
REMARK    3  A    between atoms: C3_3  and  C13_17 
REMARK    4  A    between atoms: N1_4  and  C4_5 
REMARK    5  A    between atoms: C8_11  and  C9_12 
ROOT
HETATM    1  C4  UNL     1      34.661  -6.997  57.640  1.00  0.00     0.128 A 
HETATM    2  C5  UNL     1      34.072  -5.725  57.629  1.00  0.00     0.070 A 
HETATM    3  C6  UNL     1      33.590  -5.097  58.755  1.00  0.00     0.008 A 
HETATM    4  C7  UNL     1      32.971  -3.740  58.693  1.00  0.00     0.068 C 
HETATM    5  N2  UNL     1      33.680  -5.726  59.937  1.00  0.00    -0.362 N 
ATOM      6  H2  UNL     1      33.324  -5.266  60.775  1.00  0.00     0.165 HD
HETATM    7  C8  UNL     1      34.226  -6.940  60.042  1.00  0.00     0.034 A 
HETATM    8  C12 UNL     1      34.709  -7.576  58.934  1.00  0.00     0.075 A 
HETATM    9  S1  UNL     1      35.410  -9.196  59.172  1.00  0.00    -0.047 SA
ENDROOT
BRANCH   1  10
HETATM   10  N1  UNL     1      35.094  -7.575  56.663  1.00  0.00    -0.408 NA
BRANCH  10  11
HETATM   11  C3  UNL     1      35.200  -8.209  55.484  1.00  0.00     0.117 C 
BRANCH  11  12
HETATM   12  C2  UNL     1      34.327  -7.809  54.310  1.00  0.00     0.068 C 
HETATM   13  C1  UNL     1      34.284  -6.384  53.951  1.00  0.00     0.012 C 
ENDBRANCH  11  12
BRANCH  11  14
HETATM   14  C13 UNL     1      36.625  -8.471  54.972  1.00  0.00     0.226 C 
HETATM   15  C14 UNL     1      37.445  -9.341  55.854  1.00  0.00     0.078 C 
HETATM   16  F1  UNL     1      36.685  -8.935  53.704  1.00  0.00    -0.218 F 
HETATM   17 CL1  UNL     1      37.451  -6.861  54.931  1.00  0.00    -0.075 Cl
ENDBRANCH  11  14
ENDBRANCH  10  11
ENDBRANCH   1  10
BRANCH   7  18
HETATM   18  C9  UNL     1      34.294  -7.621  61.381  1.00  0.00     0.029 C 
HETATM   19  C10 UNL     1      35.292  -6.902  62.284  1.00  0.00     0.016 C 
HETATM   20  C11 UNL     1      32.944  -7.540  62.066  1.00  0.00     0.016 C 
ENDBRANCH   7  18
TORSDOF 5
ENDMDL
