MODEL 1
REMARK VINA RESULT: -9.438274809      0.000      0.000
REMARK  6 active torsions:
REMARK  status: ('A' for Active; 'I' for Inactive)
REMARK    1  A    between atoms: C1_2  and  C2_3 
REMARK    2  A    between atoms: C3_4  and  N1_5 
REMARK    3  A    between atoms: C4_11  and  C5_12 
REMARK    4  A    between atoms: C5_12  and  N3_13 
REMARK       I    between atoms: N3_13  and  C6_15 
REMARK    5  A    between atoms: C6_15  and  C7_17 
REMARK    6  A    between atoms: C10_20  and  C11_21 
ROOT
HETATM    1  N3  UNL     1      94.836  10.394  17.787  1.00  0.00    -0.355 N 
ATOM      2  H3  UNL     1      94.494  10.938  16.996  1.00  0.00     0.162 HD
HETATM    3  C6  UNL     1      95.729   9.329  17.589  1.00  0.00     0.222 C 
HETATM    4  O5  UNL     1      96.155   8.656  18.554  1.00  0.00    -0.273 OA
ENDROOT
BRANCH   1   5
HETATM    5  C5  UNL     1      94.408  10.705  19.137  1.00  0.00     0.191 C 
BRANCH   5   6
HETATM    6  C4  UNL     1      92.952  10.512  19.282  1.00  0.00     0.111 A 
HETATM    7  C2  UNL     1      92.214  10.856  20.370  1.00  0.00     0.087 A 
HETATM    8  C3  UNL     1      90.903  10.520  20.133  1.00  0.00     0.209 A 
HETATM    9  N2  UNL     1      90.916   9.976  18.880  1.00  0.00    -0.239 N 
HETATM   10  O4  UNL     1      92.137   9.991  18.417  1.00  0.00    -0.238 OA
ATOM     11  H2  UNL     1      90.100   9.616  18.385  1.00  0.00     0.196 HD
BRANCH   7  12
HETATM   12  C1  UNL     1      92.704  11.476  21.594  1.00  0.00     0.276 C 
HETATM   13  O1  UNL     1      93.097  10.806  22.585  1.00  0.00    -0.301 OA
ENDBRANCH   7  12
BRANCH   8  14
HETATM   14  N1  UNL     1      89.756  10.675  20.954  1.00  0.00    -0.095 N 
HETATM   15  O2  UNL     1      89.123   9.681  21.352  1.00  0.00    -0.530 OA
HETATM   16  O3  UNL     1      89.304  11.911  21.339  1.00  0.00    -0.530 OA
ENDBRANCH   8  14
ENDBRANCH   5   6
ENDBRANCH   1   5
BRANCH   3  17
HETATM   17  C7  UNL     1      96.223   8.941  16.215  1.00  0.00     0.078 C 
HETATM   18  C8  UNL     1      97.445   8.128  16.283  1.00  0.00     0.015 C 
HETATM   19  C9  UNL     1      98.538   8.401  15.343  1.00  0.00     0.014 C 
HETATM   20  C10 UNL     1      98.255   9.428  14.283  1.00  0.00     0.093 C 
HETATM   21  C12 UNL     1      97.642  10.634  15.008  1.00  0.00     0.014 C 
HETATM   22  C13 UNL     1      96.265  10.176  15.403  1.00  0.00     0.015 C 
BRANCH  20  23
HETATM   23  C11 UNL     1      99.571   9.905  13.705  1.00  0.00     0.391 C 
HETATM   24  F1  UNL     1     100.637   9.580  14.519  1.00  0.00    -0.171 F 
HETATM   25  F2  UNL     1      99.733   9.302  12.476  1.00  0.00    -0.171 F 
HETATM   26  F3  UNL     1      99.526  11.261  13.518  1.00  0.00    -0.171 F 
ENDBRANCH  20  23
ENDBRANCH   3  17
TORSDOF 6
ENDMDL
MODEL 2
REMARK VINA RESULT: -8.986555259      6.013      9.557
REMARK  6 active torsions:
REMARK  status: ('A' for Active; 'I' for Inactive)
REMARK    1  A    between atoms: C1_2  and  C2_3 
REMARK    2  A    between atoms: C3_4  and  N1_5 
REMARK    3  A    between atoms: C4_11  and  C5_12 
REMARK    4  A    between atoms: C5_12  and  N3_13 
REMARK       I    between atoms: N3_13  and  C6_15 
REMARK    5  A    between atoms: C6_15  and  C7_17 
REMARK    6  A    between atoms: C10_20  and  C11_21 
ROOT
HETATM    1  N3  UNL     1      99.250   9.305  17.295  1.00  0.00    -0.355 N 
ATOM      2  H3  UNL     1      98.893   8.353  17.207  1.00  0.00     0.162 HD
HETATM    3  C6  UNL     1      98.376  10.402  17.251  1.00  0.00     0.222 C 
HETATM    4  O5  UNL     1      98.804  11.573  17.358  1.00  0.00    -0.273 OA
ENDROOT
BRANCH   1   5
HETATM    5  C5  UNL     1     100.669   9.547  17.466  1.00  0.00     0.191 C 
BRANCH   5   6
HETATM    6  C4  UNL     1     101.342   9.666  16.158  1.00  0.00     0.111 A 
HETATM    7  C2  UNL     1     102.082  10.727  15.743  1.00  0.00     0.087 A 
HETATM    8  C3  UNL     1     102.541  10.470  14.474  1.00  0.00     0.209 A 
HETATM    9  N2  UNL     1     102.044   9.233  14.179  1.00  0.00    -0.239 N 
HETATM   10  O4  UNL     1     101.346   8.797  15.194  1.00  0.00    -0.238 OA
ATOM     11  H2  UNL     1     102.194   8.729  13.305  1.00  0.00     0.196 HD
BRANCH   7  12
HETATM   12  C1  UNL     1     102.355  11.944  16.495  1.00  0.00     0.276 C 
HETATM   13  O1  UNL     1     102.846  11.933  17.654  1.00  0.00    -0.301 OA
ENDBRANCH   7  12
BRANCH   8  14
HETATM   14  N1  UNL     1     103.349  11.261  13.616  1.00  0.00    -0.095 N 
HETATM   15  O2  UNL     1     103.616  10.875  12.464  1.00  0.00    -0.530 OA
HETATM   16  O3  UNL     1     103.861  12.469  14.015  1.00  0.00    -0.530 OA
ENDBRANCH   8  14
ENDBRANCH   5   6
ENDBRANCH   1   5
BRANCH   3  17
HETATM   17  C7  UNL     1      96.885  10.234  17.075  1.00  0.00     0.078 C 
HETATM   18  C8  UNL     1      96.164  11.498  17.278  1.00  0.00     0.015 C 
HETATM   19  C9  UNL     1      94.917  11.493  18.050  1.00  0.00     0.014 C 
HETATM   20  C10 UNL     1      94.405  10.144  18.467  1.00  0.00     0.093 C 
HETATM   21  C12 UNL     1      95.602   9.400  19.074  1.00  0.00     0.014 C 
HETATM   22  C13 UNL     1      96.478   9.073  17.897  1.00  0.00     0.015 C 
BRANCH  20  23
HETATM   23  C11 UNL     1      93.407  10.329  19.592  1.00  0.00     0.391 C 
HETATM   24  F1  UNL     1      92.645   9.195  19.793  1.00  0.00    -0.171 F 
HETATM   25  F2  UNL     1      94.115  10.614  20.739  1.00  0.00    -0.171 F 
HETATM   26  F3  UNL     1      92.591  11.392  19.311  1.00  0.00    -0.171 F 
ENDBRANCH  20  23
ENDBRANCH   3  17
TORSDOF 6
ENDMDL
MODEL 3
REMARK VINA RESULT: -8.956416309      5.450      9.074
REMARK  6 active torsions:
REMARK  status: ('A' for Active; 'I' for Inactive)
REMARK    1  A    between atoms: C1_2  and  C2_3 
REMARK    2  A    between atoms: C3_4  and  N1_5 
REMARK    3  A    between atoms: C4_11  and  C5_12 
REMARK    4  A    between atoms: C5_12  and  N3_13 
REMARK       I    between atoms: N3_13  and  C6_15 
REMARK    5  A    between atoms: C6_15  and  C7_17 
REMARK    6  A    between atoms: C10_20  and  C11_21 
ROOT
HETATM    1  N3  UNL     1      96.635   9.068  16.045  1.00  0.00    -0.355 N 
ATOM      2  H3  UNL     1      96.324   9.772  15.375  1.00  0.00     0.162 HD
HETATM    3  C6  UNL     1      96.208   9.116  17.381  1.00  0.00     0.222 C 
HETATM    4  O5  UNL     1      96.584   8.257  18.210  1.00  0.00    -0.273 OA
ENDROOT
BRANCH   1   5
HETATM    5  C5  UNL     1      97.527   8.002  15.633  1.00  0.00     0.191 C 
BRANCH   5   6
HETATM    6  C4  UNL     1      98.935   8.376  15.870  1.00  0.00     0.111 A 
HETATM    7  C2  UNL     1      99.697   9.145  15.050  1.00  0.00     0.087 A 
HETATM    8  C3  UNL     1     100.948   9.268  15.605  1.00  0.00     0.209 A 
HETATM    9  N2  UNL     1     100.876   8.550  16.764  1.00  0.00    -0.239 N 
HETATM   10  O4  UNL     1      99.678   8.042  16.881  1.00  0.00    -0.238 OA
ATOM     11  H2  UNL     1     101.637   8.429  17.431  1.00  0.00     0.196 HD
BRANCH   7  12
HETATM   12  C1  UNL     1      99.284   9.747  13.789  1.00  0.00     0.276 C 
HETATM   13  O1  UNL     1      98.431  10.669  13.723  1.00  0.00    -0.301 OA
ENDBRANCH   7  12
BRANCH   8  14
HETATM   14  N1  UNL     1     102.092   9.967  15.136  1.00  0.00    -0.095 N 
HETATM   15  O2  UNL     1     102.521  10.960  15.747  1.00  0.00    -0.530 OA
HETATM   16  O3  UNL     1     102.763   9.578  14.005  1.00  0.00    -0.530 OA
ENDBRANCH   8  14
ENDBRANCH   5   6
ENDBRANCH   1   5
BRANCH   3  17
HETATM   17  C7  UNL     1      95.280  10.194  17.889  1.00  0.00     0.078 C 
HETATM   18  C8  UNL     1      95.303  10.289  19.355  1.00  0.00     0.015 C 
HETATM   19  C9  UNL     1      94.039  10.459  20.079  1.00  0.00     0.014 C 
HETATM   20  C10 UNL     1      92.814  10.655  19.232  1.00  0.00     0.093 C 
HETATM   21  C12 UNL     1      92.858   9.561  18.156  1.00  0.00     0.014 C 
HETATM   22  C13 UNL     1      93.970   9.983  17.236  1.00  0.00     0.015 C 
BRANCH  20  23
HETATM   23  C11 UNL     1      91.588  10.370  20.075  1.00  0.00     0.391 C 
HETATM   24  F1  UNL     1      91.257  11.443  20.878  1.00  0.00    -0.171 F 
HETATM   25  F2  UNL     1      90.543  10.100  19.219  1.00  0.00    -0.171 F 
HETATM   26  F3  UNL     1      91.811   9.263  20.849  1.00  0.00    -0.171 F 
ENDBRANCH  20  23
ENDBRANCH   3  17
TORSDOF 6
ENDMDL
MODEL 4
REMARK VINA RESULT: -8.882124098      1.953      2.912
REMARK  6 active torsions:
REMARK  status: ('A' for Active; 'I' for Inactive)
REMARK    1  A    between atoms: C1_2  and  C2_3 
REMARK    2  A    between atoms: C3_4  and  N1_5 
REMARK    3  A    between atoms: C4_11  and  C5_12 
REMARK    4  A    between atoms: C5_12  and  N3_13 
REMARK       I    between atoms: N3_13  and  C6_15 
REMARK    5  A    between atoms: C6_15  and  C7_17 
REMARK    6  A    between atoms: C10_20  and  C11_21 
ROOT
HETATM    1  N3  UNL     1      95.284  10.624  16.373  1.00  0.00    -0.355 N 
ATOM      2  H3  UNL     1      95.237  11.620  16.159  1.00  0.00     0.162 HD
HETATM    3  C6  UNL     1      96.408   9.867  16.004  1.00  0.00     0.222 C 
HETATM    4  O5  UNL     1      96.475   8.644  16.261  1.00  0.00    -0.273 OA
ENDROOT
BRANCH   1   5
HETATM    5  C5  UNL     1      94.193   9.964  17.062  1.00  0.00     0.191 C 
BRANCH   5   6
HETATM    6  C4  UNL     1      94.035  10.502  18.428  1.00  0.00     0.111 A 
HETATM    7  C2  UNL     1      92.933  10.360  19.210  1.00  0.00     0.087 A 
HETATM    8  C3  UNL     1      93.162  10.996  20.406  1.00  0.00     0.209 A 
HETATM    9  N2  UNL     1      94.424  11.503  20.283  1.00  0.00    -0.239 N 
HETATM   10  O4  UNL     1      94.900  11.191  19.107  1.00  0.00    -0.238 OA
ATOM     11  H2  UNL     1      94.917  12.040  20.996  1.00  0.00     0.196 HD
BRANCH   7  12
HETATM   12  C1  UNL     1      91.704   9.659  18.864  1.00  0.00     0.276 C 
HETATM   13  O1  UNL     1      90.572  10.207  18.910  1.00  0.00    -0.301 OA
ENDBRANCH   7  12
BRANCH   8  14
HETATM   14  N1  UNL     1      92.326  11.131  21.546  1.00  0.00    -0.095 N 
HETATM   15  O2  UNL     1      92.569  10.499  22.588  1.00  0.00    -0.530 OA
HETATM   16  O3  UNL     1      91.230  11.956  21.544  1.00  0.00    -0.530 OA
ENDBRANCH   8  14
ENDBRANCH   5   6
ENDBRANCH   1   5
BRANCH   3  17
HETATM   17  C7  UNL     1      97.586  10.479  15.283  1.00  0.00     0.078 C 
HETATM   18  C8  UNL     1      98.417   9.459  14.629  1.00  0.00     0.015 C 
HETATM   19  C9  UNL     1      99.877   9.565  14.715  1.00  0.00     0.014 C 
HETATM   20  C10 UNL     1     100.411  10.807  15.369  1.00  0.00     0.093 C 
HETATM   21  C12 UNL     1      99.623  10.975  16.676  1.00  0.00     0.014 C 
HETATM   22  C13 UNL     1      98.249  11.397  16.235  1.00  0.00     0.015 C 
BRANCH  20  23
HETATM   23  C11 UNL     1     101.852  10.565  15.771  1.00  0.00     0.391 C 
HETATM   24  F1  UNL     1     102.665  11.625  15.428  1.00  0.00    -0.171 F 
HETATM   25  F2  UNL     1     101.882  10.388  17.138  1.00  0.00    -0.171 F 
HETATM   26  F3  UNL     1     102.307   9.419  15.177  1.00  0.00    -0.171 F 
ENDBRANCH  20  23
ENDBRANCH   3  17
TORSDOF 6
ENDMDL
MODEL 5
REMARK VINA RESULT: -8.879911574      5.460      8.998
REMARK  6 active torsions:
REMARK  status: ('A' for Active; 'I' for Inactive)
REMARK    1  A    between atoms: C1_2  and  C2_3 
REMARK    2  A    between atoms: C3_4  and  N1_5 
REMARK    3  A    between atoms: C4_11  and  C5_12 
REMARK    4  A    between atoms: C5_12  and  N3_13 
REMARK       I    between atoms: N3_13  and  C6_15 
REMARK    5  A    between atoms: C6_15  and  C7_17 
REMARK    6  A    between atoms: C10_20  and  C11_21 
ROOT
HETATM    1  N3  UNL     1      96.518   9.004  16.079  1.00  0.00    -0.355 N 
ATOM      2  H3  UNL     1      95.977   9.514  15.380  1.00  0.00     0.162 HD
HETATM    3  C6  UNL     1      96.329   9.250  17.448  1.00  0.00     0.222 C 
HETATM    4  O5  UNL     1      96.988   8.630  18.312  1.00  0.00    -0.273 OA
ENDROOT
BRANCH   1   5
HETATM    5  C5  UNL     1      97.497   8.014  15.675  1.00  0.00     0.191 C 
BRANCH   5   6
HETATM    6  C4  UNL     1      98.638   8.655  14.991  1.00  0.00     0.111 A 
HETATM    7  C2  UNL     1      99.885   8.805  15.507  1.00  0.00     0.087 A 
HETATM    8  C3  UNL     1     100.668   9.447  14.578  1.00  0.00     0.209 A 
HETATM    9  N2  UNL     1      99.832   9.656  13.519  1.00  0.00    -0.239 N 
HETATM   10  O4  UNL     1      98.650   9.177  13.803  1.00  0.00    -0.238 OA
ATOM     11  H2  UNL     1     100.090  10.114  12.645  1.00  0.00     0.196 HD
BRANCH   7  12
HETATM   12  C1  UNL     1     100.342   8.371  16.820  1.00  0.00     0.276 C 
HETATM   13  O1  UNL     1     100.500   9.166  17.783  1.00  0.00    -0.301 OA
ENDBRANCH   7  12
BRANCH   8  14
HETATM   14  N1  UNL     1     102.034   9.830  14.640  1.00  0.00    -0.095 N 
HETATM   15  O2  UNL     1     102.861   9.356  13.842  1.00  0.00    -0.530 OA
HETATM   16  O3  UNL     1     102.491  10.728  15.570  1.00  0.00    -0.530 OA
ENDBRANCH   8  14
ENDBRANCH   5   6
ENDBRANCH   1   5
BRANCH   3  17
HETATM   17  C7  UNL     1      95.328  10.264  17.951  1.00  0.00     0.078 C 
HETATM   18  C8  UNL     1      95.263  10.287  19.418  1.00  0.00     0.015 C 
HETATM   19  C9  UNL     1      93.953  10.371  20.073  1.00  0.00     0.014 C 
HETATM   20  C10 UNL     1      92.772  10.561  19.165  1.00  0.00     0.093 C 
HETATM   21  C12 UNL     1      92.924   9.525  18.042  1.00  0.00     0.014 C 
HETATM   22  C13 UNL     1      94.068  10.036  17.211  1.00  0.00     0.015 C 
BRANCH  20  23
HETATM   23  C11 UNL     1      91.513  10.187  19.919  1.00  0.00     0.391 C 
HETATM   24  F1  UNL     1      90.964  11.274  20.570  1.00  0.00    -0.171 F 
HETATM   25  F2  UNL     1      90.606   9.696  19.005  1.00  0.00    -0.171 F 
HETATM   26  F3  UNL     1      91.796   9.199  20.822  1.00  0.00    -0.171 F 
ENDBRANCH  20  23
ENDBRANCH   3  17
TORSDOF 6
ENDMDL
