MODEL 1
REMARK VINA RESULT: -7.765528614      0.000      0.000
REMARK  6 active torsions:
REMARK  status: ('A' for Active; 'I' for Inactive)
REMARK    1  A    between atoms: N2_3  and  C2_5 
REMARK    2  A    between atoms: C4_7  and  N3_8 
REMARK    3  A    between atoms: C5_13  and  S1_14 
REMARK    4  A    between atoms: S1_14  and  C6_15 
REMARK    5  A    between atoms: C6_15  and  C7_16 
REMARK    6  A    between atoms: C7_16  and  O1_17 
ROOT
HETATM    1  N1  UNL     1     -16.731 -26.775  25.046  1.00  0.00    -0.172 NA
HETATM    2  C1  UNL     1     -16.157 -26.038  24.334  1.00  0.00     0.183 C 
HETATM    3  N2  UNL     1     -15.460 -25.156  23.505  1.00  0.00    -0.279 N 
ATOM      4  H2  UNL     1     -15.323 -24.190  23.803  1.00  0.00     0.179 HD
ENDROOT
BRANCH   3   5
HETATM    5  C2  UNL     1     -14.934 -25.583  22.248  1.00  0.00     0.119 A 
HETATM    6  C3  UNL     1     -13.576 -25.468  22.039  1.00  0.00     0.097 A 
HETATM    7  C4  UNL     1     -13.045 -25.879  20.820  1.00  0.00     0.104 A 
HETATM    8  N4  UNL     1     -13.886 -26.372  19.893  1.00  0.00    -0.323 N 
HETATM    9  C5  UNL     1     -15.212 -26.482  20.099  1.00  0.00     0.147 A 
ATOM     10  H4  UNL     1     -13.504 -26.674  18.998  1.00  0.00     0.169 HD
HETATM   11  N6  UNL     1     -15.723 -26.084  21.280  1.00  0.00    -0.322 N 
ATOM     12  H6  UNL     1     -16.726 -26.164  21.443  1.00  0.00     0.169 HD
BRANCH   7  13
HETATM   13  N3  UNL     1     -11.771 -25.767  20.635  1.00  0.00    -0.385 N 
ATOM     14  H32 UNL     1     -11.284 -24.872  20.617  1.00  0.00     0.157 HD
ATOM     15  H31 UNL     1     -11.224 -26.618  20.502  1.00  0.00     0.157 HD
ENDBRANCH   7  13
BRANCH   9  16
HETATM   16  S1  UNL     1     -16.321 -27.139  18.862  1.00  0.00    -0.090 SA
BRANCH  16  17
HETATM   17  C6  UNL     1     -15.498 -27.098  17.241  1.00  0.00     0.140 C 
BRANCH  17  18
HETATM   18  C7  UNL     1     -14.754 -28.434  17.124  1.00  0.00     0.229 C 
HETATM   19  C8  UNL     1     -14.749 -28.871  15.705  1.00  0.00     0.269 C 
HETATM   20  O2  UNL     1     -15.585 -29.055  14.783  1.00  0.00    -0.269 OA
HETATM   21  N5  UNL     1     -13.340 -29.020  15.768  1.00  0.00    -0.291 N 
HETATM   22  C9  UNL     1     -13.289 -28.266  16.994  1.00  0.00     0.269 C 
ATOM     23  H5  UNL     1     -12.642 -29.477  15.181  1.00  0.00     0.172 HD
HETATM   24  O3  UNL     1     -12.345 -27.734  17.606  1.00  0.00    -0.269 OA
BRANCH  18  25
HETATM   25  O1  UNL     1     -15.172 -29.367  18.042  1.00  0.00    -0.371 OA
ATOM     26  H1  UNL     1     -15.022 -30.261  17.759  1.00  0.00     0.211 HD
ENDBRANCH  18  25
ENDBRANCH  17  18
ENDBRANCH  16  17
ENDBRANCH   9  16
ENDBRANCH   3   5
TORSDOF 6
ENDMDL
MODEL 2
REMARK VINA RESULT: -7.714203578      2.744      7.085
REMARK  6 active torsions:
REMARK  status: ('A' for Active; 'I' for Inactive)
REMARK    1  A    between atoms: N2_3  and  C2_5 
REMARK    2  A    between atoms: C4_7  and  N3_8 
REMARK    3  A    between atoms: C5_13  and  S1_14 
REMARK    4  A    between atoms: S1_14  and  C6_15 
REMARK    5  A    between atoms: C6_15  and  C7_16 
REMARK    6  A    between atoms: C7_16  and  O1_17 
ROOT
HETATM    1  N1  UNL     1     -12.196 -28.541  13.135  1.00  0.00    -0.172 NA
HETATM    2  C1  UNL     1     -12.941 -29.051  13.886  1.00  0.00     0.183 C 
HETATM    3  N2  UNL     1     -13.812 -29.675  14.783  1.00  0.00    -0.279 N 
ATOM      4  H2  UNL     1     -14.088 -30.643  14.622  1.00  0.00     0.179 HD
ENDROOT
BRANCH   3   5
HETATM    5  C2  UNL     1     -14.322 -28.981  15.922  1.00  0.00     0.119 A 
HETATM    6  C3  UNL     1     -15.623 -28.524  15.876  1.00  0.00     0.097 A 
HETATM    7  C4  UNL     1     -16.138 -27.846  16.976  1.00  0.00     0.104 A 
HETATM    8  N4  UNL     1     -15.339 -27.664  18.043  1.00  0.00    -0.323 N 
HETATM    9  C5  UNL     1     -14.070 -28.109  18.086  1.00  0.00     0.147 A 
ATOM     10  H4  UNL     1     -15.710 -27.167  18.852  1.00  0.00     0.169 HD
HETATM   11  N6  UNL     1     -13.574 -28.766  17.019  1.00  0.00    -0.322 N 
ATOM     12  H6  UNL     1     -12.612 -29.106  17.044  1.00  0.00     0.169 HD
BRANCH   7  13
HETATM   13  N3  UNL     1     -17.357 -27.424  16.922  1.00  0.00    -0.385 N 
ATOM     14  H32 UNL     1     -18.037 -27.759  16.240  1.00  0.00     0.157 HD
ATOM     15  H31 UNL     1     -17.657 -26.719  17.596  1.00  0.00     0.157 HD
ENDBRANCH   7  13
BRANCH   9  16
HETATM   16  S1  UNL     1     -13.015 -27.863  19.507  1.00  0.00    -0.090 SA
BRANCH  16  17
HETATM   17  C6  UNL     1     -13.480 -26.310  20.331  1.00  0.00     0.140 C 
BRANCH  17  18
HETATM   18  C7  UNL     1     -14.286 -26.726  21.567  1.00  0.00     0.229 C 
HETATM   19  C8  UNL     1     -14.388 -25.573  22.498  1.00  0.00     0.269 C 
HETATM   20  O2  UNL     1     -13.613 -24.757  23.061  1.00  0.00    -0.269 OA
HETATM   21  N5  UNL     1     -15.797 -25.736  22.528  1.00  0.00    -0.291 N 
HETATM   22  C9  UNL     1     -15.747 -26.594  21.371  1.00  0.00     0.269 C 
ATOM     23  H5  UNL     1     -16.545 -25.387  23.126  1.00  0.00     0.172 HD
HETATM   24  O3  UNL     1     -16.633 -26.996  20.595  1.00  0.00    -0.269 OA
BRANCH  18  25
HETATM   25  O1  UNL     1     -13.859 -27.909  22.118  1.00  0.00    -0.371 OA
ATOM     26  H1  UNL     1     -13.853 -27.898  23.068  1.00  0.00     0.211 HD
ENDBRANCH  18  25
ENDBRANCH  17  18
ENDBRANCH  16  17
ENDBRANCH   9  16
ENDBRANCH   3   5
TORSDOF 6
ENDMDL
MODEL 3
REMARK VINA RESULT: -7.513352582      2.898      6.858
REMARK  6 active torsions:
REMARK  status: ('A' for Active; 'I' for Inactive)
REMARK    1  A    between atoms: N2_3  and  C2_5 
REMARK    2  A    between atoms: C4_7  and  N3_8 
REMARK    3  A    between atoms: C5_13  and  S1_14 
REMARK    4  A    between atoms: S1_14  and  C6_15 
REMARK    5  A    between atoms: C6_15  and  C7_16 
REMARK    6  A    between atoms: C7_16  and  O1_17 
ROOT
HETATM    1  N1  UNL     1     -12.577 -29.061  13.537  1.00  0.00    -0.172 NA
HETATM    2  C1  UNL     1     -13.443 -29.310  14.291  1.00  0.00     0.183 C 
HETATM    3  N2  UNL     1     -14.464 -29.626  15.190  1.00  0.00    -0.279 N 
ATOM      4  H2  UNL     1     -15.035 -30.457  15.028  1.00  0.00     0.179 HD
ENDROOT
BRANCH   3   5
HETATM    5  C2  UNL     1     -14.724 -28.808  16.331  1.00  0.00     0.119 A 
HETATM    6  C3  UNL     1     -15.934 -28.149  16.395  1.00  0.00     0.097 A 
HETATM    7  C4  UNL     1     -16.206 -27.347  17.500  1.00  0.00     0.104 A 
HETATM    8  N4  UNL     1     -15.271 -27.250  18.461  1.00  0.00    -0.323 N 
HETATM    9  C5  UNL     1     -14.091 -27.894  18.396  1.00  0.00     0.147 A 
ATOM     10  H4  UNL     1     -15.463 -26.664  19.273  1.00  0.00     0.169 HD
HETATM   11  N6  UNL     1     -13.830 -28.669  17.326  1.00  0.00    -0.322 N 
ATOM     12  H6  UNL     1     -12.938 -29.160  17.269  1.00  0.00     0.169 HD
BRANCH   7  13
HETATM   13  N3  UNL     1     -17.342 -26.735  17.549  1.00  0.00    -0.385 N 
ATOM     14  H32 UNL     1     -17.749 -26.241  16.755  1.00  0.00     0.157 HD
ATOM     15  H31 UNL     1     -17.861 -26.746  18.428  1.00  0.00     0.157 HD
ENDBRANCH   7  13
BRANCH   9  16
HETATM   16  S1  UNL     1     -12.854 -27.759  19.679  1.00  0.00    -0.090 SA
BRANCH  16  17
HETATM   17  C6  UNL     1     -13.679 -27.496  21.277  1.00  0.00     0.140 C 
BRANCH  17  18
HETATM   18  C7  UNL     1     -13.671 -25.978  21.499  1.00  0.00     0.229 C 
HETATM   19  C8  UNL     1     -15.070 -25.483  21.565  1.00  0.00     0.269 C 
HETATM   20  O2  UNL     1     -16.118 -25.553  20.871  1.00  0.00    -0.269 OA
HETATM   21  N5  UNL     1     -14.775 -24.848  22.798  1.00  0.00    -0.291 N 
HETATM   22  C9  UNL     1     -13.558 -25.607  22.927  1.00  0.00     0.269 C 
ATOM     23  H5  UNL     1     -15.239 -24.139  23.366  1.00  0.00     0.172 HD
HETATM   24  O3  UNL     1     -12.799 -25.805  23.894  1.00  0.00    -0.269 OA
BRANCH  18  25
HETATM   25  O1  UNL     1     -12.835 -25.311  20.637  1.00  0.00    -0.371 OA
ATOM     26  H1  UNL     1     -13.278 -24.997  19.857  1.00  0.00     0.211 HD
ENDBRANCH  18  25
ENDBRANCH  17  18
ENDBRANCH  16  17
ENDBRANCH   9  16
ENDBRANCH   3   5
TORSDOF 6
ENDMDL
MODEL 4
REMARK VINA RESULT: -7.512651145      3.306      6.278
REMARK  6 active torsions:
REMARK  status: ('A' for Active; 'I' for Inactive)
REMARK    1  A    between atoms: N2_3  and  C2_5 
REMARK    2  A    between atoms: C4_7  and  N3_8 
REMARK    3  A    between atoms: C5_13  and  S1_14 
REMARK    4  A    between atoms: S1_14  and  C6_15 
REMARK    5  A    between atoms: C6_15  and  C7_16 
REMARK    6  A    between atoms: C7_16  and  O1_17 
ROOT
HETATM    1  N1  UNL     1     -13.817 -29.407  13.869  1.00  0.00    -0.172 NA
HETATM    2  C1  UNL     1     -13.500 -29.025  14.933  1.00  0.00     0.183 C 
HETATM    3  N2  UNL     1     -13.106 -28.557  16.189  1.00  0.00    -0.279 N 
ATOM      4  H2  UNL     1     -12.126 -28.624  16.465  1.00  0.00     0.179 HD
ENDROOT
BRANCH   3   5
HETATM    5  C2  UNL     1     -14.051 -27.986  17.095  1.00  0.00     0.119 A 
HETATM    6  C3  UNL     1     -15.371 -27.917  16.698  1.00  0.00     0.097 A 
HETATM    7  C4  UNL     1     -16.306 -27.364  17.567  1.00  0.00     0.104 A 
HETATM    8  N4  UNL     1     -15.880 -26.918  18.762  1.00  0.00    -0.323 N 
HETATM    9  C5  UNL     1     -14.592 -26.986  19.147  1.00  0.00     0.147 A 
ATOM     10  H4  UNL     1     -16.560 -26.511  19.403  1.00  0.00     0.169 HD
HETATM   11  N6  UNL     1     -13.688 -27.522  18.304  1.00  0.00    -0.322 N 
ATOM     12  H6  UNL     1     -12.710 -27.576  18.588  1.00  0.00     0.169 HD
BRANCH   7  13
HETATM   13  N3  UNL     1     -17.539 -27.304  17.186  1.00  0.00    -0.385 N 
ATOM     14  H32 UNL     1     -18.194 -28.079  17.283  1.00  0.00     0.157 HD
ATOM     15  H31 UNL     1     -17.875 -26.437  16.766  1.00  0.00     0.157 HD
ENDBRANCH   7  13
BRANCH   9  16
HETATM   16  S1  UNL     1     -14.034 -26.391  20.737  1.00  0.00    -0.090 SA
BRANCH  16  17
HETATM   17  C6  UNL     1     -12.263 -26.755  20.922  1.00  0.00     0.140 C 
BRANCH  17  18
HETATM   18  C7  UNL     1     -12.195 -28.127  21.604  1.00  0.00     0.229 C 
HETATM   19  C8  UNL     1     -11.544 -29.100  20.690  1.00  0.00     0.269 C 
HETATM   20  O2  UNL     1     -11.680 -29.500  19.505  1.00  0.00    -0.269 OA
HETATM   21  N5  UNL     1     -10.635 -29.445  21.722  1.00  0.00    -0.291 N 
HETATM   22  C9  UNL     1     -11.010 -28.277  22.477  1.00  0.00     0.269 C 
ATOM     23  H5  UNL     1      -9.980 -30.212  21.871  1.00  0.00     0.172 HD
HETATM   24  O3  UNL     1     -10.479 -27.709  23.449  1.00  0.00    -0.269 OA
BRANCH  18  25
HETATM   25  O1  UNL     1     -13.394 -28.520  22.148  1.00  0.00    -0.371 OA
ATOM     26  H1  UNL     1     -13.358 -29.381  22.548  1.00  0.00     0.211 HD
ENDBRANCH  18  25
ENDBRANCH  17  18
ENDBRANCH  16  17
ENDBRANCH   9  16
ENDBRANCH   3   5
TORSDOF 6
ENDMDL
MODEL 5
REMARK VINA RESULT: -7.413748183      3.016      7.002
REMARK  6 active torsions:
REMARK  status: ('A' for Active; 'I' for Inactive)
REMARK    1  A    between atoms: N2_3  and  C2_5 
REMARK    2  A    between atoms: C4_7  and  N3_8 
REMARK    3  A    between atoms: C5_13  and  S1_14 
REMARK    4  A    between atoms: S1_14  and  C6_15 
REMARK    5  A    between atoms: C6_15  and  C7_16 
REMARK    6  A    between atoms: C7_16  and  O1_17 
ROOT
HETATM    1  N1  UNL     1     -14.008 -29.433  13.891  1.00  0.00    -0.172 NA
HETATM    2  C1  UNL     1     -13.621 -29.089  14.946  1.00  0.00     0.183 C 
HETATM    3  N2  UNL     1     -13.145 -28.667  16.189  1.00  0.00    -0.279 N 
ATOM      4  H2  UNL     1     -12.165 -28.818  16.428  1.00  0.00     0.179 HD
ENDROOT
BRANCH   3   5
HETATM    5  C2  UNL     1     -14.005 -28.028  17.133  1.00  0.00     0.119 A 
HETATM    6  C3  UNL     1     -15.350 -27.945  16.834  1.00  0.00     0.097 A 
HETATM    7  C4  UNL     1     -16.204 -27.326  17.741  1.00  0.00     0.104 A 
HETATM    8  N4  UNL     1     -15.678 -26.832  18.875  1.00  0.00    -0.323 N 
HETATM    9  C5  UNL     1     -14.366 -26.912  19.165  1.00  0.00     0.147 A 
ATOM     10  H4  UNL     1     -16.298 -26.376  19.544  1.00  0.00     0.169 HD
HETATM   11  N6  UNL     1     -13.541 -27.512  18.285  1.00  0.00    -0.322 N 
ATOM     12  H6  UNL     1     -12.545 -27.577  18.497  1.00  0.00     0.169 HD
BRANCH   7  13
HETATM   13  N3  UNL     1     -17.461 -27.255  17.451  1.00  0.00    -0.385 N 
ATOM     14  H32 UNL     1     -18.149 -27.939  17.764  1.00  0.00     0.157 HD
ATOM     15  H31 UNL     1     -17.783 -26.474  16.878  1.00  0.00     0.157 HD
ENDBRANCH   7  13
BRANCH   9  16
HETATM   16  S1  UNL     1     -13.676 -26.252  20.675  1.00  0.00    -0.090 SA
BRANCH  16  17
HETATM   17  C6  UNL     1     -14.353 -27.170  22.090  1.00  0.00     0.140 C 
BRANCH  17  18
HETATM   18  C7  UNL     1     -15.529 -26.328  22.602  1.00  0.00     0.229 C 
HETATM   19  C8  UNL     1     -15.888 -26.768  23.975  1.00  0.00     0.269 C 
HETATM   20  O2  UNL     1     -16.172 -27.842  24.565  1.00  0.00    -0.269 OA
HETATM   21  N5  UNL     1     -15.787 -25.424  24.419  1.00  0.00    -0.291 N 
HETATM   22  C9  UNL     1     -15.097 -25.050  23.211  1.00  0.00     0.269 C 
ATOM     23  H5  UNL     1     -16.084 -24.924  25.257  1.00  0.00     0.172 HD
HETATM   24  O3  UNL     1     -14.437 -24.039  22.910  1.00  0.00    -0.269 OA
BRANCH  18  25
HETATM   25  O1  UNL     1     -16.565 -26.245  21.705  1.00  0.00    -0.371 OA
ATOM     26  H1  UNL     1     -16.385 -25.657  20.981  1.00  0.00     0.211 HD
ENDBRANCH  18  25
ENDBRANCH  17  18
ENDBRANCH  16  17
ENDBRANCH   9  16
ENDBRANCH   3   5
TORSDOF 6
ENDMDL
