MODEL 1
REMARK VINA RESULT: -9.089484849      0.000      0.000
REMARK  6 active torsions:
REMARK  status: ('A' for Active; 'I' for Inactive)
REMARK    1  A    between atoms: C2_5  and  C3_6 
REMARK       I    between atoms: C3_6  and  N2_8 
REMARK    2  A    between atoms: N2_8  and  N3_10 
REMARK    3  A    between atoms: C6_15  and  C7_16 
REMARK    4  A    between atoms: C7_16  and  S1_17 
REMARK    5  A    between atoms: S1_17  and  C8_18 
REMARK    6  A    between atoms: N8_27  and  N9_28 
ROOT
HETATM    1  N1  UNL     1     -17.119 -27.487  17.251  1.00  0.00    -0.383 N 
ATOM      2  H11 UNL     1     -18.020 -27.130  17.568  1.00  0.00     0.157 HD
ATOM      3  H12 UNL     1     -16.985 -27.901  16.330  1.00  0.00     0.157 HD
HETATM    4  C1  UNL     1     -16.072 -27.424  17.997  1.00  0.00     0.136 A 
HETATM    5  C2  UNL     1     -14.860 -27.904  17.570  1.00  0.00     0.079 A 
HETATM    6  C4  UNL     1     -13.790 -27.799  18.477  1.00  0.00     0.023 A 
HETATM    7  C5  UNL     1     -13.986 -27.239  19.715  1.00  0.00     0.029 A 
HETATM    8  C6  UNL     1     -15.215 -26.774  20.092  1.00  0.00     0.045 A 
HETATM    9  N8  UNL     1     -16.249 -26.877  19.213  1.00  0.00    -0.249 N 
ENDROOT
BRANCH   8  10
HETATM   10  C7  UNL     1     -15.476 -26.172  21.404  1.00  0.00     0.141 C 
BRANCH  10  11
HETATM   11  S1  UNL     1     -14.810 -27.047  22.806  1.00  0.00    -0.085 SA
BRANCH  11  12
HETATM   12  C8  UNL     1     -15.941 -27.241  24.149  1.00  0.00     0.176 A 
HETATM   13  N4  UNL     1     -16.702 -26.361  24.825  1.00  0.00    -0.263 N 
HETATM   14  N5  UNL     1     -17.390 -26.996  25.744  1.00  0.00    -0.226 N 
ATOM     15  H4  UNL     1     -16.737 -25.356  24.650  1.00  0.00     0.190 HD
HETATM   16  N6  UNL     1     -17.097 -28.294  25.689  1.00  0.00    -0.226 N 
ATOM     17  H5  UNL     1     -18.045 -26.564  26.396  1.00  0.00     0.210 HD
HETATM   18  N7  UNL     1     -16.219 -28.431  24.721  1.00  0.00    -0.263 N 
ATOM     19  H6  UNL     1     -17.478 -29.034  26.280  1.00  0.00     0.210 HD
ATOM     20  H7  UNL     1     -15.803 -29.318  24.439  1.00  0.00     0.190 HD
ENDBRANCH  11  12
ENDBRANCH  10  11
ENDBRANCH   8  10
BRANCH   9  21
HETATM   21  N9  UNL     1     -17.486 -26.394  19.633  1.00  0.00    -0.337 N 
ATOM     22  H92 UNL     1     -17.507 -25.454  20.027  1.00  0.00     0.177 HD
ATOM     23  H91 UNL     1     -18.338 -26.950  19.555  1.00  0.00     0.177 HD
ENDBRANCH   9  21
BRANCH   5  24
HETATM   24  C3  UNL     1     -14.609 -28.465  16.275  1.00  0.00     0.273 C 
HETATM   25  O1  UNL     1     -15.644 -28.628  15.513  1.00  0.00    -0.266 OA
HETATM   26  N2  UNL     1     -13.409 -28.870  15.696  1.00  0.00    -0.272 N 
ATOM     27  H2  UNL     1     -12.550 -28.774  16.238  1.00  0.00     0.189 HD
BRANCH  26  28
HETATM   28  N3  UNL     1     -13.329 -29.413  14.382  1.00  0.00    -0.342 N 
ATOM     29  H32 UNL     1     -13.802 -30.301  14.209  1.00  0.00     0.176 HD
ATOM     30  H31 UNL     1     -12.825 -28.955  13.623  1.00  0.00     0.176 HD
ENDBRANCH  26  28
ENDBRANCH   5  24
TORSDOF 6
ENDMDL
MODEL 2
REMARK VINA RESULT: -9.056654756      0.914      1.223
REMARK  6 active torsions:
REMARK  status: ('A' for Active; 'I' for Inactive)
REMARK    1  A    between atoms: C2_5  and  C3_6 
REMARK       I    between atoms: C3_6  and  N2_8 
REMARK    2  A    between atoms: N2_8  and  N3_10 
REMARK    3  A    between atoms: C6_15  and  C7_16 
REMARK    4  A    between atoms: C7_16  and  S1_17 
REMARK    5  A    between atoms: S1_17  and  C8_18 
REMARK    6  A    between atoms: N8_27  and  N9_28 
ROOT
HETATM    1  N1  UNL     1     -17.374 -27.146  17.862  1.00  0.00    -0.383 N 
ATOM      2  H11 UNL     1     -18.221 -26.666  18.165  1.00  0.00     0.157 HD
ATOM      3  H12 UNL     1     -17.311 -27.641  16.973  1.00  0.00     0.157 HD
HETATM    4  C1  UNL     1     -16.309 -27.147  18.583  1.00  0.00     0.136 A 
HETATM    5  C2  UNL     1     -15.170 -27.793  18.175  1.00  0.00     0.079 A 
HETATM    6  C4  UNL     1     -14.072 -27.744  19.053  1.00  0.00     0.023 A 
HETATM    7  C5  UNL     1     -14.173 -27.074  20.248  1.00  0.00     0.029 A 
HETATM    8  C6  UNL     1     -15.333 -26.445  20.608  1.00  0.00     0.045 A 
HETATM    9  N8  UNL     1     -16.393 -26.494  19.756  1.00  0.00    -0.249 N 
ENDROOT
BRANCH   8  10
HETATM   10  C7  UNL     1     -15.490 -25.720  21.873  1.00  0.00     0.141 C 
BRANCH  10  11
HETATM   11  S1  UNL     1     -14.776 -26.498  23.308  1.00  0.00    -0.085 SA
BRANCH  11  12
HETATM   12  C8  UNL     1     -15.956 -27.150  24.449  1.00  0.00     0.176 A 
HETATM   13  N4  UNL     1     -16.196 -28.399  24.888  1.00  0.00    -0.263 N 
HETATM   14  N5  UNL     1     -17.183 -28.376  25.750  1.00  0.00    -0.226 N 
ATOM     15  H4  UNL     1     -15.688 -29.235  24.595  1.00  0.00     0.190 HD
HETATM   16  N6  UNL     1     -17.608 -27.122  25.894  1.00  0.00    -0.226 N 
ATOM     17  H5  UNL     1     -17.566 -29.189  26.234  1.00  0.00     0.210 HD
HETATM   18  N7  UNL     1     -16.859 -26.389  25.101  1.00  0.00    -0.263 N 
ATOM     19  H6  UNL     1     -18.363 -26.795  26.497  1.00  0.00     0.210 HD
ATOM     20  H7  UNL     1     -16.947 -25.379  24.994  1.00  0.00     0.190 HD
ENDBRANCH  11  12
ENDBRANCH  10  11
ENDBRANCH   8  10
BRANCH   9  21
HETATM   21  N9  UNL     1     -17.557 -25.843  20.157  1.00  0.00    -0.337 N 
ATOM     22  H92 UNL     1     -17.999 -25.224  19.478  1.00  0.00     0.177 HD
ATOM     23  H91 UNL     1     -17.956 -25.973  21.087  1.00  0.00     0.177 HD
ENDBRANCH   9  21
BRANCH   5  24
HETATM   24  C3  UNL     1     -15.016 -28.474  16.923  1.00  0.00     0.273 C 
HETATM   25  O1  UNL     1     -14.824 -27.724  15.884  1.00  0.00    -0.266 OA
HETATM   26  N2  UNL     1     -15.042 -29.838  16.641  1.00  0.00    -0.272 N 
ATOM     27  H2  UNL     1     -15.191 -30.492  17.409  1.00  0.00     0.189 HD
BRANCH  26  28
HETATM   28  N3  UNL     1     -14.871 -30.358  15.326  1.00  0.00    -0.342 N 
ATOM     29  H32 UNL     1     -14.690 -29.693  14.575  1.00  0.00     0.176 HD
ATOM     30  H31 UNL     1     -14.920 -31.355  15.115  1.00  0.00     0.176 HD
ENDBRANCH  26  28
ENDBRANCH   5  24
TORSDOF 6
ENDMDL
MODEL 3
REMARK VINA RESULT: -9.036031819      1.058      1.254
REMARK  6 active torsions:
REMARK  status: ('A' for Active; 'I' for Inactive)
REMARK    1  A    between atoms: C2_5  and  C3_6 
REMARK       I    between atoms: C3_6  and  N2_8 
REMARK    2  A    between atoms: N2_8  and  N3_10 
REMARK    3  A    between atoms: C6_15  and  C7_16 
REMARK    4  A    between atoms: C7_16  and  S1_17 
REMARK    5  A    between atoms: S1_17  and  C8_18 
REMARK    6  A    between atoms: N8_27  and  N9_28 
ROOT
HETATM    1  N1  UNL     1     -17.062 -27.066  18.147  1.00  0.00    -0.383 N 
ATOM      2  H11 UNL     1     -18.016 -26.820  18.411  1.00  0.00     0.157 HD
ATOM      3  H12 UNL     1     -16.812 -27.361  17.204  1.00  0.00     0.157 HD
HETATM    4  C1  UNL     1     -16.095 -27.006  18.994  1.00  0.00     0.136 A 
HETATM    5  C2  UNL     1     -14.813 -27.337  18.638  1.00  0.00     0.079 A 
HETATM    6  C4  UNL     1     -13.840 -27.252  19.651  1.00  0.00     0.023 A 
HETATM    7  C5  UNL     1     -14.193 -26.853  20.916  1.00  0.00     0.029 A 
HETATM    8  C6  UNL     1     -15.488 -26.533  21.219  1.00  0.00     0.045 A 
HETATM    9  N8  UNL     1     -16.426 -26.616  20.238  1.00  0.00    -0.249 N 
ENDROOT
BRANCH   8  10
HETATM   10  C7  UNL     1     -15.915 -26.106  22.556  1.00  0.00     0.141 C 
BRANCH  10  11
HETATM   11  S1  UNL     1     -15.419 -27.161  23.903  1.00  0.00    -0.085 SA
BRANCH  11  12
HETATM   12  C8  UNL     1     -16.628 -27.332  25.180  1.00  0.00     0.176 A 
HETATM   13  N4  UNL     1     -17.366 -26.430  25.853  1.00  0.00    -0.263 N 
HETATM   14  N5  UNL     1     -18.139 -27.053  26.709  1.00  0.00    -0.226 N 
ATOM     15  H4  UNL     1     -17.328 -25.419  25.719  1.00  0.00     0.190 HD
HETATM   16  N6  UNL     1     -17.927 -28.365  26.615  1.00  0.00    -0.226 N 
ATOM     17  H5  UNL     1     -18.799 -26.605  27.346  1.00  0.00     0.210 HD
HETATM   18  N7  UNL     1     -17.010 -28.521  25.687  1.00  0.00    -0.263 N 
ATOM     19  H6  UNL     1     -18.384 -29.100  27.155  1.00  0.00     0.210 HD
ATOM     20  H7  UNL     1     -16.638 -29.423  25.389  1.00  0.00     0.190 HD
ENDBRANCH  11  12
ENDBRANCH  10  11
ENDBRANCH   8  10
BRANCH   9  21
HETATM   21  N9  UNL     1     -17.734 -26.283  20.584  1.00  0.00    -0.337 N 
ATOM     22  H92 UNL     1     -17.861 -25.472  21.189  1.00  0.00     0.177 HD
ATOM     23  H91 UNL     1     -18.534 -26.822  20.253  1.00  0.00     0.177 HD
ENDBRANCH   9  21
BRANCH   5  24
HETATM   24  C3  UNL     1     -14.400 -27.725  17.321  1.00  0.00     0.273 C 
HETATM   25  O1  UNL     1     -14.869 -27.017  16.344  1.00  0.00    -0.266 OA
HETATM   26  N2  UNL     1     -13.561 -28.762  16.920  1.00  0.00    -0.272 N 
ATOM     27  H2  UNL     1     -13.154 -29.365  17.635  1.00  0.00     0.189 HD
BRANCH  26  28
HETATM   28  N3  UNL     1     -13.247 -29.017  15.554  1.00  0.00    -0.342 N 
ATOM     29  H32 UNL     1     -13.494 -29.931  15.176  1.00  0.00     0.176 HD
ATOM     30  H31 UNL     1     -12.792 -28.329  14.953  1.00  0.00     0.176 HD
ENDBRANCH  26  28
ENDBRANCH   5  24
TORSDOF 6
ENDMDL
MODEL 4
REMARK VINA RESULT: -8.529133008      3.220      4.309
REMARK  6 active torsions:
REMARK  status: ('A' for Active; 'I' for Inactive)
REMARK    1  A    between atoms: C2_5  and  C3_6 
REMARK       I    between atoms: C3_6  and  N2_8 
REMARK    2  A    between atoms: N2_8  and  N3_10 
REMARK    3  A    between atoms: C6_15  and  C7_16 
REMARK    4  A    between atoms: C7_16  and  S1_17 
REMARK    5  A    between atoms: S1_17  and  C8_18 
REMARK    6  A    between atoms: N8_27  and  N9_28 
ROOT
HETATM    1  N1  UNL     1     -17.242 -27.040  18.356  1.00  0.00    -0.383 N 
ATOM      2  H11 UNL     1     -17.964 -26.494  18.825  1.00  0.00     0.157 HD
ATOM      3  H12 UNL     1     -17.408 -27.532  17.478  1.00  0.00     0.157 HD
HETATM    4  C1  UNL     1     -16.053 -27.136  18.839  1.00  0.00     0.136 A 
HETATM    5  C2  UNL     1     -15.083 -27.872  18.207  1.00  0.00     0.079 A 
HETATM    6  C4  UNL     1     -13.825 -27.922  18.836  1.00  0.00     0.023 A 
HETATM    7  C5  UNL     1     -13.618 -27.255  20.018  1.00  0.00     0.029 A 
HETATM    8  C6  UNL     1     -14.619 -26.535  20.607  1.00  0.00     0.045 A 
HETATM    9  N8  UNL     1     -15.835 -26.488  19.997  1.00  0.00    -0.249 N 
ENDROOT
BRANCH   8  10
HETATM   10  C7  UNL     1     -14.448 -25.810  21.871  1.00  0.00     0.141 C 
BRANCH  10  11
HETATM   11  S1  UNL     1     -12.765 -25.552  22.396  1.00  0.00    -0.085 SA
BRANCH  11  12
HETATM   12  C8  UNL     1     -11.786 -24.606  21.270  1.00  0.00     0.176 A 
HETATM   13  N4  UNL     1     -11.828 -23.312  20.902  1.00  0.00    -0.263 N 
HETATM   14  N5  UNL     1     -10.874 -23.077  20.033  1.00  0.00    -0.226 N 
ATOM     15  H4  UNL     1     -12.497 -22.623  21.245  1.00  0.00     0.190 HD
HETATM   16  N6  UNL     1     -10.193 -24.201  19.816  1.00  0.00    -0.226 N 
ATOM     17  H5  UNL     1     -10.684 -22.176  19.593  1.00  0.00     0.210 HD
HETATM   18  N7  UNL     1     -10.755 -25.119  20.570  1.00  0.00    -0.263 N 
ATOM     19  H6  UNL     1      -9.397 -24.324  19.191  1.00  0.00     0.210 HD
ATOM     20  H7  UNL     1     -10.450 -26.092  20.619  1.00  0.00     0.190 HD
ENDBRANCH  11  12
ENDBRANCH  10  11
ENDBRANCH   8  10
BRANCH   9  21
HETATM   21  N9  UNL     1     -16.831 -25.746  20.627  1.00  0.00    -0.337 N 
ATOM     22  H92 UNL     1     -17.273 -25.007  20.080  1.00  0.00     0.177 HD
ATOM     23  H91 UNL     1     -17.110 -25.924  21.591  1.00  0.00     0.177 HD
ENDBRANCH   9  21
BRANCH   5  24
HETATM   24  C3  UNL     1     -15.252 -28.553  16.957  1.00  0.00     0.273 C 
HETATM   25  O1  UNL     1     -15.926 -27.922  16.049  1.00  0.00    -0.266 OA
HETATM   26  N2  UNL     1     -14.800 -29.809  16.558  1.00  0.00    -0.272 N 
ATOM     27  H2  UNL     1     -14.262 -30.367  17.222  1.00  0.00     0.189 HD
BRANCH  26  28
HETATM   28  N3  UNL     1     -15.056 -30.347  15.264  1.00  0.00    -0.342 N 
ATOM     29  H32 UNL     1     -14.775 -29.789  14.457  1.00  0.00     0.176 HD
ATOM     30  H31 UNL     1     -15.501 -31.253  15.120  1.00  0.00     0.176 HD
ENDBRANCH  26  28
ENDBRANCH   5  24
TORSDOF 6
ENDMDL
MODEL 5
REMARK VINA RESULT: -8.292873666      2.227      2.793
REMARK  6 active torsions:
REMARK  status: ('A' for Active; 'I' for Inactive)
REMARK    1  A    between atoms: C2_5  and  C3_6 
REMARK       I    between atoms: C3_6  and  N2_8 
REMARK    2  A    between atoms: N2_8  and  N3_10 
REMARK    3  A    between atoms: C6_15  and  C7_16 
REMARK    4  A    between atoms: C7_16  and  S1_17 
REMARK    5  A    between atoms: S1_17  and  C8_18 
REMARK    6  A    between atoms: N8_27  and  N9_28 
ROOT
HETATM    1  N1  UNL     1     -17.072 -27.511  17.146  1.00  0.00    -0.383 N 
ATOM      2  H11 UNL     1     -17.968 -27.131  17.450  1.00  0.00     0.157 HD
ATOM      3  H12 UNL     1     -16.943 -27.955  16.238  1.00  0.00     0.157 HD
HETATM    4  C1  UNL     1     -16.027 -27.442  17.892  1.00  0.00     0.136 A 
HETATM    5  C2  UNL     1     -14.821 -27.953  17.483  1.00  0.00     0.079 A 
HETATM    6  C4  UNL     1     -13.751 -27.838  18.389  1.00  0.00     0.023 A 
HETATM    7  C5  UNL     1     -13.942 -27.238  19.610  1.00  0.00     0.029 A 
HETATM    8  C6  UNL     1     -15.164 -26.743  19.970  1.00  0.00     0.045 A 
HETATM    9  N8  UNL     1     -16.198 -26.856  19.091  1.00  0.00    -0.249 N 
ENDROOT
BRANCH   8  10
HETATM   10  C7  UNL     1     -15.418 -26.099  21.263  1.00  0.00     0.141 C 
BRANCH  10  11
HETATM   11  S1  UNL     1     -13.979 -25.518  22.137  1.00  0.00    -0.085 SA
BRANCH  11  12
HETATM   12  C8  UNL     1     -14.253 -24.076  23.119  1.00  0.00     0.176 A 
HETATM   13  N4  UNL     1     -14.556 -23.911  24.420  1.00  0.00    -0.263 N 
HETATM   14  N5  UNL     1     -14.651 -22.630  24.685  1.00  0.00    -0.226 N 
ATOM     15  H4  UNL     1     -14.690 -24.665  25.093  1.00  0.00     0.190 HD
HETATM   16  N6  UNL     1     -14.415 -21.935  23.574  1.00  0.00    -0.226 N 
ATOM     17  H5  UNL     1     -14.871 -22.230  25.598  1.00  0.00     0.210 HD
HETATM   18  N7  UNL     1     -14.176 -22.820  22.633  1.00  0.00    -0.263 N 
ATOM     19  H6  UNL     1     -14.418 -20.920  23.474  1.00  0.00     0.210 HD
ATOM     20  H7  UNL     1     -13.960 -22.588  21.663  1.00  0.00     0.190 HD
ENDBRANCH  11  12
ENDBRANCH  10  11
ENDBRANCH   8  10
BRANCH   9  21
HETATM   21  N9  UNL     1     -17.428 -26.342  19.493  1.00  0.00    -0.337 N 
ATOM     22  H92 UNL     1     -18.243 -26.605  18.939  1.00  0.00     0.177 HD
ATOM     23  H91 UNL     1     -17.519 -25.728  20.302  1.00  0.00     0.177 HD
ENDBRANCH   9  21
BRANCH   5  24
HETATM   24  C3  UNL     1     -14.576 -28.556  16.206  1.00  0.00     0.273 C 
HETATM   25  O1  UNL     1     -15.621 -28.805  15.482  1.00  0.00    -0.266 OA
HETATM   26  N2  UNL     1     -13.372 -28.924  15.611  1.00  0.00    -0.272 N 
ATOM     27  H2  UNL     1     -12.505 -28.761  16.123  1.00  0.00     0.189 HD
BRANCH  26  28
HETATM   28  N3  UNL     1     -13.299 -29.520  14.319  1.00  0.00    -0.342 N 
ATOM     29  H32 UNL     1     -12.523 -29.245  13.716  1.00  0.00     0.176 HD
ATOM     30  H31 UNL     1     -13.983 -30.198  13.982  1.00  0.00     0.176 HD
ENDBRANCH  26  28
ENDBRANCH   5  24
TORSDOF 6
ENDMDL
