MODEL 1
REMARK VINA RESULT: -7.335669795      0.000      0.000
REMARK  5 active torsions:
REMARK  status: ('A' for Active; 'I' for Inactive)
REMARK    1  A    between atoms: C2_3  and  N2_4 
REMARK    2  A    between atoms: C3_9  and  N4_10 
REMARK    3  A    between atoms: C5_16  and  S1_17 
REMARK    4  A    between atoms: S1_17  and  C6_18 
REMARK    5  A    between atoms: C6_18  and  C7_19 
ROOT
HETATM    1  C1  UNL     1     -13.872 -27.761  17.191  1.00  0.00     0.177 C 
HETATM    2  N1  UNL     1     -14.893 -27.335  18.125  1.00  0.00    -0.169 N 
HETATM    3  C2  UNL     1     -16.107 -27.082  17.604  1.00  0.00     0.681 A 
HETATM    4  N3  UNL     1     -17.104 -26.663  18.450  1.00  0.00    -0.175 N 
ATOM      5  H3  UNL     1     -18.034 -26.464  18.081  1.00  0.00     0.186 HD
HETATM    6  C3  UNL     1     -16.862 -26.516  19.747  1.00  0.00     0.145 A 
HETATM    7  C4  UNL     1     -15.607 -26.778  20.281  1.00  0.00     0.125 A 
HETATM    8  N5  UNL     1     -15.339 -26.649  21.570  1.00  0.00    -0.330 N 
ATOM      9  H5  UNL     1     -16.093 -26.334  22.182  1.00  0.00     0.168 HD
HETATM   10  C5  UNL     1     -14.122 -26.907  22.141  1.00  0.00     0.160 A 
HETATM   11  N7  UNL     1     -13.180 -27.315  21.286  1.00  0.00    -0.278 N 
ATOM     12  H7  UNL     1     -12.253 -27.525  21.654  1.00  0.00     0.189 HD
HETATM   13  N8  UNL     1     -13.390 -27.463  19.969  1.00  0.00    -0.281 N 
ATOM     14  H8  UNL     1     -12.626 -27.776  19.369  1.00  0.00     0.188 HD
HETATM   15  C8  UNL     1     -14.600 -27.203  19.424  1.00  0.00     0.168 A 
ENDROOT
BRANCH  10  16
HETATM   16  S1  UNL     1     -13.949 -26.600  23.867  1.00  0.00    -0.084 SA
BRANCH  16  17
HETATM   17  C6  UNL     1     -14.829 -27.664  24.970  1.00  0.00     0.181 C 
BRANCH  17  18
HETATM   18  C7  UNL     1     -16.293 -27.295  25.040  1.00  0.00     0.240 C 
HETATM   19  N6  UNL     1     -17.156 -28.062  25.832  1.00  0.00    -0.061 NA
HETATM   20  O1  UNL     1     -16.724 -26.292  24.384  1.00  0.00    -0.276 OA
ENDBRANCH  17  18
ENDBRANCH  16  17
ENDBRANCH  10  16
BRANCH   6  21
HETATM   21  N4  UNL     1     -17.814 -26.123  20.517  1.00  0.00    -0.383 N 
ATOM     22  H42 UNL     1     -18.728 -25.904  20.120  1.00  0.00     0.157 HD
ATOM     23  H41 UNL     1     -17.635 -26.038  21.517  1.00  0.00     0.157 HD
ENDBRANCH   6  21
BRANCH   3  24
HETATM   24  N2  UNL     1     -16.363 -27.211  16.357  1.00  0.00    -0.234 N 
ATOM     25  H22 UNL     1     -16.161 -28.099  15.898  1.00  0.00     0.174 HD
ATOM     26  H21 UNL     1     -16.766 -26.459  15.797  1.00  0.00     0.174 HD
ENDBRANCH   3  24
TORSDOF 5
ENDMDL
MODEL 2
REMARK VINA RESULT: -7.317334359      1.225      1.250
REMARK  5 active torsions:
REMARK  status: ('A' for Active; 'I' for Inactive)
REMARK    1  A    between atoms: C2_3  and  N2_4 
REMARK    2  A    between atoms: C3_9  and  N4_10 
REMARK    3  A    between atoms: C5_16  and  S1_17 
REMARK    4  A    between atoms: S1_17  and  C6_18 
REMARK    5  A    between atoms: C6_18  and  C7_19 
ROOT
HETATM    1  C1  UNL     1     -13.462 -27.943  17.342  1.00  0.00     0.177 C 
HETATM    2  N1  UNL     1     -14.568 -27.528  18.179  1.00  0.00    -0.169 N 
HETATM    3  C2  UNL     1     -15.802 -27.782  17.703  1.00  0.00     0.681 A 
HETATM    4  N3  UNL     1     -16.882 -27.394  18.457  1.00  0.00    -0.175 N 
ATOM      5  H3  UNL     1     -17.828 -27.575  18.120  1.00  0.00     0.186 HD
HETATM    6  C3  UNL     1     -16.700 -26.786  19.623  1.00  0.00     0.145 A 
HETATM    7  C4  UNL     1     -15.426 -26.525  20.110  1.00  0.00     0.125 A 
HETATM    8  N5  UNL     1     -15.214 -25.928  21.271  1.00  0.00    -0.330 N 
ATOM      9  H5  UNL     1     -16.029 -25.646  21.815  1.00  0.00     0.168 HD
HETATM   10  C5  UNL     1     -13.978 -25.662  21.795  1.00  0.00     0.160 A 
HETATM   11  N7  UNL     1     -12.953 -26.056  21.034  1.00  0.00    -0.278 N 
ATOM     12  H7  UNL     1     -12.006 -25.887  21.373  1.00  0.00     0.189 HD
HETATM   13  N8  UNL     1     -13.104 -26.664  19.846  1.00  0.00    -0.281 N 
ATOM     14  H8  UNL     1     -12.278 -26.939  19.313  1.00  0.00     0.188 HD
HETATM   15  C8  UNL     1     -14.334 -26.918  19.347  1.00  0.00     0.168 A 
ENDROOT
BRANCH  10  16
HETATM   16  S1  UNL     1     -13.909 -24.790  23.323  1.00  0.00    -0.084 SA
BRANCH  16  17
HETATM   17  C6  UNL     1     -15.322 -24.898  24.381  1.00  0.00     0.181 C 
BRANCH  17  18
HETATM   18  C7  UNL     1     -15.617 -26.331  24.758  1.00  0.00     0.240 C 
HETATM   19  N6  UNL     1     -15.168 -26.821  25.990  1.00  0.00    -0.061 NA
HETATM   20  O1  UNL     1     -16.273 -27.073  23.958  1.00  0.00    -0.276 OA
ENDBRANCH  17  18
ENDBRANCH  16  17
ENDBRANCH  10  16
BRANCH   6  21
HETATM   21  N4  UNL     1     -17.729 -26.434  20.309  1.00  0.00    -0.383 N 
ATOM     22  H42 UNL     1     -17.683 -26.439  21.328  1.00  0.00     0.157 HD
ATOM     23  H41 UNL     1     -18.578 -26.156  19.817  1.00  0.00     0.157 HD
ENDBRANCH   6  21
BRANCH   3  24
HETATM   24  N2  UNL     1     -16.002 -28.362  16.581  1.00  0.00    -0.234 N 
ATOM     25  H22 UNL     1     -15.216 -28.496  15.944  1.00  0.00     0.174 HD
ATOM     26  H21 UNL     1     -16.920 -28.702  16.294  1.00  0.00     0.174 HD
ENDBRANCH   3  24
TORSDOF 5
ENDMDL
MODEL 3
REMARK VINA RESULT: -7.304539286      2.015      2.016
REMARK  5 active torsions:
REMARK  status: ('A' for Active; 'I' for Inactive)
REMARK    1  A    between atoms: C2_3  and  N2_4 
REMARK    2  A    between atoms: C3_9  and  N4_10 
REMARK    3  A    between atoms: C5_16  and  S1_17 
REMARK    4  A    between atoms: S1_17  and  C6_18 
REMARK    5  A    between atoms: C6_18  and  C7_19 
ROOT
HETATM    1  C1  UNL     1     -14.798 -27.971  16.643  1.00  0.00     0.177 C 
HETATM    2  N1  UNL     1     -15.350 -27.375  17.842  1.00  0.00    -0.169 N 
HETATM    3  C2  UNL     1     -16.685 -27.208  17.862  1.00  0.00     0.681 A 
HETATM    4  N3  UNL     1     -17.253 -26.635  18.973  1.00  0.00    -0.175 N 
ATOM      5  H3  UNL     1     -18.262 -26.497  19.014  1.00  0.00     0.186 HD
HETATM    6  C3  UNL     1     -16.491 -26.260  19.994  1.00  0.00     0.145 A 
HETATM    7  C4  UNL     1     -15.114 -26.433  19.969  1.00  0.00     0.125 A 
HETATM    8  N5  UNL     1     -14.331 -26.076  20.974  1.00  0.00    -0.330 N 
ATOM      9  H5  UNL     1     -14.772 -25.650  21.789  1.00  0.00     0.168 HD
HETATM   10  C5  UNL     1     -12.972 -26.238  20.997  1.00  0.00     0.160 A 
HETATM   11  N7  UNL     1     -12.459 -26.802  19.900  1.00  0.00    -0.278 N 
ATOM     12  H7  UNL     1     -11.451 -26.951  19.860  1.00  0.00     0.189 HD
HETATM   13  N8  UNL     1     -13.200 -27.183  18.848  1.00  0.00    -0.281 N 
ATOM     14  H8  UNL     1     -12.745 -27.606  18.039  1.00  0.00     0.188 HD
HETATM   15  C8  UNL     1     -14.541 -27.014  18.845  1.00  0.00     0.168 A 
ENDROOT
BRANCH  10  16
HETATM   16  S1  UNL     1     -12.101 -25.628  22.401  1.00  0.00    -0.084 SA
BRANCH  16  17
HETATM   17  C6  UNL     1     -13.050 -25.270  23.849  1.00  0.00     0.181 C 
BRANCH  17  18
HETATM   18  C7  UNL     1     -14.389 -24.666  23.495  1.00  0.00     0.240 C 
HETATM   19  N6  UNL     1     -15.562 -25.347  23.843  1.00  0.00    -0.061 NA
HETATM   20  O1  UNL     1     -14.437 -23.547  22.889  1.00  0.00    -0.276 OA
ENDBRANCH  17  18
ENDBRANCH  16  17
ENDBRANCH  10  16
BRANCH   6  21
HETATM   21  N4  UNL     1     -17.049 -25.726  21.022  1.00  0.00    -0.383 N 
ATOM     22  H42 UNL     1     -17.844 -26.188  21.463  1.00  0.00     0.157 HD
ATOM     23  H41 UNL     1     -16.681 -24.845  21.380  1.00  0.00     0.157 HD
ENDBRANCH   6  21
BRANCH   3  24
HETATM   24  N2  UNL     1     -17.439 -27.557  16.888  1.00  0.00    -0.234 N 
ATOM     25  H22 UNL     1     -17.661 -28.545  16.762  1.00  0.00     0.174 HD
ATOM     26  H21 UNL     1     -17.833 -26.886  16.230  1.00  0.00     0.174 HD
ENDBRANCH   3  24
TORSDOF 5
ENDMDL
MODEL 4
REMARK VINA RESULT: -7.303501692      2.868      3.543
REMARK  5 active torsions:
REMARK  status: ('A' for Active; 'I' for Inactive)
REMARK    1  A    between atoms: C2_3  and  N2_4 
REMARK    2  A    between atoms: C3_9  and  N4_10 
REMARK    3  A    between atoms: C5_16  and  S1_17 
REMARK    4  A    between atoms: S1_17  and  C6_18 
REMARK    5  A    between atoms: C6_18  and  C7_19 
ROOT
HETATM    1  C1  UNL     1     -14.788 -27.878  16.580  1.00  0.00     0.177 C 
HETATM    2  N1  UNL     1     -15.336 -27.332  17.805  1.00  0.00    -0.169 N 
HETATM    3  C2  UNL     1     -16.675 -27.196  17.847  1.00  0.00     0.681 A 
HETATM    4  N3  UNL     1     -17.239 -26.671  18.984  1.00  0.00    -0.175 N 
ATOM      5  H3  UNL     1     -18.251 -26.558  19.043  1.00  0.00     0.186 HD
HETATM    6  C3  UNL     1     -16.472 -26.311  20.005  1.00  0.00     0.145 A 
HETATM    7  C4  UNL     1     -15.091 -26.452  19.957  1.00  0.00     0.125 A 
HETATM    8  N5  UNL     1     -14.303 -26.109  20.962  1.00  0.00    -0.330 N 
ATOM      9  H5  UNL     1     -14.741 -25.718  21.797  1.00  0.00     0.168 HD
HETATM   10  C5  UNL     1     -12.941 -26.241  20.962  1.00  0.00     0.160 A 
HETATM   11  N7  UNL     1     -12.430 -26.758  19.841  1.00  0.00    -0.278 N 
ATOM     12  H7  UNL     1     -11.420 -26.883  19.783  1.00  0.00     0.189 HD
HETATM   13  N8  UNL     1     -13.177 -27.123  18.787  1.00  0.00    -0.281 N 
ATOM     14  H8  UNL     1     -12.724 -27.510  17.959  1.00  0.00     0.188 HD
HETATM   15  C8  UNL     1     -14.522 -26.984  18.808  1.00  0.00     0.168 A 
ENDROOT
BRANCH  10  16
HETATM   16  S1  UNL     1     -12.064 -25.655  22.373  1.00  0.00    -0.084 SA
BRANCH  16  17
HETATM   17  C6  UNL     1     -12.451 -24.028  22.948  1.00  0.00     0.181 C 
BRANCH  17  18
HETATM   18  C7  UNL     1     -11.660 -22.979  22.203  1.00  0.00     0.240 C 
HETATM   19  N6  UNL     1     -11.318 -21.787  22.855  1.00  0.00    -0.061 NA
HETATM   20  O1  UNL     1     -11.310 -23.189  20.997  1.00  0.00    -0.276 OA
ENDBRANCH  17  18
ENDBRANCH  16  17
ENDBRANCH  10  16
BRANCH   6  21
HETATM   21  N4  UNL     1     -17.027 -25.822  21.058  1.00  0.00    -0.383 N 
ATOM     22  H42 UNL     1     -17.919 -25.334  20.979  1.00  0.00     0.157 HD
ATOM     23  H41 UNL     1     -16.560 -25.933  21.957  1.00  0.00     0.157 HD
ENDBRANCH   6  21
BRANCH   3  24
HETATM   24  N2  UNL     1     -17.434 -27.532  16.874  1.00  0.00    -0.234 N 
ATOM     25  H22 UNL     1     -18.136 -26.871  16.542  1.00  0.00     0.174 HD
ATOM     26  H21 UNL     1     -17.364 -28.437  16.409  1.00  0.00     0.174 HD
ENDBRANCH   3  24
TORSDOF 5
ENDMDL
MODEL 5
REMARK VINA RESULT: -7.295761291      2.826      2.975
REMARK  5 active torsions:
REMARK  status: ('A' for Active; 'I' for Inactive)
REMARK    1  A    between atoms: C2_3  and  N2_4 
REMARK    2  A    between atoms: C3_9  and  N4_10 
REMARK    3  A    between atoms: C5_16  and  S1_17 
REMARK    4  A    between atoms: S1_17  and  C6_18 
REMARK    5  A    between atoms: C6_18  and  C7_19 
ROOT
HETATM    1  C1  UNL     1     -15.136 -27.689  16.223  1.00  0.00     0.177 C 
HETATM    2  N1  UNL     1     -15.437 -27.346  17.598  1.00  0.00    -0.169 N 
HETATM    3  C2  UNL     1     -16.736 -27.146  17.889  1.00  0.00     0.681 A 
HETATM    4  N3  UNL     1     -17.068 -26.806  19.177  1.00  0.00    -0.175 N 
ATOM      5  H3  UNL     1     -18.045 -26.648  19.424  1.00  0.00     0.186 HD
HETATM    6  C3  UNL     1     -16.123 -26.681  20.100  1.00  0.00     0.145 A 
HETATM    7  C4  UNL     1     -14.784 -26.889  19.795  1.00  0.00     0.125 A 
HETATM    8  N5  UNL     1     -13.822 -26.780  20.697  1.00  0.00    -0.330 N 
ATOM      9  H5  UNL     1     -14.089 -26.524  21.648  1.00  0.00     0.168 HD
HETATM   10  C5  UNL     1     -12.493 -26.986  20.444  1.00  0.00     0.160 A 
HETATM   11  N7  UNL     1     -12.210 -27.318  19.181  1.00  0.00    -0.278 N 
ATOM     12  H7  UNL     1     -11.236 -27.487  18.933  1.00  0.00     0.189 HD
HETATM   13  N8  UNL     1     -13.141 -27.442  18.222  1.00  0.00    -0.281 N 
ATOM     14  H8  UNL     1     -12.858 -27.696  17.275  1.00  0.00     0.188 HD
HETATM   15  C8  UNL     1     -14.449 -27.234  18.493  1.00  0.00     0.168 A 
ENDROOT
BRANCH  10  16
HETATM   16  S1  UNL     1     -11.359 -26.717  21.765  1.00  0.00    -0.084 SA
BRANCH  16  17
HETATM   17  C6  UNL     1     -11.066 -28.069  22.867  1.00  0.00     0.181 C 
BRANCH  17  18
HETATM   18  C7  UNL     1     -11.977 -29.235  22.561  1.00  0.00     0.240 C 
HETATM   19  N6  UNL     1     -13.279 -29.242  23.074  1.00  0.00    -0.061 NA
HETATM   20  O1  UNL     1     -11.553 -30.195  21.839  1.00  0.00    -0.276 OA
ENDBRANCH  17  18
ENDBRANCH  16  17
ENDBRANCH  10  16
BRANCH   6  21
HETATM   21  N4  UNL     1     -16.463 -26.363  21.299  1.00  0.00    -0.383 N 
ATOM     22  H42 UNL     1     -15.820 -25.825  21.880  1.00  0.00     0.157 HD
ATOM     23  H41 UNL     1     -17.374 -26.657  21.648  1.00  0.00     0.157 HD
ENDBRANCH   6  21
BRANCH   3  24
HETATM   24  N2  UNL     1     -17.664 -27.255  17.014  1.00  0.00    -0.234 N 
ATOM     25  H22 UNL     1     -17.945 -28.184  16.703  1.00  0.00     0.174 HD
ATOM     26  H21 UNL     1     -18.140 -26.446  16.615  1.00  0.00     0.174 HD
ENDBRANCH   3  24
TORSDOF 5
ENDMDL
