MODEL 1
REMARK VINA RESULT: -7.267293828      0.000      0.000
REMARK  8 active torsions:
REMARK  status: ('A' for Active; 'I' for Inactive)
REMARK    1  A    between atoms: O1_2  and  C2_3 
REMARK    2  A    between atoms: C2_3  and  C3_5 
REMARK    3  A    between atoms: C7_11  and  C8_12 
REMARK    4  A    between atoms: C11_18  and  C12_19 
REMARK    5  A    between atoms: C11_18  and  C17_24 
REMARK    6  A    between atoms: C12_19  and  C13_20 
REMARK    7  A    between atoms: C13_20  and  C14_21 
REMARK    8  A    between atoms: C23_30  and  N2_31 
REMARK       I    between atoms: N2_31  and  C24_33 
ROOT
HETATM    1  C3  UNL     1       8.476   4.311 -26.682  1.00  0.00     0.196 C 
HETATM    2  N1  UNL     1       8.821   4.774 -25.333  1.00  0.00    -0.375 N 
ATOM      3  H1  UNL     1       9.135   5.697 -25.032  1.00  0.00     0.160 HD
HETATM    4  C4  UNL     1       8.605   3.605 -24.552  1.00  0.00     0.036 A 
HETATM    5  C5  UNL     1       9.247   3.212 -23.370  1.00  0.00     0.030 A 
HETATM    6  C6  UNL     1       8.859   2.023 -22.788  1.00  0.00     0.018 A 
HETATM    7  C7  UNL     1       7.877   1.232 -23.330  1.00  0.00     0.048 A 
HETATM    8  C9  UNL     1       7.281   1.694 -24.514  1.00  0.00     0.026 A 
HETATM    9  C10 UNL     1       7.613   2.842 -25.133  1.00  0.00    -0.019 A 
HETATM   10  C11 UNL     1       7.171   3.627 -26.353  1.00  0.00     0.026 C 
ENDROOT
BRANCH  10  11
HETATM   11  C12 UNL     1       6.309   4.685 -25.694  1.00  0.00     0.018 C 
BRANCH  11  12
HETATM   12  C13 UNL     1       6.143   5.996 -26.327  1.00  0.00     0.006 C 
BRANCH  12  13
HETATM   13  C14 UNL     1       5.636   6.921 -25.175  1.00  0.00    -0.014 A 
HETATM   14  C15 UNL     1       4.872   6.214 -24.086  1.00  0.00     0.005 A 
HETATM   15  C16 UNL     1       6.254   6.857 -23.853  1.00  0.00     0.005 A 
ENDBRANCH  12  13
ENDBRANCH  11  12
ENDBRANCH  10  11
BRANCH  10  16
HETATM   16  C17 UNL     1       6.547   2.838 -27.420  1.00  0.00    -0.023 C 
HETATM   17  C18 UNL     1       6.490   3.571 -28.770  1.00  0.00     0.015 C 
HETATM   18  C19 UNL     1       5.583   2.923 -29.760  1.00  0.00    -0.011 C 
HETATM   19  C20 UNL     1       6.263   1.594 -30.135  1.00  0.00     0.009 C 
HETATM   20  C26 UNL     1       4.189   2.647 -29.298  1.00  0.00     0.035 C 
HETATM   21  C21 UNL     1       6.331   0.818 -28.875  1.00  0.00    -0.011 C 
HETATM   22  C22 UNL     1       4.955   0.511 -28.341  1.00  0.00     0.035 C 
HETATM   23  C28 UNL     1       7.100   1.494 -27.747  1.00  0.00     0.015 C 
HETATM   24  C23 UNL     1       4.285   1.847 -28.048  1.00  0.00     0.034 C 
HETATM   25  C27 UNL     1       5.068   2.635 -27.031  1.00  0.00     0.041 C 
BRANCH  24  26
HETATM   26  N2  UNL     1       2.981   1.598 -27.511  1.00  0.00    -0.352 N 
HETATM   27  C24 UNL     1       1.950   0.887 -28.160  1.00  0.00     0.214 C 
HETATM   28  C25 UNL     1       0.622   0.717 -27.454  1.00  0.00     0.117 C 
HETATM   29  O3  UNL     1       2.034   0.372 -29.289  1.00  0.00    -0.274 OA
ATOM     30  H2  UNL     1       2.780   1.966 -26.580  1.00  0.00     0.163 HD
ENDBRANCH  24  26
ENDBRANCH  10  16
BRANCH   1  31
HETATM   31  C2  UNL     1       9.624   3.493 -27.038  1.00  0.00     0.282 C 
HETATM   32  O2  UNL     1       9.609   2.527 -27.824  1.00  0.00    -0.263 OA
BRANCH  31  33
HETATM   33  O1  UNL     1      10.852   3.784 -26.465  1.00  0.00    -0.325 OA
HETATM   34  C1  UNL     1      11.949   4.363 -27.095  1.00  0.00     0.213 C 
ENDBRANCH  31  33
ENDBRANCH   1  31
BRANCH   7  35
HETATM   35  C8  UNL     1       7.443  -0.046 -22.725  1.00  0.00     0.417 C 
HETATM   36  F1  UNL     1       8.471  -0.932 -22.569  1.00  0.00    -0.166 F 
HETATM   37  F2  UNL     1       6.378  -0.601 -23.439  1.00  0.00    -0.166 F 
HETATM   38  F3  UNL     1       6.931   0.206 -21.446  1.00  0.00    -0.166 F 
ENDBRANCH   7  35
TORSDOF 8
ENDMDL
MODEL 2
REMARK VINA RESULT: -7.226014256      1.024      1.354
REMARK  8 active torsions:
REMARK  status: ('A' for Active; 'I' for Inactive)
REMARK    1  A    between atoms: O1_2  and  C2_3 
REMARK    2  A    between atoms: C2_3  and  C3_5 
REMARK    3  A    between atoms: C7_11  and  C8_12 
REMARK    4  A    between atoms: C11_18  and  C12_19 
REMARK    5  A    between atoms: C11_18  and  C17_24 
REMARK    6  A    between atoms: C12_19  and  C13_20 
REMARK    7  A    between atoms: C13_20  and  C14_21 
REMARK    8  A    between atoms: C23_30  and  N2_31 
REMARK       I    between atoms: N2_31  and  C24_33 
ROOT
HETATM    1  C3  UNL     1       7.880   4.652 -25.646  1.00  0.00     0.196 C 
HETATM    2  N1  UNL     1       8.095   4.959 -24.227  1.00  0.00    -0.375 N 
ATOM      3  H1  UNL     1       8.256   5.863 -23.784  1.00  0.00     0.160 HD
HETATM    4  C4  UNL     1       8.022   3.670 -23.629  1.00  0.00     0.036 A 
HETATM    5  C5  UNL     1       8.665   3.204 -22.474  1.00  0.00     0.030 A 
HETATM    6  C6  UNL     1       8.433   1.901 -22.086  1.00  0.00     0.018 A 
HETATM    7  C7  UNL     1       7.603   1.067 -22.791  1.00  0.00     0.048 A 
HETATM    8  C9  UNL     1       6.995   1.607 -23.936  1.00  0.00     0.026 A 
HETATM    9  C10 UNL     1       7.179   2.868 -24.370  1.00  0.00    -0.019 A 
HETATM   10  C11 UNL     1       6.677   3.751 -25.496  1.00  0.00     0.026 C 
ENDROOT
BRANCH  10  11
HETATM   11  C12 UNL     1       5.641   4.570 -24.753  1.00  0.00     0.018 C 
BRANCH  11  12
HETATM   12  C13 UNL     1       5.318   5.927 -25.202  1.00  0.00     0.006 C 
BRANCH  12  13
HETATM   13  C14 UNL     1       3.937   6.236 -24.542  1.00  0.00    -0.014 A 
HETATM   14  C15 UNL     1       2.770   5.495 -25.143  1.00  0.00     0.005 A 
HETATM   15  C16 UNL     1       3.277   5.232 -23.711  1.00  0.00     0.005 A 
ENDBRANCH  12  13
ENDBRANCH  11  12
ENDBRANCH  10  11
BRANCH  10  16
HETATM   16  C17 UNL     1       6.222   3.045 -26.698  1.00  0.00    -0.023 C 
HETATM   17  C18 UNL     1       6.224   3.922 -27.961  1.00  0.00     0.015 C 
HETATM   18  C19 UNL     1       5.469   3.325 -29.099  1.00  0.00    -0.011 C 
HETATM   19  C20 UNL     1       6.292   2.103 -29.545  1.00  0.00     0.009 C 
HETATM   20  C26 UNL     1       4.068   2.894 -28.810  1.00  0.00     0.035 C 
HETATM   21  C21 UNL     1       6.312   1.195 -28.375  1.00  0.00    -0.011 C 
HETATM   22  C22 UNL     1       4.925   0.726 -28.016  1.00  0.00     0.035 C 
HETATM   23  C28 UNL     1       6.915   1.793 -27.110  1.00  0.00     0.015 C 
HETATM   24  C23 UNL     1       4.119   1.965 -27.650  1.00  0.00     0.034 C 
HETATM   25  C27 UNL     1       4.736   2.688 -26.481  1.00  0.00     0.041 C 
BRANCH  24  26
HETATM   26  N2  UNL     1       2.798   1.559 -27.274  1.00  0.00    -0.352 N 
HETATM   27  C24 UNL     1       1.887   0.871 -28.102  1.00  0.00     0.214 C 
HETATM   28  C25 UNL     1       0.521   0.519 -27.552  1.00  0.00     0.117 C 
HETATM   29  O3  UNL     1       2.107   0.517 -29.274  1.00  0.00    -0.274 OA
ATOM     30  H2  UNL     1       2.490   1.787 -26.328  1.00  0.00     0.163 HD
ENDBRANCH  24  26
ENDBRANCH  10  16
BRANCH   1  31
HETATM   31  C2  UNL     1       9.150   4.063 -26.038  1.00  0.00     0.282 C 
HETATM   32  O2  UNL     1       9.321   3.281 -26.993  1.00  0.00    -0.263 OA
BRANCH  31  33
HETATM   33  O1  UNL     1      10.282   4.374 -25.303  1.00  0.00    -0.325 OA
HETATM   34  C1  UNL     1      11.365   3.538 -25.048  1.00  0.00     0.213 C 
ENDBRANCH  31  33
ENDBRANCH   1  31
BRANCH   7  35
HETATM   35  C8  UNL     1       7.337  -0.334 -22.396  1.00  0.00     0.417 C 
HETATM   36  F1  UNL     1       6.290  -0.885 -23.079  1.00  0.00    -0.166 F 
HETATM   37  F2  UNL     1       7.174  -0.440 -21.013  1.00  0.00    -0.166 F 
HETATM   38  F3  UNL     1       8.464  -1.111 -22.691  1.00  0.00    -0.166 F 
ENDBRANCH   7  35
TORSDOF 8
ENDMDL
MODEL 3
REMARK VINA RESULT: -7.189580773      2.964      4.651
REMARK  8 active torsions:
REMARK  status: ('A' for Active; 'I' for Inactive)
REMARK    1  A    between atoms: O1_2  and  C2_3 
REMARK    2  A    between atoms: C2_3  and  C3_5 
REMARK    3  A    between atoms: C7_11  and  C8_12 
REMARK    4  A    between atoms: C11_18  and  C12_19 
REMARK    5  A    between atoms: C11_18  and  C17_24 
REMARK    6  A    between atoms: C12_19  and  C13_20 
REMARK    7  A    between atoms: C13_20  and  C14_21 
REMARK    8  A    between atoms: C23_30  and  N2_31 
REMARK       I    between atoms: N2_31  and  C24_33 
ROOT
HETATM    1  C3  UNL     1       7.013   3.044 -24.008  1.00  0.00     0.196 C 
HETATM    2  N1  UNL     1       8.318   2.833 -23.369  1.00  0.00    -0.375 N 
ATOM      3  H1  UNL     1       8.525   2.567 -22.406  1.00  0.00     0.160 HD
HETATM    4  C4  UNL     1       9.219   3.095 -24.438  1.00  0.00     0.036 A 
HETATM    5  C5  UNL     1      10.525   3.603 -24.377  1.00  0.00     0.030 A 
HETATM    6  C6  UNL     1      11.209   3.768 -25.563  1.00  0.00     0.018 A 
HETATM    7  C7  UNL     1      10.652   3.454 -26.777  1.00  0.00     0.048 A 
HETATM    8  C9  UNL     1       9.342   2.951 -26.755  1.00  0.00     0.026 A 
HETATM    9  C10 UNL     1       8.618   2.766 -25.635  1.00  0.00    -0.019 A 
HETATM   10  C11 UNL     1       7.249   2.234 -25.260  1.00  0.00     0.026 C 
ENDROOT
BRANCH  10  11
HETATM   11  C12 UNL     1       7.621   0.844 -24.785  1.00  0.00     0.018 C 
BRANCH  11  12
HETATM   12  C13 UNL     1       6.819   0.180 -23.755  1.00  0.00     0.006 C 
BRANCH  12  13
HETATM   13  C14 UNL     1       7.868  -0.361 -22.733  1.00  0.00    -0.014 A 
HETATM   14  C15 UNL     1       7.836   0.305 -21.381  1.00  0.00     0.005 A 
HETATM   15  C16 UNL     1       7.438  -1.169 -21.594  1.00  0.00     0.005 A 
ENDBRANCH  12  13
ENDBRANCH  11  12
ENDBRANCH  10  11
BRANCH  10  16
HETATM   16  C17 UNL     1       6.228   2.321 -26.309  1.00  0.00    -0.023 C 
HETATM   17  C18 UNL     1       6.141   3.707 -26.967  1.00  0.00     0.015 C 
HETATM   18  C19 UNL     1       4.912   3.899 -27.788  1.00  0.00    -0.011 C 
HETATM   19  C20 UNL     1       5.078   2.968 -29.003  1.00  0.00     0.009 C 
HETATM   20  C26 UNL     1       3.613   3.600 -27.114  1.00  0.00     0.035 C 
HETATM   21  C21 UNL     1       5.145   1.599 -28.443  1.00  0.00    -0.011 C 
HETATM   22  C22 UNL     1       3.866   1.230 -27.735  1.00  0.00     0.035 C 
HETATM   23  C28 UNL     1       6.279   1.367 -27.452  1.00  0.00     0.015 C 
HETATM   24  C23 UNL     1       3.697   2.213 -26.584  1.00  0.00     0.034 C 
HETATM   25  C27 UNL     1       4.857   2.133 -25.627  1.00  0.00     0.041 C 
BRANCH  24  26
HETATM   26  N2  UNL     1       2.504   1.877 -25.866  1.00  0.00    -0.352 N 
HETATM   27  C24 UNL     1       1.222   1.723 -26.435  1.00  0.00     0.214 C 
HETATM   28  C25 UNL     1       0.059   1.371 -25.532  1.00  0.00     0.117 C 
HETATM   29  O3  UNL     1       0.952   1.852 -27.642  1.00  0.00    -0.274 OA
ATOM     30  H2  UNL     1       2.587   1.739 -24.858  1.00  0.00     0.163 HD
ENDBRANCH  24  26
ENDBRANCH  10  16
BRANCH   1  31
HETATM   31  C2  UNL     1       6.944   4.492 -24.114  1.00  0.00     0.282 C 
HETATM   32  O2  UNL     1       7.919   5.255 -24.251  1.00  0.00    -0.263 OA
BRANCH  31  33
HETATM   33  O1  UNL     1       5.703   5.105 -24.055  1.00  0.00    -0.325 OA
HETATM   34  C1  UNL     1       5.380   6.379 -24.512  1.00  0.00     0.213 C 
ENDBRANCH  31  33
ENDBRANCH   1  31
BRANCH   7  35
HETATM   35  C8  UNL     1      11.366   3.623 -28.062  1.00  0.00     0.417 C 
HETATM   36  F1  UNL     1      12.724   3.591 -27.919  1.00  0.00    -0.166 F 
HETATM   37  F2  UNL     1      10.937   4.776 -28.724  1.00  0.00    -0.166 F 
HETATM   38  F3  UNL     1      11.025   2.565 -28.914  1.00  0.00    -0.166 F 
ENDBRANCH   7  35
TORSDOF 8
ENDMDL
MODEL 4
REMARK VINA RESULT: -7.085076489      3.103      5.208
REMARK  8 active torsions:
REMARK  status: ('A' for Active; 'I' for Inactive)
REMARK    1  A    between atoms: O1_2  and  C2_3 
REMARK    2  A    between atoms: C2_3  and  C3_5 
REMARK    3  A    between atoms: C7_11  and  C8_12 
REMARK    4  A    between atoms: C11_18  and  C12_19 
REMARK    5  A    between atoms: C11_18  and  C17_24 
REMARK    6  A    between atoms: C12_19  and  C13_20 
REMARK    7  A    between atoms: C13_20  and  C14_21 
REMARK    8  A    between atoms: C23_30  and  N2_31 
REMARK       I    between atoms: N2_31  and  C24_33 
ROOT
HETATM    1  C3  UNL     1       7.315   3.225 -23.983  1.00  0.00     0.196 C 
HETATM    2  N1  UNL     1       8.655   2.947 -23.453  1.00  0.00    -0.375 N 
ATOM      3  H1  UNL     1       8.926   2.666 -22.510  1.00  0.00     0.160 HD
HETATM    4  C4  UNL     1       9.479   3.171 -24.591  1.00  0.00     0.036 A 
HETATM    5  C5  UNL     1      10.808   3.614 -24.635  1.00  0.00     0.030 A 
HETATM    6  C6  UNL     1      11.402   3.754 -25.873  1.00  0.00     0.018 A 
HETATM    7  C7  UNL     1      10.734   3.474 -27.038  1.00  0.00     0.048 A 
HETATM    8  C9  UNL     1       9.407   3.035 -26.911  1.00  0.00     0.026 A 
HETATM    9  C10 UNL     1       8.768   2.878 -25.736  1.00  0.00    -0.019 A 
HETATM   10  C11 UNL     1       7.409   2.411 -25.253  1.00  0.00     0.026 C 
ENDROOT
BRANCH  10  11
HETATM   11  C12 UNL     1       7.750   1.002 -24.812  1.00  0.00     0.018 C 
BRANCH  11  12
HETATM   12  C13 UNL     1       6.912   0.318 -23.824  1.00  0.00     0.006 C 
BRANCH  12  13
HETATM   13  C14 UNL     1       7.924  -0.242 -22.776  1.00  0.00    -0.014 A 
HETATM   14  C15 UNL     1       7.822   0.377 -21.405  1.00  0.00     0.005 A 
HETATM   15  C16 UNL     1       7.458  -1.095 -21.685  1.00  0.00     0.005 A 
ENDBRANCH  12  13
ENDBRANCH  11  12
ENDBRANCH  10  11
BRANCH  10  16
HETATM   16  C17 UNL     1       6.312   2.554 -26.215  1.00  0.00    -0.023 C 
HETATM   17  C18 UNL     1       4.978   1.979 -25.713  1.00  0.00     0.015 C 
HETATM   18  C19 UNL     1       3.956   1.825 -26.787  1.00  0.00    -0.011 C 
HETATM   19  C20 UNL     1       3.565   3.258 -27.194  1.00  0.00     0.009 C 
HETATM   20  C26 UNL     1       4.382   1.069 -28.003  1.00  0.00     0.035 C 
HETATM   21  C21 UNL     1       4.808   3.871 -27.715  1.00  0.00    -0.011 C 
HETATM   22  C22 UNL     1       5.307   3.150 -28.941  1.00  0.00     0.035 C 
HETATM   23  C28 UNL     1       5.967   3.910 -26.726  1.00  0.00     0.015 C 
HETATM   24  C23 UNL     1       5.616   1.720 -28.520  1.00  0.00     0.034 C 
HETATM   25  C27 UNL     1       6.666   1.687 -27.442  1.00  0.00     0.041 C 
BRANCH  24  26
HETATM   26  N2  UNL     1       6.121   1.006 -29.655  1.00  0.00    -0.352 N 
HETATM   27  C24 UNL     1       7.277   1.347 -30.387  1.00  0.00     0.214 C 
HETATM   28  C25 UNL     1       7.674   0.489 -31.569  1.00  0.00     0.117 C 
HETATM   29  O3  UNL     1       8.022   2.314 -30.145  1.00  0.00    -0.274 OA
ATOM     30  H2  UNL     1       5.601   0.183 -29.959  1.00  0.00     0.163 HD
ENDBRANCH  24  26
ENDBRANCH  10  16
BRANCH   1  31
HETATM   31  C2  UNL     1       7.309   4.675 -24.082  1.00  0.00     0.282 C 
HETATM   32  O2  UNL     1       8.282   5.383 -24.403  1.00  0.00    -0.263 OA
BRANCH  31  33
HETATM   33  O1  UNL     1       6.138   5.356 -23.792  1.00  0.00    -0.325 OA
HETATM   34  C1  UNL     1       5.877   6.702 -24.028  1.00  0.00     0.213 C 
ENDBRANCH  31  33
ENDBRANCH   1  31
BRANCH   7  35
HETATM   35  C8  UNL     1      11.349   3.615 -28.376  1.00  0.00     0.417 C 
HETATM   36  F1  UNL     1      12.704   3.775 -28.320  1.00  0.00    -0.166 F 
HETATM   37  F2  UNL     1      10.732   4.635 -29.104  1.00  0.00    -0.166 F 
HETATM   38  F3  UNL     1      11.111   2.447 -29.111  1.00  0.00    -0.166 F 
ENDBRANCH   7  35
TORSDOF 8
ENDMDL
MODEL 5
REMARK VINA RESULT: -7.072439993      2.993      6.456
REMARK  8 active torsions:
REMARK  status: ('A' for Active; 'I' for Inactive)
REMARK    1  A    between atoms: O1_2  and  C2_3 
REMARK    2  A    between atoms: C2_3  and  C3_5 
REMARK    3  A    between atoms: C7_11  and  C8_12 
REMARK    4  A    between atoms: C11_18  and  C12_19 
REMARK    5  A    between atoms: C11_18  and  C17_24 
REMARK    6  A    between atoms: C12_19  and  C13_20 
REMARK    7  A    between atoms: C13_20  and  C14_21 
REMARK    8  A    between atoms: C23_30  and  N2_31 
REMARK       I    between atoms: N2_31  and  C24_33 
ROOT
HETATM    1  C3  UNL     1       6.253   1.404 -26.636  1.00  0.00     0.196 C 
HETATM    2  N1  UNL     1       5.608   1.314 -25.321  1.00  0.00    -0.375 N 
ATOM      3  H1  UNL     1       5.326   0.483 -24.801  1.00  0.00     0.160 HD
HETATM    4  C4  UNL     1       5.475   2.683 -24.961  1.00  0.00     0.036 A 
HETATM    5  C5  UNL     1       4.496   3.286 -24.157  1.00  0.00     0.030 A 
HETATM    6  C6  UNL     1       4.580   4.646 -23.947  1.00  0.00     0.018 A 
HETATM    7  C7  UNL     1       5.580   5.409 -24.495  1.00  0.00     0.048 A 
HETATM    8  C9  UNL     1       6.522   4.734 -25.287  1.00  0.00     0.026 A 
HETATM    9  C10 UNL     1       6.498   3.410 -25.533  1.00  0.00    -0.019 A 
HETATM   10  C11 UNL     1       7.338   2.394 -26.281  1.00  0.00     0.026 C 
ENDROOT
BRANCH  10  11
HETATM   11  C12 UNL     1       8.098   1.772 -25.128  1.00  0.00     0.018 C 
BRANCH  11  12
HETATM   12  C13 UNL     1       8.691   2.623 -24.094  1.00  0.00     0.006 C 
BRANCH  12  13
HETATM   13  C14 UNL     1       8.660   1.746 -22.802  1.00  0.00    -0.014 A 
HETATM   14  C15 UNL     1       7.376   1.823 -22.017  1.00  0.00     0.005 A 
HETATM   15  C16 UNL     1       7.832   0.544 -22.748  1.00  0.00     0.005 A 
ENDBRANCH  12  13
ENDBRANCH  11  12
ENDBRANCH  10  11
BRANCH  10  16
HETATM   16  C17 UNL     1       8.139   2.927 -27.388  1.00  0.00    -0.023 C 
HETATM   17  C18 UNL     1       8.332   1.928 -28.541  1.00  0.00     0.015 C 
HETATM   18  C19 UNL     1       9.396   2.332 -29.504  1.00  0.00    -0.011 C 
HETATM   19  C20 UNL     1       8.845   3.572 -30.231  1.00  0.00     0.009 C 
HETATM   20  C26 UNL     1      10.730   2.660 -28.917  1.00  0.00     0.035 C 
HETATM   21  C21 UNL     1       8.655   4.594 -29.176  1.00  0.00    -0.011 C 
HETATM   22  C22 UNL     1       9.964   4.968 -28.528  1.00  0.00     0.035 C 
HETATM   23  C28 UNL     1       7.708   4.188 -28.053  1.00  0.00     0.015 C 
HETATM   24  C23 UNL     1      10.515   3.705 -27.881  1.00  0.00     0.034 C 
HETATM   25  C27 UNL     1       9.563   3.167 -26.845  1.00  0.00     0.041 C 
BRANCH  24  26
HETATM   26  N2  UNL     1      11.749   4.025 -27.228  1.00  0.00    -0.352 N 
HETATM   27  C24 UNL     1      12.910   4.509 -27.865  1.00  0.00     0.214 C 
HETATM   28  C25 UNL     1      14.139   4.793 -27.028  1.00  0.00     0.117 C 
HETATM   29  O3  UNL     1      13.022   4.730 -29.084  1.00  0.00    -0.274 OA
ATOM     30  H2  UNL     1      11.791   3.891 -26.217  1.00  0.00     0.163 HD
ENDBRANCH  24  26
ENDBRANCH  10  16
BRANCH   1  31
HETATM   31  C2  UNL     1       5.164   1.839 -27.494  1.00  0.00     0.282 C 
HETATM   32  O2  UNL     1       5.276   2.590 -28.482  1.00  0.00    -0.263 OA
BRANCH  31  33
HETATM   33  O1  UNL     1       3.879   1.403 -27.212  1.00  0.00    -0.325 OA
HETATM   34  C1  UNL     1       2.696   2.102 -27.429  1.00  0.00     0.213 C 
ENDBRANCH  31  33
ENDBRANCH   1  31
BRANCH   7  35
HETATM   35  C8  UNL     1       5.692   6.869 -24.284  1.00  0.00     0.417 C 
HETATM   36  F1  UNL     1       4.639   7.382 -23.581  1.00  0.00    -0.166 F 
HETATM   37  F2  UNL     1       5.886   7.536 -25.496  1.00  0.00    -0.166 F 
HETATM   38  F3  UNL     1       6.844   7.133 -23.533  1.00  0.00    -0.166 F 
ENDBRANCH   7  35
TORSDOF 8
ENDMDL
