MODEL 1
REMARK VINA RESULT: -9.632950248      0.000      0.000
REMARK  18 active torsions:
REMARK  status: ('A' for Active; 'I' for Inactive)
REMARK    1  A    between atoms: C2_2  and  N1_3 
REMARK    2  A    between atoms: C2_2  and  C23_33 
REMARK    3  A    between atoms: N1_3  and  C3_5 
REMARK    4  A    between atoms: C3_5  and  C4_6 
REMARK    5  A    between atoms: N2_9  and  C7_10 
REMARK    6  A    between atoms: C7_10  and  O1_11 
REMARK    7  A    between atoms: C7_10  and  C8_13 
REMARK    8  A    between atoms: C8_13  and  N3_14 
REMARK       I    between atoms: N3_14  and  C9_16 
REMARK    9  A    between atoms: C9_16  and  C10_18 
REMARK   10  A    between atoms: C10_18  and  C11_19 
REMARK   11  A    between atoms: C11_19  and  C12_20 
REMARK   12  A    between atoms: C23_33  and  C24_34 
REMARK   13  A    between atoms: C23_33  and  C32_47 
REMARK   14  A    between atoms: C24_34  and  C25_35 
REMARK   15  A    between atoms: C25_35  and  C26_36 
REMARK   16  A    between atoms: C26_36  and  N4_37 
REMARK   17  A    between atoms: N5_39  and  N6_40 
REMARK   18  A    between atoms: C32_47  and  C33_48 
ROOT
HETATM    1  C4  UNL     1      19.917  24.600  19.223  1.00  0.00     0.152 C 
HETATM    2  C5  UNL     1      20.605  24.659  20.522  1.00  0.00     0.054 C 
HETATM    3  C6  UNL     1      22.074  25.065  20.291  1.00  0.00     0.139 C 
HETATM    4  N2  UNL     1      22.154  26.221  19.418  1.00  0.00    -0.275 N 
HETATM    5  C22 UNL     1      20.911  26.762  18.890  1.00  0.00     0.369 C 
HETATM    6  O3  UNL     1      20.809  28.010  18.769  1.00  0.00    -0.238 OA
HETATM    7  O4  UNL     1      19.930  25.846  18.560  1.00  0.00    -0.296 OA
ENDROOT
BRANCH   1   8
HETATM    8  C3  UNL     1      18.463  24.096  19.319  1.00  0.00     0.146 C 
BRANCH   8   9
HETATM    9  N1  UNL     1      18.177  23.199  18.275  1.00  0.00    -0.415 N 
ATOM     10  H1  UNL     1      17.843  23.571  17.386  1.00  0.00     0.153 HD
BRANCH   9  11
HETATM   11  C2  UNL     1      18.334  21.819  18.413  1.00  0.00     0.076 C 
HETATM   12  C1  UNL     1      18.674  21.446  19.823  1.00  0.00     0.032 C 
BRANCH  11  13
HETATM   13  C23 UNL     1      17.276  20.913  17.825  1.00  0.00     0.010 C 
BRANCH  13  14
HETATM   14  C24 UNL     1      16.098  20.561  18.597  1.00  0.00     0.008 C 
BRANCH  14  15
HETATM   15  C25 UNL     1      15.330  19.311  18.223  1.00  0.00     0.031 C 
BRANCH  15  16
HETATM   16  C26 UNL     1      14.099  19.319  19.159  1.00  0.00     0.275 C 
BRANCH  16  17
HETATM   17  N4  UNL     1      12.907  19.347  18.312  1.00  0.00     0.109 N 
HETATM   18  C27 UNL     1      13.048  18.375  17.235  1.00  0.00     0.421 C 
HETATM   19  N5  UNL     1      11.761  17.753  17.044  1.00  0.00    -0.230 N 
HETATM   20  C28 UNL     1      10.833  18.357  17.964  1.00  0.00     0.075 C 
HETATM   21  C29 UNL     1      10.116  19.516  17.331  1.00  0.00     0.042 C 
HETATM   22  C30 UNL     1       9.857  17.333  18.523  1.00  0.00     0.042 C 
HETATM   23  C31 UNL     1      11.755  18.869  19.037  1.00  0.00     0.306 C 
BRANCH  19  24
HETATM   24  N6  UNL     1      11.476  16.749  16.135  1.00  0.00    -0.039 N 
HETATM   25  O5  UNL     1      10.978  17.095  15.028  1.00  0.00    -0.516 OA
HETATM   26  O6  UNL     1      11.716  15.405  16.401  1.00  0.00    -0.516 OA
ENDBRANCH  19  24
ENDBRANCH  16  17
ENDBRANCH  15  16
ENDBRANCH  14  15
ENDBRANCH  13  14
BRANCH  13  27
HETATM   27  C32 UNL     1      17.053  21.429  16.456  1.00  0.00     0.038 C 
BRANCH  27  28
HETATM   28  C33 UNL     1      15.740  21.502  15.810  1.00  0.00     0.121 C 
HETATM   29  C34 UNL     1      14.954  22.740  16.001  1.00  0.00     0.034 C 
HETATM   30  C35 UNL     1      14.213  22.930  14.665  1.00  0.00     0.029 C 
HETATM   31  C36 UNL     1      14.714  21.780  13.862  1.00  0.00     0.168 C 
HETATM   32  O7  UNL     1      15.953  21.459  14.400  1.00  0.00    -0.386 OA
ENDBRANCH  27  28
ENDBRANCH  13  27
ENDBRANCH  11  13
ENDBRANCH   9  11
ENDBRANCH   8   9
ENDBRANCH   1   8
BRANCH   4  33
HETATM   33  C7  UNL     1      23.378  26.800  19.080  1.00  0.00     0.151 C 
BRANCH  33  34
HETATM   34  O1  UNL     1      23.752  27.764  19.901  1.00  0.00    -0.347 OA
ATOM     35  H1  UNL     1      23.888  28.600  19.470  1.00  0.00     0.219 HD
ENDBRANCH  33  34
BRANCH  33  36
HETATM   36  C8  UNL     1      24.322  26.565  18.020  1.00  0.00     0.098 C 
HETATM   37  C18 UNL     1      25.201  25.341  18.348  1.00  0.00     0.040 C 
HETATM   38  C19 UNL     1      26.232  25.363  17.209  1.00  0.00     0.003 C 
HETATM   39  C20 UNL     1      26.287  26.786  16.700  1.00  0.00     0.003 C 
HETATM   40  C21 UNL     1      25.379  27.554  17.698  1.00  0.00     0.040 C 
BRANCH  36  41
HETATM   41  N3  UNL     1      23.639  26.245  16.744  1.00  0.00    -0.344 N 
HETATM   42  C9  UNL     1      22.950  27.269  16.042  1.00  0.00     0.218 C 
HETATM   43  O2  UNL     1      22.930  28.444  16.514  1.00  0.00    -0.274 OA
ATOM     44  H3  UNL     1      23.663  25.295  16.374  1.00  0.00     0.163 HD
BRANCH  42  45
HETATM   45  C10 UNL     1      22.251  27.004  14.768  1.00  0.00     0.103 C 
BRANCH  45  46
HETATM   46  C11 UNL     1      21.790  25.584  14.764  1.00  0.00     0.014 C 
BRANCH  46  47
HETATM   47  C12 UNL     1      20.386  25.377  14.248  1.00  0.00    -0.014 C 
HETATM   48  C13 UNL     1      19.717  26.734  14.252  1.00  0.00     0.004 C 
HETATM   49  C14 UNL     1      18.218  26.619  14.117  1.00  0.00     0.000 C 
HETATM   50  C15 UNL     1      17.727  25.848  15.334  1.00  0.00     0.000 C 
HETATM   51  C16 UNL     1      18.235  24.430  15.171  1.00  0.00     0.000 C 
HETATM   52  C17 UNL     1      19.723  24.437  15.239  1.00  0.00     0.004 C 
ENDBRANCH  46  47
ENDBRANCH  45  46
ENDBRANCH  42  45
ENDBRANCH  36  41
ENDBRANCH  33  36
ENDBRANCH   4  33
TORSDOF 18
ENDMDL
MODEL 2
REMARK VINA RESULT: -9.484203507      3.412      7.241
REMARK  18 active torsions:
REMARK  status: ('A' for Active; 'I' for Inactive)
REMARK    1  A    between atoms: C2_2  and  N1_3 
REMARK    2  A    between atoms: C2_2  and  C23_33 
REMARK    3  A    between atoms: N1_3  and  C3_5 
REMARK    4  A    between atoms: C3_5  and  C4_6 
REMARK    5  A    between atoms: N2_9  and  C7_10 
REMARK    6  A    between atoms: C7_10  and  O1_11 
REMARK    7  A    between atoms: C7_10  and  C8_13 
REMARK    8  A    between atoms: C8_13  and  N3_14 
REMARK       I    between atoms: N3_14  and  C9_16 
REMARK    9  A    between atoms: C9_16  and  C10_18 
REMARK   10  A    between atoms: C10_18  and  C11_19 
REMARK   11  A    between atoms: C11_19  and  C12_20 
REMARK   12  A    between atoms: C23_33  and  C24_34 
REMARK   13  A    between atoms: C23_33  and  C32_47 
REMARK   14  A    between atoms: C24_34  and  C25_35 
REMARK   15  A    between atoms: C25_35  and  C26_36 
REMARK   16  A    between atoms: C26_36  and  N4_37 
REMARK   17  A    between atoms: N5_39  and  N6_40 
REMARK   18  A    between atoms: C32_47  and  C33_48 
ROOT
HETATM    1  C4  UNL     1      14.382  20.460  14.401  1.00  0.00     0.152 C 
HETATM    2  C5  UNL     1      13.766  19.930  15.629  1.00  0.00     0.054 C 
HETATM    3  C6  UNL     1      14.528  20.482  16.848  1.00  0.00     0.139 C 
HETATM    4  N2  UNL     1      14.706  21.918  16.735  1.00  0.00    -0.275 N 
HETATM    5  C22 UNL     1      14.205  22.571  15.535  1.00  0.00     0.369 C 
HETATM    6  O3  UNL     1      13.696  23.717  15.649  1.00  0.00    -0.238 OA
HETATM    7  O4  UNL     1      14.330  21.870  14.351  1.00  0.00    -0.296 OA
ENDROOT
BRANCH   1   8
HETATM    8  C3  UNL     1      13.768  19.887  13.109  1.00  0.00     0.146 C 
BRANCH   8   9
HETATM    9  N1  UNL     1      12.566  19.212  13.384  1.00  0.00    -0.415 N 
ATOM     10  H1  UNL     1      12.516  18.615  14.209  1.00  0.00     0.153 HD
BRANCH   9  11
HETATM   11  C2  UNL     1      11.441  19.332  12.568  1.00  0.00     0.076 C 
HETATM   12  C1  UNL     1      11.193  18.076  11.790  1.00  0.00     0.032 C 
BRANCH  11  13
HETATM   13  C23 UNL     1      10.170  19.886  13.172  1.00  0.00     0.010 C 
BRANCH  13  14
HETATM   14  C24 UNL     1      10.175  21.178  13.834  1.00  0.00     0.008 C 
BRANCH  14  15
HETATM   15  C25 UNL     1       9.741  21.254  15.283  1.00  0.00     0.031 C 
BRANCH  15  16
HETATM   16  C26 UNL     1       9.065  19.891  15.557  1.00  0.00     0.275 C 
BRANCH  16  17
HETATM   17  N4  UNL     1      10.109  18.965  15.992  1.00  0.00     0.109 N 
HETATM   18  C27 UNL     1      10.735  19.468  17.208  1.00  0.00     0.421 C 
HETATM   19  N5  UNL     1      10.980  18.336  18.067  1.00  0.00    -0.230 N 
HETATM   20  C28 UNL     1      10.546  17.150  17.376  1.00  0.00     0.075 C 
HETATM   21  C29 UNL     1      11.674  16.525  16.605  1.00  0.00     0.042 C 
HETATM   22  C30 UNL     1       9.900  16.155  18.329  1.00  0.00     0.042 C 
HETATM   23  C31 UNL     1       9.536  17.710  16.412  1.00  0.00     0.306 C 
BRANCH  19  24
HETATM   24  N6  UNL     1      11.535  18.387  19.334  1.00  0.00    -0.039 N 
HETATM   25  O5  UNL     1      12.794  18.425  19.415  1.00  0.00    -0.516 OA
HETATM   26  O6  UNL     1      10.763  18.399  20.492  1.00  0.00    -0.516 OA
ENDBRANCH  19  24
ENDBRANCH  16  17
ENDBRANCH  15  16
ENDBRANCH  14  15
ENDBRANCH  13  14
BRANCH  13  27
HETATM   27  C32 UNL     1       9.130  19.662  12.142  1.00  0.00     0.038 C 
BRANCH  27  28
HETATM   28  C33 UNL     1       8.425  20.737  11.441  1.00  0.00     0.121 C 
HETATM   29  C34 UNL     1       7.949  20.458  10.069  1.00  0.00     0.034 C 
HETATM   30  C35 UNL     1       6.627  21.239   9.959  1.00  0.00     0.029 C 
HETATM   31  C36 UNL     1       6.501  21.836  11.318  1.00  0.00     0.168 C 
HETATM   32  O7  UNL     1       7.223  21.002  12.162  1.00  0.00    -0.386 OA
ENDBRANCH  27  28
ENDBRANCH  13  27
ENDBRANCH  11  13
ENDBRANCH   9  11
ENDBRANCH   8   9
ENDBRANCH   1   8
BRANCH   4  33
HETATM   33  C7  UNL     1      15.343  22.658  17.730  1.00  0.00     0.151 C 
BRANCH  33  34
HETATM   34  O1  UNL     1      14.530  23.457  18.398  1.00  0.00    -0.347 OA
ATOM     35  H1  UNL     1      14.815  24.363  18.416  1.00  0.00     0.219 HD
ENDBRANCH  33  34
BRANCH  33  36
HETATM   36  C8  UNL     1      16.706  22.735  18.185  1.00  0.00     0.098 C 
HETATM   37  C18 UNL     1      17.111  21.421  18.883  1.00  0.00     0.040 C 
HETATM   38  C19 UNL     1      18.504  21.761  19.437  1.00  0.00     0.003 C 
HETATM   39  C20 UNL     1      18.564  23.266  19.571  1.00  0.00     0.003 C 
HETATM   40  C21 UNL     1      17.116  23.709  19.226  1.00  0.00     0.040 C 
BRANCH  36  41
HETATM   41  N3  UNL     1      17.648  22.902  17.053  1.00  0.00    -0.344 N 
HETATM   42  C9  UNL     1      17.564  24.061  16.237  1.00  0.00     0.218 C 
HETATM   43  O2  UNL     1      16.686  24.939  16.487  1.00  0.00    -0.274 OA
ATOM     44  H3  UNL     1      18.351  22.189  16.862  1.00  0.00     0.163 HD
BRANCH  42  45
HETATM   45  C10 UNL     1      18.476  24.276  15.096  1.00  0.00     0.103 C 
BRANCH  45  46
HETATM   46  C11 UNL     1      18.406  25.713  14.695  1.00  0.00     0.014 C 
BRANCH  46  47
HETATM   47  C12 UNL     1      19.712  26.298  14.210  1.00  0.00    -0.014 C 
HETATM   48  C13 UNL     1      20.813  25.589  14.968  1.00  0.00     0.004 C 
HETATM   49  C14 UNL     1      22.128  26.321  14.858  1.00  0.00     0.000 C 
HETATM   50  C15 UNL     1      21.923  27.688  15.497  1.00  0.00     0.000 C 
HETATM   51  C16 UNL     1      20.986  28.446  14.579  1.00  0.00     0.000 C 
HETATM   52  C17 UNL     1      19.658  27.771  14.575  1.00  0.00     0.004 C 
ENDBRANCH  46  47
ENDBRANCH  45  46
ENDBRANCH  42  45
ENDBRANCH  36  41
ENDBRANCH  33  36
ENDBRANCH   4  33
TORSDOF 18
ENDMDL
MODEL 3
REMARK VINA RESULT: -9.445133301      3.038      6.760
REMARK  18 active torsions:
REMARK  status: ('A' for Active; 'I' for Inactive)
REMARK    1  A    between atoms: C2_2  and  N1_3 
REMARK    2  A    between atoms: C2_2  and  C23_33 
REMARK    3  A    between atoms: N1_3  and  C3_5 
REMARK    4  A    between atoms: C3_5  and  C4_6 
REMARK    5  A    between atoms: N2_9  and  C7_10 
REMARK    6  A    between atoms: C7_10  and  O1_11 
REMARK    7  A    between atoms: C7_10  and  C8_13 
REMARK    8  A    between atoms: C8_13  and  N3_14 
REMARK       I    between atoms: N3_14  and  C9_16 
REMARK    9  A    between atoms: C9_16  and  C10_18 
REMARK   10  A    between atoms: C10_18  and  C11_19 
REMARK   11  A    between atoms: C11_19  and  C12_20 
REMARK   12  A    between atoms: C23_33  and  C24_34 
REMARK   13  A    between atoms: C23_33  and  C32_47 
REMARK   14  A    between atoms: C24_34  and  C25_35 
REMARK   15  A    between atoms: C25_35  and  C26_36 
REMARK   16  A    between atoms: C26_36  and  N4_37 
REMARK   17  A    between atoms: N5_39  and  N6_40 
REMARK   18  A    between atoms: C32_47  and  C33_48 
ROOT
HETATM    1  C4  UNL     1      14.249  21.186  14.721  1.00  0.00     0.152 C 
HETATM    2  C5  UNL     1      14.639  22.562  14.375  1.00  0.00     0.054 C 
HETATM    3  C6  UNL     1      14.953  23.332  15.672  1.00  0.00     0.139 C 
HETATM    4  N2  UNL     1      15.839  22.561  16.525  1.00  0.00    -0.275 N 
HETATM    5  C22 UNL     1      16.236  21.238  16.071  1.00  0.00     0.369 C 
HETATM    6  O3  UNL     1      17.411  20.853  16.311  1.00  0.00    -0.238 OA
HETATM    7  O4  UNL     1      15.277  20.500  15.402  1.00  0.00    -0.296 OA
ENDROOT
BRANCH   1   8
HETATM    8  C3  UNL     1      13.804  20.348  13.506  1.00  0.00     0.146 C 
BRANCH   8   9
HETATM    9  N1  UNL     1      12.875  19.366  13.890  1.00  0.00    -0.415 N 
ATOM     10  H1  UNL     1      13.069  18.803  14.718  1.00  0.00     0.153 HD
BRANCH   9  11
HETATM   11  C2  UNL     1      11.697  19.136  13.178  1.00  0.00     0.076 C 
HETATM   12  C1  UNL     1      11.632  17.730  12.667  1.00  0.00     0.032 C 
BRANCH  11  13
HETATM   13  C23 UNL     1      10.388  19.578  13.794  1.00  0.00     0.010 C 
BRANCH  13  14
HETATM   14  C24 UNL     1      10.299  19.844  15.218  1.00  0.00     0.008 C 
BRANCH  14  15
HETATM   15  C25 UNL     1       9.572  18.851  16.100  1.00  0.00     0.031 C 
BRANCH  15  16
HETATM   16  C26 UNL     1      10.697  17.999  16.732  1.00  0.00     0.275 C 
BRANCH  16  17
HETATM   17  N4  UNL     1      11.512  18.892  17.554  1.00  0.00     0.109 N 
HETATM   18  C27 UNL     1      11.457  18.464  18.946  1.00  0.00     0.421 C 
HETATM   19  N5  UNL     1      12.778  18.626  19.500  1.00  0.00    -0.230 N 
HETATM   20  C28 UNL     1      13.626  19.180  18.477  1.00  0.00     0.075 C 
HETATM   21  C29 UNL     1      13.655  20.680  18.547  1.00  0.00     0.042 C 
HETATM   22  C30 UNL     1      15.026  18.589  18.534  1.00  0.00     0.042 C 
HETATM   23  C31 UNL     1      12.909  18.755  17.223  1.00  0.00     0.306 C 
BRANCH  19  24
HETATM   24  N6  UNL     1      13.158  18.303  20.791  1.00  0.00    -0.039 N 
HETATM   25  O5  UNL     1      13.700  19.210  21.480  1.00  0.00    -0.516 OA
HETATM   26  O6  UNL     1      12.966  17.036  21.335  1.00  0.00    -0.516 OA
ENDBRANCH  19  24
ENDBRANCH  16  17
ENDBRANCH  15  16
ENDBRANCH  14  15
ENDBRANCH  13  14
BRANCH  13  27
HETATM   27  C32 UNL     1       9.872  20.623  12.880  1.00  0.00     0.038 C 
BRANCH  27  28
HETATM   28  C33 UNL     1       8.453  20.949  12.725  1.00  0.00     0.121 C 
HETATM   29  C34 UNL     1       8.018  22.304  13.123  1.00  0.00     0.034 C 
HETATM   30  C35 UNL     1       6.906  22.657  12.119  1.00  0.00     0.029 C 
HETATM   31  C36 UNL     1       6.882  21.454  11.241  1.00  0.00     0.168 C 
HETATM   32  O7  UNL     1       8.152  20.900  11.331  1.00  0.00    -0.386 OA
ENDBRANCH  27  28
ENDBRANCH  13  27
ENDBRANCH  11  13
ENDBRANCH   9  11
ENDBRANCH   8   9
ENDBRANCH   1   8
BRANCH   4  33
HETATM   33  C7  UNL     1      16.294  23.057  17.746  1.00  0.00     0.151 C 
BRANCH  33  34
HETATM   34  O1  UNL     1      15.344  23.603  18.483  1.00  0.00    -0.347 OA
ATOM     35  H1  UNL     1      15.343  24.553  18.461  1.00  0.00     0.219 HD
ENDBRANCH  33  34
BRANCH  33  36
HETATM   36  C8  UNL     1      17.588  23.099  18.374  1.00  0.00     0.098 C 
HETATM   37  C18 UNL     1      17.825  21.816  19.197  1.00  0.00     0.040 C 
HETATM   38  C19 UNL     1      19.150  22.125  19.912  1.00  0.00     0.003 C 
HETATM   39  C20 UNL     1      19.275  23.631  19.964  1.00  0.00     0.003 C 
HETATM   40  C21 UNL     1      17.911  24.118  19.402  1.00  0.00     0.040 C 
BRANCH  36  41
HETATM   41  N3  UNL     1      18.678  23.147  17.372  1.00  0.00    -0.344 N 
HETATM   42  C9  UNL     1      18.810  24.286  16.534  1.00  0.00     0.218 C 
HETATM   43  O2  UNL     1      17.995  25.248  16.655  1.00  0.00    -0.274 OA
ATOM     44  H3  UNL     1      19.329  22.367  17.284  1.00  0.00     0.163 HD
BRANCH  42  45
HETATM   45  C10 UNL     1      19.876  24.385  15.517  1.00  0.00     0.103 C 
BRANCH  45  46
HETATM   46  C11 UNL     1      19.724  25.680  14.790  1.00  0.00     0.014 C 
BRANCH  46  47
HETATM   47  C12 UNL     1      21.023  26.344  14.401  1.00  0.00    -0.014 C 
HETATM   48  C13 UNL     1      21.919  26.292  15.619  1.00  0.00     0.004 C 
HETATM   49  C14 UNL     1      23.091  27.234  15.492  1.00  0.00     0.000 C 
HETATM   50  C15 UNL     1      22.515  28.639  15.391  1.00  0.00     0.000 C 
HETATM   51  C16 UNL     1      21.816  28.715  14.049  1.00  0.00     0.000 C 
HETATM   52  C17 UNL     1      20.660  27.775  14.049  1.00  0.00     0.004 C 
ENDBRANCH  46  47
ENDBRANCH  45  46
ENDBRANCH  42  45
ENDBRANCH  36  41
ENDBRANCH  33  36
ENDBRANCH   4  33
TORSDOF 18
ENDMDL
MODEL 4
REMARK VINA RESULT: -9.325121796      2.093      3.624
REMARK  18 active torsions:
REMARK  status: ('A' for Active; 'I' for Inactive)
REMARK    1  A    between atoms: C2_2  and  N1_3 
REMARK    2  A    between atoms: C2_2  and  C23_33 
REMARK    3  A    between atoms: N1_3  and  C3_5 
REMARK    4  A    between atoms: C3_5  and  C4_6 
REMARK    5  A    between atoms: N2_9  and  C7_10 
REMARK    6  A    between atoms: C7_10  and  O1_11 
REMARK    7  A    between atoms: C7_10  and  C8_13 
REMARK    8  A    between atoms: C8_13  and  N3_14 
REMARK       I    between atoms: N3_14  and  C9_16 
REMARK    9  A    between atoms: C9_16  and  C10_18 
REMARK   10  A    between atoms: C10_18  and  C11_19 
REMARK   11  A    between atoms: C11_19  and  C12_20 
REMARK   12  A    between atoms: C23_33  and  C24_34 
REMARK   13  A    between atoms: C23_33  and  C32_47 
REMARK   14  A    between atoms: C24_34  and  C25_35 
REMARK   15  A    between atoms: C25_35  and  C26_36 
REMARK   16  A    between atoms: C26_36  and  N4_37 
REMARK   17  A    between atoms: N5_39  and  N6_40 
REMARK   18  A    between atoms: C32_47  and  C33_48 
ROOT
HETATM    1  C4  UNL     1      18.817  22.477  19.136  1.00  0.00     0.152 C 
HETATM    2  C5  UNL     1      18.568  22.994  20.491  1.00  0.00     0.054 C 
HETATM    3  C6  UNL     1      19.704  23.962  20.873  1.00  0.00     0.139 C 
HETATM    4  N2  UNL     1      19.944  24.918  19.806  1.00  0.00    -0.275 N 
HETATM    5  C22 UNL     1      19.150  24.794  18.594  1.00  0.00     0.369 C 
HETATM    6  O3  UNL     1      18.786  25.849  18.011  1.00  0.00    -0.238 OA
HETATM    7  O4  UNL     1      18.857  23.510  18.175  1.00  0.00    -0.296 OA
ENDROOT
BRANCH   1   8
HETATM    8  C3  UNL     1      17.799  21.410  18.687  1.00  0.00     0.146 C 
BRANCH   8   9
HETATM    9  N1  UNL     1      16.612  21.510  19.434  1.00  0.00    -0.415 N 
ATOM     10  H1  UNL     1      16.638  21.293  20.430  1.00  0.00     0.153 HD
BRANCH   9  11
HETATM   11  C2  UNL     1      15.400  21.896  18.860  1.00  0.00     0.076 C 
HETATM   12  C1  UNL     1      15.553  23.144  18.047  1.00  0.00     0.032 C 
BRANCH  11  13
HETATM   13  C23 UNL     1      14.579  20.848  18.143  1.00  0.00     0.010 C 
BRANCH  13  14
HETATM   14  C24 UNL     1      14.778  20.602  16.726  1.00  0.00     0.008 C 
BRANCH  14  15
HETATM   15  C25 UNL     1      13.711  21.055  15.751  1.00  0.00     0.031 C 
BRANCH  15  16
HETATM   16  C26 UNL     1      13.786  20.034  14.593  1.00  0.00     0.275 C 
BRANCH  16  17
HETATM   17  N4  UNL     1      12.413  19.692  14.223  1.00  0.00     0.109 N 
HETATM   18  C27 UNL     1      11.800  18.909  15.288  1.00  0.00     0.421 C 
HETATM   19  N5  UNL     1      10.433  19.350  15.415  1.00  0.00    -0.230 N 
HETATM   20  C28 UNL     1      10.197  20.364  14.420  1.00  0.00     0.075 C 
HETATM   21  C29 UNL     1       9.651  19.767  13.154  1.00  0.00     0.042 C 
HETATM   22  C30 UNL     1       9.297  21.468  14.952  1.00  0.00     0.042 C 
HETATM   23  C31 UNL     1      11.590  20.874  14.168  1.00  0.00     0.306 C 
BRANCH  19  24
HETATM   24  N6  UNL     1       9.514  18.879  16.336  1.00  0.00    -0.039 N 
HETATM   25  O5  UNL     1       9.549  19.376  17.496  1.00  0.00    -0.516 OA
HETATM   26  O6  UNL     1       8.575  17.899  16.027  1.00  0.00    -0.516 OA
ENDBRANCH  19  24
ENDBRANCH  16  17
ENDBRANCH  15  16
ENDBRANCH  14  15
ENDBRANCH  13  14
BRANCH  13  27
HETATM   27  C32 UNL     1      14.599  19.671  19.039  1.00  0.00     0.038 C 
BRANCH  27  28
HETATM   28  C33 UNL     1      13.475  19.264  19.884  1.00  0.00     0.121 C 
HETATM   29  C34 UNL     1      12.277  18.720  19.209  1.00  0.00     0.034 C 
HETATM   30  C35 UNL     1      11.749  17.646  20.178  1.00  0.00     0.029 C 
HETATM   31  C36 UNL     1      12.755  17.691  21.275  1.00  0.00     0.168 C 
HETATM   32  O7  UNL     1      13.919  18.178  20.696  1.00  0.00    -0.386 OA
ENDBRANCH  27  28
ENDBRANCH  13  27
ENDBRANCH  11  13
ENDBRANCH   9  11
ENDBRANCH   8   9
ENDBRANCH   1   8
BRANCH   4  33
HETATM   33  C7  UNL     1      20.906  25.920  19.924  1.00  0.00     0.151 C 
BRANCH  33  34
HETATM   34  O1  UNL     1      20.485  26.984  20.584  1.00  0.00    -0.347 OA
ATOM     35  H1  UNL     1      21.131  27.344  21.180  1.00  0.00     0.219 HD
ENDBRANCH  33  34
BRANCH  33  36
HETATM   36  C8  UNL     1      22.268  26.039  19.475  1.00  0.00     0.098 C 
HETATM   37  C18 UNL     1      23.061  24.764  19.829  1.00  0.00     0.040 C 
HETATM   38  C19 UNL     1      24.495  25.150  19.436  1.00  0.00     0.003 C 
HETATM   39  C20 UNL     1      24.563  26.660  19.468  1.00  0.00     0.003 C 
HETATM   40  C21 UNL     1      23.178  27.064  20.042  1.00  0.00     0.040 C 
BRANCH  36  41
HETATM   41  N3  UNL     1      22.345  26.170  18.001  1.00  0.00    -0.344 N 
HETATM   42  C9  UNL     1      21.725  27.277  17.363  1.00  0.00     0.218 C 
HETATM   43  O2  UNL     1      21.115  28.139  18.062  1.00  0.00    -0.274 OA
ATOM     44  H3  UNL     1      22.841  25.471  17.449  1.00  0.00     0.163 HD
BRANCH  42  45
HETATM   45  C10 UNL     1      21.770  27.455  15.898  1.00  0.00     0.103 C 
BRANCH  45  46
HETATM   46  C11 UNL     1      21.852  26.110  15.256  1.00  0.00     0.014 C 
BRANCH  46  47
HETATM   47  C12 UNL     1      20.636  25.718  14.450  1.00  0.00    -0.014 C 
HETATM   48  C13 UNL     1      19.712  26.916  14.449  1.00  0.00     0.004 C 
HETATM   49  C14 UNL     1      18.318  26.546  14.003  1.00  0.00     0.000 C 
HETATM   50  C15 UNL     1      17.786  25.543  15.017  1.00  0.00     0.000 C 
HETATM   51  C16 UNL     1      18.597  24.277  14.824  1.00  0.00     0.000 C 
HETATM   52  C17 UNL     1      20.015  24.548  15.192  1.00  0.00     0.004 C 
ENDBRANCH  46  47
ENDBRANCH  45  46
ENDBRANCH  42  45
ENDBRANCH  36  41
ENDBRANCH  33  36
ENDBRANCH   4  33
TORSDOF 18
ENDMDL
MODEL 5
REMARK VINA RESULT: -9.224518746      2.852     12.440
REMARK  18 active torsions:
REMARK  status: ('A' for Active; 'I' for Inactive)
REMARK    1  A    between atoms: C2_2  and  N1_3 
REMARK    2  A    between atoms: C2_2  and  C23_33 
REMARK    3  A    between atoms: N1_3  and  C3_5 
REMARK    4  A    between atoms: C3_5  and  C4_6 
REMARK    5  A    between atoms: N2_9  and  C7_10 
REMARK    6  A    between atoms: C7_10  and  O1_11 
REMARK    7  A    between atoms: C7_10  and  C8_13 
REMARK    8  A    between atoms: C8_13  and  N3_14 
REMARK       I    between atoms: N3_14  and  C9_16 
REMARK    9  A    between atoms: C9_16  and  C10_18 
REMARK   10  A    between atoms: C10_18  and  C11_19 
REMARK   11  A    between atoms: C11_19  and  C12_20 
REMARK   12  A    between atoms: C23_33  and  C24_34 
REMARK   13  A    between atoms: C23_33  and  C32_47 
REMARK   14  A    between atoms: C24_34  and  C25_35 
REMARK   15  A    between atoms: C25_35  and  C26_36 
REMARK   16  A    between atoms: C26_36  and  N4_37 
REMARK   17  A    between atoms: N5_39  and  N6_40 
REMARK   18  A    between atoms: C32_47  and  C33_48 
ROOT
HETATM    1  C4  UNL     1      14.067  20.129  14.829  1.00  0.00     0.152 C 
HETATM    2  C5  UNL     1      14.080  20.120  13.357  1.00  0.00     0.054 C 
HETATM    3  C6  UNL     1      12.893  19.278  12.853  1.00  0.00     0.139 C 
HETATM    4  N2  UNL     1      11.667  19.664  13.526  1.00  0.00    -0.275 N 
HETATM    5  C22 UNL     1      11.750  20.698  14.547  1.00  0.00     0.369 C 
HETATM    6  O3  UNL     1      10.803  21.522  14.638  1.00  0.00    -0.238 OA
HETATM    7  O4  UNL     1      12.879  20.690  15.343  1.00  0.00    -0.296 OA
ENDROOT
BRANCH   1   8
HETATM    8  C3  UNL     1      15.278  20.854  15.450  1.00  0.00     0.146 C 
BRANCH   8   9
HETATM    9  N1  UNL     1      14.935  21.423  16.689  1.00  0.00    -0.415 N 
ATOM     10  H1  UNL     1      13.980  21.751  16.832  1.00  0.00     0.153 HD
BRANCH   9  11
HETATM   11  C2  UNL     1      15.857  21.554  17.729  1.00  0.00     0.076 C 
HETATM   12  C1  UNL     1      16.739  20.348  17.834  1.00  0.00     0.032 C 
BRANCH  11  13
HETATM   13  C23 UNL     1      16.641  22.843  17.835  1.00  0.00     0.010 C 
BRANCH  13  14
HETATM   14  C24 UNL     1      16.202  24.030  17.125  1.00  0.00     0.008 C 
BRANCH  14  15
HETATM   15  C25 UNL     1      16.626  24.214  15.683  1.00  0.00     0.031 C 
BRANCH  15  16
HETATM   16  C26 UNL     1      17.163  25.662  15.618  1.00  0.00     0.275 C 
BRANCH  16  17
HETATM   17  N4  UNL     1      18.498  25.606  15.023  1.00  0.00     0.109 N 
HETATM   18  C27 UNL     1      18.844  26.910  14.472  1.00  0.00     0.421 C 
HETATM   19  N5  UNL     1      20.238  27.143  14.757  1.00  0.00    -0.230 N 
HETATM   20  C28 UNL     1      20.753  25.985  15.440  1.00  0.00     0.075 C 
HETATM   21  C29 UNL     1      21.345  25.001  14.472  1.00  0.00     0.042 C 
HETATM   22  C30 UNL     1      21.747  26.375  16.523  1.00  0.00     0.042 C 
HETATM   23  C31 UNL     1      19.501  25.402  16.038  1.00  0.00     0.306 C 
BRANCH  19  24
HETATM   24  N6  UNL     1      20.950  28.284  14.430  1.00  0.00    -0.039 N 
HETATM   25  O5  UNL     1      21.403  28.367  13.255  1.00  0.00    -0.516 OA
HETATM   26  O6  UNL     1      21.174  29.315  15.337  1.00  0.00    -0.516 OA
ENDBRANCH  19  24
ENDBRANCH  16  17
ENDBRANCH  15  16
ENDBRANCH  14  15
ENDBRANCH  13  14
BRANCH  13  27
HETATM   27  C32 UNL     1      16.932  22.992  19.279  1.00  0.00     0.038 C 
BRANCH  27  28
HETATM   28  C33 UNL     1      18.277  23.168  19.831  1.00  0.00     0.121 C 
HETATM   29  C34 UNL     1      19.411  23.146  18.882  1.00  0.00     0.034 C 
HETATM   30  C35 UNL     1      20.414  24.158  19.466  1.00  0.00     0.029 C 
HETATM   31  C36 UNL     1      19.691  24.661  20.667  1.00  0.00     0.168 C 
HETATM   32  O7  UNL     1      18.341  24.476  20.395  1.00  0.00    -0.386 OA
ENDBRANCH  27  28
ENDBRANCH  13  27
ENDBRANCH  11  13
ENDBRANCH   9  11
ENDBRANCH   8   9
ENDBRANCH   1   8
BRANCH   4  33
HETATM   33  C7  UNL     1      10.444  19.067  13.222  1.00  0.00     0.151 C 
BRANCH  33  34
HETATM   34  O1  UNL     1       9.610  19.864  12.579  1.00  0.00    -0.347 OA
ATOM     35  H1  UNL     1       8.939  19.401  12.092  1.00  0.00     0.219 HD
ENDBRANCH  33  34
BRANCH  33  36
HETATM   36  C8  UNL     1       9.898  17.757  13.462  1.00  0.00     0.098 C 
HETATM   37  C18 UNL     1      10.598  16.714  12.567  1.00  0.00     0.040 C 
HETATM   38  C19 UNL     1       9.773  15.445  12.838  1.00  0.00     0.003 C 
HETATM   39  C20 UNL     1       8.416  15.903  13.321  1.00  0.00     0.003 C 
HETATM   40  C21 UNL     1       8.482  17.445  13.151  1.00  0.00     0.040 C 
BRANCH  36  41
HETATM   41  N3  UNL     1      10.132  17.318  14.858  1.00  0.00    -0.344 N 
HETATM   42  C9  UNL     1       9.535  18.037  15.928  1.00  0.00     0.218 C 
HETATM   43  O2  UNL     1       8.808  19.043  15.675  1.00  0.00    -0.274 OA
ATOM     44  H3  UNL     1      10.718  16.506  15.049  1.00  0.00     0.163 HD
BRANCH  42  45
HETATM   45  C10 UNL     1       9.737  17.644  17.337  1.00  0.00     0.103 C 
BRANCH  45  46
HETATM   46  C11 UNL     1      11.203  17.611  17.617  1.00  0.00     0.014 C 
BRANCH  46  47
HETATM   47  C12 UNL     1      11.642  18.457  18.789  1.00  0.00    -0.014 C 
HETATM   48  C13 UNL     1      13.093  18.814  18.548  1.00  0.00     0.004 C 
HETATM   49  C14 UNL     1      13.756  19.335  19.799  1.00  0.00     0.000 C 
HETATM   50  C15 UNL     1      13.713  18.207  20.820  1.00  0.00     0.000 C 
HETATM   51  C16 UNL     1      12.256  18.038  21.202  1.00  0.00     0.000 C 
HETATM   52  C17 UNL     1      11.493  17.569  20.011  1.00  0.00     0.004 C 
ENDBRANCH  46  47
ENDBRANCH  45  46
ENDBRANCH  42  45
ENDBRANCH  36  41
ENDBRANCH  33  36
ENDBRANCH   4  33
TORSDOF 18
ENDMDL
