MODEL 1
REMARK VINA RESULT: -7.140123411      0.000      0.000
REMARK  10 active torsions:
REMARK  status: ('A' for Active; 'I' for Inactive)
REMARK    1  A    between atoms: C4_6  and  N2_7 
REMARK    2  A    between atoms: N2_7  and  C5_9 
REMARK    3  A    between atoms: C5_9  and  C6_10 
REMARK    4  A    between atoms: C6_10  and  C7_11 
REMARK    5  A    between atoms: C7_11  and  C8_12 
REMARK    6  A    between atoms: C8_12  and  C9_13 
REMARK    7  A    between atoms: C9_13  and  N3_14 
REMARK    8  A    between atoms: N5_21  and  C11_23 
REMARK    9  A    between atoms: C11_23  and  C12_24 
REMARK   10  A    between atoms: C12_24  and  N6_25 
ROOT
HETATM    1  C1  UNL     1       6.544  16.917 -32.895  1.00  0.00     0.054 C 
HETATM    2  C2  UNL     1       7.801  16.079 -32.899  1.00  0.00    -0.001 A 
HETATM    3  C3  UNL     1       8.533  16.014 -34.089  1.00  0.00     0.116 A 
HETATM    4  N1  UNL     1       9.631  15.281 -34.125  1.00  0.00    -0.201 N 
ATOM      5  H1  UNL     1      10.166  15.231 -34.992  1.00  0.00     0.183 HD
HETATM    6  C4  UNL     1      10.058  14.609 -33.064  1.00  0.00     0.679 A 
HETATM    7  N4  UNL     1       9.382  14.655 -31.922  1.00  0.00    -0.176 N 
ATOM      8  H4  UNL     1       9.727  14.130 -31.119  1.00  0.00     0.186 HD
HETATM    9  C10 UNL     1       8.225  15.394 -31.794  1.00  0.00     0.128 A 
HETATM   10  N5  UNL     1       7.644  15.410 -30.706  1.00  0.00    -0.353 N 
ATOM     11  H5  UNL     1       8.162  14.819 -30.055  1.00  0.00     0.166 HD
ENDROOT
BRANCH   6  12
HETATM   12  N2  UNL     1      11.137  13.882 -33.074  1.00  0.00    -0.226 N 
ATOM     13  H2  UNL     1      11.522  13.575 -33.967  1.00  0.00     0.177 HD
BRANCH  12  14
HETATM   14  C5  UNL     1      11.808  13.500 -31.845  1.00  0.00     0.138 C 
BRANCH  14  15
HETATM   15  C6  UNL     1      13.249  13.867 -31.839  1.00  0.00     0.020 C 
BRANCH  15  16
HETATM   16  C7  UNL     1      13.628  14.913 -30.824  1.00  0.00     0.003 C 
BRANCH  16  17
HETATM   17  C8  UNL     1      12.444  15.303 -30.013  1.00  0.00     0.027 C 
BRANCH  17  18
HETATM   18  C9  UNL     1      12.331  16.793 -29.794  1.00  0.00     0.229 C 
BRANCH  18  19
HETATM   19  N3  UNL     1      13.063  17.594 -30.717  1.00  0.00    -0.079 N 
ATOM     20  H33 UNL     1      13.935  17.912 -30.294  1.00  0.00     0.274 HD
ATOM     21  H32 UNL     1      13.431  17.015 -31.472  1.00  0.00     0.274 HD
ATOM     22  H31 UNL     1      12.549  18.387 -31.101  1.00  0.00     0.274 HD
ENDBRANCH  18  19
ENDBRANCH  17  18
ENDBRANCH  16  17
ENDBRANCH  15  16
ENDBRANCH  14  15
ENDBRANCH  12  14
ENDBRANCH   6  12
BRANCH  10  23
HETATM   23  C11 UNL     1       6.553  15.933 -30.046  1.00  0.00     0.092 C 
BRANCH  23  24
HETATM   24  C12 UNL     1       7.033  16.660 -28.789  1.00  0.00     0.317 C 
BRANCH  24  25
HETATM   25  N6  UNL     1       6.930  18.088 -28.900  1.00  0.00     0.093 N 
HETATM   26  C13 UNL     1       5.894  18.572 -29.752  1.00  0.00     0.273 C 
HETATM   27  C14 UNL     1       4.897  19.284 -28.843  1.00  0.00     0.032 C 
HETATM   28  C15 UNL     1       5.286  18.855 -27.435  1.00  0.00     0.032 C 
HETATM   29  C16 UNL     1       6.765  18.648 -27.581  1.00  0.00     0.273 C 
ENDBRANCH  24  25
ENDBRANCH  23  24
ENDBRANCH  10  23
TORSDOF 10
ENDMDL
MODEL 2
REMARK VINA RESULT: -7.071616512      1.553      2.102
REMARK  10 active torsions:
REMARK  status: ('A' for Active; 'I' for Inactive)
REMARK    1  A    between atoms: C4_6  and  N2_7 
REMARK    2  A    between atoms: N2_7  and  C5_9 
REMARK    3  A    between atoms: C5_9  and  C6_10 
REMARK    4  A    between atoms: C6_10  and  C7_11 
REMARK    5  A    between atoms: C7_11  and  C8_12 
REMARK    6  A    between atoms: C8_12  and  C9_13 
REMARK    7  A    between atoms: C9_13  and  N3_14 
REMARK    8  A    between atoms: N5_21  and  C11_23 
REMARK    9  A    between atoms: C11_23  and  C12_24 
REMARK   10  A    between atoms: C12_24  and  N6_25 
ROOT
HETATM    1  C1  UNL     1       6.676  16.640 -32.339  1.00  0.00     0.054 C 
HETATM    2  C2  UNL     1       7.959  15.870 -32.540  1.00  0.00    -0.001 A 
HETATM    3  C3  UNL     1       8.513  15.855 -33.825  1.00  0.00     0.116 A 
HETATM    4  N1  UNL     1       9.630  15.182 -34.033  1.00  0.00    -0.201 N 
ATOM      5  H1  UNL     1      10.034  15.170 -34.969  1.00  0.00     0.183 HD
HETATM    6  C4  UNL     1      10.240  14.522 -33.057  1.00  0.00     0.679 A 
HETATM    7  N4  UNL     1       9.735  14.519 -31.828  1.00  0.00    -0.176 N 
ATOM      8  H4  UNL     1      10.220  14.005 -31.094  1.00  0.00     0.186 HD
HETATM    9  C10 UNL     1       8.574  15.195 -31.521  1.00  0.00     0.128 A 
HETATM   10  N5  UNL     1       8.158  15.169 -30.360  1.00  0.00    -0.353 N 
ATOM     11  H5  UNL     1       8.793  14.599 -29.802  1.00  0.00     0.166 HD
ENDROOT
BRANCH   6  12
HETATM   12  N2  UNL     1      11.342  13.853 -33.237  1.00  0.00    -0.226 N 
ATOM     13  H2  UNL     1      11.702  13.733 -34.184  1.00  0.00     0.177 HD
BRANCH  12  14
HETATM   14  C5  UNL     1      12.070  13.275 -32.123  1.00  0.00     0.138 C 
BRANCH  14  15
HETATM   15  C6  UNL     1      13.530  13.548 -32.188  1.00  0.00     0.020 C 
BRANCH  15  16
HETATM   16  C7  UNL     1      13.985  14.735 -31.381  1.00  0.00     0.003 C 
BRANCH  16  17
HETATM   17  C8  UNL     1      13.014  15.026 -30.292  1.00  0.00     0.027 C 
BRANCH  17  18
HETATM   18  C9  UNL     1      13.139  16.424 -29.734  1.00  0.00     0.229 C 
BRANCH  18  19
HETATM   19  N3  UNL     1      12.775  17.466 -30.633  1.00  0.00    -0.079 N 
ATOM     20  H33 UNL     1      13.609  17.881 -31.049  1.00  0.00     0.274 HD
ATOM     21  H32 UNL     1      12.336  17.074 -31.467  1.00  0.00     0.274 HD
ATOM     22  H31 UNL     1      12.182  18.193 -30.233  1.00  0.00     0.274 HD
ENDBRANCH  18  19
ENDBRANCH  17  18
ENDBRANCH  16  17
ENDBRANCH  15  16
ENDBRANCH  14  15
ENDBRANCH  12  14
ENDBRANCH   6  12
BRANCH  10  23
HETATM   23  C11 UNL     1       7.149  15.626 -29.540  1.00  0.00     0.092 C 
BRANCH  23  24
HETATM   24  C12 UNL     1       7.737  15.962 -28.168  1.00  0.00     0.317 C 
BRANCH  24  25
HETATM   25  N6  UNL     1       8.809  16.914 -28.241  1.00  0.00     0.093 N 
HETATM   26  C13 UNL     1       8.583  18.156 -27.578  1.00  0.00     0.273 C 
HETATM   27  C14 UNL     1       9.571  18.202 -26.417  1.00  0.00     0.032 C 
HETATM   28  C15 UNL     1      10.092  16.776 -26.299  1.00  0.00     0.032 C 
HETATM   29  C16 UNL     1      10.010  16.306 -27.722  1.00  0.00     0.273 C 
ENDBRANCH  24  25
ENDBRANCH  23  24
ENDBRANCH  10  23
TORSDOF 10
ENDMDL
MODEL 3
REMARK VINA RESULT: -6.967015865      1.799      6.863
REMARK  10 active torsions:
REMARK  status: ('A' for Active; 'I' for Inactive)
REMARK    1  A    between atoms: C4_6  and  N2_7 
REMARK    2  A    between atoms: N2_7  and  C5_9 
REMARK    3  A    between atoms: C5_9  and  C6_10 
REMARK    4  A    between atoms: C6_10  and  C7_11 
REMARK    5  A    between atoms: C7_11  and  C8_12 
REMARK    6  A    between atoms: C8_12  and  C9_13 
REMARK    7  A    between atoms: C9_13  and  N3_14 
REMARK    8  A    between atoms: N5_21  and  C11_23 
REMARK    9  A    between atoms: C11_23  and  C12_24 
REMARK   10  A    between atoms: C12_24  and  N6_25 
ROOT
HETATM    1  C1  UNL     1       9.547  14.684 -33.520  1.00  0.00     0.054 C 
HETATM    2  C2  UNL     1       8.442  15.442 -32.822  1.00  0.00    -0.001 A 
HETATM    3  C3  UNL     1       7.601  16.234 -33.611  1.00  0.00     0.116 A 
HETATM    4  N1  UNL     1       6.632  16.916 -33.027  1.00  0.00    -0.201 N 
ATOM      5  H1  UNL     1       6.019  17.495 -33.600  1.00  0.00     0.183 HD
HETATM    6  C4  UNL     1       6.435  16.868 -31.716  1.00  0.00     0.679 A 
HETATM    7  N4  UNL     1       7.220  16.123 -30.945  1.00  0.00    -0.176 N 
ATOM      8  H4  UNL     1       7.051  16.100 -29.940  1.00  0.00     0.186 HD
HETATM    9  C10 UNL     1       8.255  15.379 -31.469  1.00  0.00     0.128 A 
HETATM   10  N5  UNL     1       8.944  14.695 -30.707  1.00  0.00    -0.353 N 
ATOM     11  H5  UNL     1       8.600  14.826 -29.756  1.00  0.00     0.166 HD
ENDROOT
BRANCH   6  12
HETATM   12  N2  UNL     1       5.487  17.528 -31.119  1.00  0.00    -0.226 N 
ATOM     13  H2  UNL     1       4.566  17.579 -31.553  1.00  0.00     0.177 HD
BRANCH  12  14
HETATM   14  C5  UNL     1       5.708  18.194 -29.848  1.00  0.00     0.138 C 
BRANCH  14  15
HETATM   15  C6  UNL     1       5.455  19.657 -29.914  1.00  0.00     0.020 C 
BRANCH  15  16
HETATM   16  C7  UNL     1       4.706  20.221 -28.737  1.00  0.00     0.003 C 
BRANCH  16  17
HETATM   17  C8  UNL     1       5.125  19.543 -27.481  1.00  0.00     0.027 C 
BRANCH  17  18
HETATM   18  C9  UNL     1       4.404  20.049 -26.255  1.00  0.00     0.229 C 
BRANCH  18  19
HETATM   19  N3  UNL     1       3.167  20.707 -26.513  1.00  0.00    -0.079 N 
ATOM     20  H33 UNL     1       2.842  20.489 -27.455  1.00  0.00     0.274 HD
ATOM     21  H32 UNL     1       2.420  20.283 -25.963  1.00  0.00     0.274 HD
ATOM     22  H31 UNL     1       3.178  21.717 -26.371  1.00  0.00     0.274 HD
ENDBRANCH  18  19
ENDBRANCH  17  18
ENDBRANCH  16  17
ENDBRANCH  15  16
ENDBRANCH  14  15
ENDBRANCH  12  14
ENDBRANCH   6  12
BRANCH  10  23
HETATM   23  C11 UNL     1      10.008  13.820 -30.669  1.00  0.00     0.092 C 
BRANCH  23  24
HETATM   24  C12 UNL     1      11.165  14.476 -29.915  1.00  0.00     0.317 C 
BRANCH  24  25
HETATM   25  N6  UNL     1      11.821  15.497 -30.683  1.00  0.00     0.093 N 
HETATM   26  C13 UNL     1      12.133  16.698 -29.981  1.00  0.00     0.273 C 
HETATM   27  C14 UNL     1      13.656  16.766 -29.916  1.00  0.00     0.032 C 
HETATM   28  C15 UNL     1      14.121  15.373 -30.318  1.00  0.00     0.032 C 
HETATM   29  C16 UNL     1      13.027  14.949 -31.254  1.00  0.00     0.273 C 
ENDBRANCH  24  25
ENDBRANCH  23  24
ENDBRANCH  10  23
TORSDOF 10
ENDMDL
MODEL 4
REMARK VINA RESULT: -6.918229859      1.137      1.279
REMARK  10 active torsions:
REMARK  status: ('A' for Active; 'I' for Inactive)
REMARK    1  A    between atoms: C4_6  and  N2_7 
REMARK    2  A    between atoms: N2_7  and  C5_9 
REMARK    3  A    between atoms: C5_9  and  C6_10 
REMARK    4  A    between atoms: C6_10  and  C7_11 
REMARK    5  A    between atoms: C7_11  and  C8_12 
REMARK    6  A    between atoms: C8_12  and  C9_13 
REMARK    7  A    between atoms: C9_13  and  N3_14 
REMARK    8  A    between atoms: N5_21  and  C11_23 
REMARK    9  A    between atoms: C11_23  and  C12_24 
REMARK   10  A    between atoms: C12_24  and  N6_25 
ROOT
HETATM    1  C1  UNL     1       7.097  16.130 -33.717  1.00  0.00     0.054 C 
HETATM    2  C2  UNL     1       8.269  15.529 -32.979  1.00  0.00    -0.001 A 
HETATM    3  C3  UNL     1       9.359  15.091 -33.740  1.00  0.00     0.116 A 
HETATM    4  N1  UNL     1      10.395  14.552 -33.123  1.00  0.00    -0.201 N 
ATOM      5  H1  UNL     1      11.189  14.231 -33.676  1.00  0.00     0.183 HD
HETATM    6  C4  UNL     1      10.430  14.416 -31.804  1.00  0.00     0.679 A 
HETATM    7  N4  UNL     1       9.408  14.823 -31.059  1.00  0.00    -0.176 N 
ATOM      8  H4  UNL     1       9.455  14.709 -30.047  1.00  0.00     0.186 HD
HETATM    9  C10 UNL     1       8.287  15.398 -31.618  1.00  0.00     0.128 A 
HETATM   10  N5  UNL     1       7.374  15.769 -30.876  1.00  0.00    -0.353 N 
ATOM     11  H5  UNL     1       7.633  15.556 -29.913  1.00  0.00     0.166 HD
ENDROOT
BRANCH   6  12
HETATM   12  N2  UNL     1      11.439  13.890 -31.174  1.00  0.00    -0.226 N 
ATOM     13  H2  UNL     1      11.270  13.350 -30.325  1.00  0.00     0.177 HD
BRANCH  12  14
HETATM   14  C5  UNL     1      12.801  14.052 -31.650  1.00  0.00     0.138 C 
BRANCH  14  15
HETATM   15  C6  UNL     1      13.710  14.605 -30.612  1.00  0.00     0.020 C 
BRANCH  15  16
HETATM   16  C7  UNL     1      14.063  16.057 -30.792  1.00  0.00     0.003 C 
BRANCH  16  17
HETATM   17  C8  UNL     1      13.633  16.847 -29.608  1.00  0.00     0.027 C 
BRANCH  17  18
HETATM   18  C9  UNL     1      12.142  17.087 -29.554  1.00  0.00     0.229 C 
BRANCH  18  19
HETATM   19  N3  UNL     1      11.463  16.411 -28.501  1.00  0.00    -0.079 N 
ATOM     20  H33 UNL     1      11.877  16.654 -27.601  1.00  0.00     0.274 HD
ATOM     21  H32 UNL     1      10.528  16.800 -28.378  1.00  0.00     0.274 HD
ATOM     22  H31 UNL     1      11.411  15.397 -28.602  1.00  0.00     0.274 HD
ENDBRANCH  18  19
ENDBRANCH  17  18
ENDBRANCH  16  17
ENDBRANCH  15  16
ENDBRANCH  14  15
ENDBRANCH  12  14
ENDBRANCH   6  12
BRANCH  10  23
HETATM   23  C11 UNL     1       6.132  16.366 -30.871  1.00  0.00     0.092 C 
BRANCH  23  24
HETATM   24  C12 UNL     1       5.853  16.923 -29.475  1.00  0.00     0.317 C 
BRANCH  24  25
HETATM   25  N6  UNL     1       6.252  18.296 -29.335  1.00  0.00     0.093 N 
HETATM   26  C13 UNL     1       5.383  19.258 -29.928  1.00  0.00     0.273 C 
HETATM   27  C14 UNL     1       4.785  20.057 -28.773  1.00  0.00     0.032 C 
HETATM   28  C15 UNL     1       5.120  19.244 -27.530  1.00  0.00     0.032 C 
HETATM   29  C16 UNL     1       6.412  18.595 -27.933  1.00  0.00     0.273 C 
ENDBRANCH  24  25
ENDBRANCH  23  24
ENDBRANCH  10  23
TORSDOF 10
ENDMDL
MODEL 5
REMARK VINA RESULT: -6.849454940      1.451      1.631
REMARK  10 active torsions:
REMARK  status: ('A' for Active; 'I' for Inactive)
REMARK    1  A    between atoms: C4_6  and  N2_7 
REMARK    2  A    between atoms: N2_7  and  C5_9 
REMARK    3  A    between atoms: C5_9  and  C6_10 
REMARK    4  A    between atoms: C6_10  and  C7_11 
REMARK    5  A    between atoms: C7_11  and  C8_12 
REMARK    6  A    between atoms: C8_12  and  C9_13 
REMARK    7  A    between atoms: C9_13  and  N3_14 
REMARK    8  A    between atoms: N5_21  and  C11_23 
REMARK    9  A    between atoms: C11_23  and  C12_24 
REMARK   10  A    between atoms: C12_24  and  N6_25 
ROOT
HETATM    1  C1  UNL     1       6.343  17.086 -32.778  1.00  0.00     0.054 C 
HETATM    2  C2  UNL     1       7.572  16.211 -32.849  1.00  0.00    -0.001 A 
HETATM    3  C3  UNL     1       8.286  16.191 -34.052  1.00  0.00     0.116 A 
HETATM    4  N1  UNL     1       9.359  15.428 -34.147  1.00  0.00    -0.201 N 
ATOM      5  H1  UNL     1       9.880  15.411 -35.023  1.00  0.00     0.183 HD
HETATM    6  C4  UNL     1       9.777  14.681 -33.133  1.00  0.00     0.679 A 
HETATM    7  N4  UNL     1       9.118  14.682 -31.980  1.00  0.00    -0.176 N 
ATOM      8  H4  UNL     1       9.456  14.100 -31.214  1.00  0.00     0.186 HD
HETATM    9  C10 UNL     1       7.988  15.449 -31.793  1.00  0.00     0.128 A 
HETATM   10  N5  UNL     1       7.422  15.419 -30.696  1.00  0.00    -0.353 N 
ATOM     11  H5  UNL     1       7.928  14.776 -30.089  1.00  0.00     0.166 HD
ENDROOT
BRANCH   6  12
HETATM   12  N2  UNL     1      10.832  13.923 -33.202  1.00  0.00    -0.226 N 
ATOM     13  H2  UNL     1      10.872  13.189 -33.909  1.00  0.00     0.177 HD
BRANCH  12  14
HETATM   14  C5  UNL     1      11.953  14.096 -32.297  1.00  0.00     0.138 C 
BRANCH  14  15
HETATM   15  C6  UNL     1      12.160  12.924 -31.406  1.00  0.00     0.020 C 
BRANCH  15  16
HETATM   16  C7  UNL     1      11.923  13.195 -29.944  1.00  0.00     0.003 C 
BRANCH  16  17
HETATM   17  C8  UNL     1      10.617  12.628 -29.515  1.00  0.00     0.027 C 
BRANCH  17  18
HETATM   18  C9  UNL     1       9.788  13.584 -28.689  1.00  0.00     0.229 C 
BRANCH  18  19
HETATM   19  N3  UNL     1      10.345  14.886 -28.538  1.00  0.00    -0.079 N 
ATOM     20  H33 UNL     1      11.318  14.821 -28.240  1.00  0.00     0.274 HD
ATOM     21  H32 UNL     1      10.467  15.325 -29.451  1.00  0.00     0.274 HD
ATOM     22  H31 UNL     1       9.827  15.506 -27.916  1.00  0.00     0.274 HD
ENDBRANCH  18  19
ENDBRANCH  17  18
ENDBRANCH  16  17
ENDBRANCH  15  16
ENDBRANCH  14  15
ENDBRANCH  12  14
ENDBRANCH   6  12
BRANCH  10  23
HETATM   23  C11 UNL     1       6.357  15.938 -29.991  1.00  0.00     0.092 C 
BRANCH  23  24
HETATM   24  C12 UNL     1       6.881  16.609 -28.721  1.00  0.00     0.317 C 
BRANCH  24  25
HETATM   25  N6  UNL     1       6.879  18.043 -28.809  1.00  0.00     0.093 N 
HETATM   26  C13 UNL     1       5.895  18.610 -29.671  1.00  0.00     0.273 C 
HETATM   27  C14 UNL     1       4.932  19.374 -28.768  1.00  0.00     0.032 C 
HETATM   28  C15 UNL     1       5.264  18.897 -27.360  1.00  0.00     0.032 C 
HETATM   29  C16 UNL     1       6.727  18.591 -27.483  1.00  0.00     0.273 C 
ENDBRANCH  24  25
ENDBRANCH  23  24
ENDBRANCH  10  23
TORSDOF 10
ENDMDL
