MODEL 1
REMARK VINA RESULT: -8.135806032      0.000      0.000
REMARK  8 active torsions:
REMARK  status: ('A' for Active; 'I' for Inactive)
REMARK    1  A    between atoms: C2_2  and  O1_3 
REMARK    2  A    between atoms: O1_3  and  C3_4 
REMARK    3  A    between atoms: C5_7  and  C6_8 
REMARK    4  A    between atoms: C6_8  and  O3_9 
REMARK    5  A    between atoms: O3_9  and  C7_10 
REMARK    6  A    between atoms: C18_22  and  O5_23 
REMARK    7  A    between atoms: O5_23  and  C19_24 
REMARK    8  A    between atoms: C19_24  and  C20_26 
ROOT
HETATM    1  C3  UNL     1     -12.119   3.475  22.813  1.00  0.00     0.196 C 
HETATM    2  C4  UNL     1     -12.910   3.616  21.506  1.00  0.00     0.163 C 
HETATM    3  O2  UNL     1     -13.578   4.495  21.094  1.00  0.00    -0.295 OA
HETATM    4  C5  UNL     1     -12.558   2.247  20.900  1.00  0.00     0.091 C 
HETATM    5  C9  UNL     1     -12.922   1.339  22.023  1.00  0.00    -0.024 C 
HETATM    6  C10 UNL     1     -14.360   0.890  21.875  1.00  0.00     0.016 C 
HETATM    7  C11 UNL     1     -12.039   0.146  22.102  1.00  0.00     0.011 C 
HETATM    8  C12 UNL     1     -11.015   0.119  23.186  1.00  0.00     0.007 C 
HETATM    9  C13 UNL     1     -11.596   0.451  24.540  1.00  0.00     0.003 C 
HETATM   10  C14 UNL     1     -10.530   0.498  25.604  1.00  0.00    -0.029 C 
HETATM   11  C15 UNL     1      -9.442   1.484  25.400  1.00  0.00     0.016 C 
HETATM   12  C16 UNL     1      -9.900  -0.861  25.806  1.00  0.00     0.013 C 
HETATM   13  C17 UNL     1     -10.156  -1.461  27.167  1.00  0.00     0.033 C 
HETATM   14  C18 UNL     1      -9.649  -0.574  28.256  1.00  0.00     0.132 C 
HETATM   15  C22 UNL     1     -10.154   0.841  28.048  1.00  0.00     0.045 C 
HETATM   16  C23 UNL     1     -11.192   0.827  26.948  1.00  0.00     0.066 C 
HETATM   17  C24 UNL     1     -11.892   2.109  26.869  1.00  0.00     0.132 C 
HETATM   18  O7  UNL     1     -12.218   2.700  27.875  1.00  0.00    -0.298 OA
HETATM   19  C25 UNL     1     -12.205   2.692  25.550  1.00  0.00     0.088 C 
HETATM   20  C26 UNL     1     -12.537   1.606  24.526  1.00  0.00    -0.026 C 
HETATM   21  C27 UNL     1     -13.882   1.057  25.084  1.00  0.00     0.016 C 
HETATM   22  C28 UNL     1     -12.824   2.237  23.247  1.00  0.00     0.040 C 
ENDROOT
BRANCH   4  23
HETATM   23  C6  UNL     1     -13.161   2.111  19.574  1.00  0.00     0.191 C 
BRANCH  23  24
HETATM   24  O3  UNL     1     -12.628   1.364  18.644  1.00  0.00    -0.321 OA
BRANCH  24  25
HETATM   25  C7  UNL     1     -11.809   0.584  18.031  1.00  0.00     0.254 C 
HETATM   26  C8  UNL     1     -10.968  -0.515  18.656  1.00  0.00     0.126 C 
HETATM   27  O4  UNL     1     -11.644   0.692  16.792  1.00  0.00    -0.266 OA
ENDBRANCH  24  25
ENDBRANCH  23  24
ENDBRANCH   4  23
BRANCH   1  28
HETATM   28  O1  UNL     1     -10.846   3.369  22.352  1.00  0.00    -0.378 OA
BRANCH  28  29
HETATM   29  C2  UNL     1     -10.082   4.489  22.414  1.00  0.00     0.164 C 
HETATM   30  C1  UNL     1      -9.048   4.496  23.503  1.00  0.00     0.033 C 
ENDBRANCH  28  29
ENDBRANCH   1  28
BRANCH  14  31
HETATM   31  O5  UNL     1      -9.984  -0.966  29.540  1.00  0.00    -0.316 OA
BRANCH  31  32
HETATM   32  C19 UNL     1      -9.540  -0.354  30.712  1.00  0.00     0.258 C 
HETATM   33  O6  UNL     1     -10.466   0.093  31.433  1.00  0.00    -0.265 OA
BRANCH  32  34
HETATM   34  C20 UNL     1      -8.098  -0.250  31.057  1.00  0.00     0.106 C 
HETATM   35  C21 UNL     1      -7.712   1.214  31.062  1.00  0.00     0.015 C 
ENDBRANCH  32  34
ENDBRANCH  31  32
ENDBRANCH  14  31
TORSDOF 8
ENDMDL
MODEL 2
REMARK VINA RESULT: -8.002520715      0.913      1.348
REMARK  8 active torsions:
REMARK  status: ('A' for Active; 'I' for Inactive)
REMARK    1  A    between atoms: C2_2  and  O1_3 
REMARK    2  A    between atoms: O1_3  and  C3_4 
REMARK    3  A    between atoms: C5_7  and  C6_8 
REMARK    4  A    between atoms: C6_8  and  O3_9 
REMARK    5  A    between atoms: O3_9  and  C7_10 
REMARK    6  A    between atoms: C18_22  and  O5_23 
REMARK    7  A    between atoms: O5_23  and  C19_24 
REMARK    8  A    between atoms: C19_24  and  C20_26 
ROOT
HETATM    1  C3  UNL     1     -12.028   3.448  22.807  1.00  0.00     0.196 C 
HETATM    2  C4  UNL     1     -12.796   3.593  21.487  1.00  0.00     0.163 C 
HETATM    3  O2  UNL     1     -13.469   4.468  21.072  1.00  0.00    -0.295 OA
HETATM    4  C5  UNL     1     -12.414   2.236  20.873  1.00  0.00     0.091 C 
HETATM    5  C9  UNL     1     -12.786   1.311  21.979  1.00  0.00    -0.024 C 
HETATM    6  C10 UNL     1     -14.215   0.843  21.800  1.00  0.00     0.016 C 
HETATM    7  C11 UNL     1     -11.889   0.129  22.062  1.00  0.00     0.011 C 
HETATM    8  C12 UNL     1     -10.884   0.104  23.164  1.00  0.00     0.007 C 
HETATM    9  C13 UNL     1     -11.495   0.413  24.511  1.00  0.00     0.003 C 
HETATM   10  C14 UNL     1     -10.450   0.463  25.595  1.00  0.00    -0.029 C 
HETATM   11  C15 UNL     1      -9.371   1.466  25.422  1.00  0.00     0.016 C 
HETATM   12  C16 UNL     1      -9.805  -0.889  25.794  1.00  0.00     0.013 C 
HETATM   13  C17 UNL     1     -10.078  -1.508  27.144  1.00  0.00     0.033 C 
HETATM   14  C18 UNL     1      -9.603  -0.625  28.251  1.00  0.00     0.132 C 
HETATM   15  C22 UNL     1     -10.123   0.784  28.049  1.00  0.00     0.045 C 
HETATM   16  C23 UNL     1     -11.141   0.769  26.930  1.00  0.00     0.066 C 
HETATM   17  C24 UNL     1     -11.857   2.042  26.852  1.00  0.00     0.132 C 
HETATM   18  O7  UNL     1     -12.210   2.617  27.857  1.00  0.00    -0.298 OA
HETATM   19  C25 UNL     1     -12.153   2.634  25.533  1.00  0.00     0.088 C 
HETATM   20  C26 UNL     1     -12.452   1.555  24.492  1.00  0.00    -0.026 C 
HETATM   21  C27 UNL     1     -13.799   0.982  25.019  1.00  0.00     0.016 C 
HETATM   22  C28 UNL     1     -12.723   2.196  23.215  1.00  0.00     0.040 C 
ENDROOT
BRANCH   4  23
HETATM   23  C6  UNL     1     -12.991   2.106  19.535  1.00  0.00     0.191 C 
BRANCH  23  24
HETATM   24  O3  UNL     1     -12.407   1.413  18.594  1.00  0.00    -0.321 OA
BRANCH  24  25
HETATM   25  C7  UNL     1     -11.657   0.548  18.007  1.00  0.00     0.254 C 
HETATM   26  C8  UNL     1     -10.798  -0.508  18.681  1.00  0.00     0.126 C 
HETATM   27  O4  UNL     1     -11.584   0.523  16.755  1.00  0.00    -0.266 OA
ENDBRANCH  24  25
ENDBRANCH  23  24
ENDBRANCH   4  23
BRANCH   1  28
HETATM   28  O1  UNL     1     -10.746   3.365  22.369  1.00  0.00    -0.378 OA
BRANCH  28  29
HETATM   29  C2  UNL     1      -9.997   4.493  22.460  1.00  0.00     0.164 C 
HETATM   30  C1  UNL     1      -8.924   4.463  23.510  1.00  0.00     0.033 C 
ENDBRANCH  28  29
ENDBRANCH   1  28
BRANCH  14  31
HETATM   31  O5  UNL     1      -9.956  -1.036  29.525  1.00  0.00    -0.316 OA
BRANCH  31  32
HETATM   32  C19 UNL     1     -11.170  -0.761  30.153  1.00  0.00     0.258 C 
HETATM   33  O6  UNL     1     -11.065  -0.009  31.153  1.00  0.00    -0.265 OA
BRANCH  32  34
HETATM   34  C20 UNL     1     -12.460  -1.317  29.667  1.00  0.00     0.106 C 
HETATM   35  C21 UNL     1     -13.502  -0.220  29.717  1.00  0.00     0.015 C 
ENDBRANCH  32  34
ENDBRANCH  31  32
ENDBRANCH  14  31
TORSDOF 8
ENDMDL
MODEL 3
REMARK VINA RESULT: -7.549361048      2.346      8.246
REMARK  8 active torsions:
REMARK  status: ('A' for Active; 'I' for Inactive)
REMARK    1  A    between atoms: C2_2  and  O1_3 
REMARK    2  A    between atoms: O1_3  and  C3_4 
REMARK    3  A    between atoms: C5_7  and  C6_8 
REMARK    4  A    between atoms: C6_8  and  O3_9 
REMARK    5  A    between atoms: O3_9  and  C7_10 
REMARK    6  A    between atoms: C18_22  and  O5_23 
REMARK    7  A    between atoms: O5_23  and  C19_24 
REMARK    8  A    between atoms: C19_24  and  C20_26 
ROOT
HETATM    1  C3  UNL     1     -12.348   2.499  25.640  1.00  0.00     0.196 C 
HETATM    2  C4  UNL     1     -12.381   2.325  27.164  1.00  0.00     0.163 C 
HETATM    3  O2  UNL     1     -12.169   3.087  28.038  1.00  0.00    -0.295 OA
HETATM    4  C5  UNL     1     -12.778   0.839  27.196  1.00  0.00     0.091 C 
HETATM    5  C9  UNL     1     -11.749   0.253  26.293  1.00  0.00    -0.024 C 
HETATM    6  C10 UNL     1     -10.545  -0.185  27.100  1.00  0.00     0.016 C 
HETATM    7  C11 UNL     1     -12.265  -0.902  25.513  1.00  0.00     0.011 C 
HETATM    8  C12 UNL     1     -12.562  -0.679  24.068  1.00  0.00     0.007 C 
HETATM    9  C13 UNL     1     -11.423  -0.003  23.341  1.00  0.00     0.003 C 
HETATM   10  C14 UNL     1     -11.777   0.286  21.905  1.00  0.00    -0.029 C 
HETATM   11  C15 UNL     1     -12.952   1.162  21.681  1.00  0.00     0.016 C 
HETATM   12  C16 UNL     1     -11.991  -0.993  21.128  1.00  0.00     0.013 C 
HETATM   13  C17 UNL     1     -10.978  -1.225  20.034  1.00  0.00     0.033 C 
HETATM   14  C18 UNL     1     -10.979  -0.103  19.046  1.00  0.00     0.132 C 
HETATM   15  C22 UNL     1     -10.882   1.225  19.772  1.00  0.00     0.045 C 
HETATM   16  C23 UNL     1     -10.575   0.959  21.229  1.00  0.00     0.066 C 
HETATM   17  C24 UNL     1     -10.227   2.196  21.928  1.00  0.00     0.132 C 
HETATM   18  O7  UNL     1      -9.524   3.028  21.400  1.00  0.00    -0.298 OA
HETATM   19  C25 UNL     1     -10.737   2.434  23.292  1.00  0.00     0.088 C 
HETATM   20  C26 UNL     1     -10.819   1.133  24.092  1.00  0.00    -0.026 C 
HETATM   21  C27 UNL     1      -9.313   0.775  24.252  1.00  0.00     0.016 C 
HETATM   22  C28 UNL     1     -11.338   1.428  25.418  1.00  0.00     0.040 C 
ENDROOT
BRANCH   4  23
HETATM   23  C6  UNL     1     -12.935   0.388  28.578  1.00  0.00     0.191 C 
BRANCH  23  24
HETATM   24  O3  UNL     1     -13.886   0.843  29.351  1.00  0.00    -0.321 OA
BRANCH  24  25
HETATM   25  C7  UNL     1     -14.594   1.645  30.064  1.00  0.00     0.254 C 
HETATM   26  C8  UNL     1     -16.086   1.541  30.329  1.00  0.00     0.126 C 
HETATM   27  O4  UNL     1     -14.058   2.632  30.622  1.00  0.00    -0.266 OA
ENDBRANCH  24  25
ENDBRANCH  23  24
ENDBRANCH   4  23
BRANCH   1  28
HETATM   28  O1  UNL     1     -13.641   2.250  25.308  1.00  0.00    -0.378 OA
BRANCH  28  29
HETATM   29  C2  UNL     1     -14.310   3.250  24.680  1.00  0.00     0.164 C 
HETATM   30  C1  UNL     1     -13.504   4.488  24.413  1.00  0.00     0.033 C 
ENDBRANCH  28  29
ENDBRANCH   1  28
BRANCH  14  31
HETATM   31  O5  UNL     1      -9.971  -0.151  18.099  1.00  0.00    -0.316 OA
BRANCH  31  32
HETATM   32  C19 UNL     1      -9.687  -1.243  17.280  1.00  0.00     0.258 C 
HETATM   33  O6  UNL     1     -10.414  -1.314  16.258  1.00  0.00    -0.265 OA
BRANCH  32  34
HETATM   34  C20 UNL     1      -8.617  -2.222  17.603  1.00  0.00     0.106 C 
HETATM   35  C21 UNL     1      -7.527  -2.102  16.560  1.00  0.00     0.015 C 
ENDBRANCH  32  34
ENDBRANCH  31  32
ENDBRANCH  14  31
TORSDOF 8
ENDMDL
MODEL 4
REMARK VINA RESULT: -7.406057546      2.763      8.018
REMARK  8 active torsions:
REMARK  status: ('A' for Active; 'I' for Inactive)
REMARK    1  A    between atoms: C2_2  and  O1_3 
REMARK    2  A    between atoms: O1_3  and  C3_4 
REMARK    3  A    between atoms: C5_7  and  C6_8 
REMARK    4  A    between atoms: C6_8  and  O3_9 
REMARK    5  A    between atoms: O3_9  and  C7_10 
REMARK    6  A    between atoms: C18_22  and  O5_23 
REMARK    7  A    between atoms: O5_23  and  C19_24 
REMARK    8  A    between atoms: C19_24  and  C20_26 
ROOT
HETATM    1  C3  UNL     1     -10.800   1.576  25.514  1.00  0.00     0.196 C 
HETATM    2  C4  UNL     1     -11.647   1.814  26.772  1.00  0.00     0.163 C 
HETATM    3  O2  UNL     1     -11.348   1.864  27.911  1.00  0.00    -0.295 OA
HETATM    4  C5  UNL     1     -13.011   1.969  26.079  1.00  0.00     0.091 C 
HETATM    5  C9  UNL     1     -13.047   0.733  25.248  1.00  0.00    -0.024 C 
HETATM    6  C10 UNL     1     -13.711  -0.387  26.021  1.00  0.00     0.016 C 
HETATM    7  C11 UNL     1     -13.760   0.932  23.960  1.00  0.00     0.011 C 
HETATM    8  C12 UNL     1     -12.931   1.035  22.724  1.00  0.00     0.007 C 
HETATM    9  C13 UNL     1     -11.915  -0.079  22.613  1.00  0.00     0.003 C 
HETATM   10  C14 UNL     1     -11.036   0.093  21.401  1.00  0.00    -0.029 C 
HETATM   11  C15 UNL     1     -10.245   1.344  21.336  1.00  0.00     0.016 C 
HETATM   12  C16 UNL     1     -11.837  -0.022  20.125  1.00  0.00     0.013 C 
HETATM   13  C17 UNL     1     -11.473  -1.215  19.275  1.00  0.00     0.033 C 
HETATM   14  C18 UNL     1     -10.030  -1.186  18.889  1.00  0.00     0.132 C 
HETATM   15  C22 UNL     1      -9.170  -0.957  20.117  1.00  0.00     0.045 C 
HETATM   16  C23 UNL     1     -10.042  -1.075  21.347  1.00  0.00     0.066 C 
HETATM   17  C24 UNL     1      -9.233  -1.110  22.565  1.00  0.00     0.132 C 
HETATM   18  O7  UNL     1      -8.201  -1.742  22.606  1.00  0.00    -0.298 OA
HETATM   19  C25 UNL     1      -9.676  -0.365  23.760  1.00  0.00     0.088 C 
HETATM   20  C26 UNL     1     -11.200  -0.371  23.886  1.00  0.00    -0.026 C 
HETATM   21  C27 UNL     1     -11.478  -1.872  24.188  1.00  0.00     0.016 C 
HETATM   22  C28 UNL     1     -11.576   0.386  25.070  1.00  0.00     0.040 C 
ENDROOT
BRANCH   4  23
HETATM   23  C6  UNL     1     -14.049   2.261  27.067  1.00  0.00     0.191 C 
BRANCH  23  24
HETATM   24  O3  UNL     1     -13.967   1.843  28.302  1.00  0.00    -0.321 OA
BRANCH  24  25
HETATM   25  C7  UNL     1     -14.251   1.645  29.541  1.00  0.00     0.254 C 
HETATM   26  C8  UNL     1     -14.909   0.410  30.131  1.00  0.00     0.126 C 
HETATM   27  O4  UNL     1     -13.983   2.522  30.397  1.00  0.00    -0.266 OA
ENDBRANCH  24  25
ENDBRANCH  23  24
ENDBRANCH   4  23
BRANCH   1  28
HETATM   28  O1  UNL     1     -10.969   2.746  24.846  1.00  0.00    -0.378 OA
BRANCH  28  29
HETATM   29  C2  UNL     1      -9.913   3.185  24.114  1.00  0.00     0.164 C 
HETATM   30  C1  UNL     1     -10.203   4.351  23.214  1.00  0.00     0.033 C 
ENDBRANCH  28  29
ENDBRANCH   1  28
BRANCH  14  31
HETATM   31  O5  UNL     1      -9.568  -2.321  18.246  1.00  0.00    -0.316 OA
BRANCH  31  32
HETATM   32  C19 UNL     1      -8.848  -2.335  17.052  1.00  0.00     0.258 C 
HETATM   33  O6  UNL     1      -9.379  -1.665  16.132  1.00  0.00    -0.265 OA
BRANCH  32  34
HETATM   34  C20 UNL     1      -7.571  -3.079  16.902  1.00  0.00     0.106 C 
HETATM   35  C21 UNL     1      -6.841  -3.049  18.228  1.00  0.00     0.015 C 
ENDBRANCH  32  34
ENDBRANCH  31  32
ENDBRANCH  14  31
TORSDOF 8
ENDMDL
MODEL 5
REMARK VINA RESULT: -7.364660322      3.687      5.971
REMARK  8 active torsions:
REMARK  status: ('A' for Active; 'I' for Inactive)
REMARK    1  A    between atoms: C2_2  and  O1_3 
REMARK    2  A    between atoms: O1_3  and  C3_4 
REMARK    3  A    between atoms: C5_7  and  C6_8 
REMARK    4  A    between atoms: C6_8  and  O3_9 
REMARK    5  A    between atoms: O3_9  and  C7_10 
REMARK    6  A    between atoms: C18_22  and  O5_23 
REMARK    7  A    between atoms: O5_23  and  C19_24 
REMARK    8  A    between atoms: C19_24  and  C20_26 
ROOT
HETATM    1  C3  UNL     1     -11.086   0.823  27.154  1.00  0.00     0.196 C 
HETATM    2  C4  UNL     1     -11.871   2.118  26.907  1.00  0.00     0.163 C 
HETATM    3  O2  UNL     1     -12.311   2.915  27.656  1.00  0.00    -0.295 OA
HETATM    4  C5  UNL     1     -11.906   2.051  25.370  1.00  0.00     0.091 C 
HETATM    5  C9  UNL     1     -12.439   0.677  25.160  1.00  0.00    -0.024 C 
HETATM    6  C10 UNL     1     -13.950   0.721  25.063  1.00  0.00     0.016 C 
HETATM    7  C11 UNL     1     -11.887   0.030  23.942  1.00  0.00     0.011 C 
HETATM    8  C12 UNL     1     -10.857  -1.032  24.134  1.00  0.00     0.007 C 
HETATM    9  C13 UNL     1     -11.275  -2.067  25.152  1.00  0.00     0.003 C 
HETATM   10  C14 UNL     1     -10.187  -3.082  25.389  1.00  0.00    -0.029 C 
HETATM   11  C15 UNL     1      -8.893  -2.554  25.885  1.00  0.00     0.016 C 
HETATM   12  C16 UNL     1      -9.915  -3.892  24.143  1.00  0.00     0.013 C 
HETATM   13  C17 UNL     1     -10.256  -5.357  24.275  1.00  0.00     0.033 C 
HETATM   14  C18 UNL     1      -9.492  -5.993  25.390  1.00  0.00     0.132 C 
HETATM   15  C22 UNL     1      -9.629  -5.163  26.651  1.00  0.00     0.045 C 
HETATM   16  C23 UNL     1     -10.684  -4.103  26.421  1.00  0.00     0.066 C 
HETATM   17  C24 UNL     1     -11.038  -3.431  27.671  1.00  0.00     0.132 C 
HETATM   18  O7  UNL     1     -11.159  -4.059  28.699  1.00  0.00    -0.298 OA
HETATM   19  C25 UNL     1     -11.249  -1.971  27.682  1.00  0.00     0.088 C 
HETATM   20  C26 UNL     1     -11.891  -1.491  26.379  1.00  0.00    -0.026 C 
HETATM   21  C27 UNL     1     -13.306  -2.131  26.479  1.00  0.00     0.016 C 
HETATM   22  C28 UNL     1     -12.063  -0.048  26.444  1.00  0.00     0.040 C 
ENDROOT
BRANCH   4  23
HETATM   23  C6  UNL     1     -12.581   3.230  24.828  1.00  0.00     0.191 C 
BRANCH  23  24
HETATM   24  O3  UNL     1     -12.709   3.424  23.542  1.00  0.00    -0.321 OA
BRANCH  24  25
HETATM   25  C7  UNL     1     -13.206   3.429  22.356  1.00  0.00     0.254 C 
HETATM   26  C8  UNL     1     -13.779   2.236  21.612  1.00  0.00     0.126 C 
HETATM   27  O4  UNL     1     -13.251   4.495  21.697  1.00  0.00    -0.266 OA
ENDBRANCH  24  25
ENDBRANCH  23  24
ENDBRANCH   4  23
BRANCH   1  28
HETATM   28  O1  UNL     1      -9.904   1.100  26.547  1.00  0.00    -0.378 OA
BRANCH  28  29
HETATM   29  C2  UNL     1      -8.855   1.383  27.361  1.00  0.00     0.164 C 
HETATM   30  C1  UNL     1      -8.500   0.303  28.342  1.00  0.00     0.033 C 
ENDBRANCH  28  29
ENDBRANCH   1  28
BRANCH  14  31
HETATM   31  O5  UNL     1      -9.860  -7.294  25.689  1.00  0.00    -0.316 OA
BRANCH  31  32
HETATM   32  C19 UNL     1      -9.101  -8.430  25.411  1.00  0.00     0.258 C 
HETATM   33  O6  UNL     1      -9.153  -9.307  26.308  1.00  0.00    -0.265 OA
BRANCH  32  34
HETATM   34  C20 UNL     1      -8.308  -8.570  24.162  1.00  0.00     0.106 C 
HETATM   35  C21 UNL     1      -6.838  -8.559  24.524  1.00  0.00     0.015 C 
ENDBRANCH  32  34
ENDBRANCH  31  32
ENDBRANCH  14  31
TORSDOF 8
ENDMDL
