MODEL 1
REMARK VINA RESULT: -4.419090198      0.000      0.000
REMARK  2 active torsions:
REMARK  status: ('A' for Active; 'I' for Inactive)
REMARK       I    between atoms: C2_2  and  N1_4 
REMARK       I    between atoms: N1_4  and  C3_6 
REMARK    1  A    between atoms: N3_8  and  O2_10 
REMARK    2  A    between atoms: O2_10  and  C4_11 
ROOT
HETATM    1  C1  UNL     1     -58.792 -62.602 -38.206  1.00  0.00     0.117 C 
HETATM    2  C2  UNL     1     -57.497 -62.469 -37.522  1.00  0.00     0.220 C 
HETATM    3  O1  UNL     1     -57.347 -61.576 -36.662  1.00  0.00    -0.274 OA
HETATM    4  N1  UNL     1     -56.435 -63.334 -37.826  1.00  0.00    -0.300 N 
ATOM      5  H1  UNL     1     -56.572 -64.060 -38.530  1.00  0.00     0.171 HD
HETATM    6  C3  UNL     1     -55.180 -63.226 -37.180  1.00  0.00     0.215 C 
HETATM    7  N2  UNL     1     -54.934 -62.227 -36.183  1.00  0.00    -0.061 NA
HETATM    8  N3  UNL     1     -54.208 -64.020 -37.461  1.00  0.00    -0.228 N 
ATOM      9  H3  UNL     1     -54.372 -64.734 -38.170  1.00  0.00     0.198 HD
ENDROOT
BRANCH   8  10
HETATM   10  O2  UNL     1     -52.983 -63.979 -36.886  1.00  0.00    -0.181 OA
BRANCH  10  11
HETATM   11  C4  UNL     1     -52.445 -64.969 -36.080  1.00  0.00     0.394 C 
HETATM   12  N4  UNL     1     -53.164 -66.121 -35.676  1.00  0.00    -0.031 NA
HETATM   13  O3  UNL     1     -51.243 -64.797 -35.704  1.00  0.00    -0.240 OA
ENDBRANCH  10  11
ENDBRANCH   8  10
TORSDOF 2
ENDMDL
MODEL 2
REMARK VINA RESULT: -4.197531027      1.931      1.938
REMARK  2 active torsions:
REMARK  status: ('A' for Active; 'I' for Inactive)
REMARK       I    between atoms: C2_2  and  N1_4 
REMARK       I    between atoms: N1_4  and  C3_6 
REMARK    1  A    between atoms: N3_8  and  O2_10 
REMARK    2  A    between atoms: O2_10  and  C4_11 
ROOT
HETATM    1  C1  UNL     1     -58.124 -60.163 -36.517  1.00  0.00     0.117 C 
HETATM    2  C2  UNL     1     -56.877 -60.940 -36.476  1.00  0.00     0.220 C 
HETATM    3  O1  UNL     1     -55.828 -60.394 -36.074  1.00  0.00    -0.274 OA
HETATM    4  N1  UNL     1     -56.857 -62.283 -36.883  1.00  0.00    -0.300 N 
ATOM      5  H1  UNL     1     -57.721 -62.716 -37.208  1.00  0.00     0.171 HD
HETATM    6  C3  UNL     1     -55.668 -63.051 -36.853  1.00  0.00     0.215 C 
HETATM    7  N2  UNL     1     -54.427 -62.493 -36.404  1.00  0.00    -0.061 NA
HETATM    8  N3  UNL     1     -55.652 -64.281 -37.226  1.00  0.00    -0.228 N 
ATOM      9  H3  UNL     1     -56.530 -64.687 -37.549  1.00  0.00     0.198 HD
ENDROOT
BRANCH   8  10
HETATM   10  O2  UNL     1     -54.557 -65.077 -37.225  1.00  0.00    -0.181 OA
BRANCH  10  11
HETATM   11  C4  UNL     1     -54.299 -66.078 -36.302  1.00  0.00     0.394 C 
HETATM   12  N4  UNL     1     -55.242 -67.075 -35.949  1.00  0.00    -0.031 NA
HETATM   13  O3  UNL     1     -53.146 -66.066 -35.767  1.00  0.00    -0.240 OA
ENDBRANCH  10  11
ENDBRANCH   8  10
TORSDOF 2
ENDMDL
MODEL 3
REMARK VINA RESULT: -3.967429058      2.338      5.178
REMARK  2 active torsions:
REMARK  status: ('A' for Active; 'I' for Inactive)
REMARK       I    between atoms: C2_2  and  N1_4 
REMARK       I    between atoms: N1_4  and  C3_6 
REMARK    1  A    between atoms: N3_8  and  O2_10 
REMARK    2  A    between atoms: O2_10  and  C4_11 
ROOT
HETATM    1  C1  UNL     1     -55.236 -66.722 -36.780  1.00  0.00     0.117 C 
HETATM    2  C2  UNL     1     -54.796 -65.319 -36.753  1.00  0.00     0.220 C 
HETATM    3  O1  UNL     1     -53.615 -65.042 -37.054  1.00  0.00    -0.274 OA
HETATM    4  N1  UNL     1     -55.687 -64.296 -36.396  1.00  0.00    -0.300 N 
ATOM      5  H1  UNL     1     -56.648 -64.536 -36.154  1.00  0.00     0.171 HD
HETATM    6  C3  UNL     1     -55.286 -62.939 -36.364  1.00  0.00     0.215 C 
HETATM    7  N2  UNL     1     -53.949 -62.544 -36.696  1.00  0.00    -0.061 NA
HETATM    8  N3  UNL     1     -56.104 -62.003 -36.036  1.00  0.00    -0.228 N 
ATOM      9  H3  UNL     1     -57.058 -62.272 -35.797  1.00  0.00     0.198 HD
ENDROOT
BRANCH   8  10
HETATM   10  O2  UNL     1     -55.794 -60.686 -35.984  1.00  0.00    -0.181 OA
BRANCH  10  11
HETATM   11  C4  UNL     1     -56.713 -59.648 -35.990  1.00  0.00     0.394 C 
HETATM   12  N4  UNL     1     -56.343 -58.281 -36.032  1.00  0.00    -0.031 NA
HETATM   13  O3  UNL     1     -57.939 -59.982 -35.955  1.00  0.00    -0.240 OA
ENDBRANCH  10  11
ENDBRANCH   8  10
TORSDOF 2
ENDMDL
MODEL 4
REMARK VINA RESULT: -3.936775771      1.436      1.731
REMARK  2 active torsions:
REMARK  status: ('A' for Active; 'I' for Inactive)
REMARK       I    between atoms: C2_2  and  N1_4 
REMARK       I    between atoms: N1_4  and  C3_6 
REMARK    1  A    between atoms: N3_8  and  O2_10 
REMARK    2  A    between atoms: O2_10  and  C4_11 
ROOT
HETATM    1  C1  UNL     1     -58.022 -60.466 -36.824  1.00  0.00     0.117 C 
HETATM    2  C2  UNL     1     -57.348 -61.749 -37.075  1.00  0.00     0.220 C 
HETATM    3  O1  UNL     1     -58.025 -62.737 -37.429  1.00  0.00    -0.274 OA
HETATM    4  N1  UNL     1     -55.959 -61.869 -36.922  1.00  0.00    -0.300 N 
ATOM      5  H1  UNL     1     -55.418 -61.053 -36.633  1.00  0.00     0.171 HD
HETATM    6  C3  UNL     1     -55.288 -63.093 -37.158  1.00  0.00     0.215 C 
HETATM    7  N2  UNL     1     -55.997 -64.269 -37.566  1.00  0.00    -0.061 NA
HETATM    8  N3  UNL     1     -54.015 -63.201 -37.016  1.00  0.00    -0.228 N 
ATOM      9  H3  UNL     1     -53.500 -62.370 -36.724  1.00  0.00     0.198 HD
ENDROOT
BRANCH   8  10
HETATM   10  O2  UNL     1     -53.305 -64.334 -37.224  1.00  0.00    -0.181 OA
BRANCH  10  11
HETATM   11  C4  UNL     1     -52.706 -65.096 -36.233  1.00  0.00     0.394 C 
HETATM   12  N4  UNL     1     -51.433 -64.799 -35.685  1.00  0.00    -0.031 NA
HETATM   13  O3  UNL     1     -53.364 -66.102 -35.822  1.00  0.00    -0.240 OA
ENDBRANCH  10  11
ENDBRANCH   8  10
TORSDOF 2
ENDMDL
MODEL 5
REMARK VINA RESULT: -3.928967329      2.145      2.638
REMARK  2 active torsions:
REMARK  status: ('A' for Active; 'I' for Inactive)
REMARK       I    between atoms: C2_2  and  N1_4 
REMARK       I    between atoms: N1_4  and  C3_6 
REMARK    1  A    between atoms: N3_8  and  O2_10 
REMARK    2  A    between atoms: O2_10  and  C4_11 
ROOT
HETATM    1  C1  UNL     1     -59.251 -63.776 -40.388  1.00  0.00     0.117 C 
HETATM    2  C2  UNL     1     -58.258 -64.084 -39.347  1.00  0.00     0.220 C 
HETATM    3  O1  UNL     1     -58.337 -65.165 -38.727  1.00  0.00    -0.274 OA
HETATM    4  N1  UNL     1     -57.230 -63.178 -39.049  1.00  0.00    -0.300 N 
ATOM      5  H1  UNL     1     -57.177 -62.299 -39.564  1.00  0.00     0.171 HD
HETATM    6  C3  UNL     1     -56.263 -63.452 -38.052  1.00  0.00     0.215 C 
HETATM    7  N2  UNL     1     -56.288 -64.671 -37.299  1.00  0.00    -0.061 NA
HETATM    8  N3  UNL     1     -55.321 -62.620 -37.780  1.00  0.00    -0.228 N 
ATOM      9  H3  UNL     1     -55.295 -61.749 -38.309  1.00  0.00     0.198 HD
ENDROOT
BRANCH   8  10
HETATM   10  O2  UNL     1     -54.363 -62.813 -36.844  1.00  0.00    -0.181 OA
BRANCH  10  11
HETATM   11  C4  UNL     1     -53.094 -63.315 -37.090  1.00  0.00     0.394 C 
HETATM   12  N4  UNL     1     -52.093 -62.594 -37.786  1.00  0.00    -0.031 NA
HETATM   13  O3  UNL     1     -52.858 -64.485 -36.654  1.00  0.00    -0.240 OA
ENDBRANCH  10  11
ENDBRANCH   8  10
TORSDOF 2
ENDMDL
