MODEL 1
REMARK VINA RESULT: -6.708922831      0.000      0.000
REMARK  7 active torsions:
REMARK  status: ('A' for Active; 'I' for Inactive)
REMARK    1  A    between atoms: N1_1  and  C1_4 
REMARK    2  A    between atoms: N3_8  and  C3_10 
REMARK    3  A    between atoms: C3_10  and  C4_11 
REMARK    4  A    between atoms: N5_18  and  C7_19 
REMARK    5  A    between atoms: C7_19  and  C8_20 
REMARK    6  A    between atoms: C8_20  and  C9_21 
REMARK    7  A    between atoms: C9_21  and  N6_22 
ROOT
HETATM    1  C1  UNL     1     -12.815   9.355  26.828  1.00  0.00     0.679 A 
HETATM    2  N2  UNL     1     -12.556   8.561  25.788  1.00  0.00    -0.175 N 
ATOM      3  H2  UNL     1     -11.717   7.982  25.811  1.00  0.00     0.186 HD
HETATM    4  C2  UNL     1     -13.358   8.494  24.713  1.00  0.00     0.147 A 
HETATM    5  N3  UNL     1     -13.123   7.725  23.704  1.00  0.00    -0.369 N 
ATOM      6  H3  UNL     1     -13.785   7.738  22.928  1.00  0.00     0.161 HD
HETATM    7  C5  UNL     1     -14.499   9.286  24.689  1.00  0.00     0.123 A 
HETATM    8  N4  UNL     1     -15.486   9.442  23.782  1.00  0.00    -0.346 N 
ATOM      9  H4  UNL     1     -15.567   8.970  22.882  1.00  0.00     0.167 HD
HETATM   10  C6  UNL     1     -16.340  10.341  24.294  1.00  0.00     0.185 A 
HETATM   11  N5  UNL     1     -15.907  10.749  25.499  1.00  0.00    -0.327 N 
HETATM   12  C14 UNL     1     -14.775  10.122  25.778  1.00  0.00     0.155 A 
HETATM   13  N7  UNL     1     -13.908  10.119  26.813  1.00  0.00    -0.174 N 
ATOM     14  H7  UNL     1     -14.096  10.724  27.613  1.00  0.00     0.186 HD
ENDROOT
BRANCH  11  15
HETATM   15  C7  UNL     1     -16.559  11.747  26.401  1.00  0.00     0.133 C 
BRANCH  15  16
HETATM   16  C8  UNL     1     -18.001  11.417  26.529  1.00  0.00     0.050 C 
BRANCH  16  17
HETATM   17  C9  UNL     1     -19.016  12.383  26.049  1.00  0.00     0.274 C 
BRANCH  17  18
HETATM   18  N6  UNL     1     -18.588  13.332  25.120  1.00  0.00     0.088 N 
HETATM   19  C10 UNL     1     -18.801  14.695  25.233  1.00  0.00     0.272 C 
HETATM   20  C11 UNL     1     -18.533  15.257  23.824  1.00  0.00     0.032 C 
HETATM   21  C12 UNL     1     -18.233  14.031  22.961  1.00  0.00     0.032 C 
HETATM   22  C13 UNL     1     -18.990  12.987  23.752  1.00  0.00     0.272 C 
ENDBRANCH  17  18
ENDBRANCH  16  17
ENDBRANCH  15  16
ENDBRANCH  11  15
BRANCH   1  23
HETATM   23  N1  UNL     1     -12.017   9.401  27.866  1.00  0.00    -0.234 N 
ATOM     24  H12 UNL     1     -11.012   9.483  27.718  1.00  0.00     0.174 HD
ATOM     25  H11 UNL     1     -12.382   9.358  28.818  1.00  0.00     0.174 HD
ENDBRANCH   1  23
BRANCH   5  26
HETATM   26  C3  UNL     1     -11.982   6.849  23.606  1.00  0.00     0.192 C 
BRANCH  26  27
HETATM   27  C4  UNL     1     -12.405   5.386  23.764  1.00  0.00     0.370 C 
HETATM   28  F1  UNL     1     -13.770   5.312  23.623  1.00  0.00    -0.213 F 
HETATM   29  F2  UNL     1     -11.719   4.649  22.831  1.00  0.00    -0.213 F 
ENDBRANCH  26  27
ENDBRANCH   5  26
TORSDOF 7
ENDMDL
MODEL 2
REMARK VINA RESULT: -6.674472470      1.323      1.733
REMARK  7 active torsions:
REMARK  status: ('A' for Active; 'I' for Inactive)
REMARK    1  A    between atoms: N1_1  and  C1_4 
REMARK    2  A    between atoms: N3_8  and  C3_10 
REMARK    3  A    between atoms: C3_10  and  C4_11 
REMARK    4  A    between atoms: N5_18  and  C7_19 
REMARK    5  A    between atoms: C7_19  and  C8_20 
REMARK    6  A    between atoms: C8_20  and  C9_21 
REMARK    7  A    between atoms: C9_21  and  N6_22 
ROOT
HETATM    1  C1  UNL     1     -12.055   8.696  26.812  1.00  0.00     0.679 A 
HETATM    2  N2  UNL     1     -11.745   8.020  25.706  1.00  0.00    -0.175 N 
ATOM      3  H2  UNL     1     -10.974   7.353  25.739  1.00  0.00     0.186 HD
HETATM    4  C2  UNL     1     -12.408   8.182  24.550  1.00  0.00     0.147 A 
HETATM    5  N3  UNL     1     -12.124   7.528  23.474  1.00  0.00    -0.369 N 
ATOM      6  H3  UNL     1     -12.679   7.715  22.639  1.00  0.00     0.161 HD
HETATM    7  C5  UNL     1     -13.457   9.092  24.512  1.00  0.00     0.123 A 
HETATM    8  N4  UNL     1     -14.304   9.474  23.532  1.00  0.00    -0.346 N 
ATOM      9  H4  UNL     1     -14.317   9.133  22.571  1.00  0.00     0.167 HD
HETATM   10  C6  UNL     1     -15.125  10.388  24.069  1.00  0.00     0.185 A 
HETATM   11  N5  UNL     1     -14.810  10.586  25.360  1.00  0.00    -0.327 N 
HETATM   12  C14 UNL     1     -13.787   9.806  25.671  1.00  0.00     0.155 A 
HETATM   13  N7  UNL     1     -13.060   9.573  26.784  1.00  0.00    -0.174 N 
ATOM     14  H7  UNL     1     -13.288  10.086  27.636  1.00  0.00     0.186 HD
ENDROOT
BRANCH  11  15
HETATM   15  C7  UNL     1     -15.472  11.525  26.316  1.00  0.00     0.133 C 
BRANCH  15  16
HETATM   16  C8  UNL     1     -16.721  10.903  26.822  1.00  0.00     0.050 C 
BRANCH  16  17
HETATM   17  C9  UNL     1     -18.022  11.560  26.559  1.00  0.00     0.274 C 
BRANCH  17  18
HETATM   18  N6  UNL     1     -18.377  11.734  25.222  1.00  0.00     0.088 N 
HETATM   19  C10 UNL     1     -18.996  12.862  24.712  1.00  0.00     0.272 C 
HETATM   20  C11 UNL     1     -19.543  12.429  23.338  1.00  0.00     0.032 C 
HETATM   21  C12 UNL     1     -19.204  10.942  23.230  1.00  0.00     0.032 C 
HETATM   22  C13 UNL     1     -19.148  10.599  24.702  1.00  0.00     0.272 C 
ENDBRANCH  17  18
ENDBRANCH  16  17
ENDBRANCH  15  16
ENDBRANCH  11  15
BRANCH   1  23
HETATM   23  N1  UNL     1     -11.393   8.518  27.929  1.00  0.00    -0.234 N 
ATOM     24  H12 UNL     1     -10.927   7.627  28.094  1.00  0.00     0.174 HD
ATOM     25  H11 UNL     1     -11.334   9.253  28.634  1.00  0.00     0.174 HD
ENDBRANCH   1  23
BRANCH   5  26
HETATM   26  C3  UNL     1     -11.068   6.551  23.380  1.00  0.00     0.192 C 
BRANCH  26  27
HETATM   27  C4  UNL     1     -11.497   5.370  22.505  1.00  0.00     0.370 C 
HETATM   28  F1  UNL     1     -10.370   4.807  21.956  1.00  0.00    -0.213 F 
HETATM   29  F2  UNL     1     -12.212   4.503  23.293  1.00  0.00    -0.213 F 
ENDBRANCH  26  27
ENDBRANCH   5  26
TORSDOF 7
ENDMDL
MODEL 3
REMARK VINA RESULT: -6.603860280      4.430      6.460
REMARK  7 active torsions:
REMARK  status: ('A' for Active; 'I' for Inactive)
REMARK    1  A    between atoms: N1_1  and  C1_4 
REMARK    2  A    between atoms: N3_8  and  C3_10 
REMARK    3  A    between atoms: C3_10  and  C4_11 
REMARK    4  A    between atoms: N5_18  and  C7_19 
REMARK    5  A    between atoms: C7_19  and  C8_20 
REMARK    6  A    between atoms: C8_20  and  C9_21 
REMARK    7  A    between atoms: C9_21  and  N6_22 
ROOT
HETATM    1  C1  UNL     1     -17.588  14.575  22.694  1.00  0.00     0.679 A 
HETATM    2  N2  UNL     1     -17.984  13.462  23.313  1.00  0.00    -0.175 N 
ATOM      3  H2  UNL     1     -18.955  13.166  23.214  1.00  0.00     0.186 HD
HETATM    4  C2  UNL     1     -17.155  12.717  24.061  1.00  0.00     0.147 A 
HETATM    5  N3  UNL     1     -17.524  11.634  24.659  1.00  0.00    -0.369 N 
ATOM      6  H3  UNL     1     -16.828  11.130  25.208  1.00  0.00     0.161 HD
HETATM    7  C5  UNL     1     -15.834  13.127  24.192  1.00  0.00     0.123 A 
HETATM    8  N4  UNL     1     -14.776  12.610  24.852  1.00  0.00    -0.346 N 
ATOM      9  H4  UNL     1     -14.766  11.762  25.418  1.00  0.00     0.167 HD
HETATM   10  C6  UNL     1     -13.740  13.430  24.618  1.00  0.00     0.185 A 
HETATM   11  N5  UNL     1     -14.129  14.445  23.830  1.00  0.00    -0.327 N 
HETATM   12  C14 UNL     1     -15.413  14.295  23.545  1.00  0.00     0.155 A 
HETATM   13  N7  UNL     1     -16.321  14.976  22.815  1.00  0.00    -0.174 N 
ATOM     14  H7  UNL     1     -16.029  15.829  22.339  1.00  0.00     0.186 HD
ENDROOT
BRANCH  11  15
HETATM   15  C7  UNL     1     -13.287  15.579  23.339  1.00  0.00     0.133 C 
BRANCH  15  16
HETATM   16  C8  UNL     1     -13.832  16.854  23.867  1.00  0.00     0.050 C 
BRANCH  16  17
HETATM   17  C9  UNL     1     -13.872  17.081  25.330  1.00  0.00     0.274 C 
BRANCH  17  18
HETATM   18  N6  UNL     1     -15.133  17.229  25.907  1.00  0.00     0.088 N 
HETATM   19  C10 UNL     1     -15.821  16.224  26.564  1.00  0.00     0.272 C 
HETATM   20  C11 UNL     1     -17.275  16.726  26.650  1.00  0.00     0.032 C 
HETATM   21  C12 UNL     1     -17.275  18.061  25.902  1.00  0.00     0.032 C 
HETATM   22  C13 UNL     1     -16.102  17.820  24.978  1.00  0.00     0.272 C 
ENDBRANCH  17  18
ENDBRANCH  16  17
ENDBRANCH  15  16
ENDBRANCH  11  15
BRANCH   1  23
HETATM   23  N1  UNL     1     -18.416  15.284  21.968  1.00  0.00    -0.234 N 
ATOM     24  H12 UNL     1     -18.947  16.034  22.409  1.00  0.00     0.174 HD
ATOM     25  H11 UNL     1     -18.539  15.102  20.972  1.00  0.00     0.174 HD
ENDBRANCH   1  23
BRANCH   5  26
HETATM   26  C3  UNL     1     -18.860  11.095  24.598  1.00  0.00     0.192 C 
BRANCH  26  27
HETATM   27  C4  UNL     1     -18.946   9.973  23.559  1.00  0.00     0.370 C 
HETATM   28  F1  UNL     1     -19.373   8.830  24.191  1.00  0.00    -0.213 F 
HETATM   29  F2  UNL     1     -19.789  10.391  22.560  1.00  0.00    -0.213 F 
ENDBRANCH  26  27
ENDBRANCH   5  26
TORSDOF 7
ENDMDL
MODEL 4
REMARK VINA RESULT: -6.578667666      4.239      6.580
REMARK  7 active torsions:
REMARK  status: ('A' for Active; 'I' for Inactive)
REMARK    1  A    between atoms: N1_1  and  C1_4 
REMARK    2  A    between atoms: N3_8  and  C3_10 
REMARK    3  A    between atoms: C3_10  and  C4_11 
REMARK    4  A    between atoms: N5_18  and  C7_19 
REMARK    5  A    between atoms: C7_19  and  C8_20 
REMARK    6  A    between atoms: C8_20  and  C9_21 
REMARK    7  A    between atoms: C9_21  and  N6_22 
ROOT
HETATM    1  C1  UNL     1     -16.413  12.522  26.282  1.00  0.00     0.679 A 
HETATM    2  N2  UNL     1     -17.393  11.761  25.795  1.00  0.00    -0.175 N 
ATOM      3  H2  UNL     1     -17.317  10.748  25.884  1.00  0.00     0.186 HD
HETATM    4  C2  UNL     1     -18.476  12.275  25.191  1.00  0.00     0.147 A 
HETATM    5  N3  UNL     1     -19.435  11.550  24.721  1.00  0.00    -0.369 N 
ATOM      6  H3  UNL     1     -20.220  12.025  24.276  1.00  0.00     0.161 HD
HETATM    7  C5  UNL     1     -18.572  13.656  25.072  1.00  0.00     0.123 A 
HETATM    8  N4  UNL     1     -19.511  14.466  24.537  1.00  0.00    -0.346 N 
ATOM      9  H4  UNL     1     -20.379  14.178  24.086  1.00  0.00     0.167 HD
HETATM   10  C6  UNL     1     -19.078  15.723  24.712  1.00  0.00     0.185 A 
HETATM   11  N5  UNL     1     -17.891  15.716  25.342  1.00  0.00    -0.327 N 
HETATM   12  C14 UNL     1     -17.546  14.461  25.582  1.00  0.00     0.155 A 
HETATM   13  N7  UNL     1     -16.497  13.849  26.172  1.00  0.00    -0.174 N 
ATOM     14  H7  UNL     1     -15.742  14.422  26.547  1.00  0.00     0.186 HD
ENDROOT
BRANCH  11  15
HETATM   15  C7  UNL     1     -17.065  16.902  25.722  1.00  0.00     0.133 C 
BRANCH  15  16
HETATM   16  C8  UNL     1     -16.155  17.240  24.598  1.00  0.00     0.050 C 
BRANCH  16  17
HETATM   17  C9  UNL     1     -14.696  17.037  24.754  1.00  0.00     0.274 C 
BRANCH  17  18
HETATM   18  N6  UNL     1     -14.066  17.767  25.762  1.00  0.00     0.088 N 
HETATM   19  C10 UNL     1     -13.093  18.728  25.546  1.00  0.00     0.272 C 
HETATM   20  C11 UNL     1     -12.432  18.940  26.920  1.00  0.00     0.032 C 
HETATM   21  C12 UNL     1     -13.116  17.934  27.847  1.00  0.00     0.032 C 
HETATM   22  C13 UNL     1     -13.531  16.904  26.820  1.00  0.00     0.272 C 
ENDBRANCH  17  18
ENDBRANCH  16  17
ENDBRANCH  15  16
ENDBRANCH  11  15
BRANCH   1  23
HETATM   23  N1  UNL     1     -15.367  11.995  26.869  1.00  0.00    -0.234 N 
ATOM     24  H12 UNL     1     -15.488  11.166  27.450  1.00  0.00     0.174 HD
ATOM     25  H11 UNL     1     -14.436  12.396  26.756  1.00  0.00     0.174 HD
ENDBRANCH   1  23
BRANCH   5  26
HETATM   26  C3  UNL     1     -19.463  10.111  24.787  1.00  0.00     0.192 C 
BRANCH  26  27
HETATM   27  C4  UNL     1     -19.096   9.497  23.433  1.00  0.00     0.370 C 
HETATM   28  F1  UNL     1     -19.869  10.090  22.465  1.00  0.00    -0.213 F 
HETATM   29  F2  UNL     1     -17.749   9.678  23.242  1.00  0.00    -0.213 F 
ENDBRANCH  26  27
ENDBRANCH   5  26
TORSDOF 7
ENDMDL
MODEL 5
REMARK VINA RESULT: -6.551204153      5.708      8.149
REMARK  7 active torsions:
REMARK  status: ('A' for Active; 'I' for Inactive)
REMARK    1  A    between atoms: N1_1  and  C1_4 
REMARK    2  A    between atoms: N3_8  and  C3_10 
REMARK    3  A    between atoms: C3_10  and  C4_11 
REMARK    4  A    between atoms: N5_18  and  C7_19 
REMARK    5  A    between atoms: C7_19  and  C8_20 
REMARK    6  A    between atoms: C8_20  and  C9_21 
REMARK    7  A    between atoms: C9_21  and  N6_22 
ROOT
HETATM    1  C1  UNL     1     -17.033  17.354  25.695  1.00  0.00     0.679 A 
HETATM    2  N2  UNL     1     -17.273  16.454  24.741  1.00  0.00    -0.175 N 
ATOM      3  H2  UNL     1     -18.222  16.098  24.632  1.00  0.00     0.186 HD
HETATM    4  C2  UNL     1     -16.314  15.999  23.919  1.00  0.00     0.147 A 
HETATM    5  N3  UNL     1     -16.534  15.133  22.988  1.00  0.00    -0.369 N 
ATOM      6  H3  UNL     1     -15.746  14.842  22.409  1.00  0.00     0.161 HD
HETATM    7  C5  UNL     1     -15.023  16.489  24.075  1.00  0.00     0.123 A 
HETATM    8  N4  UNL     1     -13.866  16.243  23.424  1.00  0.00    -0.346 N 
ATOM      9  H4  UNL     1     -13.729  15.600  22.645  1.00  0.00     0.167 HD
HETATM   10  C6  UNL     1     -12.930  17.011  24.002  1.00  0.00     0.185 A 
HETATM   11  N5  UNL     1     -13.477  17.727  24.999  1.00  0.00    -0.327 N 
HETATM   12  C14 UNL     1     -14.765  17.434  25.076  1.00  0.00     0.155 A 
HETATM   13  N7  UNL     1     -15.796  17.829  25.852  1.00  0.00    -0.174 N 
ATOM     14  H7  UNL     1     -15.623  18.517  26.585  1.00  0.00     0.186 HD
ENDROOT
BRANCH  11  15
HETATM   15  C7  UNL     1     -12.781  18.698  25.898  1.00  0.00     0.133 C 
BRANCH  15  16
HETATM   16  C8  UNL     1     -12.158  17.957  27.024  1.00  0.00     0.050 C 
BRANCH  16  17
HETATM   17  C9  UNL     1     -13.011  17.447  28.122  1.00  0.00     0.274 C 
BRANCH  17  18
HETATM   18  N6  UNL     1     -13.150  16.062  28.216  1.00  0.00     0.088 N 
HETATM   19  C10 UNL     1     -12.594  15.154  27.332  1.00  0.00     0.272 C 
HETATM   20  C11 UNL     1     -13.342  13.833  27.595  1.00  0.00     0.032 C 
HETATM   21  C12 UNL     1     -14.391  14.179  28.653  1.00  0.00     0.032 C 
HETATM   22  C13 UNL     1     -14.551  15.654  28.362  1.00  0.00     0.272 C 
ENDBRANCH  17  18
ENDBRANCH  16  17
ENDBRANCH  15  16
ENDBRANCH  11  15
BRANCH   1  23
HETATM   23  N1  UNL     1     -17.987  17.784  26.483  1.00  0.00    -0.234 N 
ATOM     24  H12 UNL     1     -18.828  18.187  26.072  1.00  0.00     0.174 HD
ATOM     25  H11 UNL     1     -17.905  17.723  27.498  1.00  0.00     0.174 HD
ENDBRANCH   1  23
BRANCH   5  26
HETATM   26  C3  UNL     1     -17.825  14.554  22.715  1.00  0.00     0.192 C 
BRANCH  26  27
HETATM   27  C4  UNL     1     -17.943  13.164  23.347  1.00  0.00     0.370 C 
HETATM   28  F1  UNL     1     -19.038  12.535  22.808  1.00  0.00    -0.213 F 
HETATM   29  F2  UNL     1     -16.764  12.499  23.119  1.00  0.00    -0.213 F 
ENDBRANCH  26  27
ENDBRANCH   5  26
TORSDOF 7
ENDMDL
