MODEL 1
REMARK VINA RESULT: -3.969323354      0.000      0.000
REMARK  1 active torsions:
REMARK  status: ('A' for Active; 'I' for Inactive)
REMARK    1  A    between atoms: C3_3  and  O1_4 
ROOT
HETATM    1  C1  UNL     1     -21.250  16.310  -8.265  1.00  0.00     0.046 C 
HETATM    2  C2  UNL     1     -20.461  16.438  -7.009  1.00  0.00     0.252 C 
HETATM    3  C3  UNL     1     -20.757  15.462  -5.912  1.00  0.00     0.271 C 
HETATM    4  N1  UNL     1     -19.317  15.504  -5.693  1.00  0.00    -0.013 NA
HETATM    5  N2  UNL     1     -19.120  15.945  -7.014  1.00  0.00     0.013 N 
HETATM    6  C4  UNL     1     -18.170  17.011  -7.172  1.00  0.00     0.297 C 
HETATM    7  C5  UNL     1     -18.820  14.848  -7.880  1.00  0.00     0.297 C 
ENDROOT
BRANCH   3   8
HETATM    8  O1  UNL     1     -21.264  14.250  -6.314  1.00  0.00    -0.376 OA
ATOM      9  H1  UNL     1     -22.212  14.190  -6.348  1.00  0.00     0.211 HD
ENDBRANCH   3   8
TORSDOF 1
ENDMDL
MODEL 2
REMARK VINA RESULT: -3.943584219      3.383      3.820
REMARK  1 active torsions:
REMARK  status: ('A' for Active; 'I' for Inactive)
REMARK    1  A    between atoms: C3_3  and  O1_4 
ROOT
HETATM    1  C1  UNL     1     -17.723  15.249  -6.494  1.00  0.00     0.046 C 
HETATM    2  C2  UNL     1     -17.450  15.839  -5.154  1.00  0.00     0.252 C 
HETATM    3  C3  UNL     1     -17.987  15.106  -3.962  1.00  0.00     0.271 C 
HETATM    4  N1  UNL     1     -16.734  15.513  -3.338  1.00  0.00    -0.013 NA
HETATM    5  N2  UNL     1     -16.141  15.664  -4.606  1.00  0.00     0.013 N 
HETATM    6  C4  UNL     1     -15.342  16.846  -4.775  1.00  0.00     0.297 C 
HETATM    7  C5  UNL     1     -15.418  14.489  -4.977  1.00  0.00     0.297 C 
ENDROOT
BRANCH   3   8
HETATM    8  O1  UNL     1     -18.160  13.752  -4.124  1.00  0.00    -0.376 OA
ATOM      9  H1  UNL     1     -18.491  13.286  -3.366  1.00  0.00     0.211 HD
ENDBRANCH   3   8
TORSDOF 1
ENDMDL
MODEL 3
REMARK VINA RESULT: -3.898876017      1.173      1.603
REMARK  1 active torsions:
REMARK  status: ('A' for Active; 'I' for Inactive)
REMARK    1  A    between atoms: C3_3  and  O1_4 
ROOT
HETATM    1  C1  UNL     1     -18.991  14.425  -8.174  1.00  0.00     0.046 C 
HETATM    2  C2  UNL     1     -19.396  15.589  -7.337  1.00  0.00     0.252 C 
HETATM    3  C3  UNL     1     -20.655  15.449  -6.536  1.00  0.00     0.271 C 
HETATM    4  N1  UNL     1     -19.917  16.200  -5.529  1.00  0.00    -0.013 NA
HETATM    5  N2  UNL     1     -18.699  15.796  -6.106  1.00  0.00     0.013 N 
HETATM    6  C4  UNL     1     -17.707  16.825  -6.234  1.00  0.00     0.297 C 
HETATM    7  C5  UNL     1     -18.174  14.646  -5.440  1.00  0.00     0.297 C 
ENDROOT
BRANCH   3   8
HETATM    8  O1  UNL     1     -21.001  14.165  -6.189  1.00  0.00    -0.376 OA
ATOM      9  H1  UNL     1     -21.582  14.084  -5.442  1.00  0.00     0.211 HD
ENDBRANCH   3   8
TORSDOF 1
ENDMDL
MODEL 4
REMARK VINA RESULT: -3.862438915      3.356      4.200
REMARK  1 active torsions:
REMARK  status: ('A' for Active; 'I' for Inactive)
REMARK    1  A    between atoms: C3_3  and  O1_4 
ROOT
HETATM    1  C1  UNL     1     -15.621  14.236  -4.122  1.00  0.00     0.046 C 
HETATM    2  C2  UNL     1     -16.574  14.602  -5.207  1.00  0.00     0.252 C 
HETATM    3  C3  UNL     1     -17.992  14.875  -4.809  1.00  0.00     0.271 C 
HETATM    4  N1  UNL     1     -17.919  15.912  -5.831  1.00  0.00    -0.013 NA
HETATM    5  N2  UNL     1     -16.516  15.935  -5.720  1.00  0.00     0.013 N 
HETATM    6  C4  UNL     1     -15.801  15.986  -6.964  1.00  0.00     0.297 C 
HETATM    7  C5  UNL     1     -16.090  16.969  -4.831  1.00  0.00     0.297 C 
ENDROOT
BRANCH   3   8
HETATM    8  O1  UNL     1     -18.174  15.319  -3.521  1.00  0.00    -0.376 OA
ATOM      9  H1  UNL     1     -18.641  16.142  -3.432  1.00  0.00     0.211 HD
ENDBRANCH   3   8
TORSDOF 1
ENDMDL
MODEL 5
REMARK VINA RESULT: -3.767713887      3.581      4.373
REMARK  1 active torsions:
REMARK  status: ('A' for Active; 'I' for Inactive)
REMARK    1  A    between atoms: C3_3  and  O1_4 
ROOT
HETATM    1  C1  UNL     1     -15.453  14.285  -4.723  1.00  0.00     0.046 C 
HETATM    2  C2  UNL     1     -16.936  14.351  -4.606  1.00  0.00     0.252 C 
HETATM    3  C3  UNL     1     -17.498  14.888  -3.325  1.00  0.00     0.271 C 
HETATM    4  N1  UNL     1     -18.496  15.497  -4.196  1.00  0.00    -0.013 NA
HETATM    5  N2  UNL     1     -17.609  15.413  -5.286  1.00  0.00     0.013 N 
HETATM    6  C4  UNL     1     -18.190  14.961  -6.519  1.00  0.00     0.297 C 
HETATM    7  C5  UNL     1     -16.900  16.641  -5.464  1.00  0.00     0.297 C 
ENDROOT
BRANCH   3   8
HETATM    8  O1  UNL     1     -16.690  15.764  -2.641  1.00  0.00    -0.376 OA
ATOM      9  H1  UNL     1     -16.892  16.685  -2.755  1.00  0.00     0.211 HD
ENDBRANCH   3   8
TORSDOF 1
ENDMDL
