MODEL 1
REMARK VINA RESULT: -4.966279113      0.000      0.000
REMARK  0 active torsions:
REMARK  status: ('A' for Active; 'I' for Inactive)
REMARK       I    between atoms: C2_4  and  N3_6 
REMARK       I    between atoms: C3_8  and  N5_10 
ROOT
HETATM    1  C1  UNL     1     -17.012  15.123  -2.918  1.00  0.00     0.148 C 
HETATM    2  N1  UNL     1     -16.098  16.189  -3.252  1.00  0.00    -0.369 N 
ATOM      3  H1  UNL     1     -16.168  16.660  -4.154  1.00  0.00     0.161 HD
HETATM    4  C2  UNL     1     -15.198  16.542  -2.412  1.00  0.00     0.190 C 
HETATM    5  N2  UNL     1     -15.098  15.895  -1.166  1.00  0.00    -0.063 NA
HETATM    6  N3  UNL     1     -14.291  17.590  -2.727  1.00  0.00    -0.305 N 
ATOM      7  H3  UNL     1     -13.495  17.737  -2.106  1.00  0.00     0.171 HD
HETATM    8  C3  UNL     1     -14.410  18.364  -3.742  1.00  0.00     0.190 C 
HETATM    9  N4  UNL     1     -15.468  18.260  -4.674  1.00  0.00    -0.063 NA
HETATM   10  N5  UNL     1     -13.417  19.367  -3.919  1.00  0.00    -0.369 N 
ATOM     11  H5  UNL     1     -12.909  19.737  -3.117  1.00  0.00     0.161 HD
HETATM   12  C4  UNL     1     -13.138  19.856  -5.257  1.00  0.00     0.148 C 
ENDROOT
TORSDOF 0
ENDMDL
MODEL 2
REMARK VINA RESULT: -4.772377292      1.909      4.098
REMARK  0 active torsions:
REMARK  status: ('A' for Active; 'I' for Inactive)
REMARK       I    between atoms: C2_4  and  N3_6 
REMARK       I    between atoms: C3_8  and  N5_10 
ROOT
HETATM    1  C1  UNL     1     -14.099  17.940  -2.323  1.00  0.00     0.148 C 
HETATM    2  N1  UNL     1     -15.100  17.114  -2.957  1.00  0.00    -0.369 N 
ATOM      3  H1  UNL     1     -15.418  17.331  -3.901  1.00  0.00     0.161 HD
HETATM    4  C2  UNL     1     -15.586  16.109  -2.329  1.00  0.00     0.190 C 
HETATM    5  N2  UNL     1     -15.149  15.808  -1.026  1.00  0.00    -0.063 NA
HETATM    6  N3  UNL     1     -16.571  15.288  -2.941  1.00  0.00    -0.305 N 
ATOM      7  H3  UNL     1     -17.047  14.598  -2.359  1.00  0.00     0.171 HD
HETATM    8  C3  UNL     1     -16.901  15.358  -4.178  1.00  0.00     0.190 C 
HETATM    9  N4  UNL     1     -16.314  16.271  -5.083  1.00  0.00    -0.063 NA
HETATM   10  N5  UNL     1     -17.907  14.464  -4.638  1.00  0.00    -0.369 N 
ATOM     11  H5  UNL     1     -18.052  13.567  -4.174  1.00  0.00     0.161 HD
HETATM   12  C4  UNL     1     -18.723  14.845  -5.776  1.00  0.00     0.148 C 
ENDROOT
TORSDOF 0
ENDMDL
MODEL 3
REMARK VINA RESULT: -4.718656379      2.950      4.397
REMARK  0 active torsions:
REMARK  status: ('A' for Active; 'I' for Inactive)
REMARK       I    between atoms: C2_4  and  N3_6 
REMARK       I    between atoms: C3_8  and  N5_10 
ROOT
HETATM    1  C1  UNL     1     -14.598  16.168  -1.541  1.00  0.00     0.148 C 
HETATM    2  N1  UNL     1     -15.578  15.809  -2.538  1.00  0.00    -0.369 N 
ATOM      3  H1  UNL     1     -15.367  15.930  -3.529  1.00  0.00     0.161 HD
HETATM    4  C2  UNL     1     -16.712  15.338  -2.175  1.00  0.00     0.190 C 
HETATM    5  N2  UNL     1     -17.006  15.170  -0.809  1.00  0.00    -0.063 NA
HETATM    6  N3  UNL     1     -17.686  14.981  -3.146  1.00  0.00    -0.305 N 
ATOM      7  H3  UNL     1     -18.628  14.761  -2.820  1.00  0.00     0.171 HD
HETATM    8  C3  UNL     1     -17.457  14.917  -4.406  1.00  0.00     0.190 C 
HETATM    9  N4  UNL     1     -16.196  15.198  -4.978  1.00  0.00    -0.063 NA
HETATM   10  N5  UNL     1     -18.540  14.543  -5.249  1.00  0.00    -0.369 N 
ATOM     11  H5  UNL     1     -19.297  13.962  -4.889  1.00  0.00     0.161 HD
HETATM   12  C4  UNL     1     -18.554  14.999  -6.626  1.00  0.00     0.148 C 
ENDROOT
TORSDOF 0
ENDMDL
MODEL 4
REMARK VINA RESULT: -4.531738846      4.168      5.811
REMARK  0 active torsions:
REMARK  status: ('A' for Active; 'I' for Inactive)
REMARK       I    between atoms: C2_4  and  N3_6 
REMARK       I    between atoms: C3_8  and  N5_10 
ROOT
HETATM    1  C1  UNL     1     -20.428  17.094  -7.709  1.00  0.00     0.148 C 
HETATM    2  N1  UNL     1     -19.445  16.391  -6.921  1.00  0.00    -0.369 N 
ATOM      3  H1  UNL     1     -18.469  16.687  -6.936  1.00  0.00     0.161 HD
HETATM    4  C2  UNL     1     -19.802  15.393  -6.201  1.00  0.00     0.190 C 
HETATM    5  N2  UNL     1     -21.147  14.981  -6.177  1.00  0.00    -0.063 NA
HETATM    6  N3  UNL     1     -18.844  14.692  -5.418  1.00  0.00    -0.305 N 
ATOM      7  H3  UNL     1     -19.132  13.814  -4.986  1.00  0.00     0.171 HD
HETATM    8  C3  UNL     1     -17.643  15.093  -5.222  1.00  0.00     0.190 C 
HETATM    9  N4  UNL     1     -17.128  16.291  -5.768  1.00  0.00    -0.063 NA
HETATM   10  N5  UNL     1     -16.805  14.276  -4.413  1.00  0.00    -0.369 N 
ATOM     11  H5  UNL     1     -17.210  13.669  -3.700  1.00  0.00     0.161 HD
HETATM   12  C4  UNL     1     -15.369  14.317  -4.616  1.00  0.00     0.148 C 
ENDROOT
TORSDOF 0
ENDMDL
MODEL 5
REMARK VINA RESULT: -4.516629495      4.694      6.149
REMARK  0 active torsions:
REMARK  status: ('A' for Active; 'I' for Inactive)
REMARK       I    between atoms: C2_4  and  N3_6 
REMARK       I    between atoms: C3_8  and  N5_10 
ROOT
HETATM    1  C1  UNL     1     -15.970  14.694  -5.096  1.00  0.00     0.148 C 
HETATM    2  N1  UNL     1     -17.178  15.017  -5.815  1.00  0.00    -0.369 N 
ATOM      3  H1  UNL     1     -17.162  15.099  -6.832  1.00  0.00     0.161 HD
HETATM    4  C2  UNL     1     -18.272  15.199  -5.174  1.00  0.00     0.190 C 
HETATM    5  N2  UNL     1     -18.299  15.087  -3.772  1.00  0.00    -0.063 NA
HETATM    6  N3  UNL     1     -19.470  15.517  -5.870  1.00  0.00    -0.305 N 
ATOM      7  H3  UNL     1     -20.278  15.809  -5.321  1.00  0.00     0.171 HD
HETATM    8  C3  UNL     1     -19.598  15.460  -7.145  1.00  0.00     0.190 C 
HETATM    9  N4  UNL     1     -18.551  15.070  -8.011  1.00  0.00    -0.063 NA
HETATM   10  N5  UNL     1     -20.864  15.811  -7.690  1.00  0.00    -0.369 N 
ATOM     11  H5  UNL     1     -21.714  15.697  -7.137  1.00  0.00     0.161 HD
HETATM   12  C4  UNL     1     -20.931  16.331  -9.042  1.00  0.00     0.148 C 
ENDROOT
TORSDOF 0
ENDMDL
