MODEL 1
REMARK VINA RESULT: -7.285850641      0.000      0.000
REMARK  7 active torsions:
REMARK  status: ('A' for Active; 'I' for Inactive)
REMARK    1  A    between atoms: C9_10  and  C10_11 
REMARK    2  A    between atoms: C10_11  and  O1_12 
REMARK    3  A    between atoms: C10_11  and  C11_14 
REMARK    4  A    between atoms: C14_17  and  O2_18 
REMARK    5  A    between atoms: C19_24  and  C20_25 
REMARK    6  A    between atoms: C20_25  and  C21_26 
REMARK    7  A    between atoms: C21_26  and  C22_27 
REMARK       I    between atoms: C22_27  and  N1_29 
ROOT
HETATM    1  C1  UNL     1     -11.152  19.070  19.297  1.00  0.00     0.019 C 
HETATM    2  C2  UNL     1     -11.390  20.033  20.212  1.00  0.00    -0.061 C 
HETATM    3  C3  UNL     1     -12.325  21.071  19.751  1.00  0.00     0.039 C 
HETATM    4  C4  UNL     1     -11.718  22.412  19.602  1.00  0.00     0.013 C 
HETATM    5  C5  UNL     1     -10.366  22.581  20.298  1.00  0.00     0.030 C 
HETATM    6  C6  UNL     1     -10.033  24.031  20.166  1.00  0.00     0.011 C 
HETATM    7  C7  UNL     1     -10.101  24.571  21.593  1.00  0.00     0.048 C 
HETATM    8  C8  UNL     1      -9.669  23.395  22.429  1.00  0.00     0.149 C 
HETATM    9  F1  UNL     1      -8.313  23.262  22.245  1.00  0.00    -0.239 F 
HETATM   10  C9  UNL     1     -10.128  23.365  23.831  1.00  0.00     0.090 C 
HETATM   11  C14 UNL     1      -9.783  22.065  24.471  1.00  0.00     0.129 C 
HETATM   12  C15 UNL     1     -10.071  20.855  23.631  1.00  0.00     0.049 C 
HETATM   13  C16 UNL     1      -9.851  20.962  22.164  1.00  0.00     0.025 C 
HETATM   14  C17 UNL     1      -8.422  20.710  21.763  1.00  0.00     0.024 C 
HETATM   15  C18 UNL     1     -10.685  19.903  21.475  1.00  0.00    -0.045 C 
HETATM   16  C19 UNL     1     -10.813  18.778  22.094  1.00  0.00    -0.018 C 
HETATM   17  C24 UNL     1     -10.401  22.284  21.717  1.00  0.00     0.155 C 
HETATM   18  F2  UNL     1     -11.754  22.256  22.097  1.00  0.00    -0.238 F 
ENDROOT
BRANCH  16  19
HETATM   19  C20 UNL     1     -11.543  17.548  21.814  1.00  0.00     0.037 C 
BRANCH  19  20
HETATM   20  C21 UNL     1     -12.855  17.493  22.623  1.00  0.00     0.107 C 
BRANCH  20  21
HETATM   21  C22 UNL     1     -13.942  17.237  21.646  1.00  0.00     0.224 C 
HETATM   22  O3  UNL     1     -14.764  18.123  21.294  1.00  0.00    -0.273 OA
HETATM   23  N1  UNL     1     -14.078  15.945  21.075  1.00  0.00    -0.304 N 
HETATM   24  C23 UNL     1     -14.531  15.725  19.892  1.00  0.00     0.203 C 
ATOM     25  H1  UNL     1     -13.798  15.142  21.638  1.00  0.00     0.171 HD
HETATM   26  N2  UNL     1     -14.954  16.744  19.003  1.00  0.00    -0.066 NA
HETATM   27  N3  UNL     1     -14.606  14.380  19.466  1.00  0.00    -0.066 NA
ENDBRANCH  20  21
ENDBRANCH  19  20
ENDBRANCH  16  19
BRANCH  11  28
HETATM   28  O2  UNL     1      -8.520  21.995  25.047  1.00  0.00    -0.395 OA
ATOM     29  H2  UNL     1      -8.391  22.528  25.823  1.00  0.00     0.210 HD
ENDBRANCH  11  28
BRANCH  10  30
HETATM   30  C10 UNL     1     -10.015  24.557  24.671  1.00  0.00     0.155 C 
BRANCH  30  31
HETATM   31  O1  UNL     1     -10.252  24.110  26.009  1.00  0.00    -0.391 OA
ATOM     32  H1  UNL     1     -10.553  24.875  26.485  1.00  0.00     0.210 HD
ENDBRANCH  30  31
BRANCH  30  33
HETATM   33  C11 UNL     1      -8.920  25.484  24.607  1.00  0.00    -0.064 C 
HETATM   34  C12 UNL     1      -9.151  26.774  24.276  1.00  0.00     0.016 C 
HETATM   35  C13 UNL     1      -7.507  25.168  24.888  1.00  0.00     0.045 C 
ENDBRANCH  30  33
ENDBRANCH  10  30
TORSDOF 7
ENDMDL
MODEL 2
REMARK VINA RESULT: -7.116375868      4.508      8.039
REMARK  7 active torsions:
REMARK  status: ('A' for Active; 'I' for Inactive)
REMARK    1  A    between atoms: C9_10  and  C10_11 
REMARK    2  A    between atoms: C10_11  and  O1_12 
REMARK    3  A    between atoms: C10_11  and  C11_14 
REMARK    4  A    between atoms: C14_17  and  O2_18 
REMARK    5  A    between atoms: C19_24  and  C20_25 
REMARK    6  A    between atoms: C20_25  and  C21_26 
REMARK    7  A    between atoms: C21_26  and  C22_27 
REMARK       I    between atoms: C22_27  and  N1_29 
ROOT
HETATM    1  C1  UNL     1      -8.881  22.987  22.772  1.00  0.00     0.019 C 
HETATM    2  C2  UNL     1      -9.327  21.714  22.828  1.00  0.00    -0.061 C 
HETATM    3  C3  UNL     1      -8.275  20.708  22.620  1.00  0.00     0.039 C 
HETATM    4  C4  UNL     1      -8.431  19.913  21.381  1.00  0.00     0.013 C 
HETATM    5  C5  UNL     1      -9.818  19.997  20.741  1.00  0.00     0.030 C 
HETATM    6  C6  UNL     1      -9.798  19.001  19.628  1.00  0.00     0.011 C 
HETATM    7  C7  UNL     1     -10.781  17.917  20.067  1.00  0.00     0.048 C 
HETATM    8  C8  UNL     1     -11.803  18.679  20.868  1.00  0.00     0.149 C 
HETATM    9  F1  UNL     1     -12.557  19.391  19.965  1.00  0.00    -0.239 F 
HETATM   10  C9  UNL     1     -12.566  17.920  21.877  1.00  0.00     0.090 C 
HETATM   11  C14 UNL     1     -13.395  18.835  22.710  1.00  0.00     0.129 C 
HETATM   12  C15 UNL     1     -12.687  20.073  23.178  1.00  0.00     0.049 C 
HETATM   13  C16 UNL     1     -11.712  20.706  22.249  1.00  0.00     0.025 C 
HETATM   14  C17 UNL     1     -12.361  21.637  21.259  1.00  0.00     0.024 C 
HETATM   15  C18 UNL     1     -10.751  21.545  23.063  1.00  0.00    -0.045 C 
HETATM   16  C19 UNL     1     -11.240  22.144  24.095  1.00  0.00    -0.018 C 
HETATM   17  C24 UNL     1     -10.894  19.610  21.633  1.00  0.00     0.155 C 
HETATM   18  F2  UNL     1     -10.305  18.947  22.723  1.00  0.00    -0.238 F 
ENDROOT
BRANCH  16  19
HETATM   19  C20 UNL     1     -10.670  22.985  25.140  1.00  0.00     0.037 C 
BRANCH  19  20
HETATM   20  C21 UNL     1     -11.219  24.423  25.048  1.00  0.00     0.107 C 
BRANCH  20  21
HETATM   21  C22 UNL     1     -11.820  24.731  26.369  1.00  0.00     0.224 C 
HETATM   22  O3  UNL     1     -12.727  24.029  26.885  1.00  0.00    -0.273 OA
HETATM   23  N1  UNL     1     -11.365  25.862  27.095  1.00  0.00    -0.304 N 
HETATM   24  C23 UNL     1     -11.344  25.932  28.379  1.00  0.00     0.203 C 
ATOM     25  H1  UNL     1     -11.035  26.670  26.567  1.00  0.00     0.171 HD
HETATM   26  N2  UNL     1     -11.769  24.888  29.237  1.00  0.00    -0.066 NA
HETATM   27  N3  UNL     1     -10.862  27.129  28.956  1.00  0.00    -0.066 NA
ENDBRANCH  20  21
ENDBRANCH  19  20
ENDBRANCH  16  19
BRANCH  11  28
HETATM   28  O2  UNL     1     -14.656  19.130  22.206  1.00  0.00    -0.395 OA
ATOM     29  H2  UNL     1     -14.823  20.047  22.026  1.00  0.00     0.210 HD
ENDBRANCH  11  28
BRANCH  10  30
HETATM   30  C10 UNL     1     -13.162  16.629  21.534  1.00  0.00     0.155 C 
BRANCH  30  31
HETATM   31  O1  UNL     1     -13.812  16.175  22.725  1.00  0.00    -0.391 OA
ATOM     32  H1  UNL     1     -13.288  15.450  23.043  1.00  0.00     0.210 HD
ENDBRANCH  30  31
BRANCH  30  33
HETATM   33  C11 UNL     1     -13.969  16.400  20.369  1.00  0.00    -0.064 C 
HETATM   34  C12 UNL     1     -14.491  15.174  20.144  1.00  0.00     0.016 C 
HETATM   35  C13 UNL     1     -14.316  17.409  19.351  1.00  0.00     0.045 C 
ENDBRANCH  30  33
ENDBRANCH  10  30
TORSDOF 7
ENDMDL
MODEL 3
REMARK VINA RESULT: -7.114701408      4.767      7.746
REMARK  7 active torsions:
REMARK  status: ('A' for Active; 'I' for Inactive)
REMARK    1  A    between atoms: C9_10  and  C10_11 
REMARK    2  A    between atoms: C10_11  and  O1_12 
REMARK    3  A    between atoms: C10_11  and  C11_14 
REMARK    4  A    between atoms: C14_17  and  O2_18 
REMARK    5  A    between atoms: C19_24  and  C20_25 
REMARK    6  A    between atoms: C20_25  and  C21_26 
REMARK    7  A    between atoms: C21_26  and  C22_27 
REMARK       I    between atoms: C22_27  and  N1_29 
ROOT
HETATM    1  C1  UNL     1      -7.056  20.182  20.666  1.00  0.00     0.019 C 
HETATM    2  C2  UNL     1      -8.059  19.310  20.426  1.00  0.00    -0.061 C 
HETATM    3  C3  UNL     1      -8.145  18.877  19.024  1.00  0.00     0.039 C 
HETATM    4  C4  UNL     1      -9.371  19.320  18.324  1.00  0.00     0.013 C 
HETATM    5  C5  UNL     1     -10.491  19.806  19.248  1.00  0.00     0.030 C 
HETATM    6  C6  UNL     1     -11.667  20.031  18.355  1.00  0.00     0.011 C 
HETATM    7  C7  UNL     1     -12.674  18.961  18.772  1.00  0.00     0.048 C 
HETATM    8  C8  UNL     1     -12.403  18.783  20.243  1.00  0.00     0.149 C 
HETATM    9  F1  UNL     1     -12.905  19.899  20.870  1.00  0.00    -0.239 F 
HETATM   10  C9  UNL     1     -12.781  17.490  20.843  1.00  0.00     0.090 C 
HETATM   11  C14 UNL     1     -12.287  17.394  22.244  1.00  0.00     0.129 C 
HETATM   12  C15 UNL     1     -10.871  17.851  22.443  1.00  0.00     0.049 C 
HETATM   13  C16 UNL     1     -10.399  19.012  21.641  1.00  0.00     0.025 C 
HETATM   14  C17 UNL     1     -10.752  20.338  22.260  1.00  0.00     0.024 C 
HETATM   15  C18 UNL     1      -8.888  18.960  21.567  1.00  0.00    -0.045 C 
HETATM   16  C19 UNL     1      -8.274  18.524  22.614  1.00  0.00    -0.018 C 
HETATM   17  C24 UNL     1     -10.895  18.825  20.237  1.00  0.00     0.155 C 
HETATM   18  F2  UNL     1     -10.363  17.589  19.831  1.00  0.00    -0.238 F 
ENDROOT
BRANCH  16  19
HETATM   19  C20 UNL     1      -6.874  18.278  22.935  1.00  0.00     0.037 C 
BRANCH  19  20
HETATM   20  C21 UNL     1      -6.573  18.652  24.400  1.00  0.00     0.107 C 
BRANCH  20  21
HETATM   21  C22 UNL     1      -5.254  18.056  24.726  1.00  0.00     0.224 C 
HETATM   22  O3  UNL     1      -4.492  18.530  25.608  1.00  0.00    -0.273 OA
HETATM   23  N1  UNL     1      -4.817  16.903  24.024  1.00  0.00    -0.304 N 
HETATM   24  C23 UNL     1      -4.060  15.995  24.532  1.00  0.00     0.203 C 
ATOM     25  H1  UNL     1      -5.122  16.786  23.058  1.00  0.00     0.171 HD
HETATM   26  N2  UNL     1      -3.565  16.027  25.858  1.00  0.00    -0.066 NA
HETATM   27  N3  UNL     1      -3.711  14.905  23.704  1.00  0.00    -0.066 NA
ENDBRANCH  20  21
ENDBRANCH  19  20
ENDBRANCH  16  19
BRANCH  11  28
HETATM   28  O2  UNL     1     -13.131  17.915  23.217  1.00  0.00    -0.395 OA
ATOM     29  H2  UNL     1     -13.637  17.277  23.707  1.00  0.00     0.210 HD
ENDBRANCH  11  28
BRANCH  10  30
HETATM   30  C10 UNL     1     -14.096  16.908  20.572  1.00  0.00     0.155 C 
BRANCH  30  31
HETATM   31  O1  UNL     1     -15.043  17.939  20.868  1.00  0.00    -0.391 OA
ATOM     32  H1  UNL     1     -15.761  17.506  21.315  1.00  0.00     0.210 HD
ENDBRANCH  30  31
BRANCH  30  33
HETATM   33  C11 UNL     1     -14.432  16.209  19.364  1.00  0.00    -0.064 C 
HETATM   34  C12 UNL     1     -14.622  14.871  19.393  1.00  0.00     0.016 C 
HETATM   35  C13 UNL     1     -14.611  16.824  18.036  1.00  0.00     0.045 C 
ENDBRANCH  30  33
ENDBRANCH  10  30
TORSDOF 7
ENDMDL
MODEL 4
REMARK VINA RESULT: -7.091946840      2.864      5.063
REMARK  7 active torsions:
REMARK  status: ('A' for Active; 'I' for Inactive)
REMARK    1  A    between atoms: C9_10  and  C10_11 
REMARK    2  A    between atoms: C10_11  and  O1_12 
REMARK    3  A    between atoms: C10_11  and  C11_14 
REMARK    4  A    between atoms: C14_17  and  O2_18 
REMARK    5  A    between atoms: C19_24  and  C20_25 
REMARK    6  A    between atoms: C20_25  and  C21_26 
REMARK    7  A    between atoms: C21_26  and  C22_27 
REMARK       I    between atoms: C22_27  and  N1_29 
ROOT
HETATM    1  C1  UNL     1     -12.465  21.917  24.307  1.00  0.00     0.019 C 
HETATM    2  C2  UNL     1     -11.513  21.257  23.613  1.00  0.00    -0.061 C 
HETATM    3  C3  UNL     1     -10.167  21.376  24.193  1.00  0.00     0.039 C 
HETATM    4  C4  UNL     1      -9.205  22.119  23.348  1.00  0.00     0.013 C 
HETATM    5  C5  UNL     1      -9.641  22.298  21.892  1.00  0.00     0.030 C 
HETATM    6  C6  UNL     1      -8.465  22.906  21.201  1.00  0.00     0.011 C 
HETATM    7  C7  UNL     1      -7.982  21.821  20.241  1.00  0.00     0.048 C 
HETATM    8  C8  UNL     1      -9.249  21.098  19.867  1.00  0.00     0.149 C 
HETATM    9  F1  UNL     1      -9.940  21.934  19.020  1.00  0.00    -0.239 F 
HETATM   10  C9  UNL     1      -9.116  19.701  19.415  1.00  0.00     0.090 C 
HETATM   11  C14 UNL     1     -10.454  19.065  19.262  1.00  0.00     0.129 C 
HETATM   12  C15 UNL     1     -11.409  19.331  20.391  1.00  0.00     0.049 C 
HETATM   13  C16 UNL     1     -11.370  20.675  21.029  1.00  0.00     0.025 C 
HETATM   14  C17 UNL     1     -12.193  21.699  20.294  1.00  0.00     0.024 C 
HETATM   15  C18 UNL     1     -11.960  20.563  22.418  1.00  0.00    -0.045 C 
HETATM   16  C19 UNL     1     -12.939  19.736  22.563  1.00  0.00    -0.018 C 
HETATM   17  C24 UNL     1      -9.928  21.048  21.214  1.00  0.00     0.155 C 
HETATM   18  F2  UNL     1      -9.391  20.018  22.005  1.00  0.00    -0.238 F 
ENDROOT
BRANCH  16  19
HETATM   19  C20 UNL     1     -13.737  19.305  23.704  1.00  0.00     0.037 C 
BRANCH  19  20
HETATM   20  C21 UNL     1     -14.766  18.238  23.282  1.00  0.00     0.107 C 
BRANCH  20  21
HETATM   21  C22 UNL     1     -14.130  17.440  22.206  1.00  0.00     0.224 C 
HETATM   22  O3  UNL     1     -13.165  16.660  22.415  1.00  0.00    -0.273 OA
HETATM   23  N1  UNL     1     -14.617  17.546  20.877  1.00  0.00    -0.304 N 
HETATM   24  C23 UNL     1     -14.591  16.587  20.021  1.00  0.00     0.203 C 
ATOM     25  H1  UNL     1     -15.013  18.439  20.583  1.00  0.00     0.171 HD
HETATM   26  N2  UNL     1     -14.074  15.297  20.293  1.00  0.00    -0.066 NA
HETATM   27  N3  UNL     1     -15.115  16.850  18.735  1.00  0.00    -0.066 NA
ENDBRANCH  20  21
ENDBRANCH  19  20
ENDBRANCH  16  19
BRANCH  11  28
HETATM   28  O2  UNL     1     -11.066  19.242  18.027  1.00  0.00    -0.395 OA
ATOM     29  H2  UNL     1     -11.878  18.767  17.898  1.00  0.00     0.210 HD
ENDBRANCH  11  28
BRANCH  10  30
HETATM   30  C10 UNL     1      -8.104  19.339  18.423  1.00  0.00     0.155 C 
BRANCH  30  31
HETATM   31  O1  UNL     1      -8.316  17.952  18.143  1.00  0.00    -0.391 OA
ATOM     32  H1  UNL     1      -8.714  17.922  17.281  1.00  0.00     0.210 HD
ENDBRANCH  30  31
BRANCH  30  33
HETATM   33  C11 UNL     1      -7.849  20.089  17.225  1.00  0.00    -0.064 C 
HETATM   34  C12 UNL     1      -8.623  19.892  16.134  1.00  0.00     0.016 C 
HETATM   35  C13 UNL     1      -6.795  21.104  17.054  1.00  0.00     0.045 C 
ENDBRANCH  30  33
ENDBRANCH  10  30
TORSDOF 7
ENDMDL
MODEL 5
REMARK VINA RESULT: -6.970403392      3.273      5.102
REMARK  7 active torsions:
REMARK  status: ('A' for Active; 'I' for Inactive)
REMARK    1  A    between atoms: C9_10  and  C10_11 
REMARK    2  A    between atoms: C10_11  and  O1_12 
REMARK    3  A    between atoms: C10_11  and  C11_14 
REMARK    4  A    between atoms: C14_17  and  O2_18 
REMARK    5  A    between atoms: C19_24  and  C20_25 
REMARK    6  A    between atoms: C20_25  and  C21_26 
REMARK    7  A    between atoms: C21_26  and  C22_27 
REMARK       I    between atoms: C22_27  and  N1_29 
ROOT
HETATM    1  C1  UNL     1     -13.014  20.413  22.298  1.00  0.00     0.019 C 
HETATM    2  C2  UNL     1     -11.702  20.100  22.261  1.00  0.00    -0.061 C 
HETATM    3  C3  UNL     1     -10.882  20.863  23.214  1.00  0.00     0.039 C 
HETATM    4  C4  UNL     1      -9.911  21.782  22.581  1.00  0.00     0.013 C 
HETATM    5  C5  UNL     1      -9.654  21.514  21.096  1.00  0.00     0.030 C 
HETATM    6  C6  UNL     1      -8.535  22.429  20.719  1.00  0.00     0.011 C 
HETATM    7  C7  UNL     1      -7.362  21.496  20.422  1.00  0.00     0.048 C 
HETATM    8  C8  UNL     1      -8.031  20.261  19.877  1.00  0.00     0.149 C 
HETATM    9  F1  UNL     1      -8.464  20.577  18.611  1.00  0.00    -0.239 F 
HETATM   10  C9  UNL     1      -7.292  18.990  19.999  1.00  0.00     0.090 C 
HETATM   11  C14 UNL     1      -8.148  17.841  19.592  1.00  0.00     0.129 C 
HETATM   12  C15 UNL     1      -9.546  17.874  20.138  1.00  0.00     0.049 C 
HETATM   13  C16 UNL     1     -10.211  19.199  20.259  1.00  0.00     0.025 C 
HETATM   14  C17 UNL     1     -10.864  19.649  18.979  1.00  0.00     0.024 C 
HETATM   15  C18 UNL     1     -11.313  19.091  21.290  1.00  0.00    -0.045 C 
HETATM   16  C19 UNL     1     -11.949  17.970  21.337  1.00  0.00    -0.018 C 
HETATM   17  C24 UNL     1      -9.206  20.163  20.819  1.00  0.00     0.155 C 
HETATM   18  F2  UNL     1      -8.815  19.600  22.046  1.00  0.00    -0.238 F 
ENDROOT
BRANCH  16  19
HETATM   19  C20 UNL     1     -13.015  17.448  22.184  1.00  0.00     0.037 C 
BRANCH  19  20
HETATM   20  C21 UNL     1     -14.365  17.466  21.441  1.00  0.00     0.107 C 
BRANCH  20  21
HETATM   21  C22 UNL     1     -14.242  16.504  20.318  1.00  0.00     0.224 C 
HETATM   22  O3  UNL     1     -14.035  15.276  20.492  1.00  0.00    -0.273 OA
HETATM   23  N1  UNL     1     -14.360  16.972  18.983  1.00  0.00    -0.304 N 
HETATM   24  C23 UNL     1     -14.833  16.271  18.014  1.00  0.00     0.203 C 
ATOM     25  H1  UNL     1     -14.051  17.922  18.780  1.00  0.00     0.171 HD
HETATM   26  N2  UNL     1     -15.299  14.941  18.152  1.00  0.00    -0.066 NA
HETATM   27  N3  UNL     1     -14.886  16.879  16.739  1.00  0.00    -0.066 NA
ENDBRANCH  20  21
ENDBRANCH  19  20
ENDBRANCH  16  19
BRANCH  11  28
HETATM   28  O2  UNL     1      -8.139  17.535  18.236  1.00  0.00    -0.395 OA
ATOM     29  H2  UNL     1      -8.991  17.415  17.836  1.00  0.00     0.210 HD
ENDBRANCH  11  28
BRANCH  10  30
HETATM   30  C10 UNL     1      -5.880  18.918  19.624  1.00  0.00     0.155 C 
BRANCH  30  31
HETATM   31  O1  UNL     1      -5.558  17.524  19.598  1.00  0.00    -0.391 OA
ATOM     32  H1  UNL     1      -6.381  17.068  19.731  1.00  0.00     0.210 HD
ENDBRANCH  30  31
BRANCH  30  33
HETATM   33  C11 UNL     1      -5.309  19.615  18.507  1.00  0.00    -0.064 C 
HETATM   34  C12 UNL     1      -4.315  20.509  18.710  1.00  0.00     0.016 C 
HETATM   35  C13 UNL     1      -5.699  19.444  17.095  1.00  0.00     0.045 C 
ENDBRANCH  30  33
ENDBRANCH  10  30
TORSDOF 7
ENDMDL
