MODEL 1
REMARK VINA RESULT: -8.090988994      0.000      0.000
REMARK  6 active torsions:
REMARK  status: ('A' for Active; 'I' for Inactive)
REMARK    1  A    between atoms: C3_3  and  C4_4 
REMARK    2  A    between atoms: C4_4  and  O1_5 
REMARK    3  A    between atoms: C4_4  and  C5_7 
REMARK    4  A    between atoms: C5_7  and  O2_8 
REMARK    5  A    between atoms: C15_19  and  C16_20 
REMARK    6  A    between atoms: C19_24  and  O3_25 
ROOT
HETATM    1  C1  UNL     1      14.349   9.313  13.903  1.00  0.00     0.047 C 
HETATM    2  C2  UNL     1      15.227   9.143  12.709  1.00  0.00    -0.040 C 
HETATM    3  C3  UNL     1      14.977   9.816  11.601  1.00  0.00    -0.022 C 
HETATM    4  C6  UNL     1      15.951   9.500  10.459  1.00  0.00     0.042 C 
HETATM    5  C7  UNL     1      15.953   8.003  10.349  1.00  0.00     0.013 C 
HETATM    6  C8  UNL     1      16.524   7.331  11.567  1.00  0.00     0.025 C 
HETATM    7  C9  UNL     1      15.935   5.977  11.739  1.00  0.00     0.008 C 
HETATM    8  C10 UNL     1      15.099   5.848  12.956  1.00  0.00     0.005 C 
HETATM    9  C11 UNL     1      15.917   6.228  14.170  1.00  0.00    -0.007 C 
HETATM   10  C12 UNL     1      16.832   5.047  14.444  1.00  0.00     0.010 C 
HETATM   11  C13 UNL     1      17.784   5.310  15.609  1.00  0.00    -0.013 C 
HETATM   12  C14 UNL     1      18.874   4.268  15.491  1.00  0.00     0.010 C 
HETATM   13  C15 UNL     1      18.273   6.716  15.609  1.00  0.00    -0.000 C 
HETATM   14  C17 UNL     1      18.122   7.222  14.178  1.00  0.00     0.014 C 
HETATM   15  C18 UNL     1      16.602   7.524  14.049  1.00  0.00     0.029 C 
HETATM   16  C19 UNL     1      16.409   8.246  12.751  1.00  0.00     0.089 C 
ENDROOT
BRANCH   3  17
HETATM   17  C4  UNL     1      13.923  10.749  11.360  1.00  0.00     0.073 C 
BRANCH  17  18
HETATM   18  O1  UNL     1      13.056  10.400  10.448  1.00  0.00    -0.362 OA
ATOM     19  H1  UNL     1      12.235  10.050  10.774  1.00  0.00     0.217 HD
ENDBRANCH  17  18
BRANCH  17  20
HETATM   20  C5  UNL     1      13.659  12.031  11.966  1.00  0.00     0.228 C 
BRANCH  20  21
HETATM   21  O2  UNL     1      13.490  13.048  10.949  1.00  0.00    -0.394 OA
ATOM     22  H2  UNL     1      13.195  12.659  10.134  1.00  0.00     0.209 HD
ENDBRANCH  20  21
ENDBRANCH  17  20
ENDBRANCH   3  17
BRANCH  16  23
HETATM   23  O3  UNL     1      17.544   9.104  12.694  1.00  0.00    -0.384 OA
ATOM     24  H3  UNL     1      17.691   9.273  11.771  1.00  0.00     0.211 HD
ENDBRANCH  16  23
BRANCH  13  25
HETATM   25  C16 UNL     1      19.629   6.949  16.175  1.00  0.00     0.091 C 
HETATM   26  S1  UNL     1      20.738   7.647  14.948  1.00  0.00    -0.097 SA
ENDBRANCH  13  25
TORSDOF 6
ENDMDL
MODEL 2
REMARK VINA RESULT: -8.002811125      1.069      1.108
REMARK  6 active torsions:
REMARK  status: ('A' for Active; 'I' for Inactive)
REMARK    1  A    between atoms: C3_3  and  C4_4 
REMARK    2  A    between atoms: C4_4  and  O1_5 
REMARK    3  A    between atoms: C4_4  and  C5_7 
REMARK    4  A    between atoms: C5_7  and  O2_8 
REMARK    5  A    between atoms: C15_19  and  C16_20 
REMARK    6  A    between atoms: C19_24  and  O3_25 
ROOT
HETATM    1  C1  UNL     1      14.608   9.458  13.697  1.00  0.00     0.047 C 
HETATM    2  C2  UNL     1      15.273   9.515  12.363  1.00  0.00    -0.040 C 
HETATM    3  C3  UNL     1      14.761  10.256  11.399  1.00  0.00    -0.022 C 
HETATM    4  C6  UNL     1      15.546  10.178  10.082  1.00  0.00     0.042 C 
HETATM    5  C7  UNL     1      15.688   8.710   9.799  1.00  0.00     0.013 C 
HETATM    6  C8  UNL     1      16.534   8.000  10.820  1.00  0.00     0.025 C 
HETATM    7  C9  UNL     1      16.133   6.572  10.927  1.00  0.00     0.008 C 
HETATM    8  C10 UNL     1      15.544   6.222  12.241  1.00  0.00     0.005 C 
HETATM    9  C11 UNL     1      16.519   6.582  13.340  1.00  0.00    -0.007 C 
HETATM   10  C12 UNL     1      17.589   5.504  13.319  1.00  0.00     0.010 C 
HETATM   11  C13 UNL     1      18.698   5.770  14.335  1.00  0.00    -0.013 C 
HETATM   12  C14 UNL     1      19.855   4.890  13.918  1.00  0.00     0.010 C 
HETATM   13  C15 UNL     1      19.026   7.220  14.419  1.00  0.00    -0.000 C 
HETATM   14  C17 UNL     1      18.571   7.839  13.102  1.00  0.00     0.014 C 
HETATM   15  C18 UNL     1      17.029   7.959  13.261  1.00  0.00     0.029 C 
HETATM   16  C19 UNL     1      16.533   8.774  12.106  1.00  0.00     0.089 C 
ENDROOT
BRANCH   3  17
HETATM   17  C4  UNL     1      13.588  11.069  11.445  1.00  0.00     0.073 C 
BRANCH  17  18
HETATM   18  O1  UNL     1      12.572  10.635  10.748  1.00  0.00    -0.362 OA
ATOM     19  H1  UNL     1      11.902  10.175  11.240  1.00  0.00     0.217 HD
ENDBRANCH  17  18
BRANCH  17  20
HETATM   20  C5  UNL     1      13.340  12.306  12.143  1.00  0.00     0.228 C 
BRANCH  20  21
HETATM   21  O2  UNL     1      13.266  13.410  11.209  1.00  0.00    -0.394 OA
ATOM     22  H2  UNL     1      13.643  13.164  10.372  1.00  0.00     0.209 HD
ENDBRANCH  20  21
ENDBRANCH  17  20
ENDBRANCH   3  17
BRANCH  16  23
HETATM   23  O3  UNL     1      17.542   9.769  11.964  1.00  0.00    -0.384 OA
ATOM     24  H3  UNL     1      17.293  10.471  12.555  1.00  0.00     0.211 HD
ENDBRANCH  16  23
BRANCH  13  25
HETATM   25  C16 UNL     1      20.428   7.564  14.778  1.00  0.00     0.091 C 
HETATM   26  S1  UNL     1      20.738   7.305  16.528  1.00  0.00    -0.097 SA
ENDBRANCH  13  25
TORSDOF 6
ENDMDL
MODEL 3
REMARK VINA RESULT: -7.777396776      3.457      4.960
REMARK  6 active torsions:
REMARK  status: ('A' for Active; 'I' for Inactive)
REMARK    1  A    between atoms: C3_3  and  C4_4 
REMARK    2  A    between atoms: C4_4  and  O1_5 
REMARK    3  A    between atoms: C4_4  and  C5_7 
REMARK    4  A    between atoms: C5_7  and  O2_8 
REMARK    5  A    between atoms: C15_19  and  C16_20 
REMARK    6  A    between atoms: C19_24  and  O3_25 
ROOT
HETATM    1  C1  UNL     1      15.826   7.580  11.325  1.00  0.00     0.047 C 
HETATM    2  C2  UNL     1      16.685   8.311  10.349  1.00  0.00    -0.040 C 
HETATM    3  C3  UNL     1      16.698   9.631  10.336  1.00  0.00    -0.022 C 
HETATM    4  C6  UNL     1      17.606  10.225   9.251  1.00  0.00     0.042 C 
HETATM    5  C7  UNL     1      17.191   9.544   7.979  1.00  0.00     0.013 C 
HETATM    6  C8  UNL     1      17.481   8.068   7.988  1.00  0.00     0.025 C 
HETATM    7  C9  UNL     1      16.526   7.344   7.108  1.00  0.00     0.008 C 
HETATM    8  C10 UNL     1      15.620   6.431   7.845  1.00  0.00     0.005 C 
HETATM    9  C11 UNL     1      16.443   5.453   8.653  1.00  0.00    -0.007 C 
HETATM   10  C12 UNL     1      16.972   4.433   7.659  1.00  0.00     0.010 C 
HETATM   11  C13 UNL     1      17.892   3.406   8.317  1.00  0.00    -0.013 C 
HETATM   12  C14 UNL     1      18.649   2.749   7.186  1.00  0.00     0.010 C 
HETATM   13  C15 UNL     1      18.756   4.033   9.355  1.00  0.00    -0.000 C 
HETATM   14  C17 UNL     1      18.834   5.516   9.007  1.00  0.00     0.014 C 
HETATM   15  C18 UNL     1      17.471   6.084   9.494  1.00  0.00     0.029 C 
HETATM   16  C19 UNL     1      17.562   7.576   9.404  1.00  0.00     0.089 C 
ENDROOT
BRANCH   3  17
HETATM   17  C4  UNL     1      15.965  10.524  11.175  1.00  0.00     0.073 C 
BRANCH  17  18
HETATM   18  O1  UNL     1      16.669  11.172  12.064  1.00  0.00    -0.362 OA
ATOM     19  H1  UNL     1      16.506  12.107  12.116  1.00  0.00     0.217 HD
ENDBRANCH  17  18
BRANCH  17  20
HETATM   20  C5  UNL     1      14.555  10.829  11.203  1.00  0.00     0.228 C 
BRANCH  20  21
HETATM   21  O2  UNL     1      14.301  12.109  10.577  1.00  0.00    -0.394 OA
ATOM     22  H2  UNL     1      13.421  12.408  10.775  1.00  0.00     0.209 HD
ENDBRANCH  20  21
ENDBRANCH  17  20
ENDBRANCH   3  17
BRANCH  16  23
HETATM   23  O3  UNL     1      18.894   7.839   9.834  1.00  0.00    -0.384 OA
ATOM     24  H3  UNL     1      19.429   7.798   9.049  1.00  0.00     0.211 HD
ENDBRANCH  16  23
BRANCH  13  25
HETATM   25  C16 UNL     1      20.089   3.410   9.575  1.00  0.00     0.091 C 
HETATM   26  S1  UNL     1      19.984   2.029  10.718  1.00  0.00    -0.097 SA
ENDBRANCH  13  25
TORSDOF 6
ENDMDL
MODEL 4
REMARK VINA RESULT: -7.654898881      4.878      7.099
REMARK  6 active torsions:
REMARK  status: ('A' for Active; 'I' for Inactive)
REMARK    1  A    between atoms: C3_3  and  C4_4 
REMARK    2  A    between atoms: C4_4  and  O1_5 
REMARK    3  A    between atoms: C4_4  and  C5_7 
REMARK    4  A    between atoms: C5_7  and  O2_8 
REMARK    5  A    between atoms: C15_19  and  C16_20 
REMARK    6  A    between atoms: C19_24  and  O3_25 
ROOT
HETATM    1  C1  UNL     1      19.195   5.106   8.256  1.00  0.00     0.047 C 
HETATM    2  C2  UNL     1      17.947   5.517   7.548  1.00  0.00    -0.040 C 
HETATM    3  C3  UNL     1      17.684   5.049   6.343  1.00  0.00    -0.022 C 
HETATM    4  C6  UNL     1      16.383   5.596   5.742  1.00  0.00     0.042 C 
HETATM    5  C7  UNL     1      16.487   7.088   5.876  1.00  0.00     0.013 C 
HETATM    6  C8  UNL     1      16.498   7.544   7.309  1.00  0.00     0.025 C 
HETATM    7  C9  UNL     1      17.238   8.826   7.443  1.00  0.00     0.008 C 
HETATM    8  C10 UNL     1      18.486   8.707   8.234  1.00  0.00     0.005 C 
HETATM    9  C11 UNL     1      18.163   8.136   9.597  1.00  0.00    -0.007 C 
HETATM   10  C12 UNL     1      17.545   9.275  10.390  1.00  0.00     0.010 C 
HETATM   11  C13 UNL     1      17.093   8.834  11.781  1.00  0.00    -0.013 C 
HETATM   12  C14 UNL     1      16.150   9.911  12.267  1.00  0.00     0.010 C 
HETATM   13  C15 UNL     1      16.505   7.466  11.755  1.00  0.00    -0.000 C 
HETATM   14  C17 UNL     1      16.044   7.225  10.322  1.00  0.00     0.014 C 
HETATM   15  C18 UNL     1      17.360   6.906   9.557  1.00  0.00     0.029 C 
HETATM   16  C19 UNL     1      16.967   6.426   8.194  1.00  0.00     0.089 C 
ENDROOT
BRANCH   3  17
HETATM   17  C4  UNL     1      18.467   4.144   5.562  1.00  0.00     0.073 C 
BRANCH  17  18
HETATM   18  O1  UNL     1      18.167   2.879   5.693  1.00  0.00    -0.362 OA
ATOM     19  H1  UNL     1      18.668   2.280   5.152  1.00  0.00     0.217 HD
ENDBRANCH  17  18
BRANCH  17  20
HETATM   20  C5  UNL     1      19.549   4.402   4.645  1.00  0.00     0.228 C 
BRANCH  20  21
HETATM   21  O2  UNL     1      19.033   4.757   3.339  1.00  0.00    -0.394 OA
ATOM     22  H2  UNL     1      19.205   4.063   2.713  1.00  0.00     0.209 HD
ENDBRANCH  20  21
ENDBRANCH  17  20
ENDBRANCH   3  17
BRANCH  16  23
HETATM   23  O3  UNL     1      15.819   5.627   8.457  1.00  0.00    -0.384 OA
ATOM     24  H3  UNL     1      15.561   5.835   9.348  1.00  0.00     0.211 HD
ENDBRANCH  16  23
BRANCH  13  25
HETATM   25  C16 UNL     1      15.455   7.175  12.768  1.00  0.00     0.091 C 
HETATM   26  S1  UNL     1      15.189   5.408  12.945  1.00  0.00    -0.097 SA
ENDBRANCH  13  25
TORSDOF 6
ENDMDL
MODEL 5
REMARK VINA RESULT: -7.608567037      5.253      7.341
REMARK  6 active torsions:
REMARK  status: ('A' for Active; 'I' for Inactive)
REMARK    1  A    between atoms: C3_3  and  C4_4 
REMARK    2  A    between atoms: C4_4  and  O1_5 
REMARK    3  A    between atoms: C4_4  and  C5_7 
REMARK    4  A    between atoms: C5_7  and  O2_8 
REMARK    5  A    between atoms: C15_19  and  C16_20 
REMARK    6  A    between atoms: C19_24  and  O3_25 
ROOT
HETATM    1  C1  UNL     1      19.588   4.631   8.109  1.00  0.00     0.047 C 
HETATM    2  C2  UNL     1      18.302   4.845   7.384  1.00  0.00    -0.040 C 
HETATM    3  C3  UNL     1      18.193   4.508   6.113  1.00  0.00    -0.022 C 
HETATM    4  C6  UNL     1      16.819   4.825   5.509  1.00  0.00     0.042 C 
HETATM    5  C7  UNL     1      16.567   6.267   5.846  1.00  0.00     0.013 C 
HETATM    6  C8  UNL     1      16.426   6.502   7.325  1.00  0.00     0.025 C 
HETATM    7  C9  UNL     1      16.841   7.886   7.674  1.00  0.00     0.008 C 
HETATM    8  C10 UNL     1      18.058   7.941   8.520  1.00  0.00     0.005 C 
HETATM    9  C11 UNL     1      17.835   7.123   9.772  1.00  0.00    -0.007 C 
HETATM   10  C12 UNL     1      16.943   7.965  10.668  1.00  0.00     0.010 C 
HETATM   11  C13 UNL     1      16.564   7.237  11.956  1.00  0.00    -0.013 C 
HETATM   12  C14 UNL     1      15.381   7.990  12.520  1.00  0.00     0.010 C 
HETATM   13  C15 UNL     1      16.314   5.790  11.713  1.00  0.00    -0.000 C 
HETATM   14  C17 UNL     1      15.967   5.658  10.233  1.00  0.00     0.014 C 
HETATM   15  C18 UNL     1      17.344   5.760   9.518  1.00  0.00     0.029 C 
HETATM   16  C19 UNL     1      17.117   5.405   8.081  1.00  0.00     0.089 C 
ENDROOT
BRANCH   3  17
HETATM   17  C4  UNL     1      19.190   3.926   5.271  1.00  0.00     0.073 C 
BRANCH  17  18
HETATM   18  O1  UNL     1      19.295   2.626   5.334  1.00  0.00    -0.362 OA
ATOM     19  H1  UNL     1      18.523   2.165   5.639  1.00  0.00     0.217 HD
ENDBRANCH  17  18
BRANCH  17  20
HETATM   20  C5  UNL     1      20.111   4.549   4.353  1.00  0.00     0.228 C 
BRANCH  20  21
HETATM   21  O2  UNL     1      19.442   4.888   3.115  1.00  0.00    -0.394 OA
ATOM     22  H2  UNL     1      18.521   4.657   3.159  1.00  0.00     0.209 HD
ENDBRANCH  20  21
ENDBRANCH  17  20
ENDBRANCH   3  17
BRANCH  16  23
HETATM   23  O3  UNL     1      16.180   4.336   8.163  1.00  0.00    -0.384 OA
ATOM     24  H3  UNL     1      15.413   4.699   8.592  1.00  0.00     0.211 HD
ENDBRANCH  16  23
BRANCH  13  25
HETATM   25  C16 UNL     1      15.330   5.125  12.609  1.00  0.00     0.091 C 
HETATM   26  S1  UNL     1      15.244   3.360  12.291  1.00  0.00    -0.097 SA
ENDBRANCH  13  25
TORSDOF 6
ENDMDL
