MODEL 1
REMARK VINA RESULT: -8.499277740      0.000      0.000
REMARK  9 active torsions:
REMARK  status: ('A' for Active; 'I' for Inactive)
REMARK    1  A    between atoms: C3_3  and  C4_4 
REMARK    2  A    between atoms: C4_4  and  C5_5 
REMARK    3  A    between atoms: C6_6  and  C7_7 
REMARK    4  A    between atoms: C8_8  and  C9_9 
REMARK    5  A    between atoms: C9_9  and  C10_10 
REMARK    6  A    between atoms: C11_11  and  C12_12 
REMARK    7  A    between atoms: C18_20  and  O3_21 
REMARK    8  A    between atoms: N1_23  and  C19_24 
REMARK    9  A    between atoms: C21_26  and  O4_27 
ROOT
HETATM    1  C1  UNL     1      10.942  11.117  19.654  1.00  0.00     0.112 C 
HETATM    2  C2  UNL     1      11.385  11.485  18.305  1.00  0.00    -0.110 C 
HETATM    3  C3  UNL     1      11.739  11.803  17.180  1.00  0.00    -0.095 C 
ENDROOT
BRANCH   3   4
HETATM    4  C4  UNL     1      12.140  12.197  15.829  1.00  0.00     0.188 C 
BRANCH   4   5
HETATM    5  C5  UNL     1      12.917  11.092  15.266  1.00  0.00    -0.090 C 
HETATM    6  C6  UNL     1      13.554  10.159  14.810  1.00  0.00    -0.078 C 
BRANCH   6   7
HETATM    7  C7  UNL     1      14.300   9.046  14.294  1.00  0.00     0.060 C 
HETATM    8  C8  UNL     1      14.076   7.832  14.680  1.00  0.00    -0.014 C 
BRANCH   8   9
HETATM    9  C9  UNL     1      14.718   6.584  14.278  1.00  0.00     0.063 C 
BRANCH   9  10
HETATM   10  C10 UNL     1      15.698   6.005  15.194  1.00  0.00    -0.054 C 
HETATM   11  C11 UNL     1      16.301   4.844  15.070  1.00  0.00     0.030 C 
HETATM   12  C13 UNL     1      17.205   4.650  16.258  1.00  0.00     0.065 C 
HETATM   13  C14 UNL     1      17.642   6.094  16.435  1.00  0.00     0.028 C 
HETATM   14  C17 UNL     1      16.297   4.511  17.417  1.00  0.00     0.013 A 
HETATM   15  C15 UNL     1      16.206   6.608  16.466  1.00  0.00     0.054 C 
HETATM   16  C16 UNL     1      15.666   5.732  17.555  1.00  0.00     0.013 A 
HETATM   17  C21 UNL     1      14.821   5.613  18.626  1.00  0.00     0.151 A 
HETATM   18  N1  UNL     1      14.909   4.377  19.147  1.00  0.00    -0.308 N 
HETATM   19  C18 UNL     1      15.809   3.699  18.414  1.00  0.00     0.151 A 
BRANCH  11  20
HETATM   20  C12 UNL     1      16.194   3.832  14.046  1.00  0.00     0.206 C 
HETATM   21  O1  UNL     1      16.856   3.929  12.945  1.00  0.00    -0.644 OA
HETATM   22  O2  UNL     1      15.413   2.690  14.105  1.00  0.00    -0.644 OA
ENDBRANCH  11  20
BRANCH  17  23
HETATM   23  O4  UNL     1      13.988   6.644  19.101  1.00  0.00    -0.345 OA
ATOM     24  H4  UNL     1      13.591   6.660  19.963  1.00  0.00     0.219 HD
ENDBRANCH  17  23
BRANCH  18  25
HETATM   25  C19 UNL     1      14.157   3.902  20.288  1.00  0.00     0.129 C 
HETATM   26  C20 UNL     1      14.788   4.286  21.603  1.00  0.00     0.027 C 
ENDBRANCH  18  25
BRANCH  19  27
HETATM   27  O3  UNL     1      16.176   2.361  18.652  1.00  0.00    -0.345 OA
ATOM     28  H3  UNL     1      16.739   2.048  19.351  1.00  0.00     0.219 HD
ENDBRANCH  19  27
ENDBRANCH   9  10
ENDBRANCH   8   9
ENDBRANCH   6   7
ENDBRANCH   4   5
ENDBRANCH   3   4
TORSDOF 9
ENDMDL
MODEL 2
REMARK VINA RESULT: -8.458259694      3.831      5.547
REMARK  9 active torsions:
REMARK  status: ('A' for Active; 'I' for Inactive)
REMARK    1  A    between atoms: C3_3  and  C4_4 
REMARK    2  A    between atoms: C4_4  and  C5_5 
REMARK    3  A    between atoms: C6_6  and  C7_7 
REMARK    4  A    between atoms: C8_8  and  C9_9 
REMARK    5  A    between atoms: C9_9  and  C10_10 
REMARK    6  A    between atoms: C11_11  and  C12_12 
REMARK    7  A    between atoms: C18_20  and  O3_21 
REMARK    8  A    between atoms: N1_23  and  C19_24 
REMARK    9  A    between atoms: C21_26  and  O4_27 
ROOT
HETATM    1  C1  UNL     1      16.359  14.120  18.532  1.00  0.00     0.112 C 
HETATM    2  C2  UNL     1      15.127  13.371  18.265  1.00  0.00    -0.110 C 
HETATM    3  C3  UNL     1      14.107  12.744  18.025  1.00  0.00    -0.095 C 
ENDROOT
BRANCH   3   4
HETATM    4  C4  UNL     1      12.891  11.993  17.712  1.00  0.00     0.188 C 
BRANCH   4   5
HETATM    5  C5  UNL     1      13.106  11.334  16.423  1.00  0.00    -0.090 C 
HETATM    6  C6  UNL     1      13.304  10.791  15.351  1.00  0.00    -0.078 C 
BRANCH   6   7
HETATM    7  C7  UNL     1      13.559  10.166  14.084  1.00  0.00     0.060 C 
HETATM    8  C8  UNL     1      14.312  10.715  13.187  1.00  0.00    -0.014 C 
BRANCH   8   9
HETATM    9  C9  UNL     1      14.687  10.243  11.857  1.00  0.00     0.063 C 
BRANCH   9  10
HETATM   10  C10 UNL     1      15.731   9.225  11.773  1.00  0.00    -0.054 C 
HETATM   11  C11 UNL     1      16.262   8.731  10.677  1.00  0.00     0.030 C 
HETATM   12  C13 UNL     1      17.278   7.692  11.068  1.00  0.00     0.065 C 
HETATM   13  C14 UNL     1      17.799   8.364  12.326  1.00  0.00     0.028 C 
HETATM   14  C17 UNL     1      16.494   6.591  11.669  1.00  0.00     0.013 A 
HETATM   15  C15 UNL     1      16.401   8.527  12.914  1.00  0.00     0.054 C 
HETATM   16  C16 UNL     1      15.941   7.105  12.825  1.00  0.00     0.013 A 
HETATM   17  C21 UNL     1      15.211   6.092  13.389  1.00  0.00     0.151 A 
HETATM   18  N1  UNL     1      15.297   4.985  12.630  1.00  0.00    -0.308 N 
HETATM   19  C18 UNL     1      16.079   5.283  11.578  1.00  0.00     0.151 A 
BRANCH  11  20
HETATM   20  C12 UNL     1      15.997   9.024   9.288  1.00  0.00     0.206 C 
HETATM   21  O1  UNL     1      15.162   8.317   8.607  1.00  0.00    -0.644 OA
HETATM   22  O2  UNL     1      16.570  10.042   8.545  1.00  0.00    -0.644 OA
ENDBRANCH  11  20
BRANCH  17  23
HETATM   23  O4  UNL     1      14.484   6.208  14.589  1.00  0.00    -0.345 OA
ATOM     24  H4  UNL     1      13.726   6.767  14.707  1.00  0.00     0.219 HD
ENDBRANCH  17  23
BRANCH  18  25
HETATM   25  C19 UNL     1      14.650   3.726  12.924  1.00  0.00     0.129 C 
HETATM   26  C20 UNL     1      15.469   2.849  13.839  1.00  0.00     0.027 C 
ENDBRANCH  18  25
BRANCH  19  27
HETATM   27  O3  UNL     1      16.405   4.375  10.554  1.00  0.00    -0.345 OA
ATOM     28  H3  UNL     1      17.266   4.241  10.174  1.00  0.00     0.219 HD
ENDBRANCH  19  27
ENDBRANCH   9  10
ENDBRANCH   8   9
ENDBRANCH   6   7
ENDBRANCH   4   5
ENDBRANCH   3   4
TORSDOF 9
ENDMDL
MODEL 3
REMARK VINA RESULT: -8.428942696      5.584      8.141
REMARK  9 active torsions:
REMARK  status: ('A' for Active; 'I' for Inactive)
REMARK    1  A    between atoms: C3_3  and  C4_4 
REMARK    2  A    between atoms: C4_4  and  C5_5 
REMARK    3  A    between atoms: C6_6  and  C7_7 
REMARK    4  A    between atoms: C8_8  and  C9_9 
REMARK    5  A    between atoms: C9_9  and  C10_10 
REMARK    6  A    between atoms: C11_11  and  C12_12 
REMARK    7  A    between atoms: C18_20  and  O3_21 
REMARK    8  A    between atoms: N1_23  and  C19_24 
REMARK    9  A    between atoms: C21_26  and  O4_27 
ROOT
HETATM    1  C1  UNL     1      10.879  10.973  19.735  1.00  0.00     0.112 C 
HETATM    2  C2  UNL     1      11.301  11.454  18.414  1.00  0.00    -0.110 C 
HETATM    3  C3  UNL     1      11.634  11.859  17.312  1.00  0.00    -0.095 C 
ENDROOT
BRANCH   3   4
HETATM    4  C4  UNL     1      12.008  12.347  15.984  1.00  0.00     0.188 C 
BRANCH   4   5
HETATM    5  C5  UNL     1      12.821  11.308  15.352  1.00  0.00    -0.090 C 
HETATM    6  C6  UNL     1      13.482  10.437  14.815  1.00  0.00    -0.078 C 
BRANCH   6   7
HETATM    7  C7  UNL     1      14.240   9.397  14.177  1.00  0.00     0.060 C 
HETATM    8  C8  UNL     1      15.194   9.656  13.343  1.00  0.00    -0.014 C 
BRANCH   8   9
HETATM    9  C9  UNL     1      16.067   8.750  12.602  1.00  0.00     0.063 C 
BRANCH   9  10
HETATM   10  C10 UNL     1      16.633   9.237  11.347  1.00  0.00    -0.054 C 
HETATM   11  C11 UNL     1      16.007   9.919  10.414  1.00  0.00     0.030 C 
HETATM   12  C13 UNL     1      16.974  10.183   9.290  1.00  0.00     0.065 C 
HETATM   13  C14 UNL     1      18.228  10.371  10.125  1.00  0.00     0.028 C 
HETATM   14  C17 UNL     1      17.253   8.855   8.700  1.00  0.00     0.013 A 
HETATM   15  C15 UNL     1      18.035   9.048  10.859  1.00  0.00     0.054 C 
HETATM   16  C16 UNL     1      17.916   8.137   9.675  1.00  0.00     0.013 A 
HETATM   17  C21 UNL     1      18.178   6.905   9.139  1.00  0.00     0.151 A 
HETATM   18  N1  UNL     1      17.705   6.840   7.882  1.00  0.00    -0.308 N 
HETATM   19  C18 UNL     1      17.139   8.028   7.608  1.00  0.00     0.151 A 
BRANCH  11  20
HETATM   20  C12 UNL     1      14.641  10.379  10.341  1.00  0.00     0.206 C 
HETATM   21  O1  UNL     1      13.686   9.578  10.014  1.00  0.00    -0.644 OA
HETATM   22  O2  UNL     1      14.198  11.666  10.598  1.00  0.00    -0.644 OA
ENDBRANCH  11  20
BRANCH  17  23
HETATM   23  O4  UNL     1      18.846   5.867   9.817  1.00  0.00    -0.345 OA
ATOM     24  H4  UNL     1      19.646   5.980  10.317  1.00  0.00     0.219 HD
ENDBRANCH  17  23
BRANCH  18  25
HETATM   25  C19 UNL     1      17.807   5.686   7.016  1.00  0.00     0.129 C 
HETATM   26  C20 UNL     1      16.645   4.736   7.171  1.00  0.00     0.027 C 
ENDBRANCH  18  25
BRANCH  19  27
HETATM   27  O3  UNL     1      16.529   8.348   6.380  1.00  0.00    -0.345 OA
ATOM     28  H3  UNL     1      15.898   7.815   5.910  1.00  0.00     0.219 HD
ENDBRANCH  19  27
ENDBRANCH   9  10
ENDBRANCH   8   9
ENDBRANCH   6   7
ENDBRANCH   4   5
ENDBRANCH   3   4
TORSDOF 9
ENDMDL
MODEL 4
REMARK VINA RESULT: -8.387210203      4.911      7.380
REMARK  9 active torsions:
REMARK  status: ('A' for Active; 'I' for Inactive)
REMARK    1  A    between atoms: C3_3  and  C4_4 
REMARK    2  A    between atoms: C4_4  and  C5_5 
REMARK    3  A    between atoms: C6_6  and  C7_7 
REMARK    4  A    between atoms: C8_8  and  C9_9 
REMARK    5  A    between atoms: C9_9  and  C10_10 
REMARK    6  A    between atoms: C11_11  and  C12_12 
REMARK    7  A    between atoms: C18_20  and  O3_21 
REMARK    8  A    between atoms: N1_23  and  C19_24 
REMARK    9  A    between atoms: C21_26  and  O4_27 
ROOT
HETATM    1  C1  UNL     1      16.764  14.427  18.495  1.00  0.00     0.112 C 
HETATM    2  C2  UNL     1      15.506  13.678  18.405  1.00  0.00    -0.110 C 
HETATM    3  C3  UNL     1      14.449  13.071  18.336  1.00  0.00    -0.095 C 
ENDROOT
BRANCH   3   4
HETATM    4  C4  UNL     1      13.171  12.361  18.269  1.00  0.00     0.188 C 
BRANCH   4   5
HETATM    5  C5  UNL     1      13.206  11.515  17.075  1.00  0.00    -0.090 C 
HETATM    6  C6  UNL     1      13.225  10.796  16.092  1.00  0.00    -0.078 C 
BRANCH   6   7
HETATM    7  C7  UNL     1      13.246   9.928  14.948  1.00  0.00     0.060 C 
HETATM    8  C8  UNL     1      14.165   9.033  14.783  1.00  0.00    -0.014 C 
BRANCH   8   9
HETATM    9  C9  UNL     1      14.356   8.069  13.703  1.00  0.00     0.063 C 
BRANCH   9  10
HETATM   10  C10 UNL     1      15.366   8.379  12.694  1.00  0.00    -0.054 C 
HETATM   11  C11 UNL     1      15.337   9.371  11.831  1.00  0.00     0.030 C 
HETATM   12  C13 UNL     1      16.570   9.287  10.972  1.00  0.00     0.065 C 
HETATM   13  C14 UNL     1      17.537   8.788  12.031  1.00  0.00     0.028 C 
HETATM   14  C17 UNL     1      16.402   8.052  10.174  1.00  0.00     0.013 A 
HETATM   15  C15 UNL     1      16.631   7.627  12.427  1.00  0.00     0.054 C 
HETATM   16  C16 UNL     1      16.438   7.008  11.076  1.00  0.00     0.013 A 
HETATM   17  C21 UNL     1      16.282   5.860  10.347  1.00  0.00     0.151 A 
HETATM   18  N1  UNL     1      16.154   6.157   9.042  1.00  0.00    -0.308 N 
HETATM   19  C18 UNL     1      16.226   7.494   8.929  1.00  0.00     0.151 A 
BRANCH  11  20
HETATM   20  C12 UNL     1      14.356  10.409  11.622  1.00  0.00     0.206 C 
HETATM   21  O1  UNL     1      14.345  11.470  12.353  1.00  0.00    -0.644 OA
HETATM   22  O2  UNL     1      13.355  10.405  10.665  1.00  0.00    -0.644 OA
ENDBRANCH  11  20
BRANCH  17  23
HETATM   23  O4  UNL     1      16.262   4.564  10.897  1.00  0.00    -0.345 OA
ATOM     24  H4  UNL     1      16.967   4.186  11.408  1.00  0.00     0.219 HD
ENDBRANCH  17  23
BRANCH  18  25
HETATM   25  C19 UNL     1      15.972   5.187   7.984  1.00  0.00     0.129 C 
HETATM   26  C20 UNL     1      17.268   4.812   7.308  1.00  0.00     0.027 C 
ENDBRANCH  18  25
BRANCH  19  27
HETATM   27  O3  UNL     1      16.133   8.191   7.709  1.00  0.00    -0.345 OA
ATOM     28  H3  UNL     1      15.709   7.882   6.917  1.00  0.00     0.219 HD
ENDBRANCH  19  27
ENDBRANCH   9  10
ENDBRANCH   8   9
ENDBRANCH   6   7
ENDBRANCH   4   5
ENDBRANCH   3   4
TORSDOF 9
ENDMDL
MODEL 5
REMARK VINA RESULT: -8.070595029      5.121      7.719
REMARK  9 active torsions:
REMARK  status: ('A' for Active; 'I' for Inactive)
REMARK    1  A    between atoms: C3_3  and  C4_4 
REMARK    2  A    between atoms: C4_4  and  C5_5 
REMARK    3  A    between atoms: C6_6  and  C7_7 
REMARK    4  A    between atoms: C8_8  and  C9_9 
REMARK    5  A    between atoms: C9_9  and  C10_10 
REMARK    6  A    between atoms: C11_11  and  C12_12 
REMARK    7  A    between atoms: C18_20  and  O3_21 
REMARK    8  A    between atoms: N1_23  and  C19_24 
REMARK    9  A    between atoms: C21_26  and  O4_27 
ROOT
HETATM    1  C1  UNL     1      10.596  11.120  19.986  1.00  0.00     0.112 C 
HETATM    2  C2  UNL     1      11.366  11.504  18.798  1.00  0.00    -0.110 C 
HETATM    3  C3  UNL     1      12.005  11.842  17.814  1.00  0.00    -0.095 C 
ENDROOT
BRANCH   3   4
HETATM    4  C4  UNL     1      12.762  12.272  16.637  1.00  0.00     0.188 C 
BRANCH   4   5
HETATM    5  C5  UNL     1      13.193  11.064  15.932  1.00  0.00    -0.090 C 
HETATM    6  C6  UNL     1      13.539  10.047  15.356  1.00  0.00    -0.078 C 
BRANCH   6   7
HETATM    7  C7  UNL     1      13.940   8.835  14.699  1.00  0.00     0.060 C 
HETATM    8  C8  UNL     1      14.690   8.842  13.645  1.00  0.00    -0.014 C 
BRANCH   8   9
HETATM    9  C9  UNL     1      15.198   7.731  12.846  1.00  0.00     0.063 C 
BRANCH   9  10
HETATM   10  C10 UNL     1      16.081   8.055  11.728  1.00  0.00    -0.054 C 
HETATM   11  C11 UNL     1      15.938   9.045  10.875  1.00  0.00     0.030 C 
HETATM   12  C13 UNL     1      17.066   8.978   9.879  1.00  0.00     0.065 C 
HETATM   13  C14 UNL     1      18.156   8.496  10.819  1.00  0.00     0.028 C 
HETATM   14  C17 UNL     1      16.825   7.740   9.105  1.00  0.00     0.013 A 
HETATM   15  C15 UNL     1      17.318   7.322  11.317  1.00  0.00     0.054 C 
HETATM   16  C16 UNL     1      16.981   6.698   9.997  1.00  0.00     0.013 A 
HETATM   17  C21 UNL     1      16.759   5.546   9.290  1.00  0.00     0.151 A 
HETATM   18  N1  UNL     1      16.478   5.840   8.008  1.00  0.00    -0.308 N 
HETATM   19  C18 UNL     1      16.516   7.178   7.889  1.00  0.00     0.151 A 
BRANCH  11  20
HETATM   20  C12 UNL     1      14.924  10.068  10.779  1.00  0.00     0.206 C 
HETATM   21  O1  UNL     1      15.149  11.267  11.194  1.00  0.00    -0.644 OA
HETATM   22  O2  UNL     1      13.650   9.908  10.261  1.00  0.00    -0.644 OA
ENDBRANCH  11  20
BRANCH  17  23
HETATM   23  O4  UNL     1      16.822   4.251   9.838  1.00  0.00    -0.345 OA
ATOM     24  H4  UNL     1      16.226   3.917  10.499  1.00  0.00     0.219 HD
ENDBRANCH  17  23
BRANCH  18  25
HETATM   25  C19 UNL     1      16.190   4.866   6.978  1.00  0.00     0.129 C 
HETATM   26  C20 UNL     1      17.417   4.461   6.199  1.00  0.00     0.027 C 
ENDBRANCH  18  25
BRANCH  19  27
HETATM   27  O3  UNL     1      16.273   7.871   6.688  1.00  0.00    -0.345 OA
ATOM     28  H3  UNL     1      16.178   7.485   5.825  1.00  0.00     0.219 HD
ENDBRANCH  19  27
ENDBRANCH   9  10
ENDBRANCH   8   9
ENDBRANCH   6   7
ENDBRANCH   4   5
ENDBRANCH   3   4
TORSDOF 9
ENDMDL
