MODEL 1
REMARK VINA RESULT: -9.656182613      0.000      0.000
REMARK  9 active torsions:
REMARK  status: ('A' for Active; 'I' for Inactive)
REMARK    1  A    between atoms: C2_2  and  C3_3 
REMARK    2  A    between atoms: C4_6  and  N2_7 
REMARK    3  A    between atoms: N2_7  and  C5_9 
REMARK    4  A    between atoms: C5_9  and  C6_10 
REMARK    5  A    between atoms: C6_10  and  N3_11 
REMARK    6  A    between atoms: N3_11  and  C7_13 
REMARK    7  A    between atoms: C10_18  and  N5_19 
REMARK    8  A    between atoms: C11_24  and  C13_26 
REMARK    9  A    between atoms: C19_34  and  N8_35 
ROOT
HETATM    1  C3  UNL     1      89.021 119.099 132.862  1.00  0.00     0.050 A 
HETATM    2  N1  UNL     1      89.377 119.359 131.589  1.00  0.00    -0.194 N 
ATOM      3  H1  UNL     1      89.828 118.615 131.058  1.00  0.00     0.184 HD
HETATM    4  C4  UNL     1      89.174 120.536 130.977  1.00  0.00     0.680 A 
HETATM    5  N7  UNL     1      88.568 121.512 131.715  1.00  0.00    -0.176 N 
ATOM      6  H7  UNL     1      88.393 122.424 131.293  1.00  0.00     0.186 HD
HETATM    7  C19 UNL     1      88.199 121.290 132.985  1.00  0.00     0.137 A 
HETATM    8  C20 UNL     1      88.409 120.076 133.615  1.00  0.00     0.111 A 
HETATM    9  C21 UNL     1      88.019 119.829 134.965  1.00  0.00     0.105 C 
HETATM   10  N9  UNL     1      87.693 119.643 136.060  1.00  0.00    -0.191 NA
ENDROOT
BRANCH   1  11
HETATM   11  C2  UNL     1      89.260 117.784 133.506  1.00  0.00     0.055 C 
HETATM   12  C1  UNL     1      89.873 116.792 132.542  1.00  0.00     0.011 C 
ENDBRANCH   1  11
BRANCH   7  13
HETATM   13  N8  UNL     1      87.621 122.214 133.694  1.00  0.00    -0.384 N 
ATOM     14  H82 UNL     1      87.481 123.115 133.235  1.00  0.00     0.157 HD
ATOM     15  H81 UNL     1      87.325 122.041 134.655  1.00  0.00     0.157 HD
ENDBRANCH   7  13
BRANCH   4  16
HETATM   16  N2  UNL     1      89.508 120.795 129.759  1.00  0.00    -0.224 N 
ATOM     17  H2  UNL     1      89.533 121.768 129.455  1.00  0.00     0.177 HD
BRANCH  16  18
HETATM   18  C5  UNL     1      89.842 119.775 128.822  1.00  0.00     0.158 C 
BRANCH  18  19
HETATM   19  C6  UNL     1      91.370 119.778 128.691  1.00  0.00     0.158 C 
BRANCH  19  20
HETATM   20  N3  UNL     1      91.685 119.632 127.307  1.00  0.00    -0.224 N 
ATOM     21  H3  UNL     1      91.611 120.441 126.690  1.00  0.00     0.177 HD
BRANCH  20  22
HETATM   22  C7  UNL     1      92.060 118.505 126.820  1.00  0.00     0.679 A 
HETATM   23  N4  UNL     1      91.506 117.312 127.075  1.00  0.00    -0.195 N 
HETATM   24  C8  UNL     1      91.932 116.152 126.551  1.00  0.00     0.037 A 
ATOM     25  H4  UNL     1      90.708 117.283 127.710  1.00  0.00     0.184 HD
HETATM   26  C9  UNL     1      93.028 116.210 125.685  1.00  0.00     0.018 A 
HETATM   27  C18 UNL     1      91.230 114.905 126.913  1.00  0.00     0.058 C 
HETATM   28  C10 UNL     1      93.622 117.408 125.400  1.00  0.00     0.123 A 
HETATM   29  C11 UNL     1      93.472 114.927 125.122  1.00  0.00    -0.008 C 
HETATM   30  N6  UNL     1      93.130 118.520 125.967  1.00  0.00    -0.177 N 
ATOM     31  H6  UNL     1      93.573 119.413 125.753  1.00  0.00     0.186 HD
HETATM   32  C12 UNL     1      94.069 114.100 126.233  1.00  0.00     0.021 C 
HETATM   33  C16 UNL     1      92.182 114.196 124.693  1.00  0.00     0.015 C 
HETATM   34  C17 UNL     1      91.278 113.881 125.820  1.00  0.00     0.007 C 
BRANCH  28  35
HETATM   35  N5  UNL     1      94.647 117.460 124.612  1.00  0.00    -0.385 N 
ATOM     36  H52 UNL     1      94.757 116.794 123.848  1.00  0.00     0.157 HD
ATOM     37  H51 UNL     1      95.358 118.181 124.737  1.00  0.00     0.157 HD
ENDBRANCH  28  35
BRANCH  29  38
HETATM   38  C13 UNL     1      94.386 115.011 123.944  1.00  0.00    -0.002 A 
HETATM   39  C14 UNL     1      94.265 113.750 123.047  1.00  0.00     0.006 A 
HETATM   40  C15 UNL     1      95.527 114.131 123.688  1.00  0.00     0.006 A 
ENDBRANCH  29  38
ENDBRANCH  20  22
ENDBRANCH  19  20
ENDBRANCH  18  19
ENDBRANCH  16  18
ENDBRANCH   4  16
TORSDOF 9
ENDMDL
MODEL 2
REMARK VINA RESULT: -9.462467251      2.343      4.113
REMARK  9 active torsions:
REMARK  status: ('A' for Active; 'I' for Inactive)
REMARK    1  A    between atoms: C2_2  and  C3_3 
REMARK    2  A    between atoms: C4_6  and  N2_7 
REMARK    3  A    between atoms: N2_7  and  C5_9 
REMARK    4  A    between atoms: C5_9  and  C6_10 
REMARK    5  A    between atoms: C6_10  and  N3_11 
REMARK    6  A    between atoms: N3_11  and  C7_13 
REMARK    7  A    between atoms: C10_18  and  N5_19 
REMARK    8  A    between atoms: C11_24  and  C13_26 
REMARK    9  A    between atoms: C19_34  and  N8_35 
ROOT
HETATM    1  C3  UNL     1      89.307 121.811 136.737  1.00  0.00     0.050 A 
HETATM    2  N1  UNL     1      89.482 121.492 135.440  1.00  0.00    -0.194 N 
ATOM      3  H1  UNL     1      90.335 121.810 134.981  1.00  0.00     0.184 HD
HETATM    4  C4  UNL     1      88.605 120.781 134.715  1.00  0.00     0.680 A 
HETATM    5  N7  UNL     1      87.472 120.370 135.358  1.00  0.00    -0.176 N 
ATOM      6  H7  UNL     1      86.775 119.827 134.849  1.00  0.00     0.186 HD
HETATM    7  C19 UNL     1      87.263 120.668 136.649  1.00  0.00     0.137 A 
HETATM    8  C20 UNL     1      88.169 121.401 137.395  1.00  0.00     0.111 A 
HETATM    9  C21 UNL     1      87.957 121.723 138.769  1.00  0.00     0.105 C 
HETATM   10  N9  UNL     1      87.772 121.972 139.884  1.00  0.00    -0.191 NA
ENDROOT
BRANCH   1  11
HETATM   11  C2  UNL     1      90.301 122.598 137.507  1.00  0.00     0.055 C 
HETATM   12  C1  UNL     1      91.487 122.990 136.654  1.00  0.00     0.011 C 
ENDBRANCH   1  11
BRANCH   7  13
HETATM   13  N8  UNL     1      86.187 120.280 137.268  1.00  0.00    -0.384 N 
ATOM     14  H82 UNL     1      85.937 119.296 137.166  1.00  0.00     0.157 HD
ATOM     15  H81 UNL     1      85.630 120.929 137.825  1.00  0.00     0.157 HD
ENDBRANCH   7  13
BRANCH   4  16
HETATM   16  N2  UNL     1      88.763 120.467 133.475  1.00  0.00    -0.224 N 
ATOM     17  H2  UNL     1      89.068 119.521 133.245  1.00  0.00     0.177 HD
BRANCH  16  18
HETATM   18  C5  UNL     1      88.529 121.388 132.414  1.00  0.00     0.158 C 
BRANCH  18  19
HETATM   19  C6  UNL     1      88.834 120.645 131.107  1.00  0.00     0.158 C 
BRANCH  19  20
HETATM   20  N3  UNL     1      90.214 120.281 131.130  1.00  0.00    -0.224 N 
ATOM     21  H3  UNL     1      90.810 120.631 131.880  1.00  0.00     0.177 HD
BRANCH  20  22
HETATM   22  C7  UNL     1      90.722 119.524 130.227  1.00  0.00     0.679 A 
HETATM   23  N4  UNL     1      90.857 118.193 130.298  1.00  0.00    -0.195 N 
HETATM   24  C8  UNL     1      91.402 117.434 129.334  1.00  0.00     0.037 A 
ATOM     25  H4  UNL     1      90.524 117.724 131.141  1.00  0.00     0.184 HD
HETATM   26  C9  UNL     1      91.855 118.094 128.187  1.00  0.00     0.018 A 
HETATM   27  C18 UNL     1      91.489 115.975 129.537  1.00  0.00     0.058 C 
HETATM   28  C10 UNL     1      91.736 119.451 128.076  1.00  0.00     0.123 A 
HETATM   29  C11 UNL     1      92.443 117.240 127.145  1.00  0.00    -0.008 C 
HETATM   30  N6  UNL     1      91.177 120.131 129.088  1.00  0.00    -0.177 N 
ATOM     31  H6  UNL     1      91.088 121.144 129.005  1.00  0.00     0.186 HD
HETATM   32  C12 UNL     1      93.752 116.695 127.658  1.00  0.00     0.021 C 
HETATM   33  C16 UNL     1      91.496 116.028 127.021  1.00  0.00     0.015 C 
HETATM   34  C17 UNL     1      91.416 115.211 128.250  1.00  0.00     0.007 C 
BRANCH  28  35
HETATM   35  N5  UNL     1      92.171 120.063 127.023  1.00  0.00    -0.385 N 
ATOM     36  H52 UNL     1      91.710 119.947 126.120  1.00  0.00     0.157 HD
ATOM     37  H51 UNL     1      92.977 120.685 127.082  1.00  0.00     0.157 HD
ENDBRANCH  28  35
BRANCH  29  38
HETATM   38  C13 UNL     1      92.597 117.865 125.798  1.00  0.00    -0.002 A 
HETATM   39  C14 UNL     1      92.567 116.795 124.674  1.00  0.00     0.006 A 
HETATM   40  C15 UNL     1      93.727 117.664 124.890  1.00  0.00     0.006 A 
ENDBRANCH  29  38
ENDBRANCH  20  22
ENDBRANCH  19  20
ENDBRANCH  18  19
ENDBRANCH  16  18
ENDBRANCH   4  16
TORSDOF 9
ENDMDL
MODEL 3
REMARK VINA RESULT: -9.418337379      2.412      4.642
REMARK  9 active torsions:
REMARK  status: ('A' for Active; 'I' for Inactive)
REMARK    1  A    between atoms: C2_2  and  C3_3 
REMARK    2  A    between atoms: C4_6  and  N2_7 
REMARK    3  A    between atoms: N2_7  and  C5_9 
REMARK    4  A    between atoms: C5_9  and  C6_10 
REMARK    5  A    between atoms: C6_10  and  N3_11 
REMARK    6  A    between atoms: N3_11  and  C7_13 
REMARK    7  A    between atoms: C10_18  and  N5_19 
REMARK    8  A    between atoms: C11_24  and  C13_26 
REMARK    9  A    between atoms: C19_34  and  N8_35 
ROOT
HETATM    1  C3  UNL     1      89.163 121.846 136.821  1.00  0.00     0.050 A 
HETATM    2  N1  UNL     1      89.259 121.582 135.504  1.00  0.00    -0.194 N 
ATOM      3  H1  UNL     1      90.086 121.917 135.009  1.00  0.00     0.184 HD
HETATM    4  C4  UNL     1      88.337 120.907 134.802  1.00  0.00     0.680 A 
HETATM    5  N7  UNL     1      87.242 120.472 135.493  1.00  0.00    -0.176 N 
ATOM      6  H7  UNL     1      86.512 119.954 135.002  1.00  0.00     0.186 HD
HETATM    7  C19 UNL     1      87.110 120.714 136.805  1.00  0.00     0.137 A 
HETATM    8  C20 UNL     1      88.063 121.412 137.527  1.00  0.00     0.111 A 
HETATM    9  C21 UNL     1      87.934 121.675 138.924  1.00  0.00     0.105 C 
HETATM   10  N9  UNL     1      87.817 121.876 140.057  1.00  0.00    -0.191 NA
ENDROOT
BRANCH   1  11
HETATM   11  C2  UNL     1      90.205 122.596 137.564  1.00  0.00     0.055 C 
HETATM   12  C1  UNL     1      91.382 122.944 136.680  1.00  0.00     0.011 C 
ENDBRANCH   1  11
BRANCH   7  13
HETATM   13  N8  UNL     1      86.071 120.304 137.470  1.00  0.00    -0.384 N 
ATOM     14  H82 UNL     1      86.219 119.512 138.096  1.00  0.00     0.157 HD
ATOM     15  H81 UNL     1      85.161 120.754 137.366  1.00  0.00     0.157 HD
ENDBRANCH   7  13
BRANCH   4  16
HETATM   16  N2  UNL     1      88.420 120.646 133.543  1.00  0.00    -0.224 N 
ATOM     17  H2  UNL     1      88.509 119.673 133.249  1.00  0.00     0.177 HD
BRANCH  16  18
HETATM   18  C5  UNL     1      88.392 121.663 132.544  1.00  0.00     0.158 C 
BRANCH  18  19
HETATM   19  C6  UNL     1      87.808 121.024 131.279  1.00  0.00     0.158 C 
BRANCH  19  20
HETATM   20  N3  UNL     1      88.764 121.189 130.231  1.00  0.00    -0.224 N 
ATOM     21  H3  UNL     1      88.796 122.071 129.720  1.00  0.00     0.177 HD
BRANCH  20  22
HETATM   22  C7  UNL     1      89.583 120.253 129.919  1.00  0.00     0.679 A 
HETATM   23  N4  UNL     1      89.799 119.127 130.614  1.00  0.00    -0.195 N 
HETATM   24  C8  UNL     1      90.672 118.172 130.258  1.00  0.00     0.037 A 
ATOM     25  H4  UNL     1      89.264 118.988 131.472  1.00  0.00     0.184 HD
HETATM   26  C9  UNL     1      91.397 118.381 129.080  1.00  0.00     0.018 A 
HETATM   27  C18 UNL     1      90.812 116.978 131.114  1.00  0.00     0.058 C 
HETATM   28  C10 UNL     1      91.207 119.517 128.343  1.00  0.00     0.123 A 
HETATM   29  C11 UNL     1      92.343 117.319 128.711  1.00  0.00    -0.008 C 
HETATM   30  N6  UNL     1      90.312 120.419 128.773  1.00  0.00    -0.177 N 
ATOM     31  H6  UNL     1      90.169 121.265 128.221  1.00  0.00     0.186 HD
HETATM   32  C12 UNL     1      93.474 117.318 129.709  1.00  0.00     0.021 C 
HETATM   33  C16 UNL     1      91.582 115.994 128.928  1.00  0.00     0.015 C 
HETATM   34  C17 UNL     1      91.198 115.757 130.336  1.00  0.00     0.007 C 
BRANCH  28  35
HETATM   35  N5  UNL     1      91.890 119.719 127.263  1.00  0.00    -0.385 N 
ATOM     36  H52 UNL     1      91.520 119.455 126.350  1.00  0.00     0.157 HD
ATOM     37  H51 UNL     1      92.809 120.160 127.308  1.00  0.00     0.157 HD
ENDBRANCH  28  35
BRANCH  29  38
HETATM   38  C13 UNL     1      92.848 117.353 127.306  1.00  0.00    -0.002 A 
HETATM   39  C14 UNL     1      92.068 116.361 126.404  1.00  0.00     0.006 A 
HETATM   40  C15 UNL     1      93.514 116.249 126.614  1.00  0.00     0.006 A 
ENDBRANCH  29  38
ENDBRANCH  20  22
ENDBRANCH  19  20
ENDBRANCH  18  19
ENDBRANCH  16  18
ENDBRANCH   4  16
TORSDOF 9
ENDMDL
MODEL 4
REMARK VINA RESULT: -9.315960988      1.619      2.044
REMARK  9 active torsions:
REMARK  status: ('A' for Active; 'I' for Inactive)
REMARK    1  A    between atoms: C2_2  and  C3_3 
REMARK    2  A    between atoms: C4_6  and  N2_7 
REMARK    3  A    between atoms: N2_7  and  C5_9 
REMARK    4  A    between atoms: C5_9  and  C6_10 
REMARK    5  A    between atoms: C6_10  and  N3_11 
REMARK    6  A    between atoms: N3_11  and  C7_13 
REMARK    7  A    between atoms: C10_18  and  N5_19 
REMARK    8  A    between atoms: C11_24  and  C13_26 
REMARK    9  A    between atoms: C19_34  and  N8_35 
ROOT
HETATM    1  C3  UNL     1      88.344 120.583 134.089  1.00  0.00     0.050 A 
HETATM    2  N1  UNL     1      87.973 120.245 132.839  1.00  0.00    -0.194 N 
ATOM      3  H1  UNL     1      87.414 119.401 132.718  1.00  0.00     0.184 HD
HETATM    4  C4  UNL     1      88.293 120.950 131.743  1.00  0.00     0.680 A 
HETATM    5  N7  UNL     1      89.042 122.076 131.937  1.00  0.00    -0.176 N 
ATOM      6  H7  UNL     1      89.310 122.645 131.134  1.00  0.00     0.186 HD
HETATM    7  C19 UNL     1      89.430 122.445 133.167  1.00  0.00     0.137 A 
HETATM    8  C20 UNL     1      89.099 121.716 134.296  1.00  0.00     0.111 A 
HETATM    9  C21 UNL     1      89.506 122.099 135.609  1.00  0.00     0.105 C 
HETATM   10  N9  UNL     1      89.839 122.427 136.668  1.00  0.00    -0.191 NA
ENDROOT
BRANCH   1  11
HETATM   11  C2  UNL     1      87.971 119.778 135.278  1.00  0.00     0.055 C 
HETATM   12  C1  UNL     1      86.855 120.427 136.066  1.00  0.00     0.011 C 
ENDBRANCH   1  11
BRANCH   7  13
HETATM   13  N8  UNL     1      90.143 123.515 133.360  1.00  0.00    -0.384 N 
ATOM     14  H82 UNL     1      90.608 123.902 132.539  1.00  0.00     0.157 HD
ATOM     15  H81 UNL     1      90.227 123.938 134.285  1.00  0.00     0.157 HD
ENDBRANCH   7  13
BRANCH   4  16
HETATM   16  N2  UNL     1      87.941 120.639 130.543  1.00  0.00    -0.224 N 
ATOM     17  H2  UNL     1      86.999 120.281 130.386  1.00  0.00     0.177 HD
BRANCH  16  18
HETATM   18  C5  UNL     1      88.816 120.776 129.426  1.00  0.00     0.158 C 
BRANCH  18  19
HETATM   19  C6  UNL     1      89.889 119.689 129.569  1.00  0.00     0.158 C 
BRANCH  19  20
HETATM   20  N3  UNL     1      90.741 119.772 128.427  1.00  0.00    -0.224 N 
ATOM     21  H3  UNL     1      90.982 120.689 128.050  1.00  0.00     0.177 HD
BRANCH  20  22
HETATM   22  C7  UNL     1      91.211 118.719 127.863  1.00  0.00     0.679 A 
HETATM   23  N4  UNL     1      91.060 117.459 128.294  1.00  0.00    -0.195 N 
HETATM   24  C8  UNL     1      91.573 116.382 127.680  1.00  0.00     0.037 A 
ATOM     25  H4  UNL     1      90.519 117.309 129.146  1.00  0.00     0.184 HD
HETATM   26  C9  UNL     1      92.313 116.608 126.515  1.00  0.00     0.018 A 
HETATM   27  C18 UNL     1      91.331 115.047 128.259  1.00  0.00     0.058 C 
HETATM   28  C10 UNL     1      92.491 117.879 126.043  1.00  0.00     0.123 A 
HETATM   29  C11 UNL     1      92.861 115.412 125.861  1.00  0.00    -0.008 C 
HETATM   30  N6  UNL     1      91.941 118.897 126.720  1.00  0.00    -0.177 N 
ATOM     31  H6  UNL     1      92.073 119.845 126.367  1.00  0.00     0.186 HD
HETATM   32  C12 UNL     1      93.943 114.838 126.741  1.00  0.00     0.021 C 
HETATM   33  C16 UNL     1      91.716 114.377 125.864  1.00  0.00     0.015 C 
HETATM   34  C17 UNL     1      91.292 113.968 127.220  1.00  0.00     0.007 C 
BRANCH  28  35
HETATM   35  N5  UNL     1      93.191 118.089 124.975  1.00  0.00    -0.385 N 
ATOM     36  H52 UNL     1      92.985 117.595 124.107  1.00  0.00     0.157 HD
ATOM     37  H51 UNL     1      93.954 118.765 124.983  1.00  0.00     0.157 HD
ENDBRANCH  28  35
BRANCH  29  38
HETATM   38  C13 UNL     1      93.334 115.594 124.455  1.00  0.00    -0.002 A 
HETATM   39  C14 UNL     1      93.396 114.239 123.702  1.00  0.00     0.006 A 
HETATM   40  C15 UNL     1      94.585 115.072 123.903  1.00  0.00     0.006 A 
ENDBRANCH  29  38
ENDBRANCH  20  22
ENDBRANCH  19  20
ENDBRANCH  18  19
ENDBRANCH  16  18
ENDBRANCH   4  16
TORSDOF 9
ENDMDL
MODEL 5
REMARK VINA RESULT: -9.284145981      2.240      3.883
REMARK  9 active torsions:
REMARK  status: ('A' for Active; 'I' for Inactive)
REMARK    1  A    between atoms: C2_2  and  C3_3 
REMARK    2  A    between atoms: C4_6  and  N2_7 
REMARK    3  A    between atoms: N2_7  and  C5_9 
REMARK    4  A    between atoms: C5_9  and  C6_10 
REMARK    5  A    between atoms: C6_10  and  N3_11 
REMARK    6  A    between atoms: N3_11  and  C7_13 
REMARK    7  A    between atoms: C10_18  and  N5_19 
REMARK    8  A    between atoms: C11_24  and  C13_26 
REMARK    9  A    between atoms: C19_34  and  N8_35 
ROOT
HETATM    1  C3  UNL     1      87.381 120.710 136.669  1.00  0.00     0.050 A 
HETATM    2  N1  UNL     1      87.454 120.329 135.380  1.00  0.00    -0.194 N 
ATOM      3  H1  UNL     1      86.705 119.743 135.012  1.00  0.00     0.184 HD
HETATM    4  C4  UNL     1      88.450 120.673 134.549  1.00  0.00     0.680 A 
HETATM    5  N7  UNL     1      89.437 121.459 135.071  1.00  0.00    -0.176 N 
ATOM      6  H7  UNL     1      90.216 121.746 134.479  1.00  0.00     0.186 HD
HETATM    7  C19 UNL     1      89.399 121.858 136.351  1.00  0.00     0.137 A 
HETATM    8  C20 UNL     1      88.371 121.502 137.206  1.00  0.00     0.111 A 
HETATM    9  C21 UNL     1      88.319 121.922 138.569  1.00  0.00     0.105 C 
HETATM   10  N9  UNL     1      88.290 122.274 139.671  1.00  0.00    -0.191 NA
ENDROOT
BRANCH   1  11
HETATM   11  C2  UNL     1      86.262 120.310 137.558  1.00  0.00     0.055 C 
HETATM   12  C1  UNL     1      86.530 118.983 138.233  1.00  0.00     0.011 C 
ENDBRANCH   1  11
BRANCH   7  13
HETATM   13  N8  UNL     1      90.335 122.606 136.856  1.00  0.00    -0.384 N 
ATOM     14  H82 UNL     1      90.434 123.539 136.455  1.00  0.00     0.157 HD
ATOM     15  H81 UNL     1      90.933 122.272 137.613  1.00  0.00     0.157 HD
ENDBRANCH   7  13
BRANCH   4  16
HETATM   16  N2  UNL     1      88.528 120.318 133.312  1.00  0.00    -0.224 N 
ATOM     17  H2  UNL     1      88.565 119.324 133.090  1.00  0.00     0.177 HD
BRANCH  16  18
HETATM   18  C5  UNL     1      88.565 121.261 132.244  1.00  0.00     0.158 C 
BRANCH  18  19
HETATM   19  C6  UNL     1      88.841 120.465 130.962  1.00  0.00     0.158 C 
BRANCH  19  20
HETATM   20  N3  UNL     1      90.256 120.322 130.839  1.00  0.00    -0.224 N 
ATOM     21  H3  UNL     1      90.866 120.830 131.479  1.00  0.00     0.177 HD
BRANCH  20  22
HETATM   22  C7  UNL     1      90.778 119.568 129.941  1.00  0.00     0.679 A 
HETATM   23  N4  UNL     1      90.873 118.232 129.990  1.00  0.00    -0.195 N 
HETATM   24  C8  UNL     1      91.433 117.478 129.032  1.00  0.00     0.037 A 
ATOM     25  H4  UNL     1      90.495 117.757 130.810  1.00  0.00     0.184 HD
HETATM   26  C9  UNL     1      91.948 118.146 127.916  1.00  0.00     0.018 A 
HETATM   27  C18 UNL     1      91.472 116.013 129.209  1.00  0.00     0.058 C 
HETATM   28  C10 UNL     1      91.871 119.508 127.829  1.00  0.00     0.123 A 
HETATM   29  C11 UNL     1      92.553 117.296 126.881  1.00  0.00    -0.008 C 
HETATM   30  N6  UNL     1      91.293 120.184 128.833  1.00  0.00    -0.177 N 
ATOM     31  H6  UNL     1      91.234 121.200 128.767  1.00  0.00     0.186 HD
HETATM   32  C12 UNL     1      93.825 116.704 127.432  1.00  0.00     0.021 C 
HETATM   33  C16 UNL     1      91.578 116.113 126.696  1.00  0.00     0.015 C 
HETATM   34  C17 UNL     1      91.428 115.276 127.905  1.00  0.00     0.007 C 
BRANCH  28  35
HETATM   35  N5  UNL     1      92.363 120.128 126.806  1.00  0.00    -0.385 N 
ATOM     36  H52 UNL     1      92.032 119.927 125.862  1.00  0.00     0.157 HD
ATOM     37  H51 UNL     1      93.083 120.839 126.929  1.00  0.00     0.157 HD
ENDBRANCH  28  35
BRANCH  29  38
HETATM   38  C13 UNL     1      92.775 117.942 125.553  1.00  0.00    -0.002 A 
HETATM   39  C14 UNL     1      92.638 116.915 124.398  1.00  0.00     0.006 A 
HETATM   40  C15 UNL     1      93.882 117.653 124.640  1.00  0.00     0.006 A 
ENDBRANCH  29  38
ENDBRANCH  20  22
ENDBRANCH  19  20
ENDBRANCH  18  19
ENDBRANCH  16  18
ENDBRANCH   4  16
TORSDOF 9
ENDMDL
