MODEL 1
REMARK VINA RESULT: -6.111263748      0.000      0.000
REMARK  16 active torsions:
REMARK  status: ('A' for Active; 'I' for Inactive)
REMARK    1  A    between atoms: O1_1  and  C1_3 
REMARK    2  A    between atoms: C1_3  and  C2_4 
REMARK    3  A    between atoms: C2_4  and  O2_5 
REMARK    4  A    between atoms: O2_5  and  C3_6 
REMARK    5  A    between atoms: C3_6  and  C4_7 
REMARK    6  A    between atoms: C4_7  and  O3_8 
REMARK    7  A    between atoms: O3_8  and  C5_9 
REMARK    8  A    between atoms: C5_9  and  C6_10 
REMARK    9  A    between atoms: C6_10  and  O4_11 
REMARK   10  A    between atoms: O4_11  and  C7_12 
REMARK   11  A    between atoms: C7_12  and  C8_13 
REMARK   12  A    between atoms: C8_13  and  N1_14 
REMARK   13  A    between atoms: N2_17  and  C11_18 
REMARK   14  A    between atoms: C12_21  and  N4_22 
REMARK   15  A    between atoms: C17_30  and  N6_31 
REMARK   16  A    between atoms: C22_37  and  N7_38 
ROOT
HETATM    1  C11 UNL     1       4.119   7.102  80.889  1.00  0.00     0.150 A 
HETATM    2  N3  UNL     1       5.480   7.106  81.140  1.00  0.00    -0.174 N 
ATOM      3  H3  UNL     1       5.803   7.145  82.107  1.00  0.00     0.186 HD
HETATM    4  C12 UNL     1       6.378   7.063  80.166  1.00  0.00     0.683 A 
HETATM    5  N5  UNL     1       5.924   7.013  78.912  1.00  0.00    -0.174 N 
ATOM      6  H5  UNL     1       6.607   6.978  78.155  1.00  0.00     0.186 HD
HETATM    7  C17 UNL     1       4.596   7.005  78.582  1.00  0.00     0.150 A 
HETATM    8  C22 UNL     1       3.649   7.051  79.595  1.00  0.00     0.121 A 
ENDROOT
BRANCH   1   9
HETATM    9  N2  UNL     1       3.246   7.138  81.987  1.00  0.00    -0.359 N 
HETATM   10  C10 UNL     1       2.888   5.978  82.735  1.00  0.00     0.168 C 
HETATM   11  C9  UNL     1       1.537   6.023  83.380  1.00  0.00     0.078 C 
HETATM   12  N1  UNL     1       1.252   7.277  83.951  1.00  0.00    -0.388 N 
HETATM   13  C27 UNL     1       2.218   8.302  83.857  1.00  0.00     0.141 C 
HETATM   14  C26 UNL     1       2.685   8.403  82.410  1.00  0.00     0.144 C 
BRANCH  12  15
HETATM   15  C8  UNL     1      -0.112   7.724  83.759  1.00  0.00     0.148 C 
BRANCH  15  16
HETATM   16  C7  UNL     1      -1.012   6.514  83.910  1.00  0.00     0.187 C 
BRANCH  16  17
HETATM   17  O4  UNL     1      -1.438   6.354  85.220  1.00  0.00    -0.387 OA
BRANCH  17  18
HETATM   18  C6  UNL     1      -1.758   5.085  85.598  1.00  0.00     0.193 C 
BRANCH  18  19
HETATM   19  C5  UNL     1      -0.463   4.333  85.936  1.00  0.00     0.193 C 
BRANCH  19  20
HETATM   20  O3  UNL     1      -0.829   3.029  86.111  1.00  0.00    -0.387 OA
BRANCH  20  21
HETATM   21  C4  UNL     1      -0.312   2.061  85.336  1.00  0.00     0.193 C 
BRANCH  21  22
HETATM   22  C3  UNL     1       0.110   2.486  83.975  1.00  0.00     0.193 C 
BRANCH  22  23
HETATM   23  O2  UNL     1       0.126   1.408  83.113  1.00  0.00    -0.387 OA
BRANCH  23  24
HETATM   24  C2  UNL     1       0.169   1.816  81.778  1.00  0.00     0.193 C 
BRANCH  24  25
HETATM   25  C1  UNL     1      -0.301   3.255  81.730  1.00  0.00     0.190 C 
BRANCH  25  26
HETATM   26  O1  UNL     1      -1.089   3.421  80.586  1.00  0.00    -0.399 OA
ATOM     27  H1  UNL     1      -1.793   2.784  80.613  1.00  0.00     0.209 HD
ENDBRANCH  25  26
ENDBRANCH  24  25
ENDBRANCH  23  24
ENDBRANCH  22  23
ENDBRANCH  21  22
ENDBRANCH  20  21
ENDBRANCH  19  20
ENDBRANCH  18  19
ENDBRANCH  17  18
ENDBRANCH  16  17
ENDBRANCH  15  16
ENDBRANCH  12  15
ENDBRANCH   1   9
BRANCH   8  28
HETATM   28  N7  UNL     1       2.264   7.090  79.301  1.00  0.00    -0.350 N 
HETATM   29  C23 UNL     1       1.334   8.133  78.981  1.00  0.00     0.152 C 
HETATM   30  C24 UNL     1       0.001   7.622  79.513  1.00  0.00     0.254 C 
HETATM   31  N8  UNL     1       0.165   6.219  79.769  1.00  0.00    -0.058 N 
HETATM   32  C25 UNL     1       1.462   5.847  79.278  1.00  0.00     0.357 C 
ATOM     33  H82 UNL     1       0.023   5.973  80.749  1.00  0.00     0.279 HD
ATOM     34  H81 UNL     1      -0.588   5.652  79.381  1.00  0.00     0.279 HD
ENDBRANCH   8  28
BRANCH   4  35
HETATM   35  N4  UNL     1       7.793   7.068  80.448  1.00  0.00    -0.213 N 
HETATM   36  C13 UNL     1       8.287   7.192  81.812  1.00  0.00     0.167 C 
HETATM   37  C14 UNL     1       9.800   7.436  81.699  1.00  0.00     0.188 C 
HETATM   38  O5  UNL     1      10.298   6.329  81.027  1.00  0.00    -0.388 OA
HETATM   39  C15 UNL     1      10.060   6.469  79.675  1.00  0.00     0.188 C 
HETATM   40  C16 UNL     1       8.693   6.947  79.322  1.00  0.00     0.167 C 
ENDBRANCH   4  35
BRANCH   7  41
HETATM   41  N6  UNL     1       4.202   6.942  77.234  1.00  0.00    -0.361 N 
HETATM   42  C18 UNL     1       3.839   5.748  76.503  1.00  0.00     0.150 C 
HETATM   43  C19 UNL     1       4.641   5.757  75.191  1.00  0.00     0.187 C 
HETATM   44  O6  UNL     1       4.137   6.847  74.451  1.00  0.00    -0.388 OA
HETATM   45  C20 UNL     1       4.613   7.994  75.055  1.00  0.00     0.187 C 
HETATM   46  C21 UNL     1       4.144   8.178  76.479  1.00  0.00     0.150 C 
ENDBRANCH   7  41
TORSDOF 16
ENDMDL
MODEL 2
REMARK VINA RESULT: -6.057535941      2.731      5.627
REMARK  16 active torsions:
REMARK  status: ('A' for Active; 'I' for Inactive)
REMARK    1  A    between atoms: O1_1  and  C1_3 
REMARK    2  A    between atoms: C1_3  and  C2_4 
REMARK    3  A    between atoms: C2_4  and  O2_5 
REMARK    4  A    between atoms: O2_5  and  C3_6 
REMARK    5  A    between atoms: C3_6  and  C4_7 
REMARK    6  A    between atoms: C4_7  and  O3_8 
REMARK    7  A    between atoms: O3_8  and  C5_9 
REMARK    8  A    between atoms: C5_9  and  C6_10 
REMARK    9  A    between atoms: C6_10  and  O4_11 
REMARK   10  A    between atoms: O4_11  and  C7_12 
REMARK   11  A    between atoms: C7_12  and  C8_13 
REMARK   12  A    between atoms: C8_13  and  N1_14 
REMARK   13  A    between atoms: N2_17  and  C11_18 
REMARK   14  A    between atoms: C12_21  and  N4_22 
REMARK   15  A    between atoms: C17_30  and  N6_31 
REMARK   16  A    between atoms: C22_37  and  N7_38 
ROOT
HETATM    1  C11 UNL     1       6.676   5.833  79.090  1.00  0.00     0.150 A 
HETATM    2  N3  UNL     1       6.807   4.718  78.282  1.00  0.00    -0.174 N 
ATOM      3  H3  UNL     1       5.968   4.208  78.005  1.00  0.00     0.186 HD
HETATM    4  C12 UNL     1       7.987   4.287  77.857  1.00  0.00     0.683 A 
HETATM    5  N5  UNL     1       9.066   4.975  78.237  1.00  0.00    -0.174 N 
ATOM      6  H5  UNL     1       9.978   4.653  77.914  1.00  0.00     0.186 HD
HETATM    7  C17 UNL     1       9.020   6.086  79.034  1.00  0.00     0.150 A 
HETATM    8  C22 UNL     1       7.789   6.543  79.484  1.00  0.00     0.121 A 
ENDROOT
BRANCH   1   9
HETATM    9  N2  UNL     1       5.384   6.217  79.479  1.00  0.00    -0.359 N 
HETATM   10  C10 UNL     1       4.599   7.158  78.750  1.00  0.00     0.168 C 
HETATM   11  C9  UNL     1       3.615   7.940  79.564  1.00  0.00     0.078 C 
HETATM   12  N1  UNL     1       2.955   7.148  80.522  1.00  0.00    -0.388 N 
HETATM   13  C27 UNL     1       3.276   5.776  80.607  1.00  0.00     0.141 C 
HETATM   14  C26 UNL     1       4.793   5.631  80.663  1.00  0.00     0.144 C 
BRANCH  12  15
HETATM   15  C8  UNL     1       2.762   7.796  81.802  1.00  0.00     0.148 C 
BRANCH  15  16
HETATM   16  C7  UNL     1       1.409   7.365  82.331  1.00  0.00     0.187 C 
BRANCH  16  17
HETATM   17  O4  UNL     1       1.453   7.091  83.688  1.00  0.00    -0.387 OA
BRANCH  17  18
HETATM   18  C6  UNL     1       0.925   5.897  84.080  1.00  0.00     0.193 C 
BRANCH  18  19
HETATM   19  C5  UNL     1      -0.153   5.484  83.066  1.00  0.00     0.193 C 
BRANCH  19  20
HETATM   20  O3  UNL     1      -1.322   5.439  83.771  1.00  0.00    -0.387 OA
BRANCH  20  21
HETATM   21  C4  UNL     1      -1.365   5.824  85.056  1.00  0.00     0.193 C 
BRANCH  21  22
HETATM   22  C3  UNL     1      -1.942   4.834  86.004  1.00  0.00     0.193 C 
BRANCH  22  23
HETATM   23  O2  UNL     1      -0.967   3.966  86.451  1.00  0.00    -0.387 OA
BRANCH  23  24
HETATM   24  C2  UNL     1      -1.198   2.661  86.010  1.00  0.00     0.193 C 
BRANCH  24  25
HETATM   25  C1  UNL     1      -0.052   2.283  85.094  1.00  0.00     0.190 C 
BRANCH  25  26
HETATM   26  O1  UNL     1      -0.168   0.924  84.782  1.00  0.00    -0.399 OA
ATOM     27  H1  UNL     1       0.692   0.527  84.855  1.00  0.00     0.209 HD
ENDBRANCH  25  26
ENDBRANCH  24  25
ENDBRANCH  23  24
ENDBRANCH  22  23
ENDBRANCH  21  22
ENDBRANCH  20  21
ENDBRANCH  19  20
ENDBRANCH  18  19
ENDBRANCH  17  18
ENDBRANCH  16  17
ENDBRANCH  15  16
ENDBRANCH  12  15
ENDBRANCH   1   9
BRANCH   8  28
HETATM   28  N7  UNL     1       7.695   7.663  80.346  1.00  0.00    -0.350 N 
HETATM   29  C23 UNL     1       7.656   7.834  81.769  1.00  0.00     0.152 C 
HETATM   30  C24 UNL     1       6.834   9.101  81.971  1.00  0.00     0.254 C 
HETATM   31  N8  UNL     1       6.761   9.758  80.697  1.00  0.00    -0.058 N 
HETATM   32  C25 UNL     1       7.615   9.034  79.797  1.00  0.00     0.357 C 
ATOM     33  H82 UNL     1       5.806   9.853  80.351  1.00  0.00     0.279 HD
ATOM     34  H81 UNL     1       6.983  10.751  80.747  1.00  0.00     0.279 HD
ENDBRANCH   8  28
BRANCH   4  35
HETATM   35  N4  UNL     1       8.103   3.122  77.015  1.00  0.00    -0.213 N 
HETATM   36  C13 UNL     1       7.994   1.780  77.570  1.00  0.00     0.167 C 
HETATM   37  C14 UNL     1       8.437   0.819  76.457  1.00  0.00     0.188 C 
HETATM   38  O5  UNL     1       7.567   1.056  75.402  1.00  0.00    -0.388 OA
HETATM   39  C15 UNL     1       7.961   2.196  74.731  1.00  0.00     0.188 C 
HETATM   40  C16 UNL     1       8.333   3.344  75.604  1.00  0.00     0.167 C 
ENDBRANCH   4  35
BRANCH   7  41
HETATM   41  N6  UNL     1      10.205   6.759  79.380  1.00  0.00    -0.361 N 
HETATM   42  C18 UNL     1      10.971   6.575  80.592  1.00  0.00     0.150 C 
HETATM   43  C19 UNL     1      11.232   7.972  81.181  1.00  0.00     0.187 C 
HETATM   44  O6  UNL     1      12.088   8.613  80.261  1.00  0.00    -0.388 OA
HETATM   45  C20 UNL     1      11.321   8.934  79.158  1.00  0.00     0.187 C 
HETATM   46  C21 UNL     1      10.734   7.737  78.449  1.00  0.00     0.150 C 
ENDBRANCH   7  41
TORSDOF 16
ENDMDL
MODEL 3
REMARK VINA RESULT: -5.982715102      2.798      6.030
REMARK  16 active torsions:
REMARK  status: ('A' for Active; 'I' for Inactive)
REMARK    1  A    between atoms: O1_1  and  C1_3 
REMARK    2  A    between atoms: C1_3  and  C2_4 
REMARK    3  A    between atoms: C2_4  and  O2_5 
REMARK    4  A    between atoms: O2_5  and  C3_6 
REMARK    5  A    between atoms: C3_6  and  C4_7 
REMARK    6  A    between atoms: C4_7  and  O3_8 
REMARK    7  A    between atoms: O3_8  and  C5_9 
REMARK    8  A    between atoms: C5_9  and  C6_10 
REMARK    9  A    between atoms: C6_10  and  O4_11 
REMARK   10  A    between atoms: O4_11  and  C7_12 
REMARK   11  A    between atoms: C7_12  and  C8_13 
REMARK   12  A    between atoms: C8_13  and  N1_14 
REMARK   13  A    between atoms: N2_17  and  C11_18 
REMARK   14  A    between atoms: C12_21  and  N4_22 
REMARK   15  A    between atoms: C17_30  and  N6_31 
REMARK   16  A    between atoms: C22_37  and  N7_38 
ROOT
HETATM    1  C11 UNL     1       6.858   6.092  79.145  1.00  0.00     0.150 A 
HETATM    2  N3  UNL     1       6.946   4.992  78.310  1.00  0.00    -0.174 N 
ATOM      3  H3  UNL     1       6.088   4.517  78.027  1.00  0.00     0.186 HD
HETATM    4  C12 UNL     1       8.108   4.533  77.865  1.00  0.00     0.683 A 
HETATM    5  N5  UNL     1       9.212   5.176  78.252  1.00  0.00    -0.174 N 
ATOM      6  H5  UNL     1      10.111   4.832  77.914  1.00  0.00     0.186 HD
HETATM    7  C17 UNL     1       9.208   6.269  79.075  1.00  0.00     0.150 A 
HETATM    8  C22 UNL     1       7.997   6.755  79.546  1.00  0.00     0.121 A 
ENDROOT
BRANCH   1   9
HETATM    9  N2  UNL     1       5.582   6.508  79.554  1.00  0.00    -0.359 N 
HETATM   10  C10 UNL     1       4.851   5.866  80.597  1.00  0.00     0.168 C 
HETATM   11  C9  UNL     1       3.361   5.949  80.479  1.00  0.00     0.078 C 
HETATM   12  N1  UNL     1       2.920   7.220  80.065  1.00  0.00    -0.388 N 
HETATM   13  C27 UNL     1       3.880   8.224  79.817  1.00  0.00     0.141 C 
HETATM   14  C26 UNL     1       4.966   7.651  78.914  1.00  0.00     0.144 C 
BRANCH  12  15
HETATM   15  C8  UNL     1       1.827   7.193  79.116  1.00  0.00     0.148 C 
BRANCH  15  16
HETATM   16  C7  UNL     1       1.786   5.804  78.509  1.00  0.00     0.187 C 
BRANCH  16  17
HETATM   17  O4  UNL     1       0.517   5.253  78.577  1.00  0.00    -0.387 OA
BRANCH  17  18
HETATM   18  C6  UNL     1       0.003   5.075  79.827  1.00  0.00     0.193 C 
BRANCH  18  19
HETATM   19  C5  UNL     1      -0.755   3.741  79.859  1.00  0.00     0.193 C 
BRANCH  19  20
HETATM   20  O3  UNL     1      -0.913   3.439  81.182  1.00  0.00    -0.387 OA
BRANCH  20  21
HETATM   21  C4  UNL     1       0.056   3.713  82.069  1.00  0.00     0.193 C 
BRANCH  21  22
HETATM   22  C3  UNL     1      -0.399   3.942  83.466  1.00  0.00     0.193 C 
BRANCH  22  23
HETATM   23  O2  UNL     1       0.455   3.330  84.361  1.00  0.00    -0.387 OA
BRANCH  23  24
HETATM   24  C2  UNL     1      -0.044   2.097  84.788  1.00  0.00     0.193 C 
BRANCH  24  25
HETATM   25  C1  UNL     1      -1.122   2.377  85.815  1.00  0.00     0.190 C 
BRANCH  25  26
HETATM   26  O1  UNL     1      -1.375   1.195  86.520  1.00  0.00    -0.399 OA
ATOM     27  H1  UNL     1      -2.202   0.839  86.217  1.00  0.00     0.209 HD
ENDBRANCH  25  26
ENDBRANCH  24  25
ENDBRANCH  23  24
ENDBRANCH  22  23
ENDBRANCH  21  22
ENDBRANCH  20  21
ENDBRANCH  19  20
ENDBRANCH  18  19
ENDBRANCH  17  18
ENDBRANCH  16  17
ENDBRANCH  15  16
ENDBRANCH  12  15
ENDBRANCH   1   9
BRANCH   8  28
HETATM   28  N7  UNL     1       7.946   7.856  80.436  1.00  0.00    -0.350 N 
HETATM   29  C23 UNL     1       7.972   9.280  80.276  1.00  0.00     0.152 C 
HETATM   30  C24 UNL     1       8.618   9.790  81.558  1.00  0.00     0.254 C 
HETATM   31  N8  UNL     1       8.593   8.705  82.496  1.00  0.00    -0.058 N 
HETATM   32  C25 UNL     1       7.837   7.641  81.896  1.00  0.00     0.357 C 
ATOM     33  H82 UNL     1       9.524   8.414  82.795  1.00  0.00     0.279 HD
ATOM     34  H81 UNL     1       8.240   8.978  83.413  1.00  0.00     0.279 HD
ENDBRANCH   8  28
BRANCH   4  35
HETATM   35  N4  UNL     1       8.180   3.386  76.994  1.00  0.00    -0.213 N 
HETATM   36  C13 UNL     1       8.834   3.468  75.695  1.00  0.00     0.167 C 
HETATM   37  C14 UNL     1       8.479   2.171  74.954  1.00  0.00     0.188 C 
HETATM   38  O5  UNL     1       8.965   1.148  75.755  1.00  0.00    -0.388 OA
HETATM   39  C15 UNL     1       8.087   0.927  76.797  1.00  0.00     0.188 C 
HETATM   40  C16 UNL     1       7.577   2.158  77.464  1.00  0.00     0.167 C 
ENDBRANCH   4  35
BRANCH   7  41
HETATM   41  N6  UNL     1      10.417   6.894  79.428  1.00  0.00    -0.361 N 
HETATM   42  C18 UNL     1      11.221   6.607  80.595  1.00  0.00     0.150 C 
HETATM   43  C19 UNL     1      11.529   7.951  81.276  1.00  0.00     0.187 C 
HETATM   44  O6  UNL     1      12.365   8.645  80.376  1.00  0.00    -0.388 OA
HETATM   45  C20 UNL     1      11.567   9.060  79.328  1.00  0.00     0.187 C 
HETATM   46  C21 UNL     1      10.933   7.929  78.553  1.00  0.00     0.150 C 
ENDBRANCH   7  41
TORSDOF 16
ENDMDL
MODEL 4
REMARK VINA RESULT: -5.976011066      2.806      5.724
REMARK  16 active torsions:
REMARK  status: ('A' for Active; 'I' for Inactive)
REMARK    1  A    between atoms: O1_1  and  C1_3 
REMARK    2  A    between atoms: C1_3  and  C2_4 
REMARK    3  A    between atoms: C2_4  and  O2_5 
REMARK    4  A    between atoms: O2_5  and  C3_6 
REMARK    5  A    between atoms: C3_6  and  C4_7 
REMARK    6  A    between atoms: C4_7  and  O3_8 
REMARK    7  A    between atoms: O3_8  and  C5_9 
REMARK    8  A    between atoms: C5_9  and  C6_10 
REMARK    9  A    between atoms: C6_10  and  O4_11 
REMARK   10  A    between atoms: O4_11  and  C7_12 
REMARK   11  A    between atoms: C7_12  and  C8_13 
REMARK   12  A    between atoms: C8_13  and  N1_14 
REMARK   13  A    between atoms: N2_17  and  C11_18 
REMARK   14  A    between atoms: C12_21  and  N4_22 
REMARK   15  A    between atoms: C17_30  and  N6_31 
REMARK   16  A    between atoms: C22_37  and  N7_38 
ROOT
HETATM    1  C11 UNL     1       6.588   5.800  79.021  1.00  0.00     0.150 A 
HETATM    2  N3  UNL     1       6.755   4.676  78.232  1.00  0.00    -0.174 N 
ATOM      3  H3  UNL     1       5.931   4.146  77.948  1.00  0.00     0.186 HD
HETATM    4  C12 UNL     1       7.950   4.264  77.832  1.00  0.00     0.683 A 
HETATM    5  N5  UNL     1       9.009   4.979  78.220  1.00  0.00    -0.174 N 
ATOM      6  H5  UNL     1       9.933   4.671  77.916  1.00  0.00     0.186 HD
HETATM    7  C17 UNL     1       8.927   6.100  78.999  1.00  0.00     0.150 A 
HETATM    8  C22 UNL     1       7.680   6.538  79.422  1.00  0.00     0.121 A 
ENDROOT
BRANCH   1   9
HETATM    9  N2  UNL     1       5.282   6.163  79.383  1.00  0.00    -0.359 N 
HETATM   10  C10 UNL     1       4.714   5.856  80.655  1.00  0.00     0.168 C 
HETATM   11  C9  UNL     1       3.226   5.690  80.668  1.00  0.00     0.078 C 
HETATM   12  N1  UNL     1       2.567   6.650  79.878  1.00  0.00    -0.388 N 
HETATM   13  C27 UNL     1       3.340   7.612  79.193  1.00  0.00     0.141 C 
HETATM   14  C26 UNL     1       4.461   6.898  78.446  1.00  0.00     0.144 C 
BRANCH  12  15
HETATM   15  C8  UNL     1       1.450   6.131  79.116  1.00  0.00     0.148 C 
BRANCH  15  16
HETATM   16  C7  UNL     1       0.418   7.237  79.013  1.00  0.00     0.187 C 
BRANCH  16  17
HETATM   17  O4  UNL     1      -0.494   7.184  80.055  1.00  0.00    -0.387 OA
BRANCH  17  18
HETATM   18  C6  UNL     1      -0.412   8.181  80.979  1.00  0.00     0.193 C 
BRANCH  18  19
HETATM   19  C5  UNL     1      -0.243   7.549  82.368  1.00  0.00     0.193 C 
BRANCH  19  20
HETATM   20  O3  UNL     1      -0.393   6.204  82.181  1.00  0.00    -0.387 OA
BRANCH  20  21
HETATM   21  C4  UNL     1       0.306   5.326  82.917  1.00  0.00     0.193 C 
BRANCH  21  22
HETATM   22  C3  UNL     1       0.185   3.902  82.505  1.00  0.00     0.193 C 
BRANCH  22  23
HETATM   23  O2  UNL     1       0.126   3.080  83.613  1.00  0.00    -0.387 OA
BRANCH  23  24
HETATM   24  C2  UNL     1      -0.600   3.666  84.652  1.00  0.00     0.193 C 
BRANCH  24  25
HETATM   25  C1  UNL     1      -0.022   3.152  85.954  1.00  0.00     0.190 C 
BRANCH  25  26
HETATM   26  O1  UNL     1       0.839   2.088  85.663  1.00  0.00    -0.399 OA
ATOM     27  H1  UNL     1       1.660   2.236  86.116  1.00  0.00     0.209 HD
ENDBRANCH  25  26
ENDBRANCH  24  25
ENDBRANCH  23  24
ENDBRANCH  22  23
ENDBRANCH  21  22
ENDBRANCH  20  21
ENDBRANCH  19  20
ENDBRANCH  18  19
ENDBRANCH  17  18
ENDBRANCH  16  17
ENDBRANCH  15  16
ENDBRANCH  12  15
ENDBRANCH   1   9
BRANCH   8  28
HETATM   28  N7  UNL     1       7.549   7.668  80.267  1.00  0.00    -0.350 N 
HETATM   29  C23 UNL     1       7.583   7.870  81.686  1.00  0.00     0.152 C 
HETATM   30  C24 UNL     1       6.675   9.073  81.914  1.00  0.00     0.254 C 
HETATM   31  N8  UNL     1       6.472   9.690  80.635  1.00  0.00    -0.058 N 
HETATM   32  C25 UNL     1       7.326   9.015  79.697  1.00  0.00     0.357 C 
ATOM     33  H82 UNL     1       5.494   9.702  80.347  1.00  0.00     0.279 HD
ATOM     34  H81 UNL     1       6.616  10.699  80.651  1.00  0.00     0.279 HD
ENDBRANCH   8  28
BRANCH   4  35
HETATM   35  N4  UNL     1       8.104   3.089  77.008  1.00  0.00    -0.213 N 
HETATM   36  C13 UNL     1       8.017   1.753  77.582  1.00  0.00     0.167 C 
HETATM   37  C14 UNL     1       8.497   0.787  76.489  1.00  0.00     0.188 C 
HETATM   38  O5  UNL     1       7.636   0.988  75.420  1.00  0.00    -0.388 OA
HETATM   39  C15 UNL     1       8.014   2.127  74.737  1.00  0.00     0.188 C 
HETATM   40  C16 UNL     1       8.349   3.296  75.598  1.00  0.00     0.167 C 
ENDBRANCH   4  35
BRANCH   7  41
HETATM   41  N6  UNL     1      10.092   6.802  79.355  1.00  0.00    -0.361 N 
HETATM   42  C18 UNL     1      10.904   6.575  80.530  1.00  0.00     0.150 C 
HETATM   43  C19 UNL     1      11.122   7.940  81.203  1.00  0.00     0.187 C 
HETATM   44  O6  UNL     1      11.920   8.678  80.303  1.00  0.00    -0.388 OA
HETATM   45  C20 UNL     1      11.106   9.034  79.246  1.00  0.00     0.187 C 
HETATM   46  C21 UNL     1      10.549   7.861  78.476  1.00  0.00     0.150 C 
ENDBRANCH   7  41
TORSDOF 16
ENDMDL
MODEL 5
REMARK VINA RESULT: -5.747879872      2.853      5.423
REMARK  16 active torsions:
REMARK  status: ('A' for Active; 'I' for Inactive)
REMARK    1  A    between atoms: O1_1  and  C1_3 
REMARK    2  A    between atoms: C1_3  and  C2_4 
REMARK    3  A    between atoms: C2_4  and  O2_5 
REMARK    4  A    between atoms: O2_5  and  C3_6 
REMARK    5  A    between atoms: C3_6  and  C4_7 
REMARK    6  A    between atoms: C4_7  and  O3_8 
REMARK    7  A    between atoms: O3_8  and  C5_9 
REMARK    8  A    between atoms: C5_9  and  C6_10 
REMARK    9  A    between atoms: C6_10  and  O4_11 
REMARK   10  A    between atoms: O4_11  and  C7_12 
REMARK   11  A    between atoms: C7_12  and  C8_13 
REMARK   12  A    between atoms: C8_13  and  N1_14 
REMARK   13  A    between atoms: N2_17  and  C11_18 
REMARK   14  A    between atoms: C12_21  and  N4_22 
REMARK   15  A    between atoms: C17_30  and  N6_31 
REMARK   16  A    between atoms: C22_37  and  N7_38 
ROOT
HETATM    1  C11 UNL     1       8.164   6.672  79.595  1.00  0.00     0.150 A 
HETATM    2  N3  UNL     1       8.983   7.373  80.461  1.00  0.00    -0.174 N 
ATOM      3  H3  UNL     1       8.557   7.941  81.193  1.00  0.00     0.186 HD
HETATM    4  C12 UNL     1      10.306   7.332  80.373  1.00  0.00     0.683 A 
HETATM    5  N5  UNL     1      10.834   6.579  79.405  1.00  0.00    -0.174 N 
ATOM      6  H5  UNL     1      11.850   6.539  79.329  1.00  0.00     0.186 HD
HETATM    7  C17 UNL     1      10.092   5.858  78.510  1.00  0.00     0.150 A 
HETATM    8  C22 UNL     1       8.707   5.896  78.595  1.00  0.00     0.121 A 
ENDROOT
BRANCH   1   9
HETATM    9  N2  UNL     1       6.776   6.771  79.776  1.00  0.00    -0.359 N 
HETATM   10  C10 UNL     1       5.999   7.852  79.265  1.00  0.00     0.168 C 
HETATM   11  C9  UNL     1       4.764   8.179  80.045  1.00  0.00     0.078 C 
HETATM   12  N1  UNL     1       4.073   7.029  80.473  1.00  0.00    -0.388 N 
HETATM   13  C27 UNL     1       4.594   5.761  80.139  1.00  0.00     0.141 C 
HETATM   14  C26 UNL     1       6.076   5.730  80.498  1.00  0.00     0.144 C 
BRANCH  12  15
HETATM   15  C8  UNL     1       3.538   7.119  81.816  1.00  0.00     0.148 C 
BRANCH  15  16
HETATM   16  C7  UNL     1       2.463   6.059  81.949  1.00  0.00     0.187 C 
BRANCH  16  17
HETATM   17  O4  UNL     1       2.331   5.626  83.258  1.00  0.00    -0.387 OA
BRANCH  17  18
HETATM   18  C6  UNL     1       1.107   5.804  83.831  1.00  0.00     0.193 C 
BRANCH  18  19
HETATM   19  C5  UNL     1       0.049   5.136  82.941  1.00  0.00     0.193 C 
BRANCH  19  20
HETATM   20  O3  UNL     1      -1.132   5.264  83.614  1.00  0.00    -0.387 OA
BRANCH  20  21
HETATM   21  C4  UNL     1      -1.159   5.736  84.871  1.00  0.00     0.193 C 
BRANCH  21  22
HETATM   22  C3  UNL     1      -1.900   4.903  85.854  1.00  0.00     0.193 C 
BRANCH  22  23
HETATM   23  O2  UNL     1      -1.034   4.066  86.531  1.00  0.00    -0.387 OA
BRANCH  23  24
HETATM   24  C2  UNL     1      -1.285   2.723  86.241  1.00  0.00     0.193 C 
BRANCH  24  25
HETATM   25  C1  UNL     1      -0.145   2.228  85.376  1.00  0.00     0.190 C 
BRANCH  25  26
HETATM   26  O1  UNL     1       1.039   2.827  85.822  1.00  0.00    -0.399 OA
ATOM     27  H1  UNL     1       1.761   2.242  85.626  1.00  0.00     0.209 HD
ENDBRANCH  25  26
ENDBRANCH  24  25
ENDBRANCH  23  24
ENDBRANCH  22  23
ENDBRANCH  21  22
ENDBRANCH  20  21
ENDBRANCH  19  20
ENDBRANCH  18  19
ENDBRANCH  17  18
ENDBRANCH  16  17
ENDBRANCH  15  16
ENDBRANCH  12  15
ENDBRANCH   1   9
BRANCH   8  28
HETATM   28  N7  UNL     1       7.897   5.202  77.663  1.00  0.00    -0.350 N 
HETATM   29  C23 UNL     1       7.321   3.891  77.613  1.00  0.00     0.152 C 
HETATM   30  C24 UNL     1       7.245   3.571  76.126  1.00  0.00     0.254 C 
HETATM   31  N8  UNL     1       7.434   4.809  75.424  1.00  0.00    -0.058 N 
HETATM   32  C25 UNL     1       7.463   5.855  76.408  1.00  0.00     0.357 C 
ATOM     33  H82 UNL     1       8.256   4.805  74.821  1.00  0.00     0.279 HD
ATOM     34  H81 UNL     1       6.738   4.965  74.696  1.00  0.00     0.279 HD
ENDBRANCH   8  28
BRANCH   4  35
HETATM   35  N4  UNL     1      11.145   8.069  81.286  1.00  0.00    -0.213 N 
HETATM   36  C13 UNL     1      12.590   8.108  81.113  1.00  0.00     0.167 C 
HETATM   37  C14 UNL     1      13.158   8.735  82.396  1.00  0.00     0.188 C 
HETATM   38  O5  UNL     1      12.575   9.991  82.476  1.00  0.00    -0.388 OA
HETATM   39  C15 UNL     1      11.291   9.870  82.968  1.00  0.00     0.188 C 
HETATM   40  C16 UNL     1      10.491   8.762  82.374  1.00  0.00     0.167 C 
ENDBRANCH   4  35
BRANCH   7  41
HETATM   41  N6  UNL     1      10.729   5.082  77.525  1.00  0.00    -0.361 N 
HETATM   42  C18 UNL     1      11.281   5.564  76.279  1.00  0.00     0.150 C 
HETATM   43  C19 UNL     1      10.733   4.664  75.160  1.00  0.00     0.187 C 
HETATM   44  O6  UNL     1      11.306   3.394  75.386  1.00  0.00    -0.388 OA
HETATM   45  C20 UNL     1      10.668   2.859  76.488  1.00  0.00     0.187 C 
HETATM   46  C21 UNL     1      10.858   3.656  77.756  1.00  0.00     0.150 C 
ENDBRANCH   7  41
TORSDOF 16
ENDMDL
