MODEL 1
REMARK VINA RESULT: -8.466871694      0.000      0.000
REMARK  8 active torsions:
REMARK  status: ('A' for Active; 'I' for Inactive)
REMARK    1  A    between atoms: C2_2  and  C4_4 
REMARK    2  A    between atoms: C4_4  and  C5_5 
REMARK    3  A    between atoms: C10_12  and  N1_13 
REMARK       I    between atoms: N1_13  and  C11_15 
REMARK    4  A    between atoms: C11_15  and  C12_17 
REMARK    5  A    between atoms: C12_17  and  N2_20 
REMARK    6  A    between atoms: C28_35  and  C29_36 
REMARK    7  A    between atoms: C29_36  and  C30_37 
REMARK    8  A    between atoms: C30_37  and  N4_38 
ROOT
HETATM    1  C5  UNL     1      -5.238  -7.166  -0.346  1.00  0.00     0.064 C 
HETATM    2  C6  UNL     1      -6.342  -6.192  -0.218  1.00  0.00     0.028 C 
HETATM    3  C7  UNL     1      -7.510  -6.822  -0.004  1.00  0.00     0.056 C 
HETATM    4 BR1  UNL     1      -9.151  -5.869   0.214  1.00  0.00    -0.047 Br
HETATM    5  C8  UNL     1      -7.280  -8.261  -0.009  1.00  0.00     0.175 C 
HETATM    6  O1  UNL     1      -8.140  -9.106  -0.220  1.00  0.00    -0.291 OA
HETATM    7  C9  UNL     1      -5.871  -8.398   0.280  1.00  0.00     0.116 C 
HETATM    8  C10 UNL     1      -5.135  -9.635   0.073  1.00  0.00     0.099 C 
HETATM    9  C19 UNL     1      -4.374  -9.985   1.334  1.00  0.00     0.031 C 
HETATM   10  C20 UNL     1      -3.020  -9.445   1.514  1.00  0.00    -0.010 C 
HETATM   11  C21 UNL     1      -2.818  -8.972   2.926  1.00  0.00     0.010 C 
HETATM   12  C22 UNL     1      -2.803  -7.504   3.172  1.00  0.00    -0.005 C 
HETATM   13  C23 UNL     1      -4.155  -6.849   3.085  1.00  0.00     0.049 C 
HETATM   14  C24 UNL     1      -4.558  -6.258   1.798  1.00  0.00     0.060 C 
HETATM   15  N3  UNL     1      -4.173  -6.848   0.604  1.00  0.00    -0.375 N 
HETATM   16  C25 UNL     1      -2.875  -7.191   0.347  1.00  0.00     0.085 C 
HETATM   17  C26 UNL     1      -2.416  -8.580   0.478  1.00  0.00     0.030 C 
HETATM   18  C27 UNL     1      -1.957  -6.250   1.149  1.00  0.00     0.030 C 
HETATM   19  C28 UNL     1      -1.696  -6.746   2.548  1.00  0.00    -0.007 C 
ENDROOT
BRANCH   8  20
HETATM   20  N1  UNL     1      -6.021 -10.739  -0.221  1.00  0.00    -0.353 N 
HETATM   21  C11 UNL     1      -5.726 -11.655  -1.292  1.00  0.00     0.256 C 
HETATM   22  O2  UNL     1      -4.675 -11.481  -1.987  1.00  0.00    -0.271 OA
ATOM     23  H1  UNL     1      -6.865 -10.871   0.337  1.00  0.00     0.163 HD
BRANCH  21  24
HETATM   24  C12 UNL     1      -6.582 -12.789  -1.622  1.00  0.00     0.232 C 
HETATM   25  C13 UNL     1      -6.731 -13.670  -0.401  1.00  0.00     0.059 C 
HETATM   26  C14 UNL     1      -6.010 -13.672  -2.706  1.00  0.00     0.059 C 
BRANCH  24  27
HETATM   27  N2  UNL     1      -7.920 -12.337  -1.958  1.00  0.00     0.106 N 
HETATM   28  C15 UNL     1      -7.930 -11.254  -2.880  1.00  0.00     0.274 C 
HETATM   29  C16 UNL     1      -8.953 -11.597  -3.932  1.00  0.00     0.032 C 
HETATM   30  C17 UNL     1      -9.796 -12.705  -3.333  1.00  0.00     0.032 C 
HETATM   31  C18 UNL     1      -8.823 -13.361  -2.344  1.00  0.00     0.274 C 
ENDBRANCH  24  27
ENDBRANCH  21  24
ENDBRANCH   8  20
BRANCH   1  32
HETATM   32  C4  UNL     1      -4.779  -7.254  -1.719  1.00  0.00     0.040 C 
BRANCH  32  33
HETATM   33  C2  UNL     1      -5.400  -8.077  -2.764  1.00  0.00    -0.020 C 
HETATM   34  C1  UNL     1      -6.422  -7.412  -3.630  1.00  0.00     0.009 C 
HETATM   35  C3  UNL     1      -4.244  -8.470  -3.726  1.00  0.00     0.009 C 
ENDBRANCH  32  33
ENDBRANCH   1  32
BRANCH  19  36
HETATM   36  C29 UNL     1      -1.117  -5.613   3.278  1.00  0.00     0.025 C 
BRANCH  36  37
HETATM   37  C30 UNL     1      -0.864  -4.314   2.669  1.00  0.00     0.126 C 
BRANCH  37  38
HETATM   38  N4  UNL     1      -1.622  -3.186   3.108  1.00  0.00    -0.352 N 
HETATM   39  C31 UNL     1      -3.058  -3.219   3.308  1.00  0.00     0.125 C 
HETATM   40  C32 UNL     1      -3.600  -2.256   4.289  1.00  0.00     0.020 C 
HETATM   41  C33 UNL     1      -2.866  -0.988   4.507  1.00  0.00     0.011 C 
HETATM   42  C34 UNL     1      -1.875  -0.680   3.372  1.00  0.00     0.103 C 
HETATM   43  C35 UNL     1      -1.013  -1.934   3.369  1.00  0.00     0.219 C 
HETATM   44  O3  UNL     1       0.195  -1.781   3.603  1.00  0.00    -0.273 OA
ENDBRANCH  37  38
ENDBRANCH  36  37
ENDBRANCH  19  36
TORSDOF 8
ENDMDL
MODEL 2
REMARK VINA RESULT: -8.288295293      1.326      2.160
REMARK  8 active torsions:
REMARK  status: ('A' for Active; 'I' for Inactive)
REMARK    1  A    between atoms: C2_2  and  C4_4 
REMARK    2  A    between atoms: C4_4  and  C5_5 
REMARK    3  A    between atoms: C10_12  and  N1_13 
REMARK       I    between atoms: N1_13  and  C11_15 
REMARK    4  A    between atoms: C11_15  and  C12_17 
REMARK    5  A    between atoms: C12_17  and  N2_20 
REMARK    6  A    between atoms: C28_35  and  C29_36 
REMARK    7  A    between atoms: C29_36  and  C30_37 
REMARK    8  A    between atoms: C30_37  and  N4_38 
ROOT
HETATM    1  C5  UNL     1      -5.283  -7.183  -0.237  1.00  0.00     0.064 C 
HETATM    2  C6  UNL     1      -6.545  -6.417  -0.181  1.00  0.00     0.028 C 
HETATM    3  C7  UNL     1      -7.585  -7.231   0.067  1.00  0.00     0.056 C 
HETATM    4 BR1  UNL     1      -9.374  -6.576   0.211  1.00  0.00    -0.047 Br
HETATM    5  C8  UNL     1      -7.102  -8.603   0.159  1.00  0.00     0.175 C 
HETATM    6  O1  UNL     1      -7.793  -9.600   0.000  1.00  0.00    -0.291 OA
HETATM    7  C9  UNL     1      -5.697  -8.465   0.466  1.00  0.00     0.116 C 
HETATM    8  C10 UNL     1      -4.747  -9.561   0.346  1.00  0.00     0.099 C 
HETATM    9  C19 UNL     1      -3.959  -9.686   1.632  1.00  0.00     0.031 C 
HETATM   10  C20 UNL     1      -2.727  -8.902   1.783  1.00  0.00    -0.010 C 
HETATM   11  C21 UNL     1      -2.638  -8.310   3.162  1.00  0.00     0.010 C 
HETATM   12  C22 UNL     1      -2.890  -6.851   3.311  1.00  0.00    -0.005 C 
HETATM   13  C23 UNL     1      -4.335  -6.456   3.171  1.00  0.00     0.049 C 
HETATM   14  C24 UNL     1      -4.815  -6.031   1.846  1.00  0.00     0.060 C 
HETATM   15  N3  UNL     1      -4.309  -6.619   0.696  1.00  0.00    -0.375 N 
HETATM   16  C25 UNL     1      -2.966  -6.738   0.471  1.00  0.00     0.085 C 
HETATM   17  C26 UNL     1      -2.269  -8.011   0.697  1.00  0.00     0.030 C 
HETATM   18  C27 UNL     1      -2.246  -5.599   1.214  1.00  0.00     0.030 C 
HETATM   19  C28 UNL     1      -1.925  -5.948   2.644  1.00  0.00    -0.007 C 
ENDROOT
BRANCH   8  20
HETATM   20  N1  UNL     1      -5.417 -10.823   0.121  1.00  0.00    -0.353 N 
HETATM   21  C11 UNL     1      -5.166 -11.586  -1.074  1.00  0.00     0.256 C 
HETATM   22  O2  UNL     1      -4.350 -11.136  -1.939  1.00  0.00    -0.271 OA
ATOM     23  H1  UNL     1      -6.074 -11.176   0.816  1.00  0.00     0.163 HD
BRANCH  21  24
HETATM   24  C12 UNL     1      -5.808 -12.868  -1.343  1.00  0.00     0.232 C 
HETATM   25  C13 UNL     1      -6.111 -12.970  -2.822  1.00  0.00     0.059 C 
HETATM   26  C14 UNL     1      -7.132 -13.033  -0.633  1.00  0.00     0.059 C 
BRANCH  24  27
HETATM   27  N2  UNL     1      -4.905 -13.964  -1.041  1.00  0.00     0.106 N 
HETATM   28  C15 UNL     1      -5.564 -15.095  -0.486  1.00  0.00     0.274 C 
HETATM   29  C16 UNL     1      -5.042 -16.300  -1.226  1.00  0.00     0.032 C 
HETATM   30  C17 UNL     1      -3.776 -15.835  -1.917  1.00  0.00     0.032 C 
HETATM   31  C18 UNL     1      -4.031 -14.333  -2.095  1.00  0.00     0.274 C 
ENDBRANCH  24  27
ENDBRANCH  21  24
ENDBRANCH   8  20
BRANCH   1  32
HETATM   32  C4  UNL     1      -4.791  -7.275  -1.599  1.00  0.00     0.040 C 
BRANCH  32  33
HETATM   33  C2  UNL     1      -5.507  -7.912  -2.711  1.00  0.00    -0.020 C 
HETATM   34  C1  UNL     1      -6.419  -7.040  -3.514  1.00  0.00     0.009 C 
HETATM   35  C3  UNL     1      -4.404  -8.372  -3.705  1.00  0.00     0.009 C 
ENDBRANCH  32  33
ENDBRANCH   1  32
BRANCH  19  36
HETATM   36  C29 UNL     1      -1.571  -4.685   3.301  1.00  0.00     0.025 C 
BRANCH  36  37
HETATM   37  C30 UNL     1      -1.961  -3.380   2.785  1.00  0.00     0.126 C 
BRANCH  37  38
HETATM   38  N4  UNL     1      -2.881  -2.586   3.537  1.00  0.00    -0.352 N 
HETATM   39  C31 UNL     1      -4.319  -2.768   3.485  1.00  0.00     0.125 C 
HETATM   40  C32 UNL     1      -5.071  -2.348   4.685  1.00  0.00     0.020 C 
HETATM   41  C33 UNL     1      -4.506  -1.265   5.523  1.00  0.00     0.011 C 
HETATM   42  C34 UNL     1      -3.429  -0.453   4.787  1.00  0.00     0.103 C 
HETATM   43  C35 UNL     1      -2.443  -1.542   4.389  1.00  0.00     0.219 C 
HETATM   44  O3  UNL     1      -1.294  -1.449   4.845  1.00  0.00    -0.273 OA
ENDBRANCH  37  38
ENDBRANCH  36  37
ENDBRANCH  19  36
TORSDOF 8
ENDMDL
MODEL 3
REMARK VINA RESULT: -8.145987473      1.528      2.372
REMARK  8 active torsions:
REMARK  status: ('A' for Active; 'I' for Inactive)
REMARK    1  A    between atoms: C2_2  and  C4_4 
REMARK    2  A    between atoms: C4_4  and  C5_5 
REMARK    3  A    between atoms: C10_12  and  N1_13 
REMARK       I    between atoms: N1_13  and  C11_15 
REMARK    4  A    between atoms: C11_15  and  C12_17 
REMARK    5  A    between atoms: C12_17  and  N2_20 
REMARK    6  A    between atoms: C28_35  and  C29_36 
REMARK    7  A    between atoms: C29_36  and  C30_37 
REMARK    8  A    between atoms: C30_37  and  N4_38 
ROOT
HETATM    1  C5  UNL     1      -5.140  -7.168  -0.297  1.00  0.00     0.064 C 
HETATM    2  C6  UNL     1      -6.387  -6.375  -0.286  1.00  0.00     0.028 C 
HETATM    3  C7  UNL     1      -7.447  -7.160  -0.027  1.00  0.00     0.056 C 
HETATM    4 BR1  UNL     1      -9.224  -6.465   0.068  1.00  0.00    -0.047 Br
HETATM    5  C8  UNL     1      -6.993  -8.537   0.117  1.00  0.00     0.175 C 
HETATM    6  O1  UNL     1      -7.702  -9.526  -0.021  1.00  0.00    -0.291 OA
HETATM    7  C9  UNL     1      -5.590  -8.418   0.440  1.00  0.00     0.116 C 
HETATM    8  C10 UNL     1      -4.661  -9.535   0.371  1.00  0.00     0.099 C 
HETATM    9  C19 UNL     1      -3.895  -9.634   1.672  1.00  0.00     0.031 C 
HETATM   10  C20 UNL     1      -2.649  -8.870   1.817  1.00  0.00    -0.010 C 
HETATM   11  C21 UNL     1      -2.569  -8.235   3.176  1.00  0.00     0.010 C 
HETATM   12  C22 UNL     1      -2.794  -6.767   3.274  1.00  0.00    -0.005 C 
HETATM   13  C23 UNL     1      -4.228  -6.348   3.100  1.00  0.00     0.049 C 
HETATM   14  C24 UNL     1      -4.679  -5.958   1.753  1.00  0.00     0.060 C 
HETATM   15  N3  UNL     1      -4.168  -6.592   0.631  1.00  0.00    -0.375 N 
HETATM   16  C25 UNL     1      -2.826  -6.746   0.431  1.00  0.00     0.085 C 
HETATM   17  C26 UNL     1      -2.157  -8.024   0.708  1.00  0.00     0.030 C 
HETATM   18  C27 UNL     1      -2.093  -5.597   1.148  1.00  0.00     0.030 C 
HETATM   19  C28 UNL     1      -1.800  -5.906   2.593  1.00  0.00    -0.007 C 
ENDROOT
BRANCH   8  20
HETATM   20  N1  UNL     1      -5.353 -10.791   0.176  1.00  0.00    -0.353 N 
HETATM   21  C11 UNL     1      -5.154 -11.562  -1.023  1.00  0.00     0.256 C 
HETATM   22  O2  UNL     1      -4.364 -11.126  -1.920  1.00  0.00    -0.271 OA
ATOM     23  H1  UNL     1      -5.989 -11.133   0.896  1.00  0.00     0.163 HD
BRANCH  21  24
HETATM   24  C12 UNL     1      -5.820 -12.838  -1.262  1.00  0.00     0.232 C 
HETATM   25  C13 UNL     1      -6.184 -12.941  -2.727  1.00  0.00     0.059 C 
HETATM   26  C14 UNL     1      -7.116 -12.986  -0.499  1.00  0.00     0.059 C 
BRANCH  24  27
HETATM   27  N2  UNL     1      -4.917 -13.942  -0.993  1.00  0.00     0.106 N 
HETATM   28  C15 UNL     1      -5.582 -15.103  -0.509  1.00  0.00     0.274 C 
HETATM   29  C16 UNL     1      -5.036 -16.268  -1.295  1.00  0.00     0.032 C 
HETATM   30  C17 UNL     1      -3.758 -15.764  -1.933  1.00  0.00     0.032 C 
HETATM   31  C18 UNL     1      -4.017 -14.255  -2.045  1.00  0.00     0.274 C 
ENDBRANCH  24  27
ENDBRANCH  21  24
ENDBRANCH   8  20
BRANCH   1  32
HETATM   32  C4  UNL     1      -4.630  -7.314  -1.648  1.00  0.00     0.040 C 
BRANCH  32  33
HETATM   33  C2  UNL     1      -5.342  -7.972  -2.750  1.00  0.00    -0.020 C 
HETATM   34  C1  UNL     1      -6.273  -7.122  -3.555  1.00  0.00     0.009 C 
HETATM   35  C3  UNL     1      -4.238  -8.423  -3.747  1.00  0.00     0.009 C 
ENDBRANCH  32  33
ENDBRANCH   1  32
BRANCH  19  36
HETATM   36  C29 UNL     1      -1.430  -4.629   3.214  1.00  0.00     0.025 C 
BRANCH  36  37
HETATM   37  C30 UNL     1      -1.739  -3.334   2.623  1.00  0.00     0.126 C 
BRANCH  37  38
HETATM   38  N4  UNL     1      -3.057  -2.803   2.771  1.00  0.00    -0.352 N 
HETATM   39  C31 UNL     1      -3.739  -2.704   4.047  1.00  0.00     0.125 C 
HETATM   40  C32 UNL     1      -4.762  -1.644   4.156  1.00  0.00     0.020 C 
HETATM   41  C33 UNL     1      -5.463  -1.215   2.924  1.00  0.00     0.011 C 
HETATM   42  C34 UNL     1      -5.317  -2.233   1.781  1.00  0.00     0.103 C 
HETATM   43  C35 UNL     1      -3.804  -2.342   1.659  1.00  0.00     0.219 C 
HETATM   44  O3  UNL     1      -3.306  -2.011   0.572  1.00  0.00    -0.273 OA
ENDBRANCH  37  38
ENDBRANCH  36  37
ENDBRANCH  19  36
TORSDOF 8
ENDMDL
MODEL 4
REMARK VINA RESULT: -8.039826815      2.778      4.462
REMARK  8 active torsions:
REMARK  status: ('A' for Active; 'I' for Inactive)
REMARK    1  A    between atoms: C2_2  and  C4_4 
REMARK    2  A    between atoms: C4_4  and  C5_5 
REMARK    3  A    between atoms: C10_12  and  N1_13 
REMARK       I    between atoms: N1_13  and  C11_15 
REMARK    4  A    between atoms: C11_15  and  C12_17 
REMARK    5  A    between atoms: C12_17  and  N2_20 
REMARK    6  A    between atoms: C28_35  and  C29_36 
REMARK    7  A    between atoms: C29_36  and  C30_37 
REMARK    8  A    between atoms: C30_37  and  N4_38 
ROOT
HETATM    1  C5  UNL     1      -6.739  -9.801   0.057  1.00  0.00     0.064 C 
HETATM    2  C6  UNL     1      -6.827 -11.188   0.559  1.00  0.00     0.028 C 
HETATM    3  C7  UNL     1      -6.773 -12.066  -0.458  1.00  0.00     0.056 C 
HETATM    4 BR1  UNL     1      -6.855 -13.953  -0.173  1.00  0.00    -0.047 Br
HETATM    5  C8  UNL     1      -6.683 -11.332  -1.713  1.00  0.00     0.175 C 
HETATM    6  O1  UNL     1      -6.992 -11.781  -2.810  1.00  0.00    -0.291 OA
HETATM    7  C9  UNL     1      -6.171 -10.036  -1.332  1.00  0.00     0.116 C 
HETATM    8  C10 UNL     1      -6.209  -8.878  -2.212  1.00  0.00     0.099 C 
HETATM    9  C19 UNL     1      -4.831  -8.256  -2.284  1.00  0.00     0.031 C 
HETATM   10  C20 UNL     1      -4.463  -7.238  -1.292  1.00  0.00    -0.010 C 
HETATM   11  C21 UNL     1      -3.058  -7.452  -0.805  1.00  0.00     0.010 C 
HETATM   12  C22 UNL     1      -2.872  -8.011   0.562  1.00  0.00    -0.005 C 
HETATM   13  C23 UNL     1      -3.197  -9.475   0.681  1.00  0.00     0.049 C 
HETATM   14  C24 UNL     1      -4.555  -9.852   1.109  1.00  0.00     0.060 C 
HETATM   15  N3  UNL     1      -5.648  -9.092   0.723  1.00  0.00    -0.375 N 
HETATM   16  C25 UNL     1      -5.684  -7.735   0.882  1.00  0.00     0.085 C 
HETATM   17  C26 UNL     1      -5.426  -6.831  -0.246  1.00  0.00     0.030 C 
HETATM   18  C27 UNL     1      -4.786  -7.363   2.077  1.00  0.00     0.030 C 
HETATM   19  C28 UNL     1      -3.345  -7.168   1.683  1.00  0.00    -0.007 C 
ENDROOT
BRANCH   8  20
HETATM   20  N1  UNL     1      -6.593  -9.243  -3.557  1.00  0.00    -0.353 N 
HETATM   21  C11 UNL     1      -7.922  -8.976  -4.041  1.00  0.00     0.256 C 
HETATM   22  O2  UNL     1      -8.765  -8.417  -3.269  1.00  0.00    -0.271 OA
ATOM     23  H1  UNL     1      -5.915  -9.696  -4.170  1.00  0.00     0.163 HD
BRANCH  21  24
HETATM   24  C12 UNL     1      -8.356  -9.316  -5.392  1.00  0.00     0.232 C 
HETATM   25  C13 UNL     1      -9.139 -10.610  -5.351  1.00  0.00     0.059 C 
HETATM   26  C14 UNL     1      -7.207  -9.553  -6.344  1.00  0.00     0.059 C 
BRANCH  24  27
HETATM   27  N2  UNL     1      -9.269  -8.310  -5.903  1.00  0.00     0.106 N 
HETATM   28  C15 UNL     1      -8.604  -7.215  -6.523  1.00  0.00     0.274 C 
HETATM   29  C16 UNL     1      -9.316  -6.966  -7.828  1.00  0.00     0.032 C 
HETATM   30  C17 UNL     1     -10.643  -7.687  -7.711  1.00  0.00     0.032 C 
HETATM   31  C18 UNL     1     -10.323  -8.807  -6.712  1.00  0.00     0.274 C 
ENDBRANCH  24  27
ENDBRANCH  21  24
ENDBRANCH   8  20
BRANCH   1  32
HETATM   32  C4  UNL     1      -8.019  -9.127   0.169  1.00  0.00     0.040 C 
BRANCH  32  33
HETATM   33  C2  UNL     1      -9.122  -9.554   1.039  1.00  0.00    -0.020 C 
HETATM   34  C1  UNL     1      -9.336  -8.768   2.294  1.00  0.00     0.009 C 
HETATM   35  C3  UNL     1     -10.415  -9.344   0.202  1.00  0.00     0.009 C 
ENDBRANCH  32  33
ENDBRANCH   1  32
BRANCH  19  36
HETATM   36  C29 UNL     1      -2.580  -7.166   2.935  1.00  0.00     0.025 C 
BRANCH  36  37
HETATM   37  C30 UNL     1      -1.264  -6.553   3.066  1.00  0.00     0.126 C 
BRANCH  37  38
HETATM   38  N4  UNL     1      -1.151  -5.132   2.975  1.00  0.00    -0.352 N 
HETATM   39  C31 UNL     1      -2.199  -4.220   3.391  1.00  0.00     0.125 C 
HETATM   40  C32 UNL     1      -1.760  -2.872   3.807  1.00  0.00     0.020 C 
HETATM   41  C33 UNL     1      -0.514  -2.327   3.219  1.00  0.00     0.011 C 
HETATM   42  C34 UNL     1      -0.089  -3.077   1.946  1.00  0.00     0.103 C 
HETATM   43  C35 UNL     1       0.009  -4.509   2.452  1.00  0.00     0.219 C 
HETATM   44  O3  UNL     1       1.120  -5.053   2.376  1.00  0.00    -0.273 OA
ENDBRANCH  37  38
ENDBRANCH  36  37
ENDBRANCH  19  36
TORSDOF 8
ENDMDL
MODEL 5
REMARK VINA RESULT: -7.903994491      1.368      2.291
REMARK  8 active torsions:
REMARK  status: ('A' for Active; 'I' for Inactive)
REMARK    1  A    between atoms: C2_2  and  C4_4 
REMARK    2  A    between atoms: C4_4  and  C5_5 
REMARK    3  A    between atoms: C10_12  and  N1_13 
REMARK       I    between atoms: N1_13  and  C11_15 
REMARK    4  A    between atoms: C11_15  and  C12_17 
REMARK    5  A    between atoms: C12_17  and  N2_20 
REMARK    6  A    between atoms: C28_35  and  C29_36 
REMARK    7  A    between atoms: C29_36  and  C30_37 
REMARK    8  A    between atoms: C30_37  and  N4_38 
ROOT
HETATM    1  C5  UNL     1      -5.217  -7.219  -0.217  1.00  0.00     0.064 C 
HETATM    2  C6  UNL     1      -6.470  -6.439  -0.148  1.00  0.00     0.028 C 
HETATM    3  C7  UNL     1      -7.518  -7.242   0.103  1.00  0.00     0.056 C 
HETATM    4 BR1  UNL     1      -9.298  -6.567   0.263  1.00  0.00    -0.047 Br
HETATM    5  C8  UNL     1      -7.049  -8.620   0.184  1.00  0.00     0.175 C 
HETATM    6  O1  UNL     1      -7.754  -9.608   0.024  1.00  0.00    -0.291 OA
HETATM    7  C9  UNL     1      -5.641  -8.500   0.482  1.00  0.00     0.116 C 
HETATM    8  C10 UNL     1      -4.705  -9.606   0.349  1.00  0.00     0.099 C 
HETATM    9  C19 UNL     1      -3.910  -9.748   1.628  1.00  0.00     0.031 C 
HETATM   10  C20 UNL     1      -2.667  -8.979   1.776  1.00  0.00    -0.010 C 
HETATM   11  C21 UNL     1      -2.563  -8.396   3.157  1.00  0.00     0.010 C 
HETATM   12  C22 UNL     1      -2.797  -6.935   3.316  1.00  0.00    -0.005 C 
HETATM   13  C23 UNL     1      -4.238  -6.522   3.189  1.00  0.00     0.049 C 
HETATM   14  C24 UNL     1      -4.722  -6.084   1.869  1.00  0.00     0.060 C 
HETATM   15  N3  UNL     1      -4.230  -6.671   0.712  1.00  0.00    -0.375 N 
HETATM   16  C25 UNL     1      -2.891  -6.805   0.477  1.00  0.00     0.085 C 
HETATM   17  C26 UNL     1      -2.207  -8.087   0.691  1.00  0.00     0.030 C 
HETATM   18  C27 UNL     1      -2.152  -5.678   1.222  1.00  0.00     0.030 C 
HETATM   19  C28 UNL     1      -1.826  -6.040   2.647  1.00  0.00    -0.007 C 
ENDROOT
BRANCH   8  20
HETATM   20  N1  UNL     1      -5.391 -10.859   0.121  1.00  0.00    -0.353 N 
HETATM   21  C11 UNL     1      -5.121 -11.642  -1.056  1.00  0.00     0.256 C 
HETATM   22  O2  UNL     1      -4.273 -11.219  -1.904  1.00  0.00    -0.271 OA
ATOM     23  H1  UNL     1      -6.073 -11.192   0.802  1.00  0.00     0.163 HD
BRANCH  21  24
HETATM   24  C12 UNL     1      -5.778 -12.916  -1.327  1.00  0.00     0.232 C 
HETATM   25  C13 UNL     1      -6.139 -12.986  -2.795  1.00  0.00     0.059 C 
HETATM   26  C14 UNL     1      -7.073 -13.092  -0.570  1.00  0.00     0.059 C 
BRANCH  24  27
HETATM   27  N2  UNL     1      -4.868 -14.021  -1.083  1.00  0.00     0.106 N 
HETATM   28  C15 UNL     1      -5.513 -15.167  -0.543  1.00  0.00     0.274 C 
HETATM   29  C16 UNL     1      -5.015 -16.351  -1.333  1.00  0.00     0.032 C 
HETATM   30  C17 UNL     1      -3.769 -15.867  -2.046  1.00  0.00     0.032 C 
HETATM   31  C18 UNL     1      -4.026 -14.359  -2.174  1.00  0.00     0.274 C 
ENDBRANCH  24  27
ENDBRANCH  21  24
ENDBRANCH   8  20
BRANCH   1  32
HETATM   32  C4  UNL     1      -4.736  -7.309  -1.583  1.00  0.00     0.040 C 
BRANCH  32  33
HETATM   33  C2  UNL     1      -5.425  -8.009  -2.674  1.00  0.00    -0.020 C 
HETATM   34  C1  UNL     1      -6.384  -7.205  -3.492  1.00  0.00     0.009 C 
HETATM   35  C3  UNL     1      -4.305  -8.438  -3.664  1.00  0.00     0.009 C 
ENDBRANCH  32  33
ENDBRANCH   1  32
BRANCH  19  36
HETATM   36  C29 UNL     1      -1.453  -4.785   3.309  1.00  0.00     0.025 C 
BRANCH  36  37
HETATM   37  C30 UNL     1      -2.302  -3.601   3.316  1.00  0.00     0.126 C 
BRANCH  37  38
HETATM   38  N4  UNL     1      -2.090  -2.592   2.327  1.00  0.00    -0.352 N 
HETATM   39  C31 UNL     1      -3.051  -2.280   1.287  1.00  0.00     0.125 C 
HETATM   40  C32 UNL     1      -3.006  -0.904   0.752  1.00  0.00     0.020 C 
HETATM   41  C33 UNL     1      -1.715  -0.179   0.788  1.00  0.00     0.011 C 
HETATM   42  C34 UNL     1      -0.518  -1.121   0.995  1.00  0.00     0.103 C 
HETATM   43  C35 UNL     1      -0.901  -1.823   2.289  1.00  0.00     0.219 C 
HETATM   44  O3  UNL     1      -0.134  -1.676   3.252  1.00  0.00    -0.273 OA
ENDBRANCH  37  38
ENDBRANCH  36  37
ENDBRANCH  19  36
TORSDOF 8
ENDMDL
