MODEL 1
REMARK VINA RESULT: -8.757670915      0.000      0.000
REMARK  10 active torsions:
REMARK  status: ('A' for Active; 'I' for Inactive)
REMARK    1  A    between atoms: C2_2  and  O1_3 
REMARK    2  A    between atoms: O1_3  and  C3_4 
REMARK    3  A    between atoms: C3_4  and  C4_6 
REMARK    4  A    between atoms: N2_18  and  C14_19 
REMARK    5  A    between atoms: C14_19  and  C15_20 
REMARK    6  A    between atoms: C15_20  and  C16_21 
REMARK       I    between atoms: C16_21  and  N3_23 
REMARK    7  A    between atoms: C22_31  and  C23_32 
REMARK    8  A    between atoms: C22_31  and  N5_40 
REMARK    9  A    between atoms: C23_32  and  C24_33 
REMARK   10  A    between atoms: C24_33  and  C25_34 
REMARK       I    between atoms: N5_40  and  C31_42 
ROOT
HETATM    1  C16 UNL     1     -11.962 -10.248  -1.350  1.00  0.00     0.246 C 
HETATM    2  O3  UNL     1     -12.185 -11.377  -0.891  1.00  0.00    -0.268 OA
HETATM    3  N3  UNL     1     -13.110  -9.461  -1.735  1.00  0.00    -0.330 N 
HETATM    4  C17 UNL     1     -13.048  -8.123  -2.288  1.00  0.00     0.143 C 
HETATM    5  C18 UNL     1     -14.183  -8.056  -3.250  1.00  0.00     0.079 C 
HETATM    6 BR1  UNL     1     -15.201  -6.458  -2.869  1.00  0.00    -0.089 Br
HETATM    7  C19 UNL     1     -15.017  -9.303  -3.000  1.00  0.00     0.058 C 
HETATM    8  C20 UNL     1     -14.498  -9.814  -1.652  1.00  0.00     0.196 C 
HETATM    9  C21 UNL     1     -15.083  -9.009  -0.558  1.00  0.00     0.085 C 
HETATM   10  N4  UNL     1     -15.547  -8.379   0.287  1.00  0.00    -0.195 NA
ENDROOT
BRANCH   1  11
HETATM   11  C15 UNL     1     -10.649  -9.683  -1.521  1.00  0.00     0.105 C 
BRANCH  11  12
HETATM   12  C14 UNL     1      -9.558  -9.935  -0.576  1.00  0.00     0.059 C 
HETATM   13  C22 UNL     1      -9.312  -9.071   0.560  1.00  0.00     0.039 C 
BRANCH  12  14
HETATM   14  N2  UNL     1      -8.420 -10.348  -1.336  1.00  0.00    -0.369 N 
HETATM   15  C13 UNL     1      -8.454 -11.758  -1.677  1.00  0.00     0.165 C 
HETATM   16  C12 UNL     1      -7.110 -12.254  -1.983  1.00  0.00    -0.004 A 
HETATM   17  C5  UNL     1      -6.387 -11.448  -2.882  1.00  0.00     0.034 A 
HETATM   18  C11 UNL     1      -6.344 -13.294  -1.624  1.00  0.00     0.000 A 
HETATM   19  C4  UNL     1      -7.147 -10.286  -3.335  1.00  0.00     0.158 C 
HETATM   20  N1  UNL     1      -5.193 -12.017  -3.051  1.00  0.00    -0.358 N 
HETATM   21  C33 UNL     1      -7.654  -9.514  -2.126  1.00  0.00     0.100 C 
HETATM   22  C34 UNL     1      -8.233  -8.266  -2.683  1.00  0.00     0.033 C 
HETATM   23  C6  UNL     1      -5.122 -13.156  -2.296  1.00  0.00     0.043 A 
ATOM     24  H1  UNL     1      -4.448 -11.659  -3.649  1.00  0.00     0.166 HD
HETATM   25  C7  UNL     1      -4.122 -14.064  -2.136  1.00  0.00     0.030 A 
HETATM   26  C8  UNL     1      -4.269 -15.157  -1.309  1.00  0.00     0.002 A 
HETATM   27  C9  UNL     1      -5.468 -15.318  -0.632  1.00  0.00     0.001 A 
HETATM   28  C10 UNL     1      -6.471 -14.398  -0.799  1.00  0.00     0.014 A 
BRANCH  19  29
HETATM   29  C3  UNL     1      -6.484  -9.492  -4.359  1.00  0.00     0.270 C 
HETATM   30  O2  UNL     1      -6.990  -8.979  -5.356  1.00  0.00    -0.264 OA
BRANCH  29  31
HETATM   31  O1  UNL     1      -5.091  -9.267  -4.222  1.00  0.00    -0.321 OA
BRANCH  31  32
HETATM   32  C2  UNL     1      -4.602  -8.127  -3.542  1.00  0.00     0.174 C 
HETATM   33  C1  UNL     1      -4.024  -8.460  -2.199  1.00  0.00     0.034 C 
ENDBRANCH  31  32
ENDBRANCH  29  31
ENDBRANCH  19  29
ENDBRANCH  12  14
BRANCH  13  34
HETATM   34  C23 UNL     1      -8.201  -9.429   1.483  1.00  0.00     0.064 C 
BRANCH  34  35
HETATM   35  C24 UNL     1      -7.065  -8.422   1.243  1.00  0.00     0.044 C 
BRANCH  35  36
HETATM   36  C25 UNL     1      -5.761  -9.116   1.217  1.00  0.00    -0.058 A 
HETATM   37  C26 UNL     1      -5.641 -10.440   0.873  1.00  0.00     0.007 A 
HETATM   38  C27 UNL     1      -4.401 -11.070   0.861  1.00  0.00     0.001 A 
HETATM   39  C28 UNL     1      -3.268 -10.371   1.196  1.00  0.00     0.000 A 
HETATM   40  C29 UNL     1      -3.371  -9.054   1.540  1.00  0.00     0.001 A 
HETATM   41  C30 UNL     1      -4.611  -8.442   1.547  1.00  0.00     0.007 A 
ENDBRANCH  35  36
ENDBRANCH  34  35
ENDBRANCH  13  34
BRANCH  13  42
HETATM   42  N5  UNL     1      -9.938  -7.997   0.907  1.00  0.00    -0.329 N 
HETATM   43  C31 UNL     1     -10.811  -7.859   1.997  1.00  0.00     0.217 C 
HETATM   44  C32 UNL     1     -12.270  -8.023   1.761  1.00  0.00     0.117 C 
HETATM   45  O4  UNL     1     -10.407  -7.607   3.150  1.00  0.00    -0.274 OA
ATOM     46  H5  UNL     1      -9.783  -7.168   0.334  1.00  0.00     0.168 HD
ENDBRANCH  13  42
ENDBRANCH  11  12
ENDBRANCH   1  11
TORSDOF 10
ENDMDL
MODEL 2
REMARK VINA RESULT: -8.451095199      2.366      5.231
REMARK  10 active torsions:
REMARK  status: ('A' for Active; 'I' for Inactive)
REMARK    1  A    between atoms: C2_2  and  O1_3 
REMARK    2  A    between atoms: O1_3  and  C3_4 
REMARK    3  A    between atoms: C3_4  and  C4_6 
REMARK    4  A    between atoms: N2_18  and  C14_19 
REMARK    5  A    between atoms: C14_19  and  C15_20 
REMARK    6  A    between atoms: C15_20  and  C16_21 
REMARK       I    between atoms: C16_21  and  N3_23 
REMARK    7  A    between atoms: C22_31  and  C23_32 
REMARK    8  A    between atoms: C22_31  and  N5_40 
REMARK    9  A    between atoms: C23_32  and  C24_33 
REMARK   10  A    between atoms: C24_33  and  C25_34 
REMARK       I    between atoms: N5_40  and  C31_42 
ROOT
HETATM    1  C16 UNL     1     -11.077  -9.531  -1.563  1.00  0.00     0.246 C 
HETATM    2  O3  UNL     1     -10.900  -8.387  -1.123  1.00  0.00    -0.268 OA
HETATM    3  N3  UNL     1     -12.443  -9.992  -1.655  1.00  0.00    -0.330 N 
HETATM    4  C17 UNL     1     -12.845 -11.295  -2.145  1.00  0.00     0.143 C 
HETATM    5  C18 UNL     1     -14.043 -11.653  -1.334  1.00  0.00     0.079 C 
HETATM    6 BR1  UNL     1     -15.448 -12.195  -2.545  1.00  0.00    -0.089 Br
HETATM    7  C19 UNL     1     -14.431 -10.390  -0.582  1.00  0.00     0.058 C 
HETATM    8  C20 UNL     1     -13.643  -9.290  -1.302  1.00  0.00     0.196 C 
HETATM    9  C21 UNL     1     -14.325  -8.938  -2.567  1.00  0.00     0.085 C 
HETATM   10  N4  UNL     1     -14.865  -8.669  -3.548  1.00  0.00    -0.195 NA
ENDROOT
BRANCH   1  11
HETATM   11  C15 UNL     1     -10.021 -10.415  -1.983  1.00  0.00     0.105 C 
BRANCH  11  12
HETATM   12  C14 UNL     1      -8.805  -9.928  -2.640  1.00  0.00     0.059 C 
HETATM   13  C22 UNL     1      -8.671  -9.898  -4.081  1.00  0.00     0.039 C 
BRANCH  12  14
HETATM   14  N2  UNL     1      -7.689 -10.418  -1.894  1.00  0.00    -0.369 N 
HETATM   15  C13 UNL     1      -7.516  -9.733  -0.626  1.00  0.00     0.165 C 
HETATM   16  C12 UNL     1      -6.141  -9.876  -0.140  1.00  0.00    -0.004 A 
HETATM   17  C5  UNL     1      -5.651 -11.195  -0.168  1.00  0.00     0.034 A 
HETATM   18  C11 UNL     1      -5.180  -9.069   0.333  1.00  0.00     0.000 A 
HETATM   19  C4  UNL     1      -6.636 -12.152  -0.667  1.00  0.00     0.158 C 
HETATM   20  N1  UNL     1      -4.399 -11.161   0.289  1.00  0.00    -0.358 N 
HETATM   21  C33 UNL     1      -7.151 -11.683  -2.019  1.00  0.00     0.100 C 
HETATM   22  C34 UNL     1      -7.982 -12.806  -2.522  1.00  0.00     0.033 C 
HETATM   23  C6  UNL     1      -4.067  -9.873   0.609  1.00  0.00     0.043 A 
ATOM     24  H1  UNL     1      -3.784 -11.969   0.384  1.00  0.00     0.166 HD
HETATM   25  C7  UNL     1      -2.917  -9.341   1.105  1.00  0.00     0.030 A 
HETATM   26  C8  UNL     1      -2.800  -7.991   1.356  1.00  0.00     0.002 A 
HETATM   27  C9  UNL     1      -3.887  -7.172   1.092  1.00  0.00     0.001 A 
HETATM   28  C10 UNL     1      -5.042  -7.716   0.592  1.00  0.00     0.014 A 
BRANCH  19  29
HETATM   29  C3  UNL     1      -6.214 -13.543  -0.598  1.00  0.00     0.270 C 
HETATM   30  O2  UNL     1      -6.838 -14.494  -0.129  1.00  0.00    -0.264 OA
BRANCH  29  31
HETATM   31  O1  UNL     1      -4.939 -13.874  -1.122  1.00  0.00    -0.321 OA
BRANCH  31  32
HETATM   32  C2  UNL     1      -4.812 -14.731  -2.240  1.00  0.00     0.174 C 
HETATM   33  C1  UNL     1      -4.279 -16.083  -1.872  1.00  0.00     0.034 C 
ENDBRANCH  31  32
ENDBRANCH  29  31
ENDBRANCH  19  29
ENDBRANCH  12  14
BRANCH  13  34
HETATM   34  C23 UNL     1      -7.411  -9.353  -4.656  1.00  0.00     0.064 C 
BRANCH  34  35
HETATM   35  C24 UNL     1      -7.251  -7.918  -4.127  1.00  0.00     0.044 C 
BRANCH  35  36
HETATM   36  C25 UNL     1      -5.883  -7.712  -3.610  1.00  0.00    -0.058 A 
HETATM   37  C26 UNL     1      -4.918  -8.688  -3.673  1.00  0.00     0.007 A 
HETATM   38  C27 UNL     1      -3.639  -8.468  -3.174  1.00  0.00     0.001 A 
HETATM   39  C28 UNL     1      -3.318  -7.261  -2.605  1.00  0.00     0.000 A 
HETATM   40  C29 UNL     1      -4.265  -6.281  -2.534  1.00  0.00     0.001 A 
HETATM   41  C30 UNL     1      -5.533  -6.515  -3.036  1.00  0.00     0.007 A 
ENDBRANCH  35  36
ENDBRANCH  34  35
ENDBRANCH  13  34
BRANCH  13  42
HETATM   42  N5  UNL     1      -9.514 -10.286  -4.978  1.00  0.00    -0.329 N 
HETATM   43  C31 UNL     1      -9.614  -9.801  -6.291  1.00  0.00     0.217 C 
HETATM   44  C32 UNL     1     -10.591  -8.715  -6.573  1.00  0.00     0.117 C 
HETATM   45  O4  UNL     1      -8.914 -10.245  -7.224  1.00  0.00    -0.274 OA
ATOM     46  H5  UNL     1     -10.172 -11.017  -4.706  1.00  0.00     0.168 HD
ENDBRANCH  13  42
ENDBRANCH  11  12
ENDBRANCH   1  11
TORSDOF 10
ENDMDL
MODEL 3
REMARK VINA RESULT: -8.349464319      0.613      1.282
REMARK  10 active torsions:
REMARK  status: ('A' for Active; 'I' for Inactive)
REMARK    1  A    between atoms: C2_2  and  O1_3 
REMARK    2  A    between atoms: O1_3  and  C3_4 
REMARK    3  A    between atoms: C3_4  and  C4_6 
REMARK    4  A    between atoms: N2_18  and  C14_19 
REMARK    5  A    between atoms: C14_19  and  C15_20 
REMARK    6  A    between atoms: C15_20  and  C16_21 
REMARK       I    between atoms: C16_21  and  N3_23 
REMARK    7  A    between atoms: C22_31  and  C23_32 
REMARK    8  A    between atoms: C22_31  and  N5_40 
REMARK    9  A    between atoms: C23_32  and  C24_33 
REMARK   10  A    between atoms: C24_33  and  C25_34 
REMARK       I    between atoms: N5_40  and  C31_42 
ROOT
HETATM    1  C16 UNL     1     -11.837 -10.200  -1.358  1.00  0.00     0.246 C 
HETATM    2  O3  UNL     1     -12.064 -11.335  -0.919  1.00  0.00    -0.268 OA
HETATM    3  N3  UNL     1     -12.983  -9.406  -1.740  1.00  0.00    -0.330 N 
HETATM    4  C17 UNL     1     -12.916  -8.059  -2.271  1.00  0.00     0.143 C 
HETATM    5  C18 UNL     1     -14.042  -7.977  -3.242  1.00  0.00     0.079 C 
HETATM    6 BR1  UNL     1     -15.063  -6.386  -2.844  1.00  0.00    -0.089 Br
HETATM    7  C19 UNL     1     -14.878  -9.228  -3.020  1.00  0.00     0.058 C 
HETATM    8  C20 UNL     1     -14.371  -9.761  -1.676  1.00  0.00     0.196 C 
HETATM    9  C21 UNL     1     -14.966  -8.974  -0.574  1.00  0.00     0.085 C 
HETATM   10  N4  UNL     1     -15.437  -8.357   0.277  1.00  0.00    -0.195 NA
ENDROOT
BRANCH   1  11
HETATM   11  C15 UNL     1     -10.523  -9.632  -1.508  1.00  0.00     0.105 C 
BRANCH  11  12
HETATM   12  C14 UNL     1      -9.448  -9.877  -0.543  1.00  0.00     0.059 C 
HETATM   13  C22 UNL     1      -9.227  -9.013   0.597  1.00  0.00     0.039 C 
BRANCH  12  14
HETATM   14  N2  UNL     1      -8.294 -10.285  -1.283  1.00  0.00    -0.369 N 
HETATM   15  C13 UNL     1      -8.341 -11.682  -1.673  1.00  0.00     0.165 C 
HETATM   16  C12 UNL     1      -6.997 -12.190  -1.956  1.00  0.00    -0.004 A 
HETATM   17  C5  UNL     1      -6.234 -11.367  -2.805  1.00  0.00     0.034 A 
HETATM   18  C11 UNL     1      -6.260 -13.256  -1.611  1.00  0.00     0.000 A 
HETATM   19  C4  UNL     1      -6.960 -10.177  -3.239  1.00  0.00     0.158 C 
HETATM   20  N1  UNL     1      -5.044 -11.951  -2.957  1.00  0.00    -0.358 N 
HETATM   21  C33 UNL     1      -7.491  -9.438  -2.020  1.00  0.00     0.100 C 
HETATM   22  C34 UNL     1      -8.031  -8.162  -2.550  1.00  0.00     0.033 C 
HETATM   23  C6  UNL     1      -5.016 -13.116  -2.240  1.00  0.00     0.043 A 
ATOM     24  H1  UNL     1      -4.276 -11.586  -3.520  1.00  0.00     0.166 HD
HETATM   25  C7  UNL     1      -4.036 -14.047  -2.082  1.00  0.00     0.030 A 
HETATM   26  C8  UNL     1      -4.227 -15.164  -1.298  1.00  0.00     0.002 A 
HETATM   27  C9  UNL     1      -5.448 -15.327  -0.664  1.00  0.00     0.001 A 
HETATM   28  C10 UNL     1      -6.430 -14.385  -0.828  1.00  0.00     0.014 A 
BRANCH  19  29
HETATM   29  C3  UNL     1      -6.253  -9.361  -4.215  1.00  0.00     0.270 C 
HETATM   30  O2  UNL     1      -5.059  -9.063  -4.221  1.00  0.00    -0.264 OA
BRANCH  29  31
HETATM   31  O1  UNL     1      -7.000  -8.829  -5.297  1.00  0.00    -0.321 OA
BRANCH  31  32
HETATM   32  C2  UNL     1      -7.949  -9.620  -5.984  1.00  0.00     0.174 C 
HETATM   33  C1  UNL     1      -7.615  -9.793  -7.435  1.00  0.00     0.034 C 
ENDBRANCH  31  32
ENDBRANCH  29  31
ENDBRANCH  19  29
ENDBRANCH  12  14
BRANCH  13  34
HETATM   34  C23 UNL     1      -8.131  -9.365   1.540  1.00  0.00     0.064 C 
BRANCH  34  35
HETATM   35  C24 UNL     1      -6.992  -8.358   1.314  1.00  0.00     0.044 C 
BRANCH  35  36
HETATM   36  C25 UNL     1      -5.689  -9.052   1.298  1.00  0.00    -0.058 A 
HETATM   37  C26 UNL     1      -5.566 -10.378   0.960  1.00  0.00     0.007 A 
HETATM   38  C27 UNL     1      -4.326 -11.007   0.958  1.00  0.00     0.001 A 
HETATM   39  C28 UNL     1      -3.195 -10.308   1.296  1.00  0.00     0.000 A 
HETATM   40  C29 UNL     1      -3.300  -8.989   1.635  1.00  0.00     0.001 A 
HETATM   41  C30 UNL     1      -4.541  -8.377   1.632  1.00  0.00     0.007 A 
ENDBRANCH  35  36
ENDBRANCH  34  35
ENDBRANCH  13  34
BRANCH  13  42
HETATM   42  N5  UNL     1      -9.865  -7.942   0.933  1.00  0.00    -0.329 N 
HETATM   43  C31 UNL     1     -10.742  -7.803   2.020  1.00  0.00     0.217 C 
HETATM   44  C32 UNL     1     -12.198  -7.984   1.782  1.00  0.00     0.117 C 
HETATM   45  O4  UNL     1     -10.342  -7.537   3.172  1.00  0.00    -0.274 OA
ATOM     46  H5  UNL     1      -9.716  -7.117   0.352  1.00  0.00     0.168 HD
ENDBRANCH  13  42
ENDBRANCH  11  12
ENDBRANCH   1  11
TORSDOF 10
ENDMDL
MODEL 4
REMARK VINA RESULT: -8.171867885      3.012      6.403
REMARK  10 active torsions:
REMARK  status: ('A' for Active; 'I' for Inactive)
REMARK    1  A    between atoms: C2_2  and  O1_3 
REMARK    2  A    between atoms: O1_3  and  C3_4 
REMARK    3  A    between atoms: C3_4  and  C4_6 
REMARK    4  A    between atoms: N2_18  and  C14_19 
REMARK    5  A    between atoms: C14_19  and  C15_20 
REMARK    6  A    between atoms: C15_20  and  C16_21 
REMARK       I    between atoms: C16_21  and  N3_23 
REMARK    7  A    between atoms: C22_31  and  C23_32 
REMARK    8  A    between atoms: C22_31  and  N5_40 
REMARK    9  A    between atoms: C23_32  and  C24_33 
REMARK   10  A    between atoms: C24_33  and  C25_34 
REMARK       I    between atoms: N5_40  and  C31_42 
ROOT
HETATM    1  C16 UNL     1      -6.544  -7.517   0.731  1.00  0.00     0.246 C 
HETATM    2  O3  UNL     1      -6.521  -6.339   0.350  1.00  0.00    -0.268 OA
HETATM    3  N3  UNL     1      -5.278  -8.112   1.094  1.00  0.00    -0.330 N 
HETATM    4  C17 UNL     1      -5.108  -9.472   1.562  1.00  0.00     0.143 C 
HETATM    5  C18 UNL     1      -3.788  -9.898   1.018  1.00  0.00     0.079 C 
HETATM    6 BR1  UNL     1      -2.751 -10.639   2.470  1.00  0.00    -0.089 Br
HETATM    7  C19 UNL     1      -3.135  -8.639   0.471  1.00  0.00     0.058 C 
HETATM    8  C20 UNL     1      -3.976  -7.510   1.075  1.00  0.00     0.196 C 
HETATM    9  C21 UNL     1      -3.580  -7.295   2.484  1.00  0.00     0.085 C 
HETATM   10  N4  UNL     1      -3.262  -7.134   3.579  1.00  0.00    -0.195 NA
ENDROOT
BRANCH   1  11
HETATM   11  C15 UNL     1      -7.737  -8.316   0.833  1.00  0.00     0.105 C 
BRANCH  11  12
HETATM   12  C14 UNL     1      -8.556  -8.655  -0.333  1.00  0.00     0.059 C 
HETATM   13  C22 UNL     1      -9.945  -9.044  -0.208  1.00  0.00     0.039 C 
BRANCH  12  14
HETATM   14  N2  UNL     1      -7.742  -9.429  -1.218  1.00  0.00    -0.369 N 
HETATM   15  C13 UNL     1      -8.161 -10.815  -1.300  1.00  0.00     0.165 C 
HETATM   16  C12 UNL     1      -7.065 -11.664  -1.774  1.00  0.00    -0.004 A 
HETATM   17  C5  UNL     1      -6.412 -11.179  -2.921  1.00  0.00     0.034 A 
HETATM   18  C11 UNL     1      -6.483 -12.813  -1.399  1.00  0.00     0.000 A 
HETATM   19  C4  UNL     1      -6.983  -9.926  -3.408  1.00  0.00     0.158 C 
HETATM   20  N1  UNL     1      -5.442 -12.044  -3.220  1.00  0.00    -0.358 N 
HETATM   21  C33 UNL     1      -7.016  -8.913  -2.273  1.00  0.00     0.100 C 
HETATM   22  C34 UNL     1      -7.422  -7.636  -2.912  1.00  0.00     0.033 C 
HETATM   23  C6  UNL     1      -5.450 -13.066  -2.310  1.00  0.00     0.043 A 
ATOM     24  H1  UNL     1      -4.796 -11.958  -4.005  1.00  0.00     0.166 HD
HETATM   25  C7  UNL     1      -4.662 -14.169  -2.196  1.00  0.00     0.030 A 
HETATM   26  C8  UNL     1      -4.849 -15.083  -1.182  1.00  0.00     0.002 A 
HETATM   27  C9  UNL     1      -5.865 -14.857  -0.266  1.00  0.00     0.001 A 
HETATM   28  C10 UNL     1      -6.654 -13.743  -0.388  1.00  0.00     0.014 A 
BRANCH  19  29
HETATM   29  C3  UNL     1      -6.418  -9.451  -4.663  1.00  0.00     0.270 C 
HETATM   30  O2  UNL     1      -5.259  -9.097  -4.878  1.00  0.00    -0.264 OA
BRANCH  29  31
HETATM   31  O1  UNL     1      -7.277  -9.375  -5.788  1.00  0.00    -0.321 OA
BRANCH  31  32
HETATM   32  C2  UNL     1      -8.582  -9.919  -5.745  1.00  0.00     0.174 C 
HETATM   33  C1  UNL     1      -9.243  -9.941  -7.090  1.00  0.00     0.034 C 
ENDBRANCH  31  32
ENDBRANCH  29  31
ENDBRANCH  19  29
ENDBRANCH  12  14
BRANCH  13  34
HETATM   34  C23 UNL     1     -10.705  -9.336  -1.455  1.00  0.00     0.064 C 
BRANCH  34  35
HETATM   35  C24 UNL     1     -12.013 -10.028  -1.041  1.00  0.00     0.044 C 
BRANCH  35  36
HETATM   36  C25 UNL     1     -12.015 -11.434  -1.492  1.00  0.00    -0.058 A 
HETATM   37  C26 UNL     1     -13.030 -12.305  -1.179  1.00  0.00     0.007 A 
HETATM   38  C27 UNL     1     -13.003 -13.626  -1.614  1.00  0.00     0.001 A 
HETATM   39  C28 UNL     1     -11.952 -14.084  -2.369  1.00  0.00     0.000 A 
HETATM   40  C29 UNL     1     -10.936 -13.230  -2.689  1.00  0.00     0.001 A 
HETATM   41  C30 UNL     1     -10.977 -11.919  -2.249  1.00  0.00     0.007 A 
ENDBRANCH  35  36
ENDBRANCH  34  35
ENDBRANCH  13  34
BRANCH  13  42
HETATM   42  N5  UNL     1     -10.653  -9.177   0.863  1.00  0.00    -0.329 N 
HETATM   43  C31 UNL     1     -11.128  -8.141   1.680  1.00  0.00     0.217 C 
HETATM   44  C32 UNL     1     -10.326  -7.752   2.870  1.00  0.00     0.117 C 
HETATM   45  O4  UNL     1     -12.194  -7.536   1.442  1.00  0.00    -0.274 OA
ATOM     46  H5  UNL     1     -10.889 -10.129   1.142  1.00  0.00     0.168 HD
ENDBRANCH  13  42
ENDBRANCH  11  12
ENDBRANCH   1  11
TORSDOF 10
ENDMDL
MODEL 5
REMARK VINA RESULT: -8.159044083      2.695      6.236
REMARK  10 active torsions:
REMARK  status: ('A' for Active; 'I' for Inactive)
REMARK    1  A    between atoms: C2_2  and  O1_3 
REMARK    2  A    between atoms: O1_3  and  C3_4 
REMARK    3  A    between atoms: C3_4  and  C4_6 
REMARK    4  A    between atoms: N2_18  and  C14_19 
REMARK    5  A    between atoms: C14_19  and  C15_20 
REMARK    6  A    between atoms: C15_20  and  C16_21 
REMARK       I    between atoms: C16_21  and  N3_23 
REMARK    7  A    between atoms: C22_31  and  C23_32 
REMARK    8  A    between atoms: C22_31  and  N5_40 
REMARK    9  A    between atoms: C23_32  and  C24_33 
REMARK   10  A    between atoms: C24_33  and  C25_34 
REMARK       I    between atoms: N5_40  and  C31_42 
ROOT
HETATM    1  C16 UNL     1      -5.726  -9.104   1.199  1.00  0.00     0.246 C 
HETATM    2  O3  UNL     1      -5.160 -10.187   1.400  1.00  0.00    -0.268 OA
HETATM    3  N3  UNL     1      -4.887  -7.986   0.835  1.00  0.00    -0.330 N 
HETATM    4  C17 UNL     1      -5.367  -6.646   0.559  1.00  0.00     0.143 C 
HETATM    5  C18 UNL     1      -4.291  -5.747   1.061  1.00  0.00     0.079 C 
HETATM    6 BR1  UNL     1      -3.859  -4.488  -0.339  1.00  0.00    -0.089 Br
HETATM    7  C19 UNL     1      -3.103  -6.645   1.368  1.00  0.00     0.058 C 
HETATM    8  C20 UNL     1      -3.462  -7.961   0.669  1.00  0.00     0.196 C 
HETATM    9  C21 UNL     1      -3.199  -7.839  -0.781  1.00  0.00     0.085 C 
HETATM   10  N4  UNL     1      -2.987  -7.736  -1.909  1.00  0.00    -0.195 NA
ENDROOT
BRANCH   1  11
HETATM   11  C15 UNL     1      -7.146  -8.896   1.303  1.00  0.00     0.105 C 
BRANCH  11  12
HETATM   12  C14 UNL     1      -8.033  -8.934   0.137  1.00  0.00     0.059 C 
HETATM   13  C22 UNL     1      -9.464  -9.113   0.266  1.00  0.00     0.039 C 
BRANCH  12  14
HETATM   14  N2  UNL     1      -7.372  -9.694  -0.878  1.00  0.00    -0.369 N 
HETATM   15  C13 UNL     1      -7.828 -11.071  -0.936  1.00  0.00     0.165 C 
HETATM   16  C12 UNL     1      -6.830 -11.923  -1.588  1.00  0.00    -0.004 A 
HETATM   17  C5  UNL     1      -6.340 -11.414  -2.804  1.00  0.00     0.034 A 
HETATM   18  C11 UNL     1      -6.224 -13.092  -1.333  1.00  0.00     0.000 A 
HETATM   19  C4  UNL     1      -6.950 -10.137  -3.168  1.00  0.00     0.158 C 
HETATM   20  N1  UNL     1      -5.443 -12.286  -3.265  1.00  0.00    -0.358 N 
HETATM   21  C33 UNL     1      -6.797  -9.159  -2.013  1.00  0.00     0.100 C 
HETATM   22  C34 UNL     1      -7.263  -7.856  -2.550  1.00  0.00     0.033 C 
HETATM   23  C6  UNL     1      -5.340 -13.334  -2.392  1.00  0.00     0.043 A 
ATOM     24  H1  UNL     1      -4.916 -12.187  -4.132  1.00  0.00     0.166 HD
HETATM   25  C7  UNL     1      -4.567 -14.454  -2.424  1.00  0.00     0.030 A 
HETATM   26  C8  UNL     1      -4.624 -15.395  -1.419  1.00  0.00     0.002 A 
HETATM   27  C9  UNL     1      -5.492 -15.180  -0.359  1.00  0.00     0.001 A 
HETATM   28  C10 UNL     1      -6.266 -14.049  -0.334  1.00  0.00     0.014 A 
BRANCH  19  29
HETATM   29  C3  UNL     1      -6.563  -9.635  -4.478  1.00  0.00     0.270 C 
HETATM   30  O2  UNL     1      -5.436  -9.318  -4.858  1.00  0.00    -0.264 OA
BRANCH  29  31
HETATM   31  O1  UNL     1      -7.580  -9.478  -5.453  1.00  0.00    -0.321 OA
BRANCH  31  32
HETATM   32  C2  UNL     1      -8.847 -10.084  -5.286  1.00  0.00     0.174 C 
HETATM   33  C1  UNL     1      -9.912  -9.099  -4.908  1.00  0.00     0.034 C 
ENDBRANCH  31  32
ENDBRANCH  29  31
ENDBRANCH  19  29
ENDBRANCH  12  14
BRANCH  13  34
HETATM   34  C23 UNL     1     -10.285  -9.104  -0.975  1.00  0.00     0.064 C 
BRANCH  34  35
HETATM   35  C24 UNL     1     -11.620  -9.791  -0.645  1.00  0.00     0.044 C 
BRANCH  35  36
HETATM   36  C25 UNL     1     -11.678 -11.126  -1.273  1.00  0.00    -0.058 A 
HETATM   37  C26 UNL     1     -10.694 -11.587  -2.113  1.00  0.00     0.007 A 
HETATM   38  C27 UNL     1     -10.777 -12.848  -2.694  1.00  0.00     0.001 A 
HETATM   39  C28 UNL     1     -11.854 -13.658  -2.436  1.00  0.00     0.000 A 
HETATM   40  C29 UNL     1     -12.841 -13.215  -1.603  1.00  0.00     0.001 A 
HETATM   41  C30 UNL     1     -12.744 -11.959  -1.032  1.00  0.00     0.007 A 
ENDBRANCH  35  36
ENDBRANCH  34  35
ENDBRANCH  13  34
BRANCH  13  42
HETATM   42  N5  UNL     1     -10.162  -9.283   1.339  1.00  0.00    -0.329 N 
HETATM   43  C31 UNL     1     -10.636  -8.274   2.191  1.00  0.00     0.217 C 
HETATM   44  C32 UNL     1      -9.827  -7.917   3.386  1.00  0.00     0.117 C 
HETATM   45  O4  UNL     1     -11.707  -7.668   1.979  1.00  0.00    -0.274 OA
ATOM     46  H5  UNL     1     -10.391 -10.244   1.591  1.00  0.00     0.168 HD
ENDBRANCH  13  42
ENDBRANCH  11  12
ENDBRANCH   1  11
TORSDOF 10
ENDMDL
