MODEL 1
REMARK VINA RESULT: -6.521904247      0.000      0.000
REMARK  5 active torsions:
REMARK  status: ('A' for Active; 'I' for Inactive)
REMARK    1  A    between atoms: C2_2  and  C3_3 
REMARK    2  A    between atoms: N1_5  and  C5_6 
REMARK    3  A    between atoms: C5_6  and  C6_7 
REMARK       I    between atoms: C6_7  and  N2_9 
REMARK    4  A    between atoms: N2_9  and  C7_11 
REMARK    5  A    between atoms: N3_16  and  C12_17 
ROOT
HETATM    1  C3  UNL     1      61.934   9.882  11.068  1.00  0.00     0.134 C 
HETATM    2  C4  UNL     1      62.639  11.230  11.099  1.00  0.00     0.302 C 
HETATM    3  N1  UNL     1      63.615  11.249  12.171  1.00  0.00     0.104 N 
HETATM    4  C10 UNL     1      64.463  10.095  12.155  1.00  0.00     0.317 C 
HETATM    5  C11 UNL     1      64.188   9.084  11.092  1.00  0.00     0.089 C 
HETATM    6  N3  UNL     1      62.860   8.885  10.693  1.00  0.00    -0.378 N 
ENDROOT
BRANCH   3   7
HETATM    7  C5  UNL     1      62.994  11.506  13.447  1.00  0.00     0.375 C 
BRANCH   7   8
HETATM    8  C6  UNL     1      63.402  12.831  13.940  1.00  0.00     0.246 C 
HETATM    9  O1  UNL     1      64.137  12.932  14.947  1.00  0.00    -0.272 OA
HETATM   10  N2  UNL     1      62.964  14.008  13.275  1.00  0.00    -0.356 N 
ATOM     11  H2  UNL     1      62.362  13.941  12.454  1.00  0.00     0.162 HD
BRANCH  10  12
HETATM   12  C7  UNL     1      63.376  15.297  13.770  1.00  0.00     0.076 C 
HETATM   13  C8  UNL     1      64.419  15.835  12.811  1.00  0.00     0.032 C 
HETATM   14  C9  UNL     1      62.179  16.195  13.856  1.00  0.00     0.032 C 
ENDBRANCH  10  12
ENDBRANCH   7   8
ENDBRANCH   3   7
BRANCH   1  15
HETATM   15  C2  UNL     1      60.701   9.948  10.295  1.00  0.00    -0.010 C 
HETATM   16  C1  UNL     1      60.279  11.074   9.750  1.00  0.00     0.009 C 
ENDBRANCH   1  15
BRANCH   6  17
HETATM   17  C12 UNL     1      62.616   8.109   9.550  1.00  0.00     0.076 C 
HETATM   18  C13 UNL     1      62.609   6.631   9.876  1.00  0.00     0.032 C 
HETATM   19  C14 UNL     1      63.571   8.334   8.411  1.00  0.00     0.032 C 
ENDBRANCH   6  17
TORSDOF 5
ENDMDL
MODEL 2
REMARK VINA RESULT: -6.315148866      2.983      3.509
REMARK  5 active torsions:
REMARK  status: ('A' for Active; 'I' for Inactive)
REMARK    1  A    between atoms: C2_2  and  C3_3 
REMARK    2  A    between atoms: N1_5  and  C5_6 
REMARK    3  A    between atoms: C5_6  and  C6_7 
REMARK       I    between atoms: C6_7  and  N2_9 
REMARK    4  A    between atoms: N2_9  and  C7_11 
REMARK    5  A    between atoms: N3_16  and  C12_17 
ROOT
HETATM    1  C3  UNL     1      60.924   9.608  10.713  1.00  0.00     0.134 C 
HETATM    2  C4  UNL     1      61.464   9.948   9.333  1.00  0.00     0.302 C 
HETATM    3  N1  UNL     1      62.785  10.533   9.452  1.00  0.00     0.104 N 
HETATM    4  C10 UNL     1      63.648   9.759  10.293  1.00  0.00     0.317 C 
HETATM    5  C11 UNL     1      63.052   8.537  10.910  1.00  0.00     0.089 C 
HETATM    6  N3  UNL     1      61.699   8.567  11.268  1.00  0.00    -0.378 N 
ENDROOT
BRANCH   3   7
HETATM    7  C5  UNL     1      62.715  11.929   9.807  1.00  0.00     0.375 C 
BRANCH   7   8
HETATM    8  C6  UNL     1      64.032  12.557   9.612  1.00  0.00     0.246 C 
HETATM    9  O1  UNL     1      64.524  12.653   8.466  1.00  0.00    -0.272 OA
HETATM   10  N2  UNL     1      64.757  13.061  10.726  1.00  0.00    -0.356 N 
ATOM     11  H2  UNL     1      64.369  12.988  11.667  1.00  0.00     0.162 HD
BRANCH  10  12
HETATM   12  C7  UNL     1      66.043  13.676  10.516  1.00  0.00     0.076 C 
HETATM   13  C8  UNL     1      65.921  15.128  10.933  1.00  0.00     0.032 C 
HETATM   14  C9  UNL     1      67.072  12.947  11.325  1.00  0.00     0.032 C 
ENDBRANCH  10  12
ENDBRANCH   7   8
ENDBRANCH   3   7
BRANCH   1  15
HETATM   15  C2  UNL     1      59.482   9.399  10.681  1.00  0.00    -0.010 C 
HETATM   16  C1  UNL     1      58.665  10.055  11.484  1.00  0.00     0.009 C 
ENDBRANCH   1  15
BRANCH   6  17
HETATM   17  C12 UNL     1      61.079   7.364  11.638  1.00  0.00     0.076 C 
HETATM   18  C13 UNL     1      60.996   7.223  13.142  1.00  0.00     0.032 C 
HETATM   19  C14 UNL     1      61.719   6.121  11.084  1.00  0.00     0.032 C 
ENDBRANCH   6  17
TORSDOF 5
ENDMDL
MODEL 3
REMARK VINA RESULT: -6.267655255      2.713      4.000
REMARK  5 active torsions:
REMARK  status: ('A' for Active; 'I' for Inactive)
REMARK    1  A    between atoms: C2_2  and  C3_3 
REMARK    2  A    between atoms: N1_5  and  C5_6 
REMARK    3  A    between atoms: C5_6  and  C6_7 
REMARK       I    between atoms: C6_7  and  N2_9 
REMARK    4  A    between atoms: N2_9  and  C7_11 
REMARK    5  A    between atoms: N3_16  and  C12_17 
ROOT
HETATM    1  C3  UNL     1      62.356   8.272   9.919  1.00  0.00     0.134 C 
HETATM    2  C4  UNL     1      63.444   9.181  10.467  1.00  0.00     0.302 C 
HETATM    3  N1  UNL     1      62.971  10.552  10.493  1.00  0.00     0.104 N 
HETATM    4  C10 UNL     1      61.683  10.671  11.107  1.00  0.00     0.317 C 
HETATM    5  C11 UNL     1      61.050   9.401  11.572  1.00  0.00     0.089 C 
HETATM    6  N3  UNL     1      61.281   8.235  10.833  1.00  0.00    -0.378 N 
ENDROOT
BRANCH   3   7
HETATM    7  C5  UNL     1      63.063  11.168   9.193  1.00  0.00     0.375 C 
BRANCH   7   8
HETATM    8  C6  UNL     1      64.056  12.253   9.226  1.00  0.00     0.246 C 
HETATM    9  O1  UNL     1      64.427  12.805   8.167  1.00  0.00    -0.272 OA
HETATM   10  N2  UNL     1      64.604  12.684  10.466  1.00  0.00    -0.356 N 
ATOM     11  H2  UNL     1      64.313  12.242  11.338  1.00  0.00     0.162 HD
BRANCH  10  12
HETATM   12  C7  UNL     1      65.574  13.750  10.480  1.00  0.00     0.076 C 
HETATM   13  C8  UNL     1      64.952  14.913  11.228  1.00  0.00     0.032 C 
HETATM   14  C9  UNL     1      66.826  13.264  11.143  1.00  0.00     0.032 C 
ENDBRANCH  10  12
ENDBRANCH   7   8
ENDBRANCH   3   7
BRANCH   1  15
HETATM   15  C2  UNL     1      62.901   6.986   9.504  1.00  0.00    -0.010 C 
HETATM   16  C1  UNL     1      63.985   6.897   8.755  1.00  0.00     0.009 C 
ENDBRANCH   1  15
BRANCH   6  17
HETATM   17  C12 UNL     1      60.880   7.006  11.381  1.00  0.00     0.076 C 
HETATM   18  C13 UNL     1      59.448   6.679  11.017  1.00  0.00     0.032 C 
HETATM   19  C14 UNL     1      61.021   6.898  12.873  1.00  0.00     0.032 C 
ENDBRANCH   6  17
TORSDOF 5
ENDMDL
MODEL 4
REMARK VINA RESULT: -6.255359143      3.444      7.443
REMARK  5 active torsions:
REMARK  status: ('A' for Active; 'I' for Inactive)
REMARK    1  A    between atoms: C2_2  and  C3_3 
REMARK    2  A    between atoms: N1_5  and  C5_6 
REMARK    3  A    between atoms: C5_6  and  C6_7 
REMARK       I    between atoms: C6_7  and  N2_9 
REMARK    4  A    between atoms: N2_9  and  C7_11 
REMARK    5  A    between atoms: N3_16  and  C12_17 
ROOT
HETATM    1  C3  UNL     1      62.168   9.935  10.414  1.00  0.00     0.134 C 
HETATM    2  C4  UNL     1      63.576   9.367  10.330  1.00  0.00     0.302 C 
HETATM    3  N1  UNL     1      63.758   8.688   9.062  1.00  0.00     0.104 N 
HETATM    4  C10 UNL     1      63.334   9.488   7.952  1.00  0.00     0.317 C 
HETATM    5  C11 UNL     1      62.766  10.830   8.279  1.00  0.00     0.089 C 
HETATM    6  N3  UNL     1      62.029  10.968   9.462  1.00  0.00    -0.378 N 
ENDROOT
BRANCH   3   7
HETATM    7  C5  UNL     1      63.187   7.364   9.084  1.00  0.00     0.375 C 
BRANCH   7   8
HETATM    8  C6  UNL     1      64.239   6.366   8.833  1.00  0.00     0.246 C 
HETATM    9  O1  UNL     1      65.364   6.723   8.419  1.00  0.00    -0.272 OA
HETATM   10  N2  UNL     1      63.985   4.986   9.059  1.00  0.00    -0.356 N 
ATOM     11  H2  UNL     1      63.071   4.680   9.394  1.00  0.00     0.162 HD
BRANCH  10  12
HETATM   12  C7  UNL     1      65.027   4.023   8.810  1.00  0.00     0.076 C 
HETATM   13  C8  UNL     1      64.870   2.916   9.834  1.00  0.00     0.032 C 
HETATM   14  C9  UNL     1      64.897   3.511   7.408  1.00  0.00     0.032 C 
ENDBRANCH  10  12
ENDBRANCH   7   8
ENDBRANCH   3   7
BRANCH   1  15
HETATM   15  C2  UNL     1      61.812  10.265  11.787  1.00  0.00    -0.010 C 
HETATM   16  C1  UNL     1      62.206   9.525  12.807  1.00  0.00     0.009 C 
ENDBRANCH   1  15
BRANCH   6  17
HETATM   17  C12 UNL     1      61.685  12.260   9.887  1.00  0.00     0.076 C 
HETATM   18  C13 UNL     1      60.862  12.985   8.845  1.00  0.00     0.032 C 
HETATM   19  C14 UNL     1      62.847  13.138  10.262  1.00  0.00     0.032 C 
ENDBRANCH   6  17
TORSDOF 5
ENDMDL
MODEL 5
REMARK VINA RESULT: -6.208057777      3.154      5.546
REMARK  5 active torsions:
REMARK  status: ('A' for Active; 'I' for Inactive)
REMARK    1  A    between atoms: C2_2  and  C3_3 
REMARK    2  A    between atoms: N1_5  and  C5_6 
REMARK    3  A    between atoms: C5_6  and  C6_7 
REMARK       I    between atoms: C6_7  and  N2_9 
REMARK    4  A    between atoms: N2_9  and  C7_11 
REMARK    5  A    between atoms: N3_16  and  C12_17 
ROOT
HETATM    1  C3  UNL     1      63.030  11.609  10.928  1.00  0.00     0.134 C 
HETATM    2  C4  UNL     1      63.742  12.651  10.080  1.00  0.00     0.302 C 
HETATM    3  N1  UNL     1      63.171  13.961  10.330  1.00  0.00     0.104 N 
HETATM    4  C10 UNL     1      63.066  14.250  11.729  1.00  0.00     0.317 C 
HETATM    5  C11 UNL     1      63.519  13.178  12.664  1.00  0.00     0.089 C 
HETATM    6  N3  UNL     1      63.321  11.843  12.289  1.00  0.00    -0.378 N 
ENDROOT
BRANCH   3   7
HETATM    7  C5  UNL     1      61.944  14.151   9.597  1.00  0.00     0.375 C 
BRANCH   7   8
HETATM    8  C6  UNL     1      62.112  13.672   8.215  1.00  0.00     0.246 C 
HETATM    9  O1  UNL     1      62.869  14.274   7.424  1.00  0.00    -0.272 OA
HETATM   10  N2  UNL     1      61.412  12.518   7.768  1.00  0.00    -0.356 N 
ATOM     11  H2  UNL     1      60.788  12.017   8.402  1.00  0.00     0.162 HD
BRANCH  10  12
HETATM   12  C7  UNL     1      61.590  12.061   6.413  1.00  0.00     0.076 C 
HETATM   13  C8  UNL     1      62.561  10.897   6.455  1.00  0.00     0.032 C 
HETATM   14  C9  UNL     1      60.260  11.660   5.853  1.00  0.00     0.032 C 
ENDBRANCH  10  12
ENDBRANCH   7   8
ENDBRANCH   3   7
BRANCH   1  15
HETATM   15  C2  UNL     1      63.282  10.262  10.432  1.00  0.00    -0.010 C 
HETATM   16  C1  UNL     1      62.327   9.526   9.895  1.00  0.00     0.009 C 
ENDBRANCH   1  15
BRANCH   6  17
HETATM   17  C12 UNL     1      63.937  10.837  13.049  1.00  0.00     0.076 C 
HETATM   18  C13 UNL     1      63.234  10.634  14.372  1.00  0.00     0.032 C 
HETATM   19  C14 UNL     1      65.400  11.053  13.323  1.00  0.00     0.032 C 
ENDBRANCH   6  17
TORSDOF 5
ENDMDL
