MODEL 1
REMARK VINA RESULT: -6.374414753      0.000      0.000
REMARK  2 active torsions:
REMARK  status: ('A' for Active; 'I' for Inactive)
REMARK    1  A    between atoms: C2_2  and  N1_3 
REMARK    2  A    between atoms: N2_5  and  N3_7 
REMARK       I    between atoms: N3_7  and  C4_9 
REMARK       I    between atoms: N6_14  and  C5_15 
ROOT
HETATM    1  N1  UNL     1     -23.898  44.208  10.416  1.00  0.00    -0.210 N 
HETATM    2  C3  UNL     1     -23.973  45.424   9.649  1.00  0.00     0.701 C 
HETATM    3  N2  UNL     1     -23.133  45.903   8.800  1.00  0.00    -0.129 N 
ATOM      4  H2  UNL     1     -23.397  46.791   8.372  1.00  0.00     0.205 HD
HETATM    5  N6  UNL     1     -25.225  46.030  10.045  1.00  0.00    -0.139 N 
HETATM    6  C5  UNL     1     -25.858  47.137   9.405  1.00  0.00     0.235 C 
HETATM    7  C6  UNL     1     -25.211  47.757   8.227  1.00  0.00     0.118 C 
HETATM    8  O1  UNL     1     -26.947  47.612   9.802  1.00  0.00    -0.273 OA
HETATM    9  C7  UNL     1     -25.735  45.327  11.209  1.00  0.00     0.071 C 
HETATM   10  C8  UNL     1     -26.966  44.533  10.915  1.00  0.00     0.041 C 
HETATM   11  C9  UNL     1     -26.106  46.386  12.227  1.00  0.00     0.041 C 
HETATM   12  C10 UNL     1     -24.561  44.535  11.661  1.00  0.00     0.126 C 
HETATM   13  C11 UNL     1     -24.857  43.390  12.550  1.00  0.00     0.035 C 
ENDROOT
BRANCH   1  14
HETATM   14  C2  UNL     1     -23.291  42.976   9.990  1.00  0.00     0.137 C 
HETATM   15  C1  UNL     1     -21.988  42.665  10.718  1.00  0.00     0.027 C 
ENDBRANCH   1  14
BRANCH   3  16
HETATM   16  N3  UNL     1     -21.938  45.384   8.394  1.00  0.00    -0.260 N 
HETATM   17  C4  UNL     1     -20.666  45.763   8.902  1.00  0.00     0.201 C 
HETATM   18  N4  UNL     1     -19.897  46.414   8.103  1.00  0.00    -0.372 N 
HETATM   19  N5  UNL     1     -20.209  45.473  10.213  1.00  0.00    -0.062 NA
ATOM     20  H42 UNL     1     -20.226  46.622   7.160  1.00  0.00     0.158 HD
ATOM     21  H41 UNL     1     -18.984  46.685   8.468  1.00  0.00     0.158 HD
ATOM     22  H3  UNL     1     -21.959  44.668   7.668  1.00  0.00     0.190 HD
ENDBRANCH   3  16
TORSDOF 2
ENDMDL
MODEL 2
REMARK VINA RESULT: -5.336776351      1.668      3.577
REMARK  2 active torsions:
REMARK  status: ('A' for Active; 'I' for Inactive)
REMARK    1  A    between atoms: C2_2  and  N1_3 
REMARK    2  A    between atoms: N2_5  and  N3_7 
REMARK       I    between atoms: N3_7  and  C4_9 
REMARK       I    between atoms: N6_14  and  C5_15 
ROOT
HETATM    1  N1  UNL     1     -25.126  46.471   9.416  1.00  0.00    -0.210 N 
HETATM    2  C3  UNL     1     -24.371  45.328   9.858  1.00  0.00     0.701 C 
HETATM    3  N2  UNL     1     -23.274  44.848   9.389  1.00  0.00    -0.129 N 
ATOM      4  H2  UNL     1     -22.915  44.020   9.866  1.00  0.00     0.205 HD
HETATM    5  N6  UNL     1     -25.125  44.800  10.974  1.00  0.00    -0.139 N 
HETATM    6  C5  UNL     1     -24.677  43.803  11.889  1.00  0.00     0.235 C 
HETATM    7  C6  UNL     1     -23.325  43.223  11.722  1.00  0.00     0.118 C 
HETATM    8  O1  UNL     1     -25.384  43.390  12.838  1.00  0.00    -0.273 OA
HETATM    9  C7  UNL     1     -26.423  45.451  11.009  1.00  0.00     0.071 C 
HETATM   10  C8  UNL     1     -26.583  46.366  12.180  1.00  0.00     0.041 C 
HETATM   11  C9  UNL     1     -27.457  44.352  11.142  1.00  0.00     0.041 C 
HETATM   12  C10 UNL     1     -26.504  46.106   9.676  1.00  0.00     0.126 C 
HETATM   13  C11 UNL     1     -27.492  47.200   9.552  1.00  0.00     0.035 C 
ENDROOT
BRANCH   1  14
HETATM   14  C2  UNL     1     -24.583  47.677   8.853  1.00  0.00     0.137 C 
HETATM   15  C1  UNL     1     -25.186  48.032   7.498  1.00  0.00     0.027 C 
ENDBRANCH   1  14
BRANCH   3  16
HETATM   16  N3  UNL     1     -22.525  45.294   8.339  1.00  0.00    -0.260 N 
HETATM   17  C4  UNL     1     -21.111  45.433   8.344  1.00  0.00     0.201 C 
HETATM   18  N4  UNL     1     -20.649  46.633   8.320  1.00  0.00    -0.372 N 
HETATM   19  N5  UNL     1     -20.199  44.346   8.374  1.00  0.00    -0.062 NA
ATOM     20  H42 UNL     1     -21.304  47.415   8.297  1.00  0.00     0.158 HD
ATOM     21  H41 UNL     1     -19.634  46.732   8.323  1.00  0.00     0.158 HD
ATOM     22  H3  UNL     1     -23.019  45.549   7.484  1.00  0.00     0.190 HD
ENDBRANCH   3  16
TORSDOF 2
ENDMDL
MODEL 3
REMARK VINA RESULT: -5.318705043      6.085      8.304
REMARK  2 active torsions:
REMARK  status: ('A' for Active; 'I' for Inactive)
REMARK    1  A    between atoms: C2_2  and  N1_3 
REMARK    2  A    between atoms: N2_5  and  N3_7 
REMARK       I    between atoms: N3_7  and  C4_9 
REMARK       I    between atoms: N6_14  and  C5_15 
ROOT
HETATM    1  N1  UNL     1     -30.487  45.057  14.101  1.00  0.00    -0.210 N 
HETATM    2  C3  UNL     1     -29.970  43.940  13.355  1.00  0.00     0.701 C 
HETATM    3  N2  UNL     1     -29.900  42.700  13.692  1.00  0.00    -0.129 N 
ATOM      4  H2  UNL     1     -29.490  42.076  12.996  1.00  0.00     0.205 HD
HETATM    5  N6  UNL     1     -29.518  44.511  12.105  1.00  0.00    -0.139 N 
HETATM    6  C5  UNL     1     -29.130  43.780  10.944  1.00  0.00     0.235 C 
HETATM    7  C6  UNL     1     -29.174  42.301  10.972  1.00  0.00     0.118 C 
HETATM    8  O1  UNL     1     -28.748  44.341   9.890  1.00  0.00    -0.273 OA
HETATM    9  C7  UNL     1     -29.520  45.958  12.227  1.00  0.00     0.071 C 
HETATM   10  C8  UNL     1     -30.572  46.610  11.389  1.00  0.00     0.041 C 
HETATM   11  C9  UNL     1     -28.174  46.438  11.726  1.00  0.00     0.041 C 
HETATM   12  C10 UNL     1     -29.654  46.169  13.693  1.00  0.00     0.126 C 
HETATM   13  C11 UNL     1     -30.121  47.509  14.113  1.00  0.00     0.035 C 
ENDROOT
BRANCH   1  14
HETATM   14  C2  UNL     1     -31.586  45.019  15.026  1.00  0.00     0.137 C 
HETATM   15  C1  UNL     1     -32.938  44.826  14.347  1.00  0.00     0.027 C 
ENDBRANCH   1  14
BRANCH   3  16
HETATM   16  N3  UNL     1     -30.300  42.106  14.854  1.00  0.00    -0.260 N 
HETATM   17  C4  UNL     1     -29.551  42.084  16.061  1.00  0.00     0.201 C 
HETATM   18  N4  UNL     1     -29.074  40.946  16.424  1.00  0.00    -0.372 N 
HETATM   19  N5  UNL     1     -29.303  43.222  16.870  1.00  0.00    -0.062 NA
ATOM     20  H42 UNL     1     -29.253  40.127  15.842  1.00  0.00     0.158 HD
ATOM     21  H41 UNL     1     -28.537  40.930  17.291  1.00  0.00     0.158 HD
ATOM     22  H3  UNL     1     -31.207  41.641  14.855  1.00  0.00     0.190 HD
ENDBRANCH   3  16
TORSDOF 2
ENDMDL
MODEL 4
REMARK VINA RESULT: -5.261076173      3.360      4.717
REMARK  2 active torsions:
REMARK  status: ('A' for Active; 'I' for Inactive)
REMARK    1  A    between atoms: C2_2  and  N1_3 
REMARK    2  A    between atoms: N2_5  and  N3_7 
REMARK       I    between atoms: N3_7  and  C4_9 
REMARK       I    between atoms: N6_14  and  C5_15 
ROOT
HETATM    1  N1  UNL     1     -27.378  46.346  12.177  1.00  0.00    -0.210 N 
HETATM    2  C3  UNL     1     -27.819  46.581  10.826  1.00  0.00     0.701 C 
HETATM    3  N2  UNL     1     -27.172  47.090   9.837  1.00  0.00    -0.129 N 
ATOM      4  H2  UNL     1     -27.691  47.163   8.962  1.00  0.00     0.205 HD
HETATM    5  N6  UNL     1     -29.191  46.124  10.803  1.00  0.00    -0.139 N 
HETATM    6  C5  UNL     1     -29.992  45.941   9.638  1.00  0.00     0.235 C 
HETATM    7  C6  UNL     1     -29.413  46.237   8.308  1.00  0.00     0.118 C 
HETATM    8  O1  UNL     1     -31.178  45.539   9.691  1.00  0.00    -0.273 OA
HETATM    9  C7  UNL     1     -29.624  45.882  12.168  1.00  0.00     0.071 C 
HETATM   10  C8  UNL     1     -29.833  44.432  12.463  1.00  0.00     0.041 C 
HETATM   11  C9  UNL     1     -30.960  46.579  12.330  1.00  0.00     0.041 C 
HETATM   12  C10 UNL     1     -28.569  46.548  12.976  1.00  0.00     0.126 C 
HETATM   13  C11 UNL     1     -28.472  46.124  14.390  1.00  0.00     0.035 C 
ENDROOT
BRANCH   1  14
HETATM   14  C2  UNL     1     -26.046  45.990  12.581  1.00  0.00     0.137 C 
HETATM   15  C1  UNL     1     -25.721  44.518  12.351  1.00  0.00     0.027 C 
ENDBRANCH   1  14
BRANCH   3  16
HETATM   16  N3  UNL     1     -25.886  47.545   9.801  1.00  0.00    -0.260 N 
HETATM   17  C4  UNL     1     -25.375  48.476   8.857  1.00  0.00     0.201 C 
HETATM   18  N4  UNL     1     -24.533  48.022   7.997  1.00  0.00    -0.372 N 
HETATM   19  N5  UNL     1     -25.734  49.848   8.809  1.00  0.00    -0.062 NA
ATOM     20  H42 UNL     1     -24.275  47.036   8.031  1.00  0.00     0.158 HD
ATOM     21  H41 UNL     1     -24.166  48.691   7.320  1.00  0.00     0.158 HD
ATOM     22  H3  UNL     1     -25.242  47.189  10.506  1.00  0.00     0.190 HD
ENDBRANCH   3  16
TORSDOF 2
ENDMDL
MODEL 5
REMARK VINA RESULT: -5.213003790      3.077      4.164
REMARK  2 active torsions:
REMARK  status: ('A' for Active; 'I' for Inactive)
REMARK    1  A    between atoms: C2_2  and  N1_3 
REMARK    2  A    between atoms: N2_5  and  N3_7 
REMARK       I    between atoms: N3_7  and  C4_9 
REMARK       I    between atoms: N6_14  and  C5_15 
ROOT
HETATM    1  N1  UNL     1     -26.792  46.140  11.004  1.00  0.00    -0.210 N 
HETATM    2  C3  UNL     1     -27.252  46.724   9.771  1.00  0.00     0.701 C 
HETATM    3  N2  UNL     1     -26.656  47.561   8.997  1.00  0.00    -0.129 N 
ATOM      4  H2  UNL     1     -27.177  47.842   8.166  1.00  0.00     0.205 HD
HETATM    5  N6  UNL     1     -28.572  46.167   9.571  1.00  0.00    -0.139 N 
HETATM    6  C5  UNL     1     -29.349  46.265   8.379  1.00  0.00     0.235 C 
HETATM    7  C6  UNL     1     -28.798  46.995   7.215  1.00  0.00     0.118 C 
HETATM    8  O1  UNL     1     -30.489  45.756   8.274  1.00  0.00    -0.273 OA
HETATM    9  C7  UNL     1     -28.981  45.491  10.789  1.00  0.00     0.071 C 
HETATM   10  C8  UNL     1     -29.047  44.006  10.636  1.00  0.00     0.041 C 
HETATM   11  C9  UNL     1     -30.379  45.981  11.108  1.00  0.00     0.041 C 
HETATM   12  C10 UNL     1     -27.998  45.984  11.791  1.00  0.00     0.126 C 
HETATM   13  C11 UNL     1     -27.863  45.169  13.018  1.00  0.00     0.035 C 
ENDROOT
BRANCH   1  14
HETATM   14  C2  UNL     1     -25.432  45.807  11.327  1.00  0.00     0.137 C 
HETATM   15  C1  UNL     1     -24.834  44.757  10.396  1.00  0.00     0.027 C 
ENDBRANCH   1  14
BRANCH   3  16
HETATM   16  N3  UNL     1     -25.421  48.125   9.136  1.00  0.00    -0.260 N 
HETATM   17  C4  UNL     1     -24.855  49.084   8.253  1.00  0.00     0.201 C 
HETATM   18  N4  UNL     1     -23.861  48.692   7.537  1.00  0.00    -0.372 N 
HETATM   19  N5  UNL     1     -25.316  50.418   8.117  1.00  0.00    -0.062 NA
ATOM     20  H42 UNL     1     -23.529  47.732   7.635  1.00  0.00     0.158 HD
ATOM     21  H41 UNL     1     -23.454  49.380   6.904  1.00  0.00     0.158 HD
ATOM     22  H3  UNL     1     -24.860  47.836   9.938  1.00  0.00     0.190 HD
ENDBRANCH   3  16
TORSDOF 2
ENDMDL
