MODEL 1
REMARK VINA RESULT: -8.581469497      0.000      0.000
REMARK  6 active torsions:
REMARK  status: ('A' for Active; 'I' for Inactive)
REMARK    1  A    between atoms: C2_2  and  C3_3 
REMARK    2  A    between atoms: C3_3  and  N1_4 
REMARK    3  A    between atoms: C3_3  and  O4_33 
REMARK    4  A    between atoms: N1_4  and  C4_6 
REMARK    5  A    between atoms: C7_14  and  O2_15 
REMARK    6  A    between atoms: O2_15  and  C8_16 
ROOT
HETATM    1  C4  UNL     1      -6.248 -31.409 -17.891  1.00  0.00     0.683 A 
HETATM    2  N2  UNL     1      -6.390 -30.340 -17.118  1.00  0.00    -0.154 N 
ATOM      3  H2  UNL     1      -5.867 -30.259 -16.245  1.00  0.00     0.187 HD
HETATM    4  C5  UNL     1      -7.231 -29.363 -17.499  1.00  0.00     0.288 A 
HETATM    5  O1  UNL     1      -7.397 -28.333 -16.801  1.00  0.00    -0.265 OA
HETATM    6  C6  UNL     1      -7.940 -29.460 -18.675  1.00  0.00     0.136 A 
HETATM    7  N3  UNL     1      -8.788 -28.509 -19.092  1.00  0.00    -0.315 N 
ATOM      8  H3  UNL     1      -8.908 -27.680 -18.509  1.00  0.00     0.169 HD
HETATM    9  C7  UNL     1      -9.489 -28.589 -20.237  1.00  0.00     0.228 A 
HETATM   10  N5  UNL     1      -9.351 -29.662 -21.019  1.00  0.00    -0.306 N 
ATOM     11  H5  UNL     1      -9.874 -29.740 -21.891  1.00  0.00     0.171 HD
HETATM   12  C12 UNL     1      -8.501 -30.647 -20.630  1.00  0.00     0.132 A 
HETATM   13  N6  UNL     1      -8.411 -31.646 -21.419  1.00  0.00    -0.383 N 
ATOM     14  H61 UNL     1      -7.773 -32.387 -21.126  1.00  0.00     0.157 HD
ATOM     15  H62 UNL     1      -8.949 -31.694 -22.284  1.00  0.00     0.157 HD
HETATM   16  C13 UNL     1      -7.781 -30.584 -19.472  1.00  0.00     0.125 A 
HETATM   17  N7  UNL     1      -6.942 -31.513 -19.047  1.00  0.00    -0.186 N 
ATOM     18  H7  UNL     1      -6.811 -32.348 -19.618  1.00  0.00     0.184 HD
ENDROOT
BRANCH   9  19
HETATM   19  O2  UNL     1     -10.321 -27.532 -20.531  1.00  0.00    -0.290 OA
BRANCH  19  20
HETATM   20  C8  UNL     1     -10.823 -26.581 -19.626  1.00  0.00     0.273 C 
HETATM   21  C9  UNL     1     -12.323 -26.882 -19.494  1.00  0.00     0.089 C 
HETATM   22  C10 UNL     1     -12.825 -27.152 -20.901  1.00  0.00     0.239 C 
HETATM   23  N4  UNL     1     -12.346 -26.111 -21.780  1.00  0.00    -0.054 N 
HETATM   24  C11 UNL     1     -11.826 -25.008 -21.003  1.00  0.00     0.402 C 
ATOM     25  H42 UNL     1     -11.662 -26.462 -22.451  1.00  0.00     0.279 HD
ATOM     26  H41 UNL     1     -13.061 -25.810 -22.441  1.00  0.00     0.279 HD
HETATM   27  O3  UNL     1     -10.719 -25.329 -20.252  1.00  0.00    -0.334 OA
ENDBRANCH  19  20
ENDBRANCH   9  19
BRANCH   1  28
HETATM   28  N1  UNL     1      -5.482 -32.356 -17.597  1.00  0.00    -0.199 N 
ATOM     29  H1  UNL     1      -5.707 -33.229 -18.074  1.00  0.00     0.180 HD
BRANCH  28  30
HETATM   30  C3  UNL     1      -4.358 -32.452 -16.725  1.00  0.00     0.236 C 
BRANCH  30  31
HETATM   31  C2  UNL     1      -4.708 -33.018 -15.360  1.00  0.00     0.050 C 
HETATM   32  C1  UNL     1      -3.618 -33.925 -14.841  1.00  0.00     0.009 C 
ENDBRANCH  30  31
BRANCH  30  33
HETATM   33  O4  UNL     1      -3.775 -31.200 -16.592  1.00  0.00    -0.371 OA
HETATM   34  C14 UNL     1      -2.566 -31.086 -17.257  1.00  0.00     0.204 C 
ENDBRANCH  30  33
ENDBRANCH  28  30
ENDBRANCH   1  28
TORSDOF 6
ENDMDL
MODEL 2
REMARK VINA RESULT: -8.185671188      0.893      1.337
REMARK  6 active torsions:
REMARK  status: ('A' for Active; 'I' for Inactive)
REMARK    1  A    between atoms: C2_2  and  C3_3 
REMARK    2  A    between atoms: C3_3  and  N1_4 
REMARK    3  A    between atoms: C3_3  and  O4_33 
REMARK    4  A    between atoms: N1_4  and  C4_6 
REMARK    5  A    between atoms: C7_14  and  O2_15 
REMARK    6  A    between atoms: O2_15  and  C8_16 
ROOT
HETATM    1  C4  UNL     1      -6.134 -31.368 -17.932  1.00  0.00     0.683 A 
HETATM    2  N2  UNL     1      -6.329 -30.325 -17.134  1.00  0.00    -0.154 N 
ATOM      3  H2  UNL     1      -5.855 -30.269 -16.232  1.00  0.00     0.187 HD
HETATM    4  C5  UNL     1      -7.159 -29.344 -17.529  1.00  0.00     0.288 A 
HETATM    5  O1  UNL     1      -7.374 -28.340 -16.808  1.00  0.00    -0.265 OA
HETATM    6  C6  UNL     1      -7.803 -29.409 -18.744  1.00  0.00     0.136 A 
HETATM    7  N3  UNL     1      -8.637 -28.453 -19.176  1.00  0.00    -0.315 N 
ATOM      8  H3  UNL     1      -8.798 -27.645 -18.574  1.00  0.00     0.169 HD
HETATM    9  C7  UNL     1      -9.274 -28.502 -20.360  1.00  0.00     0.228 A 
HETATM   10  N5  UNL     1      -9.082 -29.547 -21.167  1.00  0.00    -0.306 N 
ATOM     11  H5  UNL     1      -9.556 -29.602 -22.069  1.00  0.00     0.171 HD
HETATM   12  C12 UNL     1      -8.244 -30.537 -20.764  1.00  0.00     0.132 A 
HETATM   13  N6  UNL     1      -8.100 -31.509 -21.579  1.00  0.00    -0.383 N 
ATOM     14  H61 UNL     1      -7.471 -32.253 -21.276  1.00  0.00     0.157 HD
ATOM     15  H62 UNL     1      -8.589 -31.533 -22.473  1.00  0.00     0.157 HD
HETATM   16  C13 UNL     1      -7.588 -30.505 -19.567  1.00  0.00     0.125 A 
HETATM   17  N7  UNL     1      -6.763 -31.440 -19.127  1.00  0.00    -0.186 N 
ATOM     18  H7  UNL     1      -6.592 -32.254 -19.716  1.00  0.00     0.184 HD
ENDROOT
BRANCH   9  19
HETATM   19  O2  UNL     1     -10.100 -27.443 -20.664  1.00  0.00    -0.290 OA
BRANCH  19  20
HETATM   20  C8  UNL     1     -11.186 -27.455 -21.557  1.00  0.00     0.273 C 
HETATM   21  C9  UNL     1     -11.959 -26.155 -21.292  1.00  0.00     0.089 C 
HETATM   22  C10 UNL     1     -12.023 -26.002 -19.782  1.00  0.00     0.239 C 
HETATM   23  N4  UNL     1     -12.445 -27.255 -19.200  1.00  0.00    -0.054 N 
HETATM   24  C11 UNL     1     -12.964 -28.129 -20.229  1.00  0.00     0.402 C 
ATOM     25  H42 UNL     1     -11.700 -27.697 -18.662  1.00  0.00     0.279 HD
ATOM     26  H41 UNL     1     -13.114 -27.118 -18.442  1.00  0.00     0.279 HD
HETATM   27  O3  UNL     1     -12.026 -28.508 -21.162  1.00  0.00    -0.334 OA
ENDBRANCH  19  20
ENDBRANCH   9  19
BRANCH   1  28
HETATM   28  N1  UNL     1      -5.375 -32.317 -17.628  1.00  0.00    -0.199 N 
ATOM     29  H1  UNL     1      -5.579 -33.181 -18.128  1.00  0.00     0.180 HD
BRANCH  28  30
HETATM   30  C3  UNL     1      -4.282 -32.424 -16.718  1.00  0.00     0.236 C 
BRANCH  30  31
HETATM   31  C2  UNL     1      -4.684 -32.988 -15.366  1.00  0.00     0.050 C 
HETATM   32  C1  UNL     1      -3.638 -33.934 -14.829  1.00  0.00     0.009 C 
ENDBRANCH  30  31
BRANCH  30  33
HETATM   33  O4  UNL     1      -3.693 -31.176 -16.563  1.00  0.00    -0.371 OA
HETATM   34  C14 UNL     1      -2.456 -31.076 -17.179  1.00  0.00     0.204 C 
ENDBRANCH  30  33
ENDBRANCH  28  30
ENDBRANCH   1  28
TORSDOF 6
ENDMDL
MODEL 3
REMARK VINA RESULT: -7.984940482      1.277      1.347
REMARK  6 active torsions:
REMARK  status: ('A' for Active; 'I' for Inactive)
REMARK    1  A    between atoms: C2_2  and  C3_3 
REMARK    2  A    between atoms: C3_3  and  N1_4 
REMARK    3  A    between atoms: C3_3  and  O4_33 
REMARK    4  A    between atoms: N1_4  and  C4_6 
REMARK    5  A    between atoms: C7_14  and  O2_15 
REMARK    6  A    between atoms: O2_15  and  C8_16 
ROOT
HETATM    1  C4  UNL     1      -5.619 -30.213 -17.248  1.00  0.00     0.683 A 
HETATM    2  N2  UNL     1      -6.561 -29.742 -16.440  1.00  0.00    -0.154 N 
ATOM      3  H2  UNL     1      -6.420 -29.735 -15.429  1.00  0.00     0.187 HD
HETATM    4  C5  UNL     1      -7.705 -29.274 -16.971  1.00  0.00     0.288 A 
HETATM    5  O1  UNL     1      -8.623 -28.819 -16.247  1.00  0.00    -0.265 OA
HETATM    6  C6  UNL     1      -7.905 -29.278 -18.333  1.00  0.00     0.136 A 
HETATM    7  N3  UNL     1      -9.030 -28.821 -18.902  1.00  0.00    -0.315 N 
ATOM      8  H3  UNL     1      -9.764 -28.455 -18.295  1.00  0.00     0.169 HD
HETATM    9  C7  UNL     1      -9.242 -28.818 -20.230  1.00  0.00     0.228 A 
HETATM   10  N5  UNL     1      -8.298 -29.290 -21.048  1.00  0.00    -0.306 N 
ATOM     11  H5  UNL     1      -8.441 -29.296 -22.058  1.00  0.00     0.171 HD
HETATM   12  C12 UNL     1      -7.144 -29.763 -20.508  1.00  0.00     0.132 A 
HETATM   13  N6  UNL     1      -6.281 -30.199 -21.340  1.00  0.00    -0.383 N 
ATOM     14  H61 UNL     1      -5.414 -30.555 -20.934  1.00  0.00     0.157 HD
ATOM     15  H62 UNL     1      -6.455 -30.192 -22.345  1.00  0.00     0.157 HD
HETATM   16  C13 UNL     1      -6.911 -29.773 -19.163  1.00  0.00     0.125 A 
HETATM   17  N7  UNL     1      -5.808 -30.221 -18.587  1.00  0.00    -0.186 N 
ATOM     18  H7  UNL     1      -5.065 -30.590 -19.179  1.00  0.00     0.184 HD
ENDROOT
BRANCH   9  19
HETATM   19  O2  UNL     1     -10.447 -28.315 -20.665  1.00  0.00    -0.290 OA
BRANCH  19  20
HETATM   20  C8  UNL     1     -11.576 -28.038 -19.875  1.00  0.00     0.273 C 
HETATM   21  C9  UNL     1     -12.645 -27.512 -20.843  1.00  0.00     0.089 C 
HETATM   22  C10 UNL     1     -11.932 -26.553 -21.780  1.00  0.00     0.239 C 
HETATM   23  N4  UNL     1     -11.120 -25.648 -20.999  1.00  0.00    -0.054 N 
HETATM   24  C11 UNL     1     -11.485 -25.737 -19.602  1.00  0.00     0.402 C 
ATOM     25  H42 UNL     1     -10.123 -25.806 -21.145  1.00  0.00     0.279 HD
ATOM     26  H41 UNL     1     -11.171 -24.691 -21.348  1.00  0.00     0.279 HD
HETATM   27  O3  UNL     1     -11.231 -26.965 -19.038  1.00  0.00    -0.334 OA
ENDBRANCH  19  20
ENDBRANCH   9  19
BRANCH   1  28
HETATM   28  N1  UNL     1      -4.530 -30.663 -16.822  1.00  0.00    -0.199 N 
ATOM     29  H1  UNL     1      -3.890 -29.943 -16.489  1.00  0.00     0.180 HD
BRANCH  28  30
HETATM   30  C3  UNL     1      -4.012 -31.987 -16.711  1.00  0.00     0.236 C 
BRANCH  30  31
HETATM   31  C2  UNL     1      -4.726 -32.822 -15.662  1.00  0.00     0.050 C 
HETATM   32  C1  UNL     1      -3.766 -33.722 -14.923  1.00  0.00     0.009 C 
ENDBRANCH  30  31
BRANCH  30  33
HETATM   33  O4  UNL     1      -2.653 -31.923 -16.433  1.00  0.00    -0.371 OA
HETATM   34  C14 UNL     1      -1.977 -31.007 -17.221  1.00  0.00     0.204 C 
ENDBRANCH  30  33
ENDBRANCH  28  30
ENDBRANCH   1  28
TORSDOF 6
ENDMDL
MODEL 4
REMARK VINA RESULT: -7.845819516      0.749      1.375
REMARK  6 active torsions:
REMARK  status: ('A' for Active; 'I' for Inactive)
REMARK    1  A    between atoms: C2_2  and  C3_3 
REMARK    2  A    between atoms: C3_3  and  N1_4 
REMARK    3  A    between atoms: C3_3  and  O4_33 
REMARK    4  A    between atoms: N1_4  and  C4_6 
REMARK    5  A    between atoms: C7_14  and  O2_15 
REMARK    6  A    between atoms: O2_15  and  C8_16 
ROOT
HETATM    1  C4  UNL     1      -6.295 -31.178 -17.368  1.00  0.00     0.683 A 
HETATM    2  N2  UNL     1      -6.342 -29.974 -16.810  1.00  0.00    -0.154 N 
ATOM      3  H2  UNL     1      -5.770 -29.759 -15.993  1.00  0.00     0.187 HD
HETATM    4  C5  UNL     1      -7.155 -29.041 -17.337  1.00  0.00     0.288 A 
HETATM    5  O1  UNL     1      -7.233 -27.889 -16.844  1.00  0.00    -0.265 OA
HETATM    6  C6  UNL     1      -7.930 -29.319 -18.440  1.00  0.00     0.136 A 
HETATM    7  N3  UNL     1      -8.752 -28.417 -18.995  1.00  0.00    -0.315 N 
ATOM      8  H3  UNL     1      -8.800 -27.487 -18.579  1.00  0.00     0.169 HD
HETATM    9  C7  UNL     1      -9.517 -28.673 -20.072  1.00  0.00     0.228 A 
HETATM   10  N5  UNL     1      -9.473 -29.881 -20.637  1.00  0.00    -0.306 N 
ATOM     11  H5  UNL     1     -10.045 -30.094 -21.454  1.00  0.00     0.171 HD
HETATM   12  C12 UNL     1      -8.652 -30.822 -20.102  1.00  0.00     0.132 A 
HETATM   13  N6  UNL     1      -8.653 -31.957 -20.686  1.00  0.00    -0.383 N 
ATOM     14  H61 UNL     1      -8.037 -32.664 -20.284  1.00  0.00     0.157 HD
ATOM     15  H62 UNL     1      -9.238 -32.138 -21.502  1.00  0.00     0.157 HD
HETATM   16  C13 UNL     1      -7.869 -30.581 -19.011  1.00  0.00     0.125 A 
HETATM   17  N7  UNL     1      -7.054 -31.459 -18.451  1.00  0.00    -0.186 N 
ATOM     18  H7  UNL     1      -6.994 -32.394 -18.855  1.00  0.00     0.184 HD
ENDROOT
BRANCH   9  19
HETATM   19  O2  UNL     1     -10.310 -27.645 -20.528  1.00  0.00    -0.290 OA
BRANCH  19  20
HETATM   20  C8  UNL     1     -10.661 -26.479 -19.825  1.00  0.00     0.273 C 
HETATM   21  C9  UNL     1     -12.130 -26.662 -19.417  1.00  0.00     0.089 C 
HETATM   22  C10 UNL     1     -12.836 -27.241 -20.631  1.00  0.00     0.239 C 
HETATM   23  N4  UNL     1     -12.475 -26.469 -21.798  1.00  0.00    -0.054 N 
HETATM   24  C11 UNL     1     -11.831 -25.238 -21.397  1.00  0.00     0.402 C 
ATOM     25  H42 UNL     1     -11.903 -27.007 -22.449  1.00  0.00     0.279 HD
ATOM     26  H41 UNL     1     -13.275 -26.302 -22.408  1.00  0.00     0.279 HD
HETATM   27  O3  UNL     1     -10.631 -25.423 -20.750  1.00  0.00    -0.334 OA
ENDBRANCH  19  20
ENDBRANCH   9  19
BRANCH   1  28
HETATM   28  N1  UNL     1      -5.561 -32.094 -16.930  1.00  0.00    -0.199 N 
ATOM     29  H1  UNL     1      -5.716 -32.995 -17.382  1.00  0.00     0.180 HD
BRANCH  28  30
HETATM   30  C3  UNL     1      -4.551 -32.123 -15.924  1.00  0.00     0.236 C 
BRANCH  30  31
HETATM   31  C2  UNL     1      -3.147 -32.239 -16.491  1.00  0.00     0.050 C 
HETATM   32  C1  UNL     1      -2.706 -30.952 -17.145  1.00  0.00     0.009 C 
ENDBRANCH  30  31
BRANCH  30  33
HETATM   33  O4  UNL     1      -4.806 -33.172 -15.052  1.00  0.00    -0.371 OA
HETATM   34  C14 UNL     1      -3.675 -33.909 -14.739  1.00  0.00     0.204 C 
ENDBRANCH  30  33
ENDBRANCH  28  30
ENDBRANCH   1  28
TORSDOF 6
ENDMDL
MODEL 5
REMARK VINA RESULT: -7.761084358      1.536      2.414
REMARK  6 active torsions:
REMARK  status: ('A' for Active; 'I' for Inactive)
REMARK    1  A    between atoms: C2_2  and  C3_3 
REMARK    2  A    between atoms: C3_3  and  N1_4 
REMARK    3  A    between atoms: C3_3  and  O4_33 
REMARK    4  A    between atoms: N1_4  and  C4_6 
REMARK    5  A    between atoms: C7_14  and  O2_15 
REMARK    6  A    between atoms: O2_15  and  C8_16 
ROOT
HETATM    1  C4  UNL     1      -6.040 -31.593 -18.474  1.00  0.00     0.683 A 
HETATM    2  N2  UNL     1      -5.867 -31.543 -19.789  1.00  0.00    -0.154 N 
ATOM      3  H2  UNL     1      -5.209 -32.172 -20.249  1.00  0.00     0.187 HD
HETATM    4  C5  UNL     1      -6.572 -30.651 -20.508  1.00  0.00     0.288 A 
HETATM    5  O1  UNL     1      -6.442 -30.567 -21.754  1.00  0.00    -0.265 OA
HETATM    6  C6  UNL     1      -7.464 -29.798 -19.898  1.00  0.00     0.136 A 
HETATM    7  N3  UNL     1      -8.185 -28.895 -20.578  1.00  0.00    -0.315 N 
ATOM      8  H3  UNL     1      -8.065 -28.844 -21.590  1.00  0.00     0.169 HD
HETATM    9  C7  UNL     1      -9.060 -28.054 -19.997  1.00  0.00     0.228 A 
HETATM   10  N5  UNL     1      -9.238 -28.100 -18.675  1.00  0.00    -0.306 N 
ATOM     11  H5  UNL     1      -9.897 -27.470 -18.217  1.00  0.00     0.171 HD
HETATM   12  C12 UNL     1      -8.524 -29.001 -17.952  1.00  0.00     0.132 A 
HETATM   13  N6  UNL     1      -8.738 -28.998 -16.694  1.00  0.00    -0.383 N 
ATOM     14  H61 UNL     1      -8.201 -29.675 -16.151  1.00  0.00     0.157 HD
ATOM     15  H62 UNL     1      -9.404 -28.354 -16.267  1.00  0.00     0.157 HD
HETATM   16  C13 UNL     1      -7.633 -29.863 -18.523  1.00  0.00     0.125 A 
HETATM   17  N7  UNL     1      -6.913 -30.758 -17.867  1.00  0.00    -0.186 N 
ATOM     18  H7  UNL     1      -7.022 -30.822 -16.855  1.00  0.00     0.184 HD
ENDROOT
BRANCH   9  19
HETATM   19  O2  UNL     1      -9.728 -27.183 -20.828  1.00  0.00    -0.290 OA
BRANCH  19  20
HETATM   20  C8  UNL     1     -10.907 -27.446 -21.548  1.00  0.00     0.273 C 
HETATM   21  C9  UNL     1     -11.498 -26.073 -21.898  1.00  0.00     0.089 C 
HETATM   22  C10 UNL     1     -11.367 -25.225 -20.646  1.00  0.00     0.239 C 
HETATM   23  N4  UNL     1     -11.850 -25.980 -19.513  1.00  0.00    -0.054 N 
HETATM   24  C11 UNL     1     -12.578 -27.145 -19.969  1.00  0.00     0.402 C 
ATOM     25  H42 UNL     1     -11.099 -26.227 -18.869  1.00  0.00     0.279 HD
ATOM     26  H41 UNL     1     -12.406 -25.406 -18.879  1.00  0.00     0.279 HD
HETATM   27  O3  UNL     1     -11.802 -28.052 -20.653  1.00  0.00    -0.334 OA
ENDBRANCH  19  20
ENDBRANCH   9  19
BRANCH   1  28
HETATM   28  N1  UNL     1      -5.417 -32.398 -17.744  1.00  0.00    -0.199 N 
ATOM     29  H1  UNL     1      -5.716 -33.367 -17.854  1.00  0.00     0.180 HD
BRANCH  28  30
HETATM   30  C3  UNL     1      -4.372 -32.225 -16.789  1.00  0.00     0.236 C 
BRANCH  30  31
HETATM   31  C2  UNL     1      -4.737 -32.736 -15.406  1.00  0.00     0.050 C 
HETATM   32  C1  UNL     1      -3.783 -33.809 -14.943  1.00  0.00     0.009 C 
ENDBRANCH  30  31
BRANCH  30  33
HETATM   33  O4  UNL     1      -4.025 -30.882 -16.730  1.00  0.00    -0.371 OA
HETATM   34  C14 UNL     1      -2.787 -30.613 -17.289  1.00  0.00     0.204 C 
ENDBRANCH  30  33
ENDBRANCH  28  30
ENDBRANCH   1  28
TORSDOF 6
ENDMDL
