MODEL 1
REMARK VINA RESULT: -5.665677628      0.000      0.000
REMARK  10 active torsions:
REMARK  status: ('A' for Active; 'I' for Inactive)
REMARK    1  A    between atoms: C3_3  and  C4_4 
REMARK    2  A    between atoms: C4_4  and  N1_5 
REMARK    3  A    between atoms: N1_5  and  C5_6 
REMARK    4  A    between atoms: C5_6  and  C6_7 
REMARK    5  A    between atoms: C7_8  and  C8_9 
REMARK    6  A    between atoms: C8_9  and  C9_10 
REMARK    7  A    between atoms: C9_10  and  N2_11 
REMARK    8  A    between atoms: N5_18  and  S1_19 
REMARK    9  A    between atoms: S1_19  and  N6_22 
REMARK   10  A    between atoms: N6_22  and  C13_24 
ROOT
HETATM    1  C1  UNL     1      85.553 100.254 -44.448  1.00  0.00     0.112 C 
HETATM    2  C2  UNL     1      86.707  99.360 -44.567  1.00  0.00    -0.109 C 
HETATM    3  C3  UNL     1      87.652  98.601 -44.658  1.00  0.00    -0.079 C 
ENDROOT
BRANCH   3   4
HETATM    4  C4  UNL     1      88.784  97.683 -44.742  1.00  0.00     0.332 C 
BRANCH   4   5
HETATM    5  N1  UNL     1      90.017  98.399 -44.734  1.00  0.00    -0.037 N 
HETATM    6  C11 UNL     1      89.896  99.606 -45.477  1.00  0.00     0.286 C 
HETATM    7  C12 UNL     1      91.144 100.410 -45.599  1.00  0.00     0.110 C 
HETATM    8  N5  UNL     1      92.050 100.350 -44.532  1.00  0.00    -0.249 N 
HETATM    9  C17 UNL     1      91.895  99.359 -43.551  1.00  0.00     0.121 C 
HETATM   10  C18 UNL     1      90.573  98.672 -43.441  1.00  0.00     0.157 C 
HETATM   11  C19 UNL     1      90.827  97.379 -42.650  1.00  0.00     0.052 C 
HETATM   12  C20 UNL     1      89.695  99.498 -42.542  1.00  0.00     0.052 C 
BRANCH   5  13
HETATM   13  C5  UNL     1      90.961  97.493 -45.399  1.00  0.00     0.267 C 
BRANCH  13  14
HETATM   14  C6  UNL     1      90.327  96.294 -45.965  1.00  0.00    -0.003 C 
HETATM   15  C7  UNL     1      90.738  95.045 -45.858  1.00  0.00    -0.027 C 
BRANCH  15  16
HETATM   16  C8  UNL     1      91.924  94.554 -45.152  1.00  0.00     0.046 C 
BRANCH  16  17
HETATM   17  C9  UNL     1      91.445  93.690 -44.001  1.00  0.00     0.125 C 
BRANCH  17  18
HETATM   18  N2  UNL     1      92.523  93.154 -43.224  1.00  0.00    -0.367 N 
HETATM   19  C10 UNL     1      92.536  93.241 -41.943  1.00  0.00     0.196 C 
HETATM   20  N3  UNL     1      91.449  93.887 -41.282  1.00  0.00    -0.067 NA
HETATM   21  N4  UNL     1      93.575  92.729 -41.135  1.00  0.00    -0.067 NA
ATOM     22  H2  UNL     1      93.299  92.693 -43.700  1.00  0.00     0.161 HD
ENDBRANCH  17  18
ENDBRANCH  16  17
ENDBRANCH  15  16
ENDBRANCH  13  14
ENDBRANCH   5  13
BRANCH   8  23
HETATM   23  S1  UNL     1      92.508 101.872 -43.890  1.00  0.00     0.324 S 
HETATM   24  O1  UNL     1      91.308 102.573 -43.301  1.00  0.00    -0.182 OA
HETATM   25  O2  UNL     1      92.963 102.730 -45.051  1.00  0.00    -0.182 OA
BRANCH  23  26
HETATM   26  N6  UNL     1      93.773 101.776 -42.746  1.00  0.00    -0.293 N 
ATOM     27  H6  UNL     1      94.679 101.353 -42.948  1.00  0.00     0.174 HD
BRANCH  26  28
HETATM   28  C13 UNL     1      93.441 102.350 -41.470  1.00  0.00     0.031 C 
HETATM   29  C14 UNL     1      94.696 102.251 -40.602  1.00  0.00     0.038 C 
HETATM   30  C15 UNL     1      93.076 103.803 -41.561  1.00  0.00     0.038 C 
HETATM   31  C16 UNL     1      92.372 101.551 -40.760  1.00  0.00     0.038 C 
ENDBRANCH  26  28
ENDBRANCH  23  26
ENDBRANCH   8  23
ENDBRANCH   4   5
ENDBRANCH   3   4
TORSDOF 10
ENDMDL
MODEL 2
REMARK VINA RESULT: -5.520778952      2.768      5.767
REMARK  10 active torsions:
REMARK  status: ('A' for Active; 'I' for Inactive)
REMARK    1  A    between atoms: C3_3  and  C4_4 
REMARK    2  A    between atoms: C4_4  and  N1_5 
REMARK    3  A    between atoms: N1_5  and  C5_6 
REMARK    4  A    between atoms: C5_6  and  C6_7 
REMARK    5  A    between atoms: C7_8  and  C8_9 
REMARK    6  A    between atoms: C8_9  and  C9_10 
REMARK    7  A    between atoms: C9_10  and  N2_11 
REMARK    8  A    between atoms: N5_18  and  S1_19 
REMARK    9  A    between atoms: S1_19  and  N6_22 
REMARK   10  A    between atoms: N6_22  and  C13_24 
ROOT
HETATM    1  C1  UNL     1      91.795  93.761 -44.706  1.00  0.00     0.112 C 
HETATM    2  C2  UNL     1      91.097  94.936 -45.233  1.00  0.00    -0.109 C 
HETATM    3  C3  UNL     1      90.498  95.901 -45.667  1.00  0.00    -0.079 C 
ENDROOT
BRANCH   3   4
HETATM    4  C4  UNL     1      89.767  97.044 -46.205  1.00  0.00     0.332 C 
BRANCH   4   5
HETATM    5  N1  UNL     1      89.739  98.114 -45.264  1.00  0.00    -0.037 N 
HETATM    6  C11 UNL     1      89.880  97.617 -43.940  1.00  0.00     0.286 C 
HETATM    7  C12 UNL     1      89.797  98.640 -42.859  1.00  0.00     0.110 C 
HETATM    8  N5  UNL     1      90.259  99.926 -43.161  1.00  0.00    -0.249 N 
HETATM    9  C17 UNL     1      90.514 100.273 -44.497  1.00  0.00     0.121 C 
HETATM   10  C18 UNL     1      90.678  99.173 -45.494  1.00  0.00     0.157 C 
HETATM   11  C19 UNL     1      90.479  99.816 -46.877  1.00  0.00     0.052 C 
HETATM   12  C20 UNL     1      92.120  98.746 -45.480  1.00  0.00     0.052 C 
BRANCH   5  13
HETATM   13  C5  UNL     1      88.408  98.708 -45.438  1.00  0.00     0.267 C 
BRANCH  13  14
HETATM   14  C6  UNL     1      87.405  97.766 -45.956  1.00  0.00    -0.003 C 
HETATM   15  C7  UNL     1      86.327  97.325 -45.337  1.00  0.00    -0.027 C 
BRANCH  15  16
HETATM   16  C8  UNL     1      85.871  97.665 -43.988  1.00  0.00     0.046 C 
BRANCH  16  17
HETATM   17  C9  UNL     1      84.401  98.029 -44.081  1.00  0.00     0.125 C 
BRANCH  17  18
HETATM   18  N2  UNL     1      83.987  98.929 -43.045  1.00  0.00    -0.367 N 
HETATM   19  C10 UNL     1      83.920 100.196 -43.243  1.00  0.00     0.196 C 
HETATM   20  N3  UNL     1      84.267 100.716 -44.526  1.00  0.00    -0.067 NA
HETATM   21  N4  UNL     1      83.517 101.121 -42.256  1.00  0.00    -0.067 NA
ATOM     22  H2  UNL     1      83.739  98.554 -42.129  1.00  0.00     0.161 HD
ENDBRANCH  17  18
ENDBRANCH  16  17
ENDBRANCH  15  16
ENDBRANCH  13  14
ENDBRANCH   5  13
BRANCH   8  23
HETATM   23  S1  UNL     1      91.426 100.547 -42.068  1.00  0.00     0.324 S 
HETATM   24  O1  UNL     1      92.435 101.391 -42.806  1.00  0.00    -0.182 OA
HETATM   25  O2  UNL     1      92.195  99.366 -41.515  1.00  0.00    -0.182 OA
BRANCH  23  26
HETATM   26  N6  UNL     1      90.745 101.419 -40.766  1.00  0.00    -0.293 N 
ATOM     27  H6  UNL     1      89.787 101.283 -40.443  1.00  0.00     0.174 HD
BRANCH  26  28
HETATM   28  C13 UNL     1      91.650 102.363 -40.169  1.00  0.00     0.031 C 
HETATM   29  C14 UNL     1      90.975 102.876 -38.897  1.00  0.00     0.038 C 
HETATM   30  C15 UNL     1      92.955 101.743 -39.763  1.00  0.00     0.038 C 
HETATM   31  C16 UNL     1      91.859 103.571 -41.053  1.00  0.00     0.038 C 
ENDBRANCH  26  28
ENDBRANCH  23  26
ENDBRANCH   8  23
ENDBRANCH   4   5
ENDBRANCH   3   4
TORSDOF 10
ENDMDL
MODEL 3
REMARK VINA RESULT: -5.445447970      1.564      2.390
REMARK  10 active torsions:
REMARK  status: ('A' for Active; 'I' for Inactive)
REMARK    1  A    between atoms: C3_3  and  C4_4 
REMARK    2  A    between atoms: C4_4  and  N1_5 
REMARK    3  A    between atoms: N1_5  and  C5_6 
REMARK    4  A    between atoms: C5_6  and  C6_7 
REMARK    5  A    between atoms: C7_8  and  C8_9 
REMARK    6  A    between atoms: C8_9  and  C9_10 
REMARK    7  A    between atoms: C9_10  and  N2_11 
REMARK    8  A    between atoms: N5_18  and  S1_19 
REMARK    9  A    between atoms: S1_19  and  N6_22 
REMARK   10  A    between atoms: N6_22  and  C13_24 
ROOT
HETATM    1  C1  UNL     1      90.354 101.440 -49.141  1.00  0.00     0.112 C 
HETATM    2  C2  UNL     1      89.986 100.357 -48.227  1.00  0.00    -0.109 C 
HETATM    3  C3  UNL     1      89.678  99.445 -47.484  1.00  0.00    -0.079 C 
ENDROOT
BRANCH   3   4
HETATM    4  C4  UNL     1      89.284  98.347 -46.606  1.00  0.00     0.332 C 
BRANCH   4   5
HETATM    5  N1  UNL     1      89.825  98.526 -45.300  1.00  0.00    -0.037 N 
HETATM    6  C11 UNL     1      91.064  99.220 -45.365  1.00  0.00     0.286 C 
HETATM    7  C12 UNL     1      91.763  99.407 -44.062  1.00  0.00     0.110 C 
HETATM    8  N5  UNL     1      90.962  99.540 -42.922  1.00  0.00    -0.249 N 
HETATM    9  C17 UNL     1      89.596  99.226 -42.996  1.00  0.00     0.121 C 
HETATM   10  C18 UNL     1      88.959  99.155 -44.346  1.00  0.00     0.157 C 
HETATM   11  C19 UNL     1      87.652  98.367 -44.161  1.00  0.00     0.052 C 
HETATM   12  C20 UNL     1      88.514 100.541 -44.721  1.00  0.00     0.052 C 
BRANCH   5  13
HETATM   13  C5  UNL     1      90.040  97.158 -44.811  1.00  0.00     0.267 C 
BRANCH  13  14
HETATM   14  C6  UNL     1      90.049  96.147 -45.878  1.00  0.00    -0.003 C 
HETATM   15  C7  UNL     1      90.824  95.083 -45.966  1.00  0.00    -0.027 C 
BRANCH  15  16
HETATM   16  C8  UNL     1      91.862  94.655 -45.024  1.00  0.00     0.046 C 
BRANCH  16  17
HETATM   17  C9  UNL     1      91.185  93.842 -43.938  1.00  0.00     0.125 C 
BRANCH  17  18
HETATM   18  N2  UNL     1      92.106  93.032 -43.197  1.00  0.00    -0.367 N 
HETATM   19  C10 UNL     1      92.139  93.055 -41.913  1.00  0.00     0.196 C 
HETATM   20  N3  UNL     1      91.236  93.909 -41.213  1.00  0.00    -0.067 NA
HETATM   21  N4  UNL     1      93.027  92.276 -41.141  1.00  0.00    -0.067 NA
ATOM     22  H2  UNL     1      92.750  92.422 -43.702  1.00  0.00     0.161 HD
ENDBRANCH  17  18
ENDBRANCH  16  17
ENDBRANCH  15  16
ENDBRANCH  13  14
ENDBRANCH   5  13
BRANCH   8  23
HETATM   23  S1  UNL     1      91.284 100.934 -41.975  1.00  0.00     0.324 S 
HETATM   24  O1  UNL     1      90.034 101.376 -41.254  1.00  0.00    -0.182 OA
HETATM   25  O2  UNL     1      91.631 102.055 -42.932  1.00  0.00    -0.182 OA
BRANCH  23  26
HETATM   26  N6  UNL     1      92.575 100.728 -40.875  1.00  0.00    -0.293 N 
ATOM     27  H6  UNL     1      92.864  99.817 -40.517  1.00  0.00     0.174 HD
BRANCH  26  28
HETATM   28  C13 UNL     1      93.215 101.959 -40.502  1.00  0.00     0.031 C 
HETATM   29  C14 UNL     1      94.148 101.634 -39.335  1.00  0.00     0.038 C 
HETATM   30  C15 UNL     1      94.059 102.535 -41.600  1.00  0.00     0.038 C 
HETATM   31  C16 UNL     1      92.219 102.970 -39.977  1.00  0.00     0.038 C 
ENDBRANCH  26  28
ENDBRANCH  23  26
ENDBRANCH   8  23
ENDBRANCH   4   5
ENDBRANCH   3   4
TORSDOF 10
ENDMDL
MODEL 4
REMARK VINA RESULT: -5.391856536      2.661      5.654
REMARK  10 active torsions:
REMARK  status: ('A' for Active; 'I' for Inactive)
REMARK    1  A    between atoms: C3_3  and  C4_4 
REMARK    2  A    between atoms: C4_4  and  N1_5 
REMARK    3  A    between atoms: N1_5  and  C5_6 
REMARK    4  A    between atoms: C5_6  and  C6_7 
REMARK    5  A    between atoms: C7_8  and  C8_9 
REMARK    6  A    between atoms: C8_9  and  C9_10 
REMARK    7  A    between atoms: C9_10  and  N2_11 
REMARK    8  A    between atoms: N5_18  and  S1_19 
REMARK    9  A    between atoms: S1_19  and  N6_22 
REMARK   10  A    between atoms: N6_22  and  C13_24 
ROOT
HETATM    1  C1  UNL     1      91.784  93.674 -44.289  1.00  0.00     0.112 C 
HETATM    2  C2  UNL     1      91.240  94.896 -44.884  1.00  0.00    -0.109 C 
HETATM    3  C3  UNL     1      90.782  95.900 -45.396  1.00  0.00    -0.079 C 
ENDROOT
BRANCH   3   4
HETATM    4  C4  UNL     1      90.249  97.101 -46.032  1.00  0.00     0.332 C 
BRANCH   4   5
HETATM    5  N1  UNL     1      90.183  98.178 -45.101  1.00  0.00    -0.037 N 
HETATM    6  C11 UNL     1      90.245  97.689 -43.768  1.00  0.00     0.286 C 
HETATM    7  C12 UNL     1      90.115  98.720 -42.700  1.00  0.00     0.110 C 
HETATM    8  N5  UNL     1      90.610  99.999 -42.985  1.00  0.00    -0.249 N 
HETATM    9  C17 UNL     1      90.941 100.333 -44.306  1.00  0.00     0.121 C 
HETATM   10  C18 UNL     1      91.146  99.224 -45.286  1.00  0.00     0.157 C 
HETATM   11  C19 UNL     1      91.031  99.859 -46.682  1.00  0.00     0.052 C 
HETATM   12  C20 UNL     1      92.580  98.780 -45.190  1.00  0.00     0.052 C 
BRANCH   5  13
HETATM   13  C5  UNL     1      88.871  98.787 -45.352  1.00  0.00     0.267 C 
BRANCH  13  14
HETATM   14  C6  UNL     1      87.861  97.833 -45.833  1.00  0.00    -0.003 C 
HETATM   15  C7  UNL     1      86.737  97.488 -45.235  1.00  0.00    -0.027 C 
BRANCH  15  16
HETATM   16  C8  UNL     1      86.226  97.970 -43.950  1.00  0.00     0.046 C 
BRANCH  16  17
HETATM   17  C9  UNL     1      84.711  97.970 -44.032  1.00  0.00     0.125 C 
BRANCH  17  18
HETATM   18  N2  UNL     1      84.105  98.858 -43.085  1.00  0.00    -0.367 N 
HETATM   19  C10 UNL     1      83.817 100.072 -43.391  1.00  0.00     0.196 C 
HETATM   20  N3  UNL     1      84.110 100.543 -44.706  1.00  0.00    -0.067 NA
HETATM   21  N4  UNL     1      83.220 100.984 -42.494  1.00  0.00    -0.067 NA
ATOM     22  H2  UNL     1      83.897  98.518 -42.146  1.00  0.00     0.161 HD
ENDBRANCH  17  18
ENDBRANCH  16  17
ENDBRANCH  15  16
ENDBRANCH  13  14
ENDBRANCH   5  13
BRANCH   8  23
HETATM   23  S1  UNL     1      91.722 100.613 -41.833  1.00  0.00     0.324 S 
HETATM   24  O1  UNL     1      92.231  99.499 -40.953  1.00  0.00    -0.182 OA
HETATM   25  O2  UNL     1      90.954 101.547 -40.922  1.00  0.00    -0.182 OA
BRANCH  23  26
HETATM   26  N6  UNL     1      93.023 101.473 -42.533  1.00  0.00    -0.293 N 
ATOM     27  H6  UNL     1      93.433 101.228 -43.434  1.00  0.00     0.174 HD
BRANCH  26  28
HETATM   28  C13 UNL     1      93.485 102.572 -41.730  1.00  0.00     0.031 C 
HETATM   29  C14 UNL     1      94.767 103.087 -42.384  1.00  0.00     0.038 C 
HETATM   30  C15 UNL     1      92.514 103.715 -41.692  1.00  0.00     0.038 C 
HETATM   31  C16 UNL     1      93.871 102.124 -40.338  1.00  0.00     0.038 C 
ENDBRANCH  26  28
ENDBRANCH  23  26
ENDBRANCH   8  23
ENDBRANCH   4   5
ENDBRANCH   3   4
TORSDOF 10
ENDMDL
MODEL 5
REMARK VINA RESULT: -5.306837578      2.641      5.752
REMARK  10 active torsions:
REMARK  status: ('A' for Active; 'I' for Inactive)
REMARK    1  A    between atoms: C3_3  and  C4_4 
REMARK    2  A    between atoms: C4_4  and  N1_5 
REMARK    3  A    between atoms: N1_5  and  C5_6 
REMARK    4  A    between atoms: C5_6  and  C6_7 
REMARK    5  A    between atoms: C7_8  and  C8_9 
REMARK    6  A    between atoms: C8_9  and  C9_10 
REMARK    7  A    between atoms: C9_10  and  N2_11 
REMARK    8  A    between atoms: N5_18  and  S1_19 
REMARK    9  A    between atoms: S1_19  and  N6_22 
REMARK   10  A    between atoms: N6_22  and  C13_24 
ROOT
HETATM    1  C1  UNL     1      91.754 101.799 -39.626  1.00  0.00     0.112 C 
HETATM    2  C2  UNL     1      91.798 101.197 -40.961  1.00  0.00    -0.109 C 
HETATM    3  C3  UNL     1      91.817 100.709 -42.074  1.00  0.00    -0.079 C 
ENDROOT
BRANCH   3   4
HETATM    4  C4  UNL     1      91.814 100.115 -43.408  1.00  0.00     0.332 C 
BRANCH   4   5
HETATM    5  N1  UNL     1      90.489  99.767 -43.802  1.00  0.00    -0.037 N 
HETATM    6  C11 UNL     1      89.659  99.595 -42.661  1.00  0.00     0.286 C 
HETATM    7  C12 UNL     1      88.262  99.161 -42.945  1.00  0.00     0.110 C 
HETATM    8  N5  UNL     1      87.691  99.594 -44.149  1.00  0.00    -0.249 N 
HETATM    9  C17 UNL     1      88.510 100.161 -45.137  1.00  0.00     0.121 C 
HETATM   10  C18 UNL     1      89.862 100.656 -44.736  1.00  0.00     0.157 C 
HETATM   11  C19 UNL     1      90.675 100.778 -46.035  1.00  0.00     0.052 C 
HETATM   12  C20 UNL     1      89.712 102.071 -44.251  1.00  0.00     0.052 C 
BRANCH   5  13
HETATM   13  C5  UNL     1      90.649  98.488 -44.505  1.00  0.00     0.267 C 
BRANCH  13  14
HETATM   14  C6  UNL     1      91.110  97.394 -43.638  1.00  0.00    -0.003 C 
HETATM   15  C7  UNL     1      91.218  96.117 -43.950  1.00  0.00    -0.027 C 
BRANCH  15  16
HETATM   16  C8  UNL     1      90.905  95.483 -45.233  1.00  0.00     0.046 C 
BRANCH  16  17
HETATM   17  C9  UNL     1      91.388  94.047 -45.163  1.00  0.00     0.125 C 
BRANCH  17  18
HETATM   18  N2  UNL     1      91.118  93.433 -43.896  1.00  0.00    -0.367 N 
HETATM   19  C10 UNL     1      92.064  92.997 -43.145  1.00  0.00     0.196 C 
HETATM   20  N3  UNL     1      93.414  93.128 -43.586  1.00  0.00    -0.067 NA
HETATM   21  N4  UNL     1      91.847  92.385 -41.891  1.00  0.00    -0.067 NA
ATOM     22  H2  UNL     1      90.151  93.340 -43.584  1.00  0.00     0.161 HD
ENDBRANCH  17  18
ENDBRANCH  16  17
ENDBRANCH  15  16
ENDBRANCH  13  14
ENDBRANCH   5  13
BRANCH   8  23
HETATM   23  S1  UNL     1      86.181 100.389 -43.985  1.00  0.00     0.324 S 
HETATM   24  O1  UNL     1      86.052 101.483 -45.016  1.00  0.00    -0.182 OA
HETATM   25  O2  UNL     1      86.184 101.083 -42.639  1.00  0.00    -0.182 OA
BRANCH  23  26
HETATM   26  N6  UNL     1      84.841  99.331 -44.056  1.00  0.00    -0.293 N 
ATOM     27  H6  UNL     1      84.078  99.349 -43.379  1.00  0.00     0.174 HD
BRANCH  26  28
HETATM   28  C13 UNL     1      84.892  98.412 -45.161  1.00  0.00     0.031 C 
HETATM   29  C14 UNL     1      83.518  97.745 -45.241  1.00  0.00     0.038 C 
HETATM   30  C15 UNL     1      85.133  99.093 -46.476  1.00  0.00     0.038 C 
HETATM   31  C16 UNL     1      85.888  97.301 -44.918  1.00  0.00     0.038 C 
ENDBRANCH  26  28
ENDBRANCH  23  26
ENDBRANCH   8  23
ENDBRANCH   4   5
ENDBRANCH   3   4
TORSDOF 10
ENDMDL
