MODEL 1
REMARK VINA RESULT: -7.471381017      0.000      0.000
REMARK  6 active torsions:
REMARK  status: ('A' for Active; 'I' for Inactive)
REMARK       I    between atoms: C1_4  and  N2_5 
REMARK       I    between atoms: C1_4  and  N3_8 
REMARK    1  A    between atoms: N2_5  and  C2_6 
REMARK    2  A    between atoms: N3_8  and  C3_10 
REMARK    3  A    between atoms: C3_10  and  C4_11 
REMARK    4  A    between atoms: C4_11  and  N4_12 
REMARK       I    between atoms: N4_12  and  C5_14 
REMARK    5  A    between atoms: C5_14  and  C6_16 
REMARK    6  A    between atoms: C9_19  and  N5_20 
ROOT
HETATM    1  N4  UNL     1      27.101  51.050 252.140  1.00  0.00    -0.334 N 
ATOM      2  H4  UNL     1      27.763  50.324 251.868  1.00  0.00     0.168 HD
HETATM    3  C5  UNL     1      27.340  51.733 253.367  1.00  0.00     0.271 C 
HETATM    4  O2  UNL     1      26.586  52.653 253.744  1.00  0.00    -0.266 OA
ENDROOT
BRANCH   1   5
HETATM    5  C4  UNL     1      26.035  51.300 251.286  1.00  0.00     0.084 C 
BRANCH   5   6
HETATM    6  C3  UNL     1      25.611  50.121 250.430  1.00  0.00     0.168 C 
BRANCH   6   7
HETATM    7  N3  UNL     1      26.171  50.317 249.141  1.00  0.00    -0.346 N 
HETATM    8  C1  UNL     1      27.512  50.095 248.761  1.00  0.00     0.251 C 
HETATM    9  N1  UNL     1      28.202  49.224 249.429  1.00  0.00    -0.360 N 
HETATM   10  N2  UNL     1      28.043  50.720 247.703  1.00  0.00    -0.344 NA
ATOM     11  H12 UNL     1      29.171  49.064 249.153  1.00  0.00     0.160 HD
ATOM     12  H11 UNL     1      27.797  48.748 250.235  1.00  0.00     0.160 HD
ATOM     13  H3  UNL     1      25.540  50.654 248.414  1.00  0.00     0.164 HD
BRANCH  10  14
HETATM   14  C2  UNL     1      28.594  51.373 246.601  1.00  0.00     0.445 C 
HETATM   15  O1  UNL     1      27.964  51.740 245.534  1.00  0.00    -0.268 OA
ENDBRANCH  10  14
ENDBRANCH   6   7
ENDBRANCH   5   6
ENDBRANCH   1   5
BRANCH   3  16
HETATM   16  C6  UNL     1      28.492  51.303 254.154  1.00  0.00     0.101 A 
HETATM   17  C7  UNL     1      29.600  52.054 254.398  1.00  0.00     0.038 A 
HETATM   18  C8  UNL     1      30.642  51.633 255.208  1.00  0.00     0.040 A 
HETATM   19  C9  UNL     1      30.548  50.391 255.793  1.00  0.00     0.118 A 
HETATM   20  C10 UNL     1      29.414  49.611 255.535  1.00  0.00     0.124 A 
HETATM   21  N6  UNL     1      28.466  50.092 254.749  1.00  0.00    -0.359 N 
ATOM     22  H6  UNL     1      27.651  49.502 254.580  1.00  0.00     0.165 HD
BRANCH  19  23
HETATM   23  N5  UNL     1      31.579  49.872 256.627  1.00  0.00    -0.114 N 
HETATM   24  O3  UNL     1      31.341  48.891 257.360  1.00  0.00    -0.532 OA
HETATM   25  O4  UNL     1      32.794  50.461 256.660  1.00  0.00    -0.532 OA
ENDBRANCH  19  23
ENDBRANCH   3  16
TORSDOF 6
ENDMDL
MODEL 2
REMARK VINA RESULT: -7.398300272      1.523      1.707
REMARK  6 active torsions:
REMARK  status: ('A' for Active; 'I' for Inactive)
REMARK       I    between atoms: C1_4  and  N2_5 
REMARK       I    between atoms: C1_4  and  N3_8 
REMARK    1  A    between atoms: N2_5  and  C2_6 
REMARK    2  A    between atoms: N3_8  and  C3_10 
REMARK    3  A    between atoms: C3_10  and  C4_11 
REMARK    4  A    between atoms: C4_11  and  N4_12 
REMARK       I    between atoms: N4_12  and  C5_14 
REMARK    5  A    between atoms: C5_14  and  C6_16 
REMARK    6  A    between atoms: C9_19  and  N5_20 
ROOT
HETATM    1  N4  UNL     1      27.594  50.828 251.609  1.00  0.00    -0.334 N 
ATOM      2  H4  UNL     1      28.379  50.188 251.726  1.00  0.00     0.168 HD
HETATM    3  C5  UNL     1      27.176  51.574 252.749  1.00  0.00     0.271 C 
HETATM    4  O2  UNL     1      26.240  52.396 252.668  1.00  0.00    -0.266 OA
ENDROOT
BRANCH   1   5
HETATM    5  C4  UNL     1      27.012  50.907 250.351  1.00  0.00     0.084 C 
BRANCH   5   6
HETATM    6  C3  UNL     1      27.360  49.767 249.413  1.00  0.00     0.168 C 
BRANCH   6   7
HETATM    7  N3  UNL     1      27.394  50.303 248.099  1.00  0.00    -0.346 N 
HETATM    8  C1  UNL     1      28.542  50.542 247.313  1.00  0.00     0.251 C 
HETATM    9  N1  UNL     1      29.599  49.825 247.540  1.00  0.00    -0.360 N 
HETATM   10  N2  UNL     1      28.527  51.440 246.322  1.00  0.00    -0.344 NA
ATOM     11  H12 UNL     1      30.428  49.998 246.973  1.00  0.00     0.160 HD
ATOM     12  H11 UNL     1      29.610  49.140 248.296  1.00  0.00     0.160 HD
ATOM     13  H3  UNL     1      26.495  50.539 247.678  1.00  0.00     0.164 HD
BRANCH  10  14
HETATM   14  C2  UNL     1      28.508  52.377 245.290  1.00  0.00     0.445 C 
HETATM   15  O1  UNL     1      29.257  52.371 244.236  1.00  0.00    -0.268 OA
ENDBRANCH  10  14
ENDBRANCH   6   7
ENDBRANCH   5   6
ENDBRANCH   1   5
BRANCH   3  16
HETATM   16  C6  UNL     1      27.884  51.325 254.002  1.00  0.00     0.101 A 
HETATM   17  C7  UNL     1      27.853  52.135 255.095  1.00  0.00     0.038 A 
HETATM   18  C8  UNL     1      28.484  51.827 256.289  1.00  0.00     0.040 A 
HETATM   19  C9  UNL     1      29.176  50.641 256.369  1.00  0.00     0.118 A 
HETATM   20  C10 UNL     1      29.221  49.810 255.243  1.00  0.00     0.124 A 
HETATM   21  N6  UNL     1      28.588  50.182 254.143  1.00  0.00    -0.359 N 
ATOM     22  H6  UNL     1      28.636  49.557 253.339  1.00  0.00     0.165 HD
BRANCH  19  23
HETATM   23  N5  UNL     1      29.869  50.252 257.551  1.00  0.00    -0.114 N 
HETATM   24  O3  UNL     1      30.131  49.047 257.742  1.00  0.00    -0.532 OA
HETATM   25  O4  UNL     1      30.201  51.172 258.484  1.00  0.00    -0.532 OA
ENDBRANCH  19  23
ENDBRANCH   3  16
TORSDOF 6
ENDMDL
MODEL 3
REMARK VINA RESULT: -7.386617754      1.707      7.788
REMARK  6 active torsions:
REMARK  status: ('A' for Active; 'I' for Inactive)
REMARK       I    between atoms: C1_4  and  N2_5 
REMARK       I    between atoms: C1_4  and  N3_8 
REMARK    1  A    between atoms: N2_5  and  C2_6 
REMARK    2  A    between atoms: N3_8  and  C3_10 
REMARK    3  A    between atoms: C3_10  and  C4_11 
REMARK    4  A    between atoms: C4_11  and  N4_12 
REMARK       I    between atoms: N4_12  and  C5_14 
REMARK    5  A    between atoms: C5_14  and  C6_16 
REMARK    6  A    between atoms: C9_19  and  N5_20 
ROOT
HETATM    1  N4  UNL     1      28.018  50.860 253.612  1.00  0.00    -0.334 N 
ATOM      2  H4  UNL     1      28.722  50.255 253.190  1.00  0.00     0.168 HD
HETATM    3  C5  UNL     1      27.157  51.580 252.734  1.00  0.00     0.271 C 
HETATM    4  O2  UNL     1      26.255  52.316 253.184  1.00  0.00    -0.266 OA
ENDROOT
BRANCH   1   5
HETATM    5  C4  UNL     1      27.971  50.921 254.998  1.00  0.00     0.084 C 
BRANCH   5   6
HETATM    6  C3  UNL     1      29.222  51.472 255.657  1.00  0.00     0.168 C 
BRANCH   6   7
HETATM    7  N3  UNL     1      30.191  50.435 255.646  1.00  0.00    -0.346 N 
HETATM    8  C1  UNL     1      30.633  49.681 256.755  1.00  0.00     0.251 C 
HETATM    9  N1  UNL     1      29.826  49.539 257.759  1.00  0.00    -0.360 N 
HETATM   10  N2  UNL     1      31.828  49.077 256.747  1.00  0.00    -0.344 NA
ATOM     11  H12 UNL     1      30.146  48.994 258.560  1.00  0.00     0.160 HD
ATOM     12  H11 UNL     1      28.916  49.999 257.764  1.00  0.00     0.160 HD
ATOM     13  H3  UNL     1      30.612  50.212 254.744  1.00  0.00     0.164 HD
BRANCH  10  14
HETATM   14  C2  UNL     1      33.072  48.449 256.738  1.00  0.00     0.445 C 
HETATM   15  O1  UNL     1      33.289  47.176 256.787  1.00  0.00    -0.268 OA
ENDBRANCH  10  14
ENDBRANCH   6   7
ENDBRANCH   5   6
ENDBRANCH   1   5
BRANCH   3  16
HETATM   16  C6  UNL     1      27.385  51.421 251.301  1.00  0.00     0.101 A 
HETATM   17  C7  UNL     1      27.819  52.400 250.461  1.00  0.00     0.038 A 
HETATM   18  C8  UNL     1      28.089  52.188 249.119  1.00  0.00     0.040 A 
HETATM   19  C9  UNL     1      27.908  50.922 248.614  1.00  0.00     0.118 A 
HETATM   20  C10 UNL     1      27.450  49.914 249.471  1.00  0.00     0.124 A 
HETATM   21  N6  UNL     1      27.218  50.205 250.740  1.00  0.00    -0.359 N 
ATOM     22  H6  UNL     1      26.887  49.450 251.342  1.00  0.00     0.165 HD
BRANCH  19  23
HETATM   23  N5  UNL     1      28.145  50.618 247.242  1.00  0.00    -0.114 N 
HETATM   24  O3  UNL     1      28.551  49.482 246.926  1.00  0.00    -0.532 OA
HETATM   25  O4  UNL     1      27.976  51.564 246.293  1.00  0.00    -0.532 OA
ENDBRANCH  19  23
ENDBRANCH   3  16
TORSDOF 6
ENDMDL
MODEL 4
REMARK VINA RESULT: -7.328757089      1.333      1.731
REMARK  6 active torsions:
REMARK  status: ('A' for Active; 'I' for Inactive)
REMARK       I    between atoms: C1_4  and  N2_5 
REMARK       I    between atoms: C1_4  and  N3_8 
REMARK    1  A    between atoms: N2_5  and  C2_6 
REMARK    2  A    between atoms: N3_8  and  C3_10 
REMARK    3  A    between atoms: C3_10  and  C4_11 
REMARK    4  A    between atoms: C4_11  and  N4_12 
REMARK       I    between atoms: N4_12  and  C5_14 
REMARK    5  A    between atoms: C5_14  and  C6_16 
REMARK    6  A    between atoms: C9_19  and  N5_20 
ROOT
HETATM    1  N4  UNL     1      27.720  50.605 251.643  1.00  0.00    -0.334 N 
ATOM      2  H4  UNL     1      28.566  50.046 251.528  1.00  0.00     0.168 HD
HETATM    3  C5  UNL     1      27.536  51.272 252.888  1.00  0.00     0.271 C 
HETATM    4  O2  UNL     1      26.538  51.995 253.085  1.00  0.00    -0.266 OA
ENDROOT
BRANCH   1   5
HETATM    5  C4  UNL     1      26.835  50.657 250.575  1.00  0.00     0.084 C 
BRANCH   5   6
HETATM    6  C3  UNL     1      26.830  51.969 249.812  1.00  0.00     0.168 C 
BRANCH   6   7
HETATM    7  N3  UNL     1      27.346  51.702 248.517  1.00  0.00    -0.346 N 
HETATM    8  C1  UNL     1      28.319  52.454 247.824  1.00  0.00     0.251 C 
HETATM    9  N1  UNL     1      29.167  53.145 248.519  1.00  0.00    -0.360 N 
HETATM   10  N2  UNL     1      28.403  52.411 246.489  1.00  0.00    -0.344 NA
ATOM     11  H12 UNL     1      29.870  53.689 248.017  1.00  0.00     0.160 HD
ATOM     12  H11 UNL     1      29.103  53.178 249.536  1.00  0.00     0.160 HD
ATOM     13  H3  UNL     1      26.976  50.881 248.038  1.00  0.00     0.164 HD
BRANCH  10  14
HETATM   14  C2  UNL     1      28.489  52.365 245.098  1.00  0.00     0.445 C 
HETATM   15  O1  UNL     1      29.470  52.798 244.376  1.00  0.00    -0.268 OA
ENDBRANCH  10  14
ENDBRANCH   6   7
ENDBRANCH   5   6
ENDBRANCH   1   5
BRANCH   3  16
HETATM   16  C6  UNL     1      28.557  51.064 253.911  1.00  0.00     0.101 A 
HETATM   17  C7  UNL     1      29.501  51.974 254.274  1.00  0.00     0.038 A 
HETATM   18  C8  UNL     1      30.409  51.763 255.299  1.00  0.00     0.040 A 
HETATM   19  C9  UNL     1      30.349  50.570 255.982  1.00  0.00     0.118 A 
HETATM   20  C10 UNL     1      29.386  49.626 255.604  1.00  0.00     0.124 A 
HETATM   21  N6  UNL     1      28.558  49.912 254.614  1.00  0.00    -0.359 N 
ATOM     22  H6  UNL     1      27.866  49.206 254.361  1.00  0.00     0.165 HD
BRANCH  19  23
HETATM   23  N5  UNL     1      31.253  50.261 257.038  1.00  0.00    -0.114 N 
HETATM   24  O3  UNL     1      31.791  51.187 257.678  1.00  0.00    -0.532 OA
HETATM   25  O4  UNL     1      31.563  48.976 257.320  1.00  0.00    -0.532 OA
ENDBRANCH  19  23
ENDBRANCH   3  16
TORSDOF 6
ENDMDL
MODEL 5
REMARK VINA RESULT: -7.323794763      2.575      3.136
REMARK  6 active torsions:
REMARK  status: ('A' for Active; 'I' for Inactive)
REMARK       I    between atoms: C1_4  and  N2_5 
REMARK       I    between atoms: C1_4  and  N3_8 
REMARK    1  A    between atoms: N2_5  and  C2_6 
REMARK    2  A    between atoms: N3_8  and  C3_10 
REMARK    3  A    between atoms: C3_10  and  C4_11 
REMARK    4  A    between atoms: C4_11  and  N4_12 
REMARK       I    between atoms: N4_12  and  C5_14 
REMARK    5  A    between atoms: C5_14  and  C6_16 
REMARK    6  A    between atoms: C9_19  and  N5_20 
ROOT
HETATM    1  N4  UNL     1      27.590  50.143 250.851  1.00  0.00    -0.334 N 
ATOM      2  H4  UNL     1      27.247  49.483 251.549  1.00  0.00     0.168 HD
HETATM    3  C5  UNL     1      28.075  51.400 251.315  1.00  0.00     0.271 C 
HETATM    4  O2  UNL     1      28.537  52.241 250.517  1.00  0.00    -0.266 OA
ENDROOT
BRANCH   1   5
HETATM    5  C4  UNL     1      27.551  49.749 249.520  1.00  0.00     0.084 C 
BRANCH   5   6
HETATM    6  C3  UNL     1      28.887  49.328 248.938  1.00  0.00     0.168 C 
BRANCH   6   7
HETATM    7  N3  UNL     1      28.965  49.876 247.631  1.00  0.00    -0.346 N 
HETATM    8  C1  UNL     1      29.520  51.123 247.270  1.00  0.00     0.251 C 
HETATM    9  N1  UNL     1      30.443  51.625 248.030  1.00  0.00    -0.360 N 
HETATM   10  N2  UNL     1      29.150  51.744 246.144  1.00  0.00    -0.344 NA
ATOM     11  H12 UNL     1      30.844  52.525 247.769  1.00  0.00     0.160 HD
ATOM     12  H11 UNL     1      30.724  51.151 248.889  1.00  0.00     0.160 HD
ATOM     13  H3  UNL     1      28.580  49.311 246.874  1.00  0.00     0.164 HD
BRANCH  10  14
HETATM   14  C2  UNL     1      28.764  52.389 244.970  1.00  0.00     0.445 C 
HETATM   15  O1  UNL     1      29.469  52.510 243.894  1.00  0.00    -0.268 OA
ENDBRANCH  10  14
ENDBRANCH   6   7
ENDBRANCH   5   6
ENDBRANCH   1   5
BRANCH   3  16
HETATM   16  C6  UNL     1      27.999  51.652 252.751  1.00  0.00     0.101 A 
HETATM   17  C7  UNL     1      27.641  52.834 253.322  1.00  0.00     0.038 A 
HETATM   18  C8  UNL     1      27.514  53.011 254.690  1.00  0.00     0.040 A 
HETATM   19  C9  UNL     1      27.764  51.935 255.509  1.00  0.00     0.118 A 
HETATM   20  C10 UNL     1      28.144  50.720 254.927  1.00  0.00     0.124 A 
HETATM   21  N6  UNL     1      28.240  50.639 253.610  1.00  0.00    -0.359 N 
ATOM     22  H6  UNL     1      28.517  49.741 253.213  1.00  0.00     0.165 HD
BRANCH  19  23
HETATM   23  N5  UNL     1      27.674  52.031 256.927  1.00  0.00    -0.114 N 
HETATM   24  O3  UNL     1      27.724  50.994 257.619  1.00  0.00    -0.532 OA
HETATM   25  O4  UNL     1      27.491  53.231 257.522  1.00  0.00    -0.532 OA
ENDBRANCH  19  23
ENDBRANCH   3  16
TORSDOF 6
ENDMDL
