MODEL 1
REMARK VINA RESULT: -7.126286345      0.000      0.000
REMARK  7 active torsions:
REMARK  status: ('A' for Active; 'I' for Inactive)
REMARK    1  A    between atoms: C2_2  and  C3_3 
REMARK    2  A    between atoms: C3_3  and  C4_4 
REMARK    3  A    between atoms: C5_5  and  C6_6 
REMARK       I    between atoms: C6_6  and  N1_8 
REMARK    4  A    between atoms: N5_16  and  C9_17 
REMARK    5  A    between atoms: C9_17  and  C10_18 
REMARK    6  A    between atoms: C10_18  and  C11_19 
REMARK    7  A    between atoms: C11_19  and  C12_20 
ROOT
HETATM    1  C4  UNL     1      27.575   1.694 289.241  1.00  0.00     0.052 A 
HETATM    2  C5  UNL     1      28.343   1.149 290.202  1.00  0.00     0.125 A 
HETATM    3  N4  UNL     1      28.386  -0.167 289.997  1.00  0.00    -0.346 N 
ATOM      4  H4  UNL     1      28.899  -0.831 290.577  1.00  0.00     0.167 HD
HETATM    5  C8  UNL     1      27.655  -0.496 288.912  1.00  0.00     0.188 A 
HETATM    6  N5  UNL     1      27.145   0.643 288.434  1.00  0.00    -0.320 N 
ENDROOT
BRANCH   2   7
HETATM    7  C6  UNL     1      29.028   1.789 291.318  1.00  0.00     0.276 C 
HETATM    8  O1  UNL     1      29.362   2.988 291.363  1.00  0.00    -0.266 OA
HETATM    9  N1  UNL     1      29.375   1.027 292.490  1.00  0.00    -0.298 N 
HETATM   10  C7  UNL     1      28.658   1.026 293.556  1.00  0.00     0.203 C 
ATOM     11  H1  UNL     1      30.226   0.465 292.473  1.00  0.00     0.171 HD
HETATM   12  N2  UNL     1      27.467   1.751 293.720  1.00  0.00    -0.066 NA
HETATM   13  N3  UNL     1      29.112   0.233 294.637  1.00  0.00    -0.066 NA
ENDBRANCH   2   7
BRANCH   1  14
HETATM   14  C3  UNL     1      27.231   3.106 288.979  1.00  0.00     0.086 C 
BRANCH  14  15
HETATM   15  C2  UNL     1      26.017   3.583 289.677  1.00  0.00    -0.031 C 
HETATM   16  C1  UNL     1      24.815   3.231 289.277  1.00  0.00     0.007 C 
ENDBRANCH  14  15
ENDBRANCH   1  14
BRANCH   6  17
HETATM   17  C9  UNL     1      26.361   0.777 287.279  1.00  0.00     0.094 C 
BRANCH  17  18
HETATM   18  C10 UNL     1      26.564   1.149 286.072  1.00  0.00    -0.000 C 
BRANCH  18  19
HETATM   19  C11 UNL     1      27.627   1.936 285.441  1.00  0.00     0.128 C 
BRANCH  19  20
HETATM   20  C12 UNL     1      27.554   1.654 283.938  1.00  0.00     0.234 C 
HETATM   21  N6  UNL     1      26.866   0.495 283.551  1.00  0.00    -0.062 NA
HETATM   22  O2  UNL     1      28.089   2.429 283.114  1.00  0.00    -0.277 OA
ENDBRANCH  19  20
ENDBRANCH  18  19
ENDBRANCH  17  18
ENDBRANCH   6  17
TORSDOF 7
ENDMDL
MODEL 2
REMARK VINA RESULT: -6.655742304      1.673      6.799
REMARK  7 active torsions:
REMARK  status: ('A' for Active; 'I' for Inactive)
REMARK    1  A    between atoms: C2_2  and  C3_3 
REMARK    2  A    between atoms: C3_3  and  C4_4 
REMARK    3  A    between atoms: C5_5  and  C6_6 
REMARK       I    between atoms: C6_6  and  N1_8 
REMARK    4  A    between atoms: N5_16  and  C9_17 
REMARK    5  A    between atoms: C9_17  and  C10_18 
REMARK    6  A    between atoms: C10_18  and  C11_19 
REMARK    7  A    between atoms: C11_19  and  C12_20 
ROOT
HETATM    1  C4  UNL     1      27.022   0.419 287.580  1.00  0.00     0.052 A 
HETATM    2  C5  UNL     1      27.000  -0.443 286.547  1.00  0.00     0.125 A 
HETATM    3  N4  UNL     1      27.449  -1.619 286.983  1.00  0.00    -0.346 N 
ATOM      4  H4  UNL     1      27.538  -2.458 286.409  1.00  0.00     0.167 HD
HETATM    5  C8  UNL     1      27.769  -1.543 288.291  1.00  0.00     0.188 A 
HETATM    6  N5  UNL     1      27.512  -0.289 288.675  1.00  0.00    -0.320 N 
ENDROOT
BRANCH   2   7
HETATM    7  C6  UNL     1      26.596  -0.224 285.164  1.00  0.00     0.276 C 
HETATM    8  O1  UNL     1      25.420  -0.172 284.757  1.00  0.00    -0.266 OA
HETATM    9  N1  UNL     1      27.591  -0.048 284.136  1.00  0.00    -0.298 N 
HETATM   10  C7  UNL     1      27.952   1.109 283.710  1.00  0.00     0.203 C 
ATOM     11  H1  UNL     1      28.027  -0.876 283.730  1.00  0.00     0.171 HD
HETATM   12  N2  UNL     1      27.438   2.330 284.175  1.00  0.00    -0.066 NA
HETATM   13  N3  UNL     1      28.942   1.143 282.697  1.00  0.00    -0.066 NA
ENDBRANCH   2   7
BRANCH   1  14
HETATM   14  C3  UNL     1      26.598   1.831 287.655  1.00  0.00     0.086 C 
BRANCH  14  15
HETATM   15  C2  UNL     1      25.284   2.045 288.302  1.00  0.00    -0.031 C 
HETATM   16  C1  UNL     1      25.132   2.924 289.268  1.00  0.00     0.007 C 
ENDBRANCH  14  15
ENDBRANCH   1  14
BRANCH   6  17
HETATM   17  C9  UNL     1      27.651   0.222 289.974  1.00  0.00     0.094 C 
BRANCH  17  18
HETATM   18  C10 UNL     1      28.496   0.969 290.579  1.00  0.00    -0.000 C 
BRANCH  18  19
HETATM   19  C11 UNL     1      29.041   0.952 291.939  1.00  0.00     0.128 C 
BRANCH  19  20
HETATM   20  C12 UNL     1      28.088   1.777 292.808  1.00  0.00     0.234 C 
HETATM   21  N6  UNL     1      27.671   1.190 294.011  1.00  0.00    -0.062 NA
HETATM   22  O2  UNL     1      27.712   2.914 292.444  1.00  0.00    -0.277 OA
ENDBRANCH  19  20
ENDBRANCH  18  19
ENDBRANCH  17  18
ENDBRANCH   6  17
TORSDOF 7
ENDMDL
MODEL 3
REMARK VINA RESULT: -6.621866435      1.852      7.439
REMARK  7 active torsions:
REMARK  status: ('A' for Active; 'I' for Inactive)
REMARK    1  A    between atoms: C2_2  and  C3_3 
REMARK    2  A    between atoms: C3_3  and  C4_4 
REMARK    3  A    between atoms: C5_5  and  C6_6 
REMARK       I    between atoms: C6_6  and  N1_8 
REMARK    4  A    between atoms: N5_16  and  C9_17 
REMARK    5  A    between atoms: C9_17  and  C10_18 
REMARK    6  A    between atoms: C10_18  and  C11_19 
REMARK    7  A    between atoms: C11_19  and  C12_20 
ROOT
HETATM    1  C4  UNL     1      27.212   0.110 288.004  1.00  0.00     0.052 A 
HETATM    2  C5  UNL     1      27.079   0.853 286.890  1.00  0.00     0.125 A 
HETATM    3  N4  UNL     1      27.231   2.133 287.229  1.00  0.00    -0.346 N 
ATOM      4  H4  UNL     1      27.180   2.918 286.580  1.00  0.00     0.167 HD
HETATM    5  C8  UNL     1      27.460   2.242 288.554  1.00  0.00     0.188 A 
HETATM    6  N5  UNL     1      27.450   1.001 289.048  1.00  0.00    -0.320 N 
ENDROOT
BRANCH   2   7
HETATM    7  C6  UNL     1      26.800   0.435 285.522  1.00  0.00     0.276 C 
HETATM    8  O1  UNL     1      25.669   0.188 285.063  1.00  0.00    -0.266 OA
HETATM    9  N1  UNL     1      27.877   0.275 284.578  1.00  0.00    -0.298 N 
HETATM   10  C7  UNL     1      28.194   1.182 283.726  1.00  0.00     0.203 C 
ATOM     11  H1  UNL     1      28.408  -0.596 284.586  1.00  0.00     0.171 HD
HETATM   12  N2  UNL     1      27.549   2.424 283.600  1.00  0.00    -0.066 NA
HETATM   13  N3  UNL     1      29.273   0.898 282.854  1.00  0.00    -0.066 NA
ENDBRANCH   2   7
BRANCH   1  14
HETATM   14  C3  UNL     1      27.173  -1.355 288.185  1.00  0.00     0.086 C 
BRANCH  14  15
HETATM   15  C2  UNL     1      28.364  -2.070 287.675  1.00  0.00    -0.031 C 
HETATM   16  C1  UNL     1      28.329  -2.734 286.541  1.00  0.00     0.007 C 
ENDBRANCH  14  15
ENDBRANCH   1  14
BRANCH   6  17
HETATM   17  C9  UNL     1      27.698   0.639 290.380  1.00  0.00     0.094 C 
BRANCH  17  18
HETATM   18  C10 UNL     1      28.225   1.206 291.400  1.00  0.00    -0.000 C 
BRANCH  18  19
HETATM   19  C11 UNL     1      29.112   0.717 292.459  1.00  0.00     0.128 C 
BRANCH  19  20
HETATM   20  C12 UNL     1      28.407   0.996 293.790  1.00  0.00     0.234 C 
HETATM   21  N6  UNL     1      29.018   0.480 294.942  1.00  0.00    -0.062 NA
HETATM   22  O2  UNL     1      27.341   1.650 293.825  1.00  0.00    -0.277 OA
ENDBRANCH  19  20
ENDBRANCH  18  19
ENDBRANCH  17  18
ENDBRANCH   6  17
TORSDOF 7
ENDMDL
MODEL 4
REMARK VINA RESULT: -6.497238195      1.575      6.923
REMARK  7 active torsions:
REMARK  status: ('A' for Active; 'I' for Inactive)
REMARK    1  A    between atoms: C2_2  and  C3_3 
REMARK    2  A    between atoms: C3_3  and  C4_4 
REMARK    3  A    between atoms: C5_5  and  C6_6 
REMARK       I    between atoms: C6_6  and  N1_8 
REMARK    4  A    between atoms: N5_16  and  C9_17 
REMARK    5  A    between atoms: C9_17  and  C10_18 
REMARK    6  A    between atoms: C10_18  and  C11_19 
REMARK    7  A    between atoms: C11_19  and  C12_20 
ROOT
HETATM    1  C4  UNL     1      27.435   1.350 288.553  1.00  0.00     0.052 A 
HETATM    2  C5  UNL     1      27.323   0.665 287.400  1.00  0.00     0.125 A 
HETATM    3  N4  UNL     1      27.445  -0.632 287.678  1.00  0.00    -0.346 N 
ATOM      4  H4  UNL     1      27.399  -1.383 286.989  1.00  0.00     0.167 HD
HETATM    5  C8  UNL     1      27.638  -0.811 289.001  1.00  0.00     0.188 A 
HETATM    6  N5  UNL     1      27.636   0.404 289.556  1.00  0.00    -0.320 N 
ENDROOT
BRANCH   2   7
HETATM    7  C6  UNL     1      27.125   1.158 286.043  1.00  0.00     0.276 C 
HETATM    8  O1  UNL     1      27.845   1.999 285.471  1.00  0.00    -0.266 OA
HETATM    9  N1  UNL     1      26.025   0.674 285.247  1.00  0.00    -0.298 N 
HETATM   10  C7  UNL     1      26.158  -0.260 284.375  1.00  0.00     0.203 C 
ATOM     11  H1  UNL     1      25.104   1.090 285.382  1.00  0.00     0.171 HD
HETATM   12  N2  UNL     1      27.363  -0.919 284.083  1.00  0.00    -0.066 NA
HETATM   13  N3  UNL     1      24.996  -0.644 283.661  1.00  0.00    -0.066 NA
ENDBRANCH   2   7
BRANCH   1  14
HETATM   14  C3  UNL     1      27.338   2.799 288.817  1.00  0.00     0.086 C 
BRANCH  14  15
HETATM   15  C2  UNL     1      26.126   3.210 289.560  1.00  0.00    -0.031 C 
HETATM   16  C1  UNL     1      24.922   2.970 289.090  1.00  0.00     0.007 C 
ENDBRANCH  14  15
ENDBRANCH   1  14
BRANCH   6  17
HETATM   17  C9  UNL     1      27.753   0.688 290.924  1.00  0.00     0.094 C 
BRANCH  17  18
HETATM   18  C10 UNL     1      28.672   1.143 291.690  1.00  0.00    -0.000 C 
BRANCH  18  19
HETATM   19  C11 UNL     1      29.327   0.602 292.884  1.00  0.00     0.128 C 
BRANCH  19  20
HETATM   20  C12 UNL     1      28.422   0.932 294.074  1.00  0.00     0.234 C 
HETATM   21  N6  UNL     1      28.889   0.552 295.340  1.00  0.00    -0.062 NA
HETATM   22  O2  UNL     1      27.326   1.511 293.903  1.00  0.00    -0.277 OA
ENDBRANCH  19  20
ENDBRANCH  18  19
ENDBRANCH  17  18
ENDBRANCH   6  17
TORSDOF 7
ENDMDL
MODEL 5
REMARK VINA RESULT: -6.444745707      3.037      5.148
REMARK  7 active torsions:
REMARK  status: ('A' for Active; 'I' for Inactive)
REMARK    1  A    between atoms: C2_2  and  C3_3 
REMARK    2  A    between atoms: C3_3  and  C4_4 
REMARK    3  A    between atoms: C5_5  and  C6_6 
REMARK       I    between atoms: C6_6  and  N1_8 
REMARK    4  A    between atoms: N5_16  and  C9_17 
REMARK    5  A    between atoms: C9_17  and  C10_18 
REMARK    6  A    between atoms: C10_18  and  C11_19 
REMARK    7  A    between atoms: C11_19  and  C12_20 
ROOT
HETATM    1  C4  UNL     1      28.322   0.966 285.775  1.00  0.00     0.052 A 
HETATM    2  C5  UNL     1      27.166   1.599 286.044  1.00  0.00     0.125 A 
HETATM    3  N4  UNL     1      26.911   2.435 285.039  1.00  0.00    -0.346 N 
ATOM      4  H4  UNL     1      26.094   3.044 284.979  1.00  0.00     0.167 HD
HETATM    5  C8  UNL     1      27.886   2.361 284.109  1.00  0.00     0.188 A 
HETATM    6  N5  UNL     1      28.767   1.459 284.550  1.00  0.00    -0.320 N 
ENDROOT
BRANCH   2   7
HETATM    7  C6  UNL     1      26.290   1.480 287.203  1.00  0.00     0.276 C 
HETATM    8  O1  UNL     1      25.582   0.490 287.470  1.00  0.00    -0.266 OA
HETATM    9  N1  UNL     1      26.190   2.559 288.152  1.00  0.00    -0.298 N 
HETATM   10  C7  UNL     1      26.850   2.578 289.254  1.00  0.00     0.203 C 
ATOM     11  H1  UNL     1      25.569   3.340 287.940  1.00  0.00     0.171 HD
HETATM   12  N2  UNL     1      27.735   1.574 289.675  1.00  0.00    -0.066 NA
HETATM   13  N3  UNL     1      26.661   3.700 290.098  1.00  0.00    -0.066 NA
ENDBRANCH   2   7
BRANCH   1  14
HETATM   14  C3  UNL     1      29.037  -0.082 286.531  1.00  0.00     0.086 C 
BRANCH  14  15
HETATM   15  C2  UNL     1      28.386  -1.411 286.507  1.00  0.00    -0.031 C 
HETATM   16  C1  UNL     1      28.052  -2.029 287.618  1.00  0.00     0.007 C 
ENDBRANCH  14  15
ENDBRANCH   1  14
BRANCH   6  17
HETATM   17  C9  UNL     1      29.917   1.027 283.873  1.00  0.00     0.094 C 
BRANCH  17  18
HETATM   18  C10 UNL     1      30.889   1.595 283.264  1.00  0.00    -0.000 C 
BRANCH  18  19
HETATM   19  C11 UNL     1      31.063   2.053 281.883  1.00  0.00     0.128 C 
BRANCH  19  20
HETATM   20  C12 UNL     1      30.793   3.560 281.879  1.00  0.00     0.234 C 
HETATM   21  N6  UNL     1      31.858   4.388 282.262  1.00  0.00    -0.062 NA
HETATM   22  O2  UNL     1      29.673   4.009 281.548  1.00  0.00    -0.277 OA
ENDBRANCH  19  20
ENDBRANCH  18  19
ENDBRANCH  17  18
ENDBRANCH   6  17
TORSDOF 7
ENDMDL
