MODEL 1
REMARK VINA RESULT: -7.589050920      0.000      0.000
REMARK  6 active torsions:
REMARK  status: ('A' for Active; 'I' for Inactive)
REMARK    1  A    between atoms: C2_2  and  C4_4 
REMARK    2  A    between atoms: C14_14  and  N1_16 
REMARK       I    between atoms: N1_16  and  C16_18 
REMARK    3  A    between atoms: C16_18  and  C17_20 
REMARK    4  A    between atoms: C17_20  and  N2_21 
REMARK    5  A    between atoms: N2_21  and  C20_24 
REMARK    6  A    between atoms: C20_24  and  O2_25 
ROOT
HETATM    1  C4  UNL     1      -2.489  -8.217  17.757  1.00  0.00     0.022 C 
HETATM    2  C5  UNL     1      -1.261  -9.163  17.673  1.00  0.00     0.010 C 
HETATM    3  C6  UNL     1      -1.299  -9.949  18.952  1.00  0.00     0.006 C 
HETATM    4  C7  UNL     1      -2.321  -9.298  19.840  1.00  0.00    -0.001 C 
HETATM    5  C8  UNL     1      -1.933  -9.205  21.294  1.00  0.00    -0.005 C 
HETATM    6  C9  UNL     1      -1.889 -10.596  21.805  1.00  0.00     0.005 C 
HETATM    7  C10 UNL     1      -1.361 -10.810  23.167  1.00  0.00     0.001 C 
HETATM    8  C11 UNL     1       0.002 -10.301  23.426  1.00  0.00     0.005 C 
HETATM    9  C12 UNL     1       0.175  -8.863  23.730  1.00  0.00    -0.004 C 
HETATM   10  C13 UNL     1       0.067  -8.513  25.203  1.00  0.00     0.036 C 
HETATM   11  C14 UNL     1       0.822  -7.244  25.389  1.00  0.00     0.029 C 
HETATM   12  C15 UNL     1       0.449  -6.720  26.784  1.00  0.00     0.038 C 
HETATM   13  C21 UNL     1       0.478  -6.165  24.417  1.00  0.00     0.031 C 
HETATM   14  C22 UNL     1       0.230  -6.577  23.001  1.00  0.00     0.012 C 
HETATM   15  C23 UNL     1      -0.590  -7.879  22.902  1.00  0.00    -0.036 C 
HETATM   16  C24 UNL     1      -1.902  -7.465  23.515  1.00  0.00     0.016 C 
HETATM   17  C25 UNL     1      -0.699  -8.397  21.512  1.00  0.00    -0.002 C 
HETATM   18  C26 UNL     1      -0.509  -7.417  20.405  1.00  0.00     0.006 C 
HETATM   19  C27 UNL     1      -1.750  -6.910  19.744  1.00  0.00     0.010 C 
HETATM   20  C28 UNL     1      -2.664  -7.979  19.210  1.00  0.00    -0.033 C 
HETATM   21  C29 UNL     1      -4.066  -7.524  19.570  1.00  0.00     0.016 C 
ENDROOT
BRANCH  11  22
HETATM   22  N1  UNL     1       2.257  -7.421  25.402  1.00  0.00    -0.351 N 
HETATM   23  C16 UNL     1       2.946  -8.486  26.040  1.00  0.00     0.244 C 
HETATM   24  O1  UNL     1       2.273  -9.350  26.649  1.00  0.00    -0.272 OA
ATOM     25  H1  UNL     1       2.820  -6.724  24.914  1.00  0.00     0.163 HD
BRANCH  23  26
HETATM   26  C17 UNL     1       4.404  -8.627  26.022  1.00  0.00     0.341 C 
BRANCH  26  27
HETATM   27  N2  UNL     1       4.975  -8.864  24.721  1.00  0.00    -0.046 N 
HETATM   28  C18 UNL     1       5.726  -7.688  24.301  1.00  0.00     0.275 C 
HETATM   29  C19 UNL     1       4.041  -9.274  23.718  1.00  0.00     0.275 C 
BRANCH  27  30
HETATM   30  C20 UNL     1       5.972  -9.927  24.872  1.00  0.00     0.401 C 
BRANCH  30  31
HETATM   31  O2  UNL     1       7.097  -9.658  24.097  1.00  0.00    -0.374 OA
ATOM     32  H2  UNL     1       7.139 -10.245  23.352  1.00  0.00     0.211 HD
ENDBRANCH  30  31
ENDBRANCH  27  30
ENDBRANCH  26  27
ENDBRANCH  23  26
ENDBRANCH  11  22
BRANCH   1  33
HETATM   33  C2  UNL     1      -3.515  -8.904  16.990  1.00  0.00    -0.088 C 
HETATM   34  C1  UNL     1      -3.670 -10.159  16.706  1.00  0.00     0.014 C 
HETATM   35  C3  UNL     1      -4.619  -7.987  16.441  1.00  0.00     0.043 C 
ENDBRANCH   1  33
TORSDOF 6
ENDMDL
MODEL 2
REMARK VINA RESULT: -7.487682737      1.037      1.368
REMARK  6 active torsions:
REMARK  status: ('A' for Active; 'I' for Inactive)
REMARK    1  A    between atoms: C2_2  and  C4_4 
REMARK    2  A    between atoms: C14_14  and  N1_16 
REMARK       I    between atoms: N1_16  and  C16_18 
REMARK    3  A    between atoms: C16_18  and  C17_20 
REMARK    4  A    between atoms: C17_20  and  N2_21 
REMARK    5  A    between atoms: N2_21  and  C20_24 
REMARK    6  A    between atoms: C20_24  and  O2_25 
ROOT
HETATM    1  C4  UNL     1      -2.754  -8.248  17.557  1.00  0.00     0.022 C 
HETATM    2  C5  UNL     1      -1.487  -9.133  17.415  1.00  0.00     0.010 C 
HETATM    3  C6  UNL     1      -1.424  -9.913  18.696  1.00  0.00     0.006 C 
HETATM    4  C7  UNL     1      -2.432  -9.309  19.632  1.00  0.00    -0.001 C 
HETATM    5  C8  UNL     1      -1.979  -9.190  21.065  1.00  0.00    -0.005 C 
HETATM    6  C9  UNL     1      -1.842 -10.574  21.577  1.00  0.00     0.005 C 
HETATM    7  C10 UNL     1      -1.238 -10.755  22.912  1.00  0.00     0.001 C 
HETATM    8  C11 UNL     1       0.109 -10.178  23.103  1.00  0.00     0.005 C 
HETATM    9  C12 UNL     1       0.227  -8.733  23.394  1.00  0.00    -0.004 C 
HETATM   10  C13 UNL     1       0.173  -8.381  24.869  1.00  0.00     0.036 C 
HETATM   11  C14 UNL     1       0.873  -7.075  25.015  1.00  0.00     0.029 C 
HETATM   12  C15 UNL     1       0.543  -6.563  26.425  1.00  0.00     0.038 C 
HETATM   13  C21 UNL     1       0.430  -6.019  24.058  1.00  0.00     0.031 C 
HETATM   14  C22 UNL     1       0.133  -6.450  22.657  1.00  0.00     0.012 C 
HETATM   15  C23 UNL     1      -0.626  -7.791  22.602  1.00  0.00    -0.036 C 
HETATM   16  C24 UNL     1      -1.924  -7.438  23.277  1.00  0.00     0.016 C 
HETATM   17  C25 UNL     1      -0.776  -8.322  21.220  1.00  0.00    -0.002 C 
HETATM   18  C26 UNL     1      -0.689  -7.338  20.103  1.00  0.00     0.006 C 
HETATM   19  C27 UNL     1      -1.984  -6.897  19.501  1.00  0.00     0.010 C 
HETATM   20  C28 UNL     1      -2.869  -8.012  19.016  1.00  0.00    -0.033 C 
HETATM   21  C29 UNL     1      -4.273  -7.623  19.443  1.00  0.00     0.016 C 
ENDROOT
BRANCH  11  22
HETATM   22  N1  UNL     1       2.314  -7.182  24.958  1.00  0.00    -0.351 N 
HETATM   23  C16 UNL     1       3.100  -8.084  25.722  1.00  0.00     0.244 C 
HETATM   24  O1  UNL     1       2.516  -8.856  26.518  1.00  0.00    -0.272 OA
ATOM     25  H1  UNL     1       2.805  -6.558  24.317  1.00  0.00     0.163 HD
BRANCH  23  26
HETATM   26  C17 UNL     1       4.560  -8.161  25.628  1.00  0.00     0.341 C 
BRANCH  26  27
HETATM   27  N2  UNL     1       5.265  -7.056  26.226  1.00  0.00    -0.046 N 
HETATM   28  C18 UNL     1       6.561  -7.515  26.710  1.00  0.00     0.275 C 
HETATM   29  C19 UNL     1       4.542  -6.360  27.246  1.00  0.00     0.275 C 
BRANCH  27  30
HETATM   30  C20 UNL     1       5.567  -6.103  25.155  1.00  0.00     0.401 C 
BRANCH  30  31
HETATM   31  O2  UNL     1       6.590  -6.587  24.342  1.00  0.00    -0.374 OA
ATOM     32  H2  UNL     1       6.465  -6.304  23.444  1.00  0.00     0.211 HD
ENDBRANCH  30  31
ENDBRANCH  27  30
ENDBRANCH  26  27
ENDBRANCH  23  26
ENDBRANCH  11  22
BRANCH   1  33
HETATM   33  C2  UNL     1      -3.781  -8.988  16.843  1.00  0.00    -0.088 C 
HETATM   34  C1  UNL     1      -3.882 -10.248  16.558  1.00  0.00     0.014 C 
HETATM   35  C3  UNL     1      -4.964  -8.132  16.363  1.00  0.00     0.043 C 
ENDBRANCH   1  33
TORSDOF 6
ENDMDL
MODEL 3
REMARK VINA RESULT: -7.104491889      1.760      2.045
REMARK  6 active torsions:
REMARK  status: ('A' for Active; 'I' for Inactive)
REMARK    1  A    between atoms: C2_2  and  C4_4 
REMARK    2  A    between atoms: C14_14  and  N1_16 
REMARK       I    between atoms: N1_16  and  C16_18 
REMARK    3  A    between atoms: C16_18  and  C17_20 
REMARK    4  A    between atoms: C17_20  and  N2_21 
REMARK    5  A    between atoms: N2_21  and  C20_24 
REMARK    6  A    between atoms: C20_24  and  O2_25 
ROOT
HETATM    1  C4  UNL     1      -2.491  -8.278  17.718  1.00  0.00     0.022 C 
HETATM    2  C5  UNL     1      -1.254  -9.212  17.635  1.00  0.00     0.010 C 
HETATM    3  C6  UNL     1      -1.288  -9.999  18.913  1.00  0.00     0.006 C 
HETATM    4  C7  UNL     1      -2.317  -9.358  19.801  1.00  0.00    -0.001 C 
HETATM    5  C8  UNL     1      -1.933  -9.263  21.255  1.00  0.00    -0.005 C 
HETATM    6  C9  UNL     1      -1.877 -10.654  21.765  1.00  0.00     0.005 C 
HETATM    7  C10 UNL     1      -1.349 -10.864  23.128  1.00  0.00     0.001 C 
HETATM    8  C11 UNL     1       0.008 -10.342  23.390  1.00  0.00     0.005 C 
HETATM    9  C12 UNL     1       0.167  -8.904  23.695  1.00  0.00    -0.004 C 
HETATM   10  C13 UNL     1       0.053  -8.556  25.168  1.00  0.00     0.036 C 
HETATM   11  C14 UNL     1       0.796  -7.280  25.357  1.00  0.00     0.029 C 
HETATM   12  C15 UNL     1       0.415  -6.760  26.751  1.00  0.00     0.038 C 
HETATM   13  C21 UNL     1       0.444  -6.203  24.385  1.00  0.00     0.031 C 
HETATM   14  C22 UNL     1       0.202  -6.617  22.968  1.00  0.00     0.012 C 
HETATM   15  C23 UNL     1      -0.606  -7.926  22.867  1.00  0.00    -0.036 C 
HETATM   16  C24 UNL     1      -1.922  -7.524  23.478  1.00  0.00     0.016 C 
HETATM   17  C25 UNL     1      -0.707  -8.444  21.476  1.00  0.00    -0.002 C 
HETATM   18  C26 UNL     1      -0.524  -7.461  20.370  1.00  0.00     0.006 C 
HETATM   19  C27 UNL     1      -1.768  -6.966  19.707  1.00  0.00     0.010 C 
HETATM   20  C28 UNL     1      -2.671  -8.042  19.171  1.00  0.00    -0.033 C 
HETATM   21  C29 UNL     1      -4.078  -7.600  19.528  1.00  0.00     0.016 C 
ENDROOT
BRANCH  11  22
HETATM   22  N1  UNL     1       2.233  -7.443  25.372  1.00  0.00    -0.351 N 
HETATM   23  C16 UNL     1       3.176  -6.388  25.487  1.00  0.00     0.244 C 
HETATM   24  O1  UNL     1       2.748  -5.213  25.579  1.00  0.00    -0.272 OA
ATOM     25  H1  UNL     1       2.597  -8.393  25.295  1.00  0.00     0.163 HD
BRANCH  23  26
HETATM   26  C17 UNL     1       4.625  -6.602  25.504  1.00  0.00     0.341 C 
BRANCH  26  27
HETATM   27  N2  UNL     1       5.224  -6.598  26.815  1.00  0.00    -0.046 N 
HETATM   28  C18 UNL     1       6.293  -7.588  26.860  1.00  0.00     0.275 C 
HETATM   29  C19 UNL     1       4.305  -6.771  27.897  1.00  0.00     0.275 C 
BRANCH  27  30
HETATM   30  C20 UNL     1       5.887  -5.303  26.985  1.00  0.00     0.401 C 
BRANCH  30  31
HETATM   31  O2  UNL     1       5.011  -4.373  27.540  1.00  0.00    -0.374 OA
ATOM     32  H2  UNL     1       4.616  -3.840  26.861  1.00  0.00     0.211 HD
ENDBRANCH  30  31
ENDBRANCH  27  30
ENDBRANCH  26  27
ENDBRANCH  23  26
ENDBRANCH  11  22
BRANCH   1  33
HETATM   33  C2  UNL     1      -3.509  -8.973  16.949  1.00  0.00    -0.088 C 
HETATM   34  C1  UNL     1      -3.640 -10.226  16.644  1.00  0.00     0.014 C 
HETATM   35  C3  UNL     1      -4.637  -8.071  16.425  1.00  0.00     0.043 C 
ENDBRANCH   1  33
TORSDOF 6
ENDMDL
MODEL 4
REMARK VINA RESULT: -6.985931482      2.377      4.770
REMARK  6 active torsions:
REMARK  status: ('A' for Active; 'I' for Inactive)
REMARK    1  A    between atoms: C2_2  and  C4_4 
REMARK    2  A    between atoms: C14_14  and  N1_16 
REMARK       I    between atoms: N1_16  and  C16_18 
REMARK    3  A    between atoms: C16_18  and  C17_20 
REMARK    4  A    between atoms: C17_20  and  N2_21 
REMARK    5  A    between atoms: N2_21  and  C20_24 
REMARK    6  A    between atoms: C20_24  and  O2_25 
ROOT
HETATM    1  C4  UNL     1      -3.611  -9.497  18.308  1.00  0.00     0.022 C 
HETATM    2  C5  UNL     1      -4.554  -8.516  19.054  1.00  0.00     0.010 C 
HETATM    3  C6  UNL     1      -3.663  -7.387  19.485  1.00  0.00     0.006 C 
HETATM    4  C7  UNL     1      -2.246  -7.827  19.248  1.00  0.00    -0.001 C 
HETATM    5  C8  UNL     1      -1.271  -7.441  20.330  1.00  0.00    -0.005 C 
HETATM    6  C9  UNL     1      -1.168  -5.962  20.295  1.00  0.00     0.005 C 
HETATM    7  C10 UNL     1      -0.408  -5.302  21.374  1.00  0.00     0.001 C 
HETATM    8  C11 UNL     1      -0.851  -5.586  22.754  1.00  0.00     0.005 C 
HETATM    9  C12 UNL     1      -0.408  -6.843  23.396  1.00  0.00    -0.004 C 
HETATM   10  C13 UNL     1       0.911  -6.740  24.140  1.00  0.00     0.036 C 
HETATM   11  C14 UNL     1       0.901  -7.821  25.162  1.00  0.00     0.029 C 
HETATM   12  C15 UNL     1       2.340  -7.931  25.689  1.00  0.00     0.038 C 
HETATM   13  C21 UNL     1       0.530  -9.170  24.641  1.00  0.00     0.031 C 
HETATM   14  C22 UNL     1      -0.558  -9.228  23.617  1.00  0.00     0.012 C 
HETATM   15  C23 UNL     1      -0.449  -8.095  22.577  1.00  0.00    -0.036 C 
HETATM   16  C24 UNL     1       0.859  -8.419  21.904  1.00  0.00     0.016 C 
HETATM   17  C25 UNL     1      -1.615  -8.033  21.656  1.00  0.00    -0.002 C 
HETATM   18  C26 UNL     1      -2.412  -9.281  21.484  1.00  0.00     0.006 C 
HETATM   19  C27 UNL     1      -2.152 -10.071  20.242  1.00  0.00     0.010 C 
HETATM   20  C28 UNL     1      -2.294  -9.299  18.959  1.00  0.00    -0.033 C 
HETATM   21  C29 UNL     1      -1.132  -9.747  18.092  1.00  0.00     0.016 C 
ENDROOT
BRANCH  11  22
HETATM   22  N1  UNL     1       0.079  -7.523  26.313  1.00  0.00    -0.351 N 
HETATM   23  C16 UNL     1      -0.077  -8.361  27.449  1.00  0.00     0.244 C 
HETATM   24  O1  UNL     1       0.538  -9.453  27.472  1.00  0.00    -0.272 OA
ATOM     25  H1  UNL     1      -0.431  -6.639  26.309  1.00  0.00     0.163 HD
BRANCH  23  26
HETATM   26  C17 UNL     1      -0.918  -8.014  28.597  1.00  0.00     0.341 C 
BRANCH  26  27
HETATM   27  N2  UNL     1      -2.132  -8.782  28.713  1.00  0.00    -0.046 N 
HETATM   28  C18 UNL     1      -1.860 -10.008  29.453  1.00  0.00     0.275 C 
HETATM   29  C19 UNL     1      -2.794  -9.054  27.474  1.00  0.00     0.275 C 
BRANCH  27  30
HETATM   30  C20 UNL     1      -3.050  -8.015  29.559  1.00  0.00     0.401 C 
BRANCH  30  31
HETATM   31  O2  UNL     1      -4.373  -8.301  29.230  1.00  0.00    -0.374 OA
ATOM     32  H2  UNL     1      -4.946  -7.596  29.508  1.00  0.00     0.211 HD
ENDBRANCH  30  31
ENDBRANCH  27  30
ENDBRANCH  26  27
ENDBRANCH  23  26
ENDBRANCH  11  22
BRANCH   1  33
HETATM   33  C2  UNL     1      -3.800  -9.167  16.905  1.00  0.00    -0.088 C 
HETATM   34  C1  UNL     1      -4.015  -8.032  16.317  1.00  0.00     0.014 C 
HETATM   35  C3  UNL     1      -3.706 -10.369  15.952  1.00  0.00     0.043 C 
ENDBRANCH   1  33
TORSDOF 6
ENDMDL
MODEL 5
REMARK VINA RESULT: -6.959513939      4.306      6.839
REMARK  6 active torsions:
REMARK  status: ('A' for Active; 'I' for Inactive)
REMARK    1  A    between atoms: C2_2  and  C4_4 
REMARK    2  A    between atoms: C14_14  and  N1_16 
REMARK       I    between atoms: N1_16  and  C16_18 
REMARK    3  A    between atoms: C16_18  and  C17_20 
REMARK    4  A    between atoms: C17_20  and  N2_21 
REMARK    5  A    between atoms: N2_21  and  C20_24 
REMARK    6  A    between atoms: C20_24  and  O2_25 
ROOT
HETATM    1  C4  UNL     1      -1.635  -6.958  21.123  1.00  0.00     0.022 C 
HETATM    2  C5  UNL     1      -1.263  -6.769  22.618  1.00  0.00     0.010 C 
HETATM    3  C6  UNL     1       0.013  -7.540  22.791  1.00  0.00     0.006 C 
HETATM    4  C7  UNL     1       0.211  -8.354  21.544  1.00  0.00    -0.001 C 
HETATM    5  C8  UNL     1       0.722  -9.753  21.771  1.00  0.00    -0.005 C 
HETATM    6  C9  UNL     1       2.101  -9.616  22.298  1.00  0.00     0.005 C 
HETATM    7  C10 UNL     1       2.778 -10.838  22.777  1.00  0.00     0.001 C 
HETATM    8  C11 UNL     1       2.078 -11.602  23.830  1.00  0.00     0.005 C 
HETATM    9  C12 UNL     1       0.990 -12.522  23.433  1.00  0.00    -0.004 C 
HETATM   10  C13 UNL     1       1.446 -13.932  23.105  1.00  0.00     0.036 C 
HETATM   11  C14 UNL     1       0.266 -14.814  23.317  1.00  0.00     0.029 C 
HETATM   12  C15 UNL     1       0.620 -16.169  22.683  1.00  0.00     0.038 C 
HETATM   13  C21 UNL     1      -0.990 -14.347  22.660  1.00  0.00     0.031 C 
HETATM   14  C22 UNL     1      -1.261 -12.876  22.678  1.00  0.00     0.012 C 
HETATM   15  C23 UNL     1       0.007 -12.040  22.412  1.00  0.00    -0.036 C 
HETATM   16  C24 UNL     1       0.353 -12.444  21.003  1.00  0.00     0.016 C 
HETATM   17  C25 UNL     1      -0.205 -10.580  22.598  1.00  0.00    -0.002 C 
HETATM   18  C26 UNL     1      -1.604 -10.077  22.480  1.00  0.00     0.006 C 
HETATM   19  C27 UNL     1      -1.971  -9.424  21.187  1.00  0.00     0.010 C 
HETATM   20  C28 UNL     1      -1.077  -8.287  20.776  1.00  0.00    -0.033 C 
HETATM   21  C29 UNL     1      -0.861  -8.466  19.285  1.00  0.00     0.016 C 
ENDROOT
BRANCH  11  22
HETATM   22  N1  UNL     1      -0.010 -15.088  24.710  1.00  0.00    -0.351 N 
HETATM   23  C16 UNL     1      -1.027 -15.954  25.189  1.00  0.00     0.244 C 
HETATM   24  O1  UNL     1      -1.758 -16.535  24.352  1.00  0.00    -0.272 OA
ATOM     25  H1  UNL     1       0.574 -14.621  25.404  1.00  0.00     0.163 HD
BRANCH  23  26
HETATM   26  C17 UNL     1      -1.267 -16.206  26.612  1.00  0.00     0.341 C 
BRANCH  26  27
HETATM   27  N2  UNL     1      -2.296 -15.391  27.207  1.00  0.00    -0.046 N 
HETATM   28  C18 UNL     1      -3.470 -16.213  27.472  1.00  0.00     0.275 C 
HETATM   29  C19 UNL     1      -2.637 -14.215  26.468  1.00  0.00     0.275 C 
BRANCH  27  30
HETATM   30  C20 UNL     1      -1.811 -14.974  28.525  1.00  0.00     0.401 C 
BRANCH  30  31
HETATM   31  O2  UNL     1      -2.415 -13.781  28.915  1.00  0.00    -0.374 OA
ATOM     32  H2  UNL     1      -3.354 -13.894  29.001  1.00  0.00     0.211 HD
ENDBRANCH  30  31
ENDBRANCH  27  30
ENDBRANCH  26  27
ENDBRANCH  23  26
ENDBRANCH  11  22
BRANCH   1  33
HETATM   33  C2  UNL     1      -1.135  -5.754  20.481  1.00  0.00    -0.088 C 
HETATM   34  C1  UNL     1      -0.870  -5.497  19.239  1.00  0.00     0.014 C 
HETATM   35  C3  UNL     1      -0.900  -4.574  21.438  1.00  0.00     0.043 C 
ENDBRANCH   1  33
TORSDOF 6
ENDMDL
