MODEL 1
REMARK VINA RESULT: -5.909062159      0.000      0.000
REMARK  11 active torsions:
REMARK  status: ('A' for Active; 'I' for Inactive)
REMARK    1  A    between atoms: C2_2  and  C3_3 
REMARK    2  A    between atoms: C3_3  and  C4_4 
REMARK    3  A    between atoms: C4_4  and  O2_6 
REMARK    4  A    between atoms: C8_10  and  O3_11 
REMARK    5  A    between atoms: N1_13  and  C9_14 
REMARK    6  A    between atoms: C9_14  and  C10_15 
REMARK    7  A    between atoms: C13_18  and  O4_19 
REMARK    8  A    between atoms: C19_26  and  C20_27 
REMARK    9  A    between atoms: C19_26  and  C22_30 
REMARK   10  A    between atoms: C22_30  and  O7_32 
REMARK   11  A    between atoms: O7_32  and  C23_33 
ROOT
HETATM    1  C3  UNL     1     -11.697 -35.925  21.592  1.00  0.00     0.158 C 
HETATM    2  C6  UNL     1     -11.372 -34.462  21.499  1.00  0.00     0.046 A 
HETATM    3  C7  UNL     1     -12.197 -33.594  20.911  1.00  0.00     0.031 A 
HETATM    4  C8  UNL     1     -11.648 -32.297  21.025  1.00  0.00     0.155 A 
HETATM    5  N1  UNL     1     -10.497 -32.403  21.680  1.00  0.00    -0.307 N 
HETATM    6  C13 UNL     1     -10.312 -33.712  21.975  1.00  0.00     0.154 A 
HETATM    7  C14 UNL     1     -13.410 -33.954  20.213  1.00  0.00     0.046 C 
HETATM    8  C15 UNL     1     -13.665 -35.270  20.192  1.00  0.00     0.038 C 
HETATM    9  C16 UNL     1     -14.884 -35.689  19.480  1.00  0.00     0.034 C 
HETATM   10  C17 UNL     1     -15.217 -36.948  19.373  1.00  0.00    -0.049 C 
HETATM   11  C18 UNL     1     -16.455 -37.317  18.637  1.00  0.00     0.046 C 
HETATM   12  C19 UNL     1     -14.464 -38.028  20.007  1.00  0.00     0.183 C 
HETATM   13  C26 UNL     1     -13.173 -37.654  20.602  1.00  0.00     0.112 C 
HETATM   14  S1  UNL     1     -12.130 -38.889  20.997  1.00  0.00    -0.063 SA
HETATM   15  N2  UNL     1     -12.821 -36.255  20.765  1.00  0.00    -0.316 N 
ENDROOT
BRANCH  12  16
HETATM   16  C20 UNL     1     -15.332 -38.593  21.101  1.00  0.00     0.152 C 
HETATM   17  C21 UNL     1     -15.795 -37.823  22.265  1.00  0.00     0.093 C 
HETATM   18  O5  UNL     1     -15.677 -39.759  21.024  1.00  0.00    -0.296 OA
ENDBRANCH  12  16
BRANCH  12  19
HETATM   19  C22 UNL     1     -14.236 -39.097  18.990  1.00  0.00     0.286 C 
HETATM   20  O6  UNL     1     -14.733 -40.217  19.169  1.00  0.00    -0.263 OA
BRANCH  19  21
HETATM   21  O7  UNL     1     -13.483 -38.855  17.856  1.00  0.00    -0.315 OA
BRANCH  21  22
HETATM   22  C23 UNL     1     -12.771 -39.864  17.173  1.00  0.00     0.123 C 
HETATM   23  C24 UNL     1     -11.281 -39.781  17.380  1.00  0.00     0.040 C 
HETATM   24  C25 UNL     1     -13.030 -39.851  15.684  1.00  0.00     0.040 C 
ENDBRANCH  21  22
ENDBRANCH  19  21
ENDBRANCH  12  19
BRANCH   1  25
HETATM   25  C2  UNL     1     -11.945 -36.045  23.073  1.00  0.00     0.043 C 
HETATM   26  C1  UNL     1     -13.194 -35.684  23.722  1.00  0.00     0.008 C 
ENDBRANCH   1  25
BRANCH   1  27
HETATM   27  C4  UNL     1     -10.516 -36.704  21.223  1.00  0.00     0.292 C 
HETATM   28  O1  UNL     1     -10.033 -36.923  20.095  1.00  0.00    -0.262 OA
BRANCH  27  29
HETATM   29  O2  UNL     1      -9.817 -37.290  22.268  1.00  0.00    -0.324 OA
HETATM   30  C5  UNL     1      -8.452 -37.662  22.174  1.00  0.00     0.213 C 
ENDBRANCH  27  29
ENDBRANCH   1  27
BRANCH   6  31
HETATM   31  O4  UNL     1      -9.236 -34.202  22.643  1.00  0.00    -0.345 OA
ATOM     32  H4  UNL     1      -8.974 -33.958  23.523  1.00  0.00     0.219 HD
ENDBRANCH   6  31
BRANCH   4  33
HETATM   33  O3  UNL     1     -12.209 -31.114  20.541  1.00  0.00    -0.345 OA
ATOM     34  H3  UNL     1     -11.765 -30.446  20.032  1.00  0.00     0.219 HD
ENDBRANCH   4  33
BRANCH   5  35
HETATM   35  C9  UNL     1      -9.589 -31.331  22.022  1.00  0.00     0.137 C 
BRANCH  35  36
HETATM   36  C10 UNL     1      -9.690 -30.852  23.429  1.00  0.00    -0.004 C 
HETATM   37  C11 UNL     1     -10.634 -29.643  23.413  1.00  0.00     0.011 C 
HETATM   38  C12 UNL     1      -8.350 -30.450  23.976  1.00  0.00     0.011 C 
ENDBRANCH  35  36
ENDBRANCH   5  35
TORSDOF 11
ENDMDL
MODEL 2
REMARK VINA RESULT: -5.831177986      2.822      7.855
REMARK  11 active torsions:
REMARK  status: ('A' for Active; 'I' for Inactive)
REMARK    1  A    between atoms: C2_2  and  C3_3 
REMARK    2  A    between atoms: C3_3  and  C4_4 
REMARK    3  A    between atoms: C4_4  and  O2_6 
REMARK    4  A    between atoms: C8_10  and  O3_11 
REMARK    5  A    between atoms: N1_13  and  C9_14 
REMARK    6  A    between atoms: C9_14  and  C10_15 
REMARK    7  A    between atoms: C13_18  and  O4_19 
REMARK    8  A    between atoms: C19_26  and  C20_27 
REMARK    9  A    between atoms: C19_26  and  C22_30 
REMARK   10  A    between atoms: C22_30  and  O7_32 
REMARK   11  A    between atoms: O7_32  and  C23_33 
ROOT
HETATM    1  C3  UNL     1     -10.785 -35.385  22.065  1.00  0.00     0.158 C 
HETATM    2  C6  UNL     1     -10.290 -36.395  21.070  1.00  0.00     0.046 A 
HETATM    3  C7  UNL     1      -9.632 -36.033  19.968  1.00  0.00     0.031 A 
HETATM    4  C8  UNL     1      -9.253 -37.197  19.262  1.00  0.00     0.155 A 
HETATM    5  N1  UNL     1      -9.690 -38.245  19.951  1.00  0.00    -0.307 N 
HETATM    6  C13 UNL     1     -10.324 -37.777  21.054  1.00  0.00     0.154 A 
HETATM    7  C14 UNL     1      -9.420 -34.668  19.546  1.00  0.00     0.046 C 
HETATM    8  C15 UNL     1      -9.949 -33.747  20.367  1.00  0.00     0.038 C 
HETATM    9  C16 UNL     1      -9.771 -32.340  19.972  1.00  0.00     0.034 C 
HETATM   10  C17 UNL     1     -10.267 -31.362  20.683  1.00  0.00    -0.049 C 
HETATM   11  C18 UNL     1     -10.065 -29.958  20.236  1.00  0.00     0.046 C 
HETATM   12  C19 UNL     1     -10.962 -31.571  21.951  1.00  0.00     0.183 C 
HETATM   13  C26 UNL     1     -11.275 -32.965  22.296  1.00  0.00     0.112 C 
HETATM   14  S1  UNL     1     -12.372 -33.219  23.522  1.00  0.00    -0.063 SA
HETATM   15  N2  UNL     1     -10.687 -34.055  21.537  1.00  0.00    -0.316 N 
ENDROOT
BRANCH  12  16
HETATM   16  C20 UNL     1     -10.082 -31.010  23.038  1.00  0.00     0.152 C 
HETATM   17  C21 UNL     1      -8.711 -31.469  23.305  1.00  0.00     0.093 C 
HETATM   18  O5  UNL     1     -10.525 -30.122  23.743  1.00  0.00    -0.296 OA
ENDBRANCH  12  16
BRANCH  12  19
HETATM   19  C22 UNL     1     -12.231 -30.784  21.922  1.00  0.00     0.286 C 
HETATM   20  O6  UNL     1     -13.218 -31.251  21.336  1.00  0.00    -0.263 OA
BRANCH  19  21
HETATM   21  O7  UNL     1     -12.320 -29.550  22.538  1.00  0.00    -0.315 OA
BRANCH  21  22
HETATM   22  C23 UNL     1     -13.511 -29.062  23.117  1.00  0.00     0.123 C 
HETATM   23  C24 UNL     1     -14.395 -28.339  22.135  1.00  0.00     0.040 C 
HETATM   24  C25 UNL     1     -13.251 -28.126  24.276  1.00  0.00     0.040 C 
ENDBRANCH  21  22
ENDBRANCH  19  21
ENDBRANCH  12  19
BRANCH   1  25
HETATM   25  C2  UNL     1      -9.860 -35.677  23.218  1.00  0.00     0.043 C 
HETATM   26  C1  UNL     1      -8.469 -35.260  23.273  1.00  0.00     0.008 C 
ENDBRANCH   1  25
BRANCH   1  27
HETATM   27  C4  UNL     1     -12.161 -35.712  22.438  1.00  0.00     0.292 C 
HETATM   28  O1  UNL     1     -12.606 -36.137  23.521  1.00  0.00    -0.262 OA
BRANCH  27  29
HETATM   29  O2  UNL     1     -13.123 -35.525  21.457  1.00  0.00    -0.324 OA
HETATM   30  C5  UNL     1     -14.012 -36.548  21.040  1.00  0.00     0.213 C 
ENDBRANCH  27  29
ENDBRANCH   1  27
BRANCH   6  31
HETATM   31  O4  UNL     1     -10.903 -38.565  21.996  1.00  0.00    -0.345 OA
ATOM     32  H4  UNL     1     -11.014 -38.340  22.912  1.00  0.00     0.219 HD
ENDBRANCH   6  31
BRANCH   4  33
HETATM   33  O3  UNL     1      -8.546 -37.245  18.060  1.00  0.00    -0.345 OA
ATOM     34  H3  UNL     1      -8.820 -37.680  17.261  1.00  0.00     0.219 HD
ENDBRANCH   4  33
BRANCH   5  35
HETATM   35  C9  UNL     1      -9.533 -39.641  19.605  1.00  0.00     0.137 C 
BRANCH  35  36
HETATM   36  C10 UNL     1      -8.177 -40.201  19.866  1.00  0.00    -0.004 C 
HETATM   37  C11 UNL     1      -7.598 -40.600  18.503  1.00  0.00     0.011 C 
HETATM   38  C12 UNL     1      -8.237 -41.399  20.770  1.00  0.00     0.011 C 
ENDBRANCH  35  36
ENDBRANCH   5  35
TORSDOF 11
ENDMDL
MODEL 3
REMARK VINA RESULT: -5.716634542      8.567     13.312
REMARK  11 active torsions:
REMARK  status: ('A' for Active; 'I' for Inactive)
REMARK    1  A    between atoms: C2_2  and  C3_3 
REMARK    2  A    between atoms: C3_3  and  C4_4 
REMARK    3  A    between atoms: C4_4  and  O2_6 
REMARK    4  A    between atoms: C8_10  and  O3_11 
REMARK    5  A    between atoms: N1_13  and  C9_14 
REMARK    6  A    between atoms: C9_14  and  C10_15 
REMARK    7  A    between atoms: C13_18  and  O4_19 
REMARK    8  A    between atoms: C19_26  and  C20_27 
REMARK    9  A    between atoms: C19_26  and  C22_30 
REMARK   10  A    between atoms: C22_30  and  O7_32 
REMARK   11  A    between atoms: O7_32  and  C23_33 
ROOT
HETATM    1  C3  UNL     1      -1.757 -35.502  21.970  1.00  0.00     0.158 C 
HETATM    2  C6  UNL     1      -3.238 -35.602  22.199  1.00  0.00     0.046 A 
HETATM    3  C7  UNL     1      -3.864 -34.838  23.096  1.00  0.00     0.031 A 
HETATM    4  C8  UNL     1      -5.248 -35.121  23.046  1.00  0.00     0.155 A 
HETATM    5  N1  UNL     1      -5.435 -36.053  22.118  1.00  0.00    -0.307 N 
HETATM    6  C13 UNL     1      -4.224 -36.359  21.593  1.00  0.00     0.154 A 
HETATM    7  C14 UNL     1      -3.207 -33.933  24.009  1.00  0.00     0.046 C 
HETATM    8  C15 UNL     1      -1.870 -33.907  23.895  1.00  0.00     0.038 C 
HETATM    9  C16 UNL     1      -1.153 -33.009  24.815  1.00  0.00     0.034 C 
HETATM   10  C17 UNL     1       0.151 -32.923  24.811  1.00  0.00    -0.049 C 
HETATM   11  C18 UNL     1       0.827 -32.007  25.766  1.00  0.00     0.046 C 
HETATM   12  C19 UNL     1       0.994 -33.640  23.856  1.00  0.00     0.183 C 
HETATM   13  C26 UNL     1       0.317 -34.645  23.023  1.00  0.00     0.112 C 
HETATM   14  S1  UNL     1       1.280 -35.727  22.202  1.00  0.00    -0.063 SA
HETATM   15  N2  UNL     1      -1.133 -34.711  22.990  1.00  0.00    -0.316 N 
ENDROOT
BRANCH  12  16
HETATM   16  C20 UNL     1       1.601 -32.611  22.938  1.00  0.00     0.152 C 
HETATM   17  C21 UNL     1       1.510 -32.659  21.472  1.00  0.00     0.093 C 
HETATM   18  O5  UNL     1       2.206 -31.677  23.434  1.00  0.00    -0.296 OA
ENDBRANCH  12  16
BRANCH  12  19
HETATM   19  C22 UNL     1       2.097 -34.303  24.613  1.00  0.00     0.286 C 
HETATM   20  O6  UNL     1       3.271 -33.998  24.359  1.00  0.00    -0.263 OA
BRANCH  19  21
HETATM   21  O7  UNL     1       1.829 -35.245  25.588  1.00  0.00    -0.315 OA
BRANCH  21  22
HETATM   22  C23 UNL     1       2.674 -35.470  26.695  1.00  0.00     0.123 C 
HETATM   23  C24 UNL     1       2.652 -36.898  27.177  1.00  0.00     0.040 C 
HETATM   24  C25 UNL     1       2.339 -34.583  27.872  1.00  0.00     0.040 C 
ENDBRANCH  21  22
ENDBRANCH  19  21
ENDBRANCH  12  19
BRANCH   1  25
HETATM   25  C2  UNL     1      -1.745 -34.885  20.596  1.00  0.00     0.043 C 
HETATM   26  C1  UNL     1      -1.851 -33.458  20.341  1.00  0.00     0.008 C 
ENDBRANCH   1  25
BRANCH   1  27
HETATM   27  C4  UNL     1      -1.188 -36.848  21.914  1.00  0.00     0.292 C 
HETATM   28  O1  UNL     1      -0.715 -37.467  20.940  1.00  0.00    -0.262 OA
BRANCH  27  29
HETATM   29  O2  UNL     1      -1.161 -37.552  23.108  1.00  0.00    -0.324 OA
HETATM   30  C5  UNL     1      -0.833 -38.929  23.187  1.00  0.00     0.213 C 
ENDBRANCH  27  29
ENDBRANCH   1  27
BRANCH   6  31
HETATM   31  O4  UNL     1      -4.024 -37.279  20.614  1.00  0.00    -0.345 OA
ATOM     32  H4  UNL     1      -3.635 -37.106  19.765  1.00  0.00     0.219 HD
ENDBRANCH   6  31
BRANCH   4  33
HETATM   33  O3  UNL     1      -6.244 -34.530  23.825  1.00  0.00    -0.345 OA
ATOM     34  H3  UNL     1      -6.760 -34.956  24.499  1.00  0.00     0.219 HD
ENDBRANCH   4  33
BRANCH   5  35
HETATM   35  C9  UNL     1      -6.692 -36.652  21.727  1.00  0.00     0.137 C 
BRANCH  35  36
HETATM   36  C10 UNL     1      -7.171 -37.742  22.623  1.00  0.00    -0.004 C 
HETATM   37  C11 UNL     1      -6.826 -39.064  21.928  1.00  0.00     0.011 C 
HETATM   38  C12 UNL     1      -8.652 -37.656  22.858  1.00  0.00     0.011 C 
ENDBRANCH  35  36
ENDBRANCH   5  35
TORSDOF 11
ENDMDL
MODEL 4
REMARK VINA RESULT: -5.675817849     10.348     13.200
REMARK  11 active torsions:
REMARK  status: ('A' for Active; 'I' for Inactive)
REMARK    1  A    between atoms: C2_2  and  C3_3 
REMARK    2  A    between atoms: C3_3  and  C4_4 
REMARK    3  A    between atoms: C4_4  and  O2_6 
REMARK    4  A    between atoms: C8_10  and  O3_11 
REMARK    5  A    between atoms: N1_13  and  C9_14 
REMARK    6  A    between atoms: C9_14  and  C10_15 
REMARK    7  A    between atoms: C13_18  and  O4_19 
REMARK    8  A    between atoms: C19_26  and  C20_27 
REMARK    9  A    between atoms: C19_26  and  C22_30 
REMARK   10  A    between atoms: C22_30  and  O7_32 
REMARK   11  A    between atoms: O7_32  and  C23_33 
ROOT
HETATM    1  C3  UNL     1       1.047 -35.704  19.273  1.00  0.00     0.158 C 
HETATM    2  C6  UNL     1       1.899 -34.498  18.998  1.00  0.00     0.046 A 
HETATM    3  C7  UNL     1       1.656 -33.319  19.572  1.00  0.00     0.031 A 
HETATM    4  C8  UNL     1       2.649 -32.401  19.161  1.00  0.00     0.155 A 
HETATM    5  N1  UNL     1       3.476 -33.042  18.343  1.00  0.00    -0.307 N 
HETATM    6  C13 UNL     1       3.035 -34.318  18.230  1.00  0.00     0.154 A 
HETATM    7  C14 UNL     1       0.517 -33.031  20.412  1.00  0.00     0.046 C 
HETATM    8  C15 UNL     1      -0.317 -34.067  20.586  1.00  0.00     0.038 C 
HETATM    9  C16 UNL     1      -1.502 -33.819  21.424  1.00  0.00     0.034 C 
HETATM   10  C17 UNL     1      -2.395 -34.748  21.640  1.00  0.00    -0.049 C 
HETATM   11  C18 UNL     1      -3.577 -34.444  22.488  1.00  0.00     0.046 C 
HETATM   12  C19 UNL     1      -2.260 -36.115  21.141  1.00  0.00     0.183 C 
HETATM   13  C26 UNL     1      -1.164 -36.351  20.190  1.00  0.00     0.112 C 
HETATM   14  S1  UNL     1      -1.199 -37.774  19.325  1.00  0.00    -0.063 SA
HETATM   15  N2  UNL     1      -0.144 -35.339  19.984  1.00  0.00    -0.316 N 
ENDROOT
BRANCH  12  16
HETATM   16  C20 UNL     1      -2.036 -37.005  22.336  1.00  0.00     0.152 C 
HETATM   17  C21 UNL     1      -0.898 -36.874  23.258  1.00  0.00     0.093 C 
HETATM   18  O5  UNL     1      -2.843 -37.889  22.560  1.00  0.00    -0.296 OA
ENDBRANCH  12  16
BRANCH  12  19
HETATM   19  C22 UNL     1      -3.550 -36.507  20.499  1.00  0.00     0.286 C 
HETATM   20  O6  UNL     1      -3.807 -36.096  19.359  1.00  0.00    -0.263 OA
BRANCH  19  21
HETATM   21  O7  UNL     1      -4.456 -37.320  21.154  1.00  0.00    -0.315 OA
BRANCH  21  22
HETATM   22  C23 UNL     1      -5.847 -37.088  21.144  1.00  0.00     0.123 C 
HETATM   23  C24 UNL     1      -6.426 -36.896  22.522  1.00  0.00     0.040 C 
HETATM   24  C25 UNL     1      -6.617 -38.202  20.474  1.00  0.00     0.040 C 
ENDBRANCH  21  22
ENDBRANCH  19  21
ENDBRANCH  12  19
BRANCH   1  25
HETATM   25  C2  UNL     1       2.022 -36.539  20.062  1.00  0.00     0.043 C 
HETATM   26  C1  UNL     1       2.327 -36.328  21.466  1.00  0.00     0.008 C 
ENDBRANCH   1  25
BRANCH   1  27
HETATM   27  C4  UNL     1       0.732 -36.369  18.010  1.00  0.00     0.292 C 
HETATM   28  O1  UNL     1      -0.106 -36.060  17.140  1.00  0.00    -0.262 OA
BRANCH  27  29
HETATM   29  O2  UNL     1       1.464 -37.511  17.719  1.00  0.00    -0.324 OA
HETATM   30  C5  UNL     1       1.618 -38.018  16.404  1.00  0.00     0.213 C 
ENDBRANCH  27  29
ENDBRANCH   1  27
BRANCH   6  31
HETATM   31  O4  UNL     1       3.634 -35.271  17.470  1.00  0.00    -0.345 OA
ATOM     32  H4  UNL     1       3.438 -35.454  16.559  1.00  0.00     0.219 HD
ENDBRANCH   6  31
BRANCH   4  33
HETATM   33  O3  UNL     1       2.750 -31.063  19.544  1.00  0.00    -0.345 OA
ATOM     34  H3  UNL     1       2.362 -30.665  20.315  1.00  0.00     0.219 HD
ENDBRANCH   4  33
BRANCH   5  35
HETATM   35  C9  UNL     1       4.638 -32.496  17.677  1.00  0.00     0.137 C 
BRANCH  35  36
HETATM   36  C10 UNL     1       5.944 -32.899  18.271  1.00  0.00    -0.004 C 
HETATM   37  C11 UNL     1       6.163 -32.003  19.497  1.00  0.00     0.011 C 
HETATM   38  C12 UNL     1       7.074 -32.722  17.297  1.00  0.00     0.011 C 
ENDBRANCH  35  36
ENDBRANCH   5  35
TORSDOF 11
ENDMDL
MODEL 5
REMARK VINA RESULT: -5.628416168      8.172     12.913
REMARK  11 active torsions:
REMARK  status: ('A' for Active; 'I' for Inactive)
REMARK    1  A    between atoms: C2_2  and  C3_3 
REMARK    2  A    between atoms: C3_3  and  C4_4 
REMARK    3  A    between atoms: C4_4  and  O2_6 
REMARK    4  A    between atoms: C8_10  and  O3_11 
REMARK    5  A    between atoms: N1_13  and  C9_14 
REMARK    6  A    between atoms: C9_14  and  C10_15 
REMARK    7  A    between atoms: C13_18  and  O4_19 
REMARK    8  A    between atoms: C19_26  and  C20_27 
REMARK    9  A    between atoms: C19_26  and  C22_30 
REMARK   10  A    between atoms: C22_30  and  O7_32 
REMARK   11  A    between atoms: O7_32  and  C23_33 
ROOT
HETATM    1  C3  UNL     1      -2.212 -36.425  22.023  1.00  0.00     0.158 C 
HETATM    2  C6  UNL     1      -3.705 -36.432  22.183  1.00  0.00     0.046 A 
HETATM    3  C7  UNL     1      -4.340 -35.500  22.894  1.00  0.00     0.031 A 
HETATM    4  C8  UNL     1      -5.731 -35.741  22.818  1.00  0.00     0.155 A 
HETATM    5  N1  UNL     1      -5.912 -36.818  22.063  1.00  0.00    -0.307 N 
HETATM    6  C13 UNL     1      -4.691 -37.253  21.668  1.00  0.00     0.154 A 
HETATM    7  C14 UNL     1      -3.690 -34.468  23.667  1.00  0.00     0.046 C 
HETATM    8  C15 UNL     1      -2.349 -34.507  23.625  1.00  0.00     0.038 C 
HETATM    9  C16 UNL     1      -1.640 -33.483  24.409  1.00  0.00     0.034 C 
HETATM   10  C17 UNL     1      -0.334 -33.443  24.461  1.00  0.00    -0.049 C 
HETATM   11  C18 UNL     1       0.333 -32.393  25.275  1.00  0.00     0.046 C 
HETATM   12  C19 UNL     1       0.522 -34.348  23.697  1.00  0.00     0.183 C 
HETATM   13  C26 UNL     1      -0.156 -35.463  23.020  1.00  0.00     0.112 C 
HETATM   14  S1  UNL     1       0.798 -36.706  22.458  1.00  0.00    -0.063 SA
HETATM   15  N2  UNL     1      -1.604 -35.485  22.919  1.00  0.00    -0.316 N 
ENDROOT
BRANCH  12  16
HETATM   16  C20 UNL     1       1.216 -33.520  22.646  1.00  0.00     0.152 C 
HETATM   17  C21 UNL     1       0.611 -33.148  21.359  1.00  0.00     0.093 C 
HETATM   18  O5  UNL     1       2.349 -33.132  22.869  1.00  0.00    -0.296 OA
ENDBRANCH  12  16
BRANCH  12  19
HETATM   19  C22 UNL     1       1.558 -34.900  24.619  1.00  0.00     0.286 C 
HETATM   20  O6  UNL     1       2.754 -34.808  24.309  1.00  0.00    -0.263 OA
BRANCH  19  21
HETATM   21  O7  UNL     1       1.204 -35.508  25.809  1.00  0.00    -0.315 OA
BRANCH  21  22
HETATM   22  C23 UNL     1       2.117 -35.735  26.861  1.00  0.00     0.123 C 
HETATM   23  C24 UNL     1       1.767 -36.934  27.701  1.00  0.00     0.040 C 
HETATM   24  C25 UNL     1       2.243 -34.546  27.786  1.00  0.00     0.040 C 
ENDBRANCH  21  22
ENDBRANCH  19  21
ENDBRANCH  12  19
BRANCH   1  25
HETATM   25  C2  UNL     1      -2.107 -36.065  20.563  1.00  0.00     0.043 C 
HETATM   26  C1  UNL     1      -2.258 -34.717  20.043  1.00  0.00     0.008 C 
ENDBRANCH   1  25
BRANCH   1  27
HETATM   27  C4  UNL     1      -1.698 -37.777  22.238  1.00  0.00     0.292 C 
HETATM   28  O1  UNL     1      -1.554 -38.408  23.304  1.00  0.00    -0.262 OA
BRANCH  27  29
HETATM   29  O2  UNL     1      -1.314 -38.475  21.103  1.00  0.00    -0.324 OA
HETATM   30  C5  UNL     1      -1.260 -39.891  21.046  1.00  0.00     0.213 C 
ENDBRANCH  27  29
ENDBRANCH   1  27
BRANCH   6  31
HETATM   31  O4  UNL     1      -4.484 -38.339  20.881  1.00  0.00    -0.345 OA
ATOM     32  H4  UNL     1      -5.028 -39.117  20.857  1.00  0.00     0.219 HD
ENDBRANCH   6  31
BRANCH   4  33
HETATM   33  O3  UNL     1      -6.737 -34.987  23.424  1.00  0.00    -0.345 OA
ATOM     34  H3  UNL     1      -7.656 -35.218  23.486  1.00  0.00     0.219 HD
ENDBRANCH   4  33
BRANCH   5  35
HETATM   35  C9  UNL     1      -7.173 -37.434  21.715  1.00  0.00     0.137 C 
BRANCH  35  36
HETATM   36  C10 UNL     1      -7.790 -38.250  22.799  1.00  0.00    -0.004 C 
HETATM   37  C11 UNL     1      -7.464 -39.715  22.484  1.00  0.00     0.011 C 
HETATM   38  C12 UNL     1      -9.278 -38.056  22.861  1.00  0.00     0.011 C 
ENDBRANCH  35  36
ENDBRANCH   5  35
TORSDOF 11
ENDMDL
