MODEL 1
REMARK VINA RESULT: -7.153250110      0.000      0.000
REMARK  4 active torsions:
REMARK  status: ('A' for Active; 'I' for Inactive)
REMARK    1  A    between atoms: C3_7  and  N3_8 
REMARK    2  A    between atoms: N4_10  and  C4_12 
REMARK    3  A    between atoms: C9_19  and  N6_20 
REMARK    4  A    between atoms: N7_23  and  N8_24 
ROOT
HETATM    1  C4  UNL     1      -5.908 -10.639  17.875  1.00  0.00     0.090 A 
HETATM    2  C5  UNL     1      -6.784 -11.405  18.594  1.00  0.00     0.057 A 
HETATM    3  C6  UNL     1      -7.790 -10.773  19.240  1.00  0.00     0.058 A 
HETATM    4  C7  UNL     1      -8.747 -11.480  20.009  1.00  0.00     0.273 C 
HETATM    5  O1  UNL     1      -8.402 -12.637  20.409  1.00  0.00    -0.267 OA
HETATM    6  N5  UNL     1      -9.980 -11.108  20.385  1.00  0.00    -0.150 N 
HETATM    7  C8  UNL     1     -10.945 -12.186  20.614  1.00  0.00     0.179 C 
HETATM    8  C9  UNL     1     -10.454  -9.851  20.583  1.00  0.00     0.704 C 
HETATM    9  N7  UNL     1      -9.887  -8.661  20.317  1.00  0.00    -0.053 N 
HETATM   10  C10 UNL     1      -8.737  -8.475  19.649  1.00  0.00     0.299 C 
HETATM   11  O2  UNL     1      -8.348  -7.296  19.435  1.00  0.00    -0.264 OA
HETATM   12  C11 UNL     1      -7.837  -9.411  19.112  1.00  0.00     0.093 A 
HETATM   13  S1  UNL     1      -6.501  -9.061  18.112  1.00  0.00    -0.065 SA
ENDROOT
BRANCH   1  14
HETATM   14  N4  UNL     1      -4.764 -11.096  17.109  1.00  0.00    -0.295 N 
HETATM   15  N3  UNL     1      -4.995 -11.503  15.939  1.00  0.00    -0.280 N 
ATOM     16  H3  UNL     1      -4.219 -11.834  15.366  1.00  0.00     0.184 HD
ATOM     17  H4  UNL     1      -3.821 -11.089  17.497  1.00  0.00     0.187 HD
BRANCH  15  18
HETATM   18  C3  UNL     1      -6.321 -11.515  15.389  1.00  0.00     0.540 C 
HETATM   19  N1  UNL     1      -6.945 -12.846  15.371  1.00  0.00     0.161 N 
HETATM   20  C1  UNL     1      -8.364 -12.777  15.600  1.00  0.00     0.317 C 
HETATM   21  C2  UNL     1      -6.540 -12.957  13.985  1.00  0.00     0.512 C 
HETATM   22  N2  UNL     1      -6.377 -11.529  13.944  1.00  0.00     0.002 N 
ATOM     23  H22 UNL     1      -5.626 -11.111  13.394  1.00  0.00     0.284 HD
ATOM     24  H21 UNL     1      -7.053 -10.947  13.449  1.00  0.00     0.284 HD
ENDBRANCH  15  18
ENDBRANCH   1  14
BRANCH   9  25
HETATM   25  N8  UNL     1     -10.540  -7.520  20.770  1.00  0.00    -0.321 N 
ATOM     26  H82 UNL     1     -11.312  -7.174  20.199  1.00  0.00     0.178 HD
ATOM     27  H81 UNL     1     -10.210  -7.099  21.638  1.00  0.00     0.178 HD
ENDBRANCH   9  25
BRANCH   8  28
HETATM   28  N6  UNL     1     -11.628  -9.828  21.106  1.00  0.00    -0.232 N 
ATOM     29  H62 UNL     1     -12.162 -10.697  21.075  1.00  0.00     0.174 HD
ATOM     30  H61 UNL     1     -11.877  -8.918  21.495  1.00  0.00     0.174 HD
ENDBRANCH   8  28
TORSDOF 4
ENDMDL
MODEL 2
REMARK VINA RESULT: -6.994473568      2.792      6.196
REMARK  4 active torsions:
REMARK  status: ('A' for Active; 'I' for Inactive)
REMARK    1  A    between atoms: C3_7  and  N3_8 
REMARK    2  A    between atoms: N4_10  and  C4_12 
REMARK    3  A    between atoms: C9_19  and  N6_20 
REMARK    4  A    between atoms: N7_23  and  N8_24 
ROOT
HETATM    1  C4  UNL     1      -7.945 -11.661  19.608  1.00  0.00     0.090 A 
HETATM    2  C5  UNL     1      -7.079 -11.710  18.551  1.00  0.00     0.057 A 
HETATM    3  C6  UNL     1      -7.540 -12.211  17.382  1.00  0.00     0.058 A 
HETATM    4  C7  UNL     1      -6.719 -12.302  16.231  1.00  0.00     0.273 C 
HETATM    5  O1  UNL     1      -5.463 -12.296  16.435  1.00  0.00    -0.267 OA
HETATM    6  N5  UNL     1      -7.070 -12.396  14.940  1.00  0.00    -0.150 N 
HETATM    7  C8  UNL     1      -6.113 -11.870  13.963  1.00  0.00     0.179 C 
HETATM    8  C9  UNL     1      -8.208 -12.920  14.416  1.00  0.00     0.704 C 
HETATM    9  N7  UNL     1      -9.331 -13.336  15.028  1.00  0.00    -0.053 N 
HETATM   10  C10 UNL     1      -9.611 -13.185  16.332  1.00  0.00     0.299 C 
HETATM   11  O2  UNL     1     -10.726 -13.587  16.759  1.00  0.00    -0.264 OA
HETATM   12  C11 UNL     1      -8.844 -12.626  17.367  1.00  0.00     0.093 A 
HETATM   13  S1  UNL     1      -9.377 -12.311  18.956  1.00  0.00    -0.065 SA
ENDROOT
BRANCH   1  14
HETATM   14  N4  UNL     1      -7.673 -11.169  20.945  1.00  0.00    -0.295 N 
HETATM   15  N3  UNL     1      -7.349  -9.955  21.044  1.00  0.00    -0.280 N 
ATOM     16  H3  UNL     1      -7.148  -9.568  21.966  1.00  0.00     0.184 HD
ATOM     17  H4  UNL     1      -7.741 -11.773  21.764  1.00  0.00     0.187 HD
BRANCH  15  18
HETATM   18  C3  UNL     1      -7.252  -9.101  19.894  1.00  0.00     0.540 C 
HETATM   19  N1  UNL     1      -5.953  -8.426  19.763  1.00  0.00     0.161 N 
HETATM   20  C1  UNL     1      -5.566  -8.268  18.387  1.00  0.00     0.317 C 
HETATM   21  C2  UNL     1      -6.557  -7.262  20.380  1.00  0.00     0.512 C 
HETATM   22  N2  UNL     1      -7.853  -7.795  20.057  1.00  0.00     0.002 N 
ATOM     23  H22 UNL     1      -8.638  -7.665  20.696  1.00  0.00     0.284 HD
ATOM     24  H21 UNL     1      -8.407  -7.385  19.305  1.00  0.00     0.284 HD
ENDBRANCH  15  18
ENDBRANCH   1  14
BRANCH   9  25
HETATM   25  N8  UNL     1     -10.288 -13.980  14.251  1.00  0.00    -0.321 N 
ATOM     26  H82 UNL     1     -10.986 -14.535  14.747  1.00  0.00     0.178 HD
ATOM     27  H81 UNL     1     -10.235 -13.860  13.239  1.00  0.00     0.178 HD
ENDBRANCH   9  25
BRANCH   8  28
HETATM   28  N6  UNL     1      -8.177 -13.021  13.134  1.00  0.00    -0.232 N 
ATOM     29  H62 UNL     1      -8.973 -13.480  12.691  1.00  0.00     0.174 HD
ATOM     30  H61 UNL     1      -7.336 -12.618  12.719  1.00  0.00     0.174 HD
ENDBRANCH   8  28
TORSDOF 4
ENDMDL
MODEL 3
REMARK VINA RESULT: -6.437361375      2.661      3.514
REMARK  4 active torsions:
REMARK  status: ('A' for Active; 'I' for Inactive)
REMARK    1  A    between atoms: C3_7  and  N3_8 
REMARK    2  A    between atoms: N4_10  and  C4_12 
REMARK    3  A    between atoms: C9_19  and  N6_20 
REMARK    4  A    between atoms: N7_23  and  N8_24 
ROOT
HETATM    1  C4  UNL     1      -6.972  -9.788  20.479  1.00  0.00     0.090 A 
HETATM    2  C5  UNL     1      -6.968 -11.003  21.109  1.00  0.00     0.057 A 
HETATM    3  C6  UNL     1      -8.162 -11.578  21.375  1.00  0.00     0.058 A 
HETATM    4  C7  UNL     1      -8.260 -12.834  22.024  1.00  0.00     0.273 C 
HETATM    5  O1  UNL     1      -7.248 -13.195  22.705  1.00  0.00    -0.267 OA
HETATM    6  N5  UNL     1      -9.273 -13.713  22.029  1.00  0.00    -0.150 N 
HETATM    7  C8  UNL     1      -8.916 -15.119  22.230  1.00  0.00     0.179 C 
HETATM    8  C9  UNL     1     -10.599 -13.466  21.871  1.00  0.00     0.704 C 
HETATM    9  N7  UNL     1     -11.233 -12.332  21.521  1.00  0.00    -0.053 N 
HETATM   10  C10 UNL     1     -10.638 -11.200  21.112  1.00  0.00     0.299 C 
HETATM   11  O2  UNL     1     -11.364 -10.227  20.773  1.00  0.00    -0.264 OA
HETATM   12  C11 UNL     1      -9.275 -10.885  20.984  1.00  0.00     0.093 A 
HETATM   13  S1  UNL     1      -8.632  -9.476  20.270  1.00  0.00    -0.065 SA
ENDROOT
BRANCH   1  14
HETATM   14  N4  UNL     1      -5.822  -8.992  20.097  1.00  0.00    -0.295 N 
HETATM   15  N3  UNL     1      -5.511  -9.000  18.876  1.00  0.00    -0.280 N 
ATOM     16  H3  UNL     1      -4.707  -8.454  18.565  1.00  0.00     0.184 HD
ATOM     17  H4  UNL     1      -5.291  -8.453  20.781  1.00  0.00     0.187 HD
BRANCH  15  18
HETATM   18  C3  UNL     1      -6.254  -9.757  17.910  1.00  0.00     0.540 C 
HETATM   19  N1  UNL     1      -5.749 -11.123  17.709  1.00  0.00     0.161 N 
HETATM   20  C1  UNL     1      -6.811 -12.056  17.442  1.00  0.00     0.317 C 
HETATM   21  C2  UNL     1      -5.041 -10.632  16.545  1.00  0.00     0.512 C 
HETATM   22  N2  UNL     1      -5.909  -9.486  16.531  1.00  0.00     0.002 N 
ATOM     23  H22 UNL     1      -5.550  -8.570  16.261  1.00  0.00     0.284 HD
ATOM     24  H21 UNL     1      -6.640  -9.401  15.825  1.00  0.00     0.284 HD
ENDBRANCH  15  18
ENDBRANCH   1  14
BRANCH   9  25
HETATM   25  N8  UNL     1     -12.622 -12.323  21.587  1.00  0.00    -0.321 N 
ATOM     26  H82 UNL     1     -13.061 -11.458  21.902  1.00  0.00     0.178 HD
ATOM     27  H81 UNL     1     -13.114 -13.175  21.319  1.00  0.00     0.178 HD
ENDBRANCH   9  25
BRANCH   8  28
HETATM   28  N6  UNL     1     -11.338 -14.495  22.096  1.00  0.00    -0.232 N 
ATOM     29  H62 UNL     1     -11.479 -15.137  21.317  1.00  0.00     0.174 HD
ATOM     30  H61 UNL     1     -11.693 -14.532  23.052  1.00  0.00     0.174 HD
ENDBRANCH   8  28
TORSDOF 4
ENDMDL
MODEL 4
REMARK VINA RESULT: -6.407577192      1.572      1.840
REMARK  4 active torsions:
REMARK  status: ('A' for Active; 'I' for Inactive)
REMARK    1  A    between atoms: C3_7  and  N3_8 
REMARK    2  A    between atoms: N4_10  and  C4_12 
REMARK    3  A    between atoms: C9_19  and  N6_20 
REMARK    4  A    between atoms: N7_23  and  N8_24 
ROOT
HETATM    1  C4  UNL     1      -6.511  -9.470  19.139  1.00  0.00     0.090 A 
HETATM    2  C5  UNL     1      -6.893 -10.499  19.955  1.00  0.00     0.057 A 
HETATM    3  C6  UNL     1      -8.124 -10.436  20.512  1.00  0.00     0.058 A 
HETATM    4  C7  UNL     1      -8.610 -11.453  21.371  1.00  0.00     0.273 C 
HETATM    5  O1  UNL     1      -7.731 -12.188  21.923  1.00  0.00    -0.267 OA
HETATM    6  N5  UNL     1      -9.875 -11.761  21.695  1.00  0.00    -0.150 N 
HETATM    7  C8  UNL     1     -10.131 -13.154  22.069  1.00  0.00     0.179 C 
HETATM    8  C9  UNL     1     -10.957 -10.942  21.722  1.00  0.00     0.704 C 
HETATM    9  N7  UNL     1     -11.094  -9.673  21.297  1.00  0.00    -0.053 N 
HETATM   10  C10 UNL     1     -10.175  -8.977  20.609  1.00  0.00     0.299 C 
HETATM   11  O2  UNL     1     -10.459  -7.808  20.237  1.00  0.00    -0.264 OA
HETATM   12  C11 UNL     1      -8.880  -9.338  20.202  1.00  0.00     0.093 A 
HETATM   13  S1  UNL     1      -7.867  -8.442  19.162  1.00  0.00    -0.065 SA
ENDROOT
BRANCH   1  14
HETATM   14  N4  UNL     1      -5.248  -9.326  18.439  1.00  0.00    -0.295 N 
HETATM   15  N3  UNL     1      -5.164  -9.874  17.308  1.00  0.00    -0.280 N 
ATOM     16  H3  UNL     1      -4.293  -9.797  16.783  1.00  0.00     0.184 HD
ATOM     17  H4  UNL     1      -4.468  -8.808  18.843  1.00  0.00     0.187 HD
BRANCH  15  18
HETATM   18  C3  UNL     1      -6.260 -10.604  16.737  1.00  0.00     0.540 C 
HETATM   19  N1  UNL     1      -6.149 -12.061  16.894  1.00  0.00     0.161 N 
HETATM   20  C1  UNL     1      -7.434 -12.681  17.080  1.00  0.00     0.317 C 
HETATM   21  C2  UNL     1      -5.620 -12.111  15.546  1.00  0.00     0.512 C 
HETATM   22  N2  UNL     1      -6.174 -10.806  15.307  1.00  0.00     0.002 N 
ATOM     23  H22 UNL     1      -5.677 -10.136  14.720  1.00  0.00     0.284 HD
ATOM     24  H21 UNL     1      -7.001 -10.697  14.720  1.00  0.00     0.284 HD
ENDBRANCH  15  18
ENDBRANCH   1  14
BRANCH   9  25
HETATM   25  N8  UNL     1     -12.285  -9.018  21.593  1.00  0.00    -0.321 N 
ATOM     26  H82 UNL     1     -12.997  -9.006  20.863  1.00  0.00     0.178 HD
ATOM     27  H81 UNL     1     -12.373  -8.592  22.516  1.00  0.00     0.178 HD
ENDBRANCH   9  25
BRANCH   8  28
HETATM   28  N6  UNL     1     -11.998 -11.493  22.240  1.00  0.00    -0.232 N 
ATOM     29  H62 UNL     1     -12.492 -10.960  22.956  1.00  0.00     0.174 HD
ATOM     30  H61 UNL     1     -12.197 -12.417  21.854  1.00  0.00     0.174 HD
ENDBRANCH   8  28
TORSDOF 4
ENDMDL
MODEL 5
REMARK VINA RESULT: -6.390803426      3.822      5.474
REMARK  4 active torsions:
REMARK  status: ('A' for Active; 'I' for Inactive)
REMARK    1  A    between atoms: C3_7  and  N3_8 
REMARK    2  A    between atoms: N4_10  and  C4_12 
REMARK    3  A    between atoms: C9_19  and  N6_20 
REMARK    4  A    between atoms: N7_23  and  N8_24 
ROOT
HETATM    1  C4  UNL     1      -9.590 -13.953  14.517  1.00  0.00     0.090 A 
HETATM    2  C5  UNL     1      -9.617 -13.673  15.856  1.00  0.00     0.057 A 
HETATM    3  C6  UNL     1      -8.702 -12.800  16.335  1.00  0.00     0.058 A 
HETATM    4  C7  UNL     1      -8.651 -12.446  17.706  1.00  0.00     0.273 C 
HETATM    5  O1  UNL     1      -9.193 -13.262  18.517  1.00  0.00    -0.267 OA
HETATM    6  N5  UNL     1      -8.109 -11.365  18.287  1.00  0.00    -0.150 N 
HETATM    7  C8  UNL     1      -8.702 -10.941  19.557  1.00  0.00     0.179 C 
HETATM    8  C9  UNL     1      -7.072 -10.607  17.846  1.00  0.00     0.704 C 
HETATM    9  N7  UNL     1      -6.422 -10.630  16.669  1.00  0.00    -0.053 N 
HETATM   10  C10 UNL     1      -6.774 -11.358  15.597  1.00  0.00     0.299 C 
HETATM   11  O2  UNL     1      -6.093 -11.246  14.543  1.00  0.00    -0.264 OA
HETATM   12  C11 UNL     1      -7.825 -12.273  15.425  1.00  0.00     0.093 A 
HETATM   13  S1  UNL     1      -8.297 -12.999  13.956  1.00  0.00    -0.065 SA
ENDROOT
BRANCH   1  14
HETATM   14  N4  UNL     1     -10.467 -14.851  13.789  1.00  0.00    -0.295 N 
HETATM   15  N3  UNL     1     -11.494 -14.337  13.270  1.00  0.00    -0.280 N 
ATOM     16  H3  UNL     1     -12.138 -14.933  12.750  1.00  0.00     0.184 HD
ATOM     17  H4  UNL     1     -10.263 -15.846  13.701  1.00  0.00     0.187 HD
BRANCH  15  18
HETATM   18  C3  UNL     1     -11.784 -12.937  13.391  1.00  0.00     0.540 C 
HETATM   19  N1  UNL     1     -13.212 -12.612  13.254  1.00  0.00     0.161 N 
HETATM   20  C1  UNL     1     -13.596 -11.512  14.097  1.00  0.00     0.317 C 
HETATM   21  C2  UNL     1     -12.946 -12.276  11.870  1.00  0.00     0.512 C 
HETATM   22  N2  UNL     1     -11.549 -12.163  12.191  1.00  0.00     0.002 N 
ATOM     23  H22 UNL     1     -10.840 -12.457  11.519  1.00  0.00     0.284 HD
ATOM     24  H21 UNL     1     -11.105 -11.247  12.248  1.00  0.00     0.284 HD
ENDBRANCH  15  18
ENDBRANCH   1  14
BRANCH   9  25
HETATM   25  N8  UNL     1      -5.286  -9.838  16.544  1.00  0.00    -0.321 N 
ATOM     26  H82 UNL     1      -5.282  -9.156  15.785  1.00  0.00     0.178 HD
ATOM     27  H81 UNL     1      -4.530  -9.986  17.212  1.00  0.00     0.178 HD
ENDBRANCH   9  25
BRANCH   8  28
HETATM   28  N6  UNL     1      -6.674  -9.740  18.709  1.00  0.00    -0.232 N 
ATOM     29  H62 UNL     1      -7.195  -8.864  18.753  1.00  0.00     0.174 HD
ATOM     30  H61 UNL     1      -5.868 -10.054  19.250  1.00  0.00     0.174 HD
ENDBRANCH   8  28
TORSDOF 4
ENDMDL
