MODEL 1
REMARK VINA RESULT: -8.513773173      0.000      0.000
REMARK  13 active torsions:
REMARK  status: ('A' for Active; 'I' for Inactive)
REMARK    1  A    between atoms: C3_6  and  C4_7 
REMARK       I    between atoms: C4_7  and  N2_9 
REMARK    2  A    between atoms: N2_9  and  C5_11 
REMARK    3  A    between atoms: C5_11  and  C6_12 
REMARK    4  A    between atoms: C6_12  and  S1_13 
REMARK    5  A    between atoms: S1_13  and  S2_14 
REMARK    6  A    between atoms: S2_14  and  C7_15 
REMARK    7  A    between atoms: C7_15  and  C8_16 
REMARK    8  A    between atoms: C8_16  and  N3_17 
REMARK    9  A    between atoms: N3_17  and  C9_18 
REMARK   10  A    between atoms: C9_18  and  O3_19 
REMARK   11  A    between atoms: C9_18  and  C10_21 
REMARK   12  A    between atoms: C14_28  and  C15_29 
REMARK   13  A    between atoms: C15_29  and  O4_31 
ROOT
HETATM    1  C10 UNL     1       1.157   1.926   1.118  1.00  0.00     0.083 A 
HETATM    2  S3  UNL     1       0.369   0.515   1.715  1.00  0.00    -0.068 SA
HETATM    3  C11 UNL     1       1.057  -0.636   0.703  1.00  0.00     0.109 A 
HETATM    4  N4  UNL     1       0.824  -2.070   0.727  1.00  0.00    -0.093 NA
HETATM    5  C12 UNL     1       1.902   0.069  -0.114  1.00  0.00     0.087 A 
HETATM    6  C13 UNL     1       2.681  -0.711  -1.082  1.00  0.00     0.102 C 
HETATM    7  N5  UNL     1       3.263  -1.385  -1.856  1.00  0.00    -0.191 NA
HETATM    8  C14 UNL     1       1.947   1.432   0.106  1.00  0.00     0.036 A 
ENDROOT
BRANCH   8   9
HETATM    9  C15 UNL     1       2.454   2.393  -0.972  1.00  0.00     0.173 C 
HETATM   10  C16 UNL     1       3.434   1.810  -1.970  1.00  0.00     0.068 C 
HETATM   11  C17 UNL     1       1.252   2.824  -1.746  1.00  0.00     0.102 C 
HETATM   12  N6  UNL     1       0.300   3.118  -2.328  1.00  0.00    -0.194 NA
BRANCH   9  13
HETATM   13  O4  UNL     1       3.082   3.505  -0.468  1.00  0.00    -0.371 OA
ATOM     14  H4  UNL     1       3.130   4.228  -1.084  1.00  0.00     0.212 HD
ENDBRANCH   9  13
ENDBRANCH   8   9
BRANCH   1  15
HETATM   15  C9  UNL     1       0.783   3.306   1.500  1.00  0.00     0.231 C 
BRANCH  15  16
HETATM   16  N3  UNL     1       1.543   4.381   1.752  1.00  0.00    -0.395 NA
BRANCH  16  17
HETATM   17  C8  UNL     1       2.331   5.495   2.028  1.00  0.00     0.169 C 
BRANCH  17  18
HETATM   18  C7  UNL     1       2.651   6.500   0.983  1.00  0.00     0.145 C 
BRANCH  18  19
HETATM   19  S2  UNL     1       4.478   6.922   1.335  1.00  0.00    -0.091 SA
BRANCH  19  20
HETATM   20  S1  UNL     1       5.626   6.307  -0.299  1.00  0.00    -0.096 SA
BRANCH  20  21
HETATM   21  C6  UNL     1       7.264   5.751   0.096  1.00  0.00     0.105 C 
BRANCH  21  22
HETATM   22  C5  UNL     1       8.326   6.740  -0.108  1.00  0.00     0.134 C 
BRANCH  22  23
HETATM   23  N2  UNL     1       9.519   6.703   0.657  1.00  0.00    -0.354 N 
HETATM   24  C4  UNL     1      10.461   7.706   0.742  1.00  0.00     0.279 C 
HETATM   25  O2  UNL     1      10.278   8.785   0.049  1.00  0.00    -0.265 OA
ATOM     26  H2  UNL     1       9.696   5.856   1.194  1.00  0.00     0.162 HD
BRANCH  24  27
HETATM   27  C3  UNL     1      11.658   7.690   1.558  1.00  0.00     0.189 A 
HETATM   28  O1  UNL     1      12.853   7.518   1.153  1.00  0.00    -0.230 OA
HETATM   29  N1  UNL     1      13.740   7.546   2.109  1.00  0.00    -0.263 N 
HETATM   30  C2  UNL     1      13.081   7.760   3.254  1.00  0.00     0.053 A 
ATOM     31  H1  UNL     1      14.748   7.428   2.004  1.00  0.00     0.194 HD
HETATM   32  C1  UNL     1      13.672   7.890   4.660  1.00  0.00     0.072 C 
HETATM   33  C18 UNL     1      11.731   7.856   2.941  1.00  0.00     0.099 A 
HETATM   34 CL1  UNL     1      10.426   8.207   4.046  1.00  0.00    -0.079 Cl
ENDBRANCH  24  27
ENDBRANCH  22  23
ENDBRANCH  21  22
ENDBRANCH  20  21
ENDBRANCH  19  20
ENDBRANCH  18  19
ENDBRANCH  17  18
ENDBRANCH  16  17
ENDBRANCH  15  16
BRANCH  15  35
HETATM   35  O3  UNL     1      -0.530   3.377   1.637  1.00  0.00    -0.335 OA
ATOM     36  H3  UNL     1      -1.087   3.419   0.868  1.00  0.00     0.220 HD
ENDBRANCH  15  35
ENDBRANCH   1  15
TORSDOF 13
ENDMDL
MODEL 2
REMARK VINA RESULT: -8.094008513      5.517     10.087
REMARK  13 active torsions:
REMARK  status: ('A' for Active; 'I' for Inactive)
REMARK    1  A    between atoms: C3_6  and  C4_7 
REMARK       I    between atoms: C4_7  and  N2_9 
REMARK    2  A    between atoms: N2_9  and  C5_11 
REMARK    3  A    between atoms: C5_11  and  C6_12 
REMARK    4  A    between atoms: C6_12  and  S1_13 
REMARK    5  A    between atoms: S1_13  and  S2_14 
REMARK    6  A    between atoms: S2_14  and  C7_15 
REMARK    7  A    between atoms: C7_15  and  C8_16 
REMARK    8  A    between atoms: C8_16  and  N3_17 
REMARK    9  A    between atoms: N3_17  and  C9_18 
REMARK   10  A    between atoms: C9_18  and  O3_19 
REMARK   11  A    between atoms: C9_18  and  C10_21 
REMARK   12  A    between atoms: C14_28  and  C15_29 
REMARK   13  A    between atoms: C15_29  and  O4_31 
ROOT
HETATM    1  C10 UNL     1       3.095   4.742   0.069  1.00  0.00     0.083 A 
HETATM    2  S3  UNL     1       4.099   5.977   0.731  1.00  0.00    -0.068 SA
HETATM    3  C11 UNL     1       5.572   5.525   0.062  1.00  0.00     0.109 A 
HETATM    4  N4  UNL     1       6.846   6.208   0.215  1.00  0.00    -0.093 NA
HETATM    5  C12 UNL     1       5.298   4.404  -0.677  1.00  0.00     0.087 A 
HETATM    6  C13 UNL     1       6.419   3.817  -1.418  1.00  0.00     0.102 C 
HETATM    7  N5  UNL     1       7.361   3.373  -1.974  1.00  0.00    -0.191 NA
HETATM    8  C14 UNL     1       3.981   3.988  -0.665  1.00  0.00     0.036 A 
ENDROOT
BRANCH   8   9
HETATM    9  C15 UNL     1       3.600   2.552  -1.033  1.00  0.00     0.173 C 
HETATM   10  C16 UNL     1       3.797   2.167  -2.485  1.00  0.00     0.068 C 
HETATM   11  C17 UNL     1       4.487   1.663  -0.225  1.00  0.00     0.102 C 
HETATM   12  N6  UNL     1       5.204   1.014   0.405  1.00  0.00    -0.194 NA
BRANCH   9  13
HETATM   13  O4  UNL     1       2.291   2.240  -0.759  1.00  0.00    -0.371 OA
ATOM     14  H4  UNL     1       2.148   1.319  -0.574  1.00  0.00     0.212 HD
ENDBRANCH   9  13
ENDBRANCH   8   9
BRANCH   1  15
HETATM   15  C9  UNL     1       1.696   4.502   0.486  1.00  0.00     0.231 C 
BRANCH  15  16
HETATM   16  N3  UNL     1       1.186   3.656   1.393  1.00  0.00    -0.395 NA
BRANCH  16  17
HETATM   17  C8  UNL     1       0.652   2.771   2.325  1.00  0.00     0.169 C 
BRANCH  17  18
HETATM   18  C7  UNL     1      -0.344   1.739   1.936  1.00  0.00     0.145 C 
BRANCH  18  19
HETATM   19  S2  UNL     1      -0.123   0.401   3.279  1.00  0.00    -0.091 SA
BRANCH  19  20
HETATM   20  S1  UNL     1       0.624  -1.328   2.373  1.00  0.00    -0.096 SA
BRANCH  20  21
HETATM   21  C6  UNL     1       1.840  -1.051   1.109  1.00  0.00     0.105 C 
BRANCH  21  22
HETATM   22  C5  UNL     1       1.420  -1.401  -0.250  1.00  0.00     0.134 C 
BRANCH  22  23
HETATM   23  N2  UNL     1       1.014  -0.403  -1.172  1.00  0.00    -0.354 N 
HETATM   24  C4  UNL     1      -0.275   0.043  -1.373  1.00  0.00     0.279 C 
HETATM   25  O2  UNL     1      -1.230  -0.502  -0.686  1.00  0.00    -0.265 OA
ATOM     26  H2  UNL     1       1.745   0.025  -1.739  1.00  0.00     0.162 HD
BRANCH  24  27
HETATM   27  C3  UNL     1      -0.686   1.093  -2.281  1.00  0.00     0.189 A 
HETATM   28  O1  UNL     1      -0.246   2.287  -2.314  1.00  0.00    -0.230 OA
HETATM   29  N1  UNL     1      -0.799   3.026  -3.236  1.00  0.00    -0.263 N 
HETATM   30  C2  UNL     1      -1.684   2.256  -3.880  1.00  0.00     0.053 A 
ATOM     31  H1  UNL     1      -0.594   4.006  -3.430  1.00  0.00     0.194 HD
HETATM   32  C1  UNL     1      -2.580   2.652  -5.056  1.00  0.00     0.072 C 
HETATM   33  C18 UNL     1      -1.644   0.999  -3.292  1.00  0.00     0.099 A 
HETATM   34 CL1  UNL     1      -2.540  -0.415  -3.787  1.00  0.00    -0.079 Cl
ENDBRANCH  24  27
ENDBRANCH  22  23
ENDBRANCH  21  22
ENDBRANCH  20  21
ENDBRANCH  19  20
ENDBRANCH  18  19
ENDBRANCH  17  18
ENDBRANCH  16  17
ENDBRANCH  15  16
BRANCH  15  35
HETATM   35  O3  UNL     1       0.891   5.253  -0.245  1.00  0.00    -0.335 OA
ATOM     36  H3  UNL     1       0.955   5.235  -1.193  1.00  0.00     0.220 HD
ENDBRANCH  15  35
ENDBRANCH   1  15
TORSDOF 13
ENDMDL
MODEL 3
REMARK VINA RESULT: -7.947040670      1.699      2.526
REMARK  13 active torsions:
REMARK  status: ('A' for Active; 'I' for Inactive)
REMARK    1  A    between atoms: C3_6  and  C4_7 
REMARK       I    between atoms: C4_7  and  N2_9 
REMARK    2  A    between atoms: N2_9  and  C5_11 
REMARK    3  A    between atoms: C5_11  and  C6_12 
REMARK    4  A    between atoms: C6_12  and  S1_13 
REMARK    5  A    between atoms: S1_13  and  S2_14 
REMARK    6  A    between atoms: S2_14  and  C7_15 
REMARK    7  A    between atoms: C7_15  and  C8_16 
REMARK    8  A    between atoms: C8_16  and  N3_17 
REMARK    9  A    between atoms: N3_17  and  C9_18 
REMARK   10  A    between atoms: C9_18  and  O3_19 
REMARK   11  A    between atoms: C9_18  and  C10_21 
REMARK   12  A    between atoms: C14_28  and  C15_29 
REMARK   13  A    between atoms: C15_29  and  O4_31 
ROOT
HETATM    1  C10 UNL     1       2.699   1.167  -1.494  1.00  0.00     0.083 A 
HETATM    2  S3  UNL     1       3.550  -0.312  -1.250  1.00  0.00    -0.068 SA
HETATM    3  C11 UNL     1       2.248  -1.337  -0.971  1.00  0.00     0.109 A 
HETATM    4  N4  UNL     1       2.301  -2.768  -0.728  1.00  0.00    -0.093 NA
HETATM    5  C12 UNL     1       1.140  -0.535  -1.057  1.00  0.00     0.087 A 
HETATM    6  C13 UNL     1      -0.161  -1.194  -0.896  1.00  0.00     0.102 C 
HETATM    7  N5  UNL     1      -1.177  -1.772  -0.735  1.00  0.00    -0.191 NA
HETATM    8  C14 UNL     1       1.385   0.797  -1.329  1.00  0.00     0.036 A 
ENDROOT
BRANCH   8   9
HETATM    9  C15 UNL     1       0.348   1.876  -1.008  1.00  0.00     0.173 C 
HETATM   10  C16 UNL     1      -1.091   1.526  -1.328  1.00  0.00     0.068 C 
HETATM   11  C17 UNL     1       0.422   2.102   0.466  1.00  0.00     0.102 C 
HETATM   12  N6  UNL     1       0.500   2.232   1.610  1.00  0.00    -0.194 NA
BRANCH   9  13
HETATM   13  O4  UNL     1       0.574   3.067  -1.652  1.00  0.00    -0.371 OA
ATOM     14  H4  UNL     1       1.343   3.531  -1.339  1.00  0.00     0.212 HD
ENDBRANCH   9  13
ENDBRANCH   8   9
BRANCH   1  15
HETATM   15  C9  UNL     1       3.354   2.492  -1.578  1.00  0.00     0.231 C 
BRANCH  15  16
HETATM   16  N3  UNL     1       3.639   3.389  -0.623  1.00  0.00    -0.395 NA
BRANCH  16  17
HETATM   17  C8  UNL     1       3.949   4.319   0.365  1.00  0.00     0.169 C 
BRANCH  17  18
HETATM   18  C7  UNL     1       3.046   5.456   0.675  1.00  0.00     0.145 C 
BRANCH  18  19
HETATM   19  S2  UNL     1       4.227   6.956   0.675  1.00  0.00    -0.091 SA
BRANCH  19  20
HETATM   20  S1  UNL     1       5.893   6.485  -0.495  1.00  0.00    -0.096 SA
BRANCH  20  21
HETATM   21  C6  UNL     1       7.354   6.051   0.415  1.00  0.00     0.105 C 
BRANCH  21  22
HETATM   22  C5  UNL     1       8.617   6.487  -0.185  1.00  0.00     0.134 C 
BRANCH  22  23
HETATM   23  N2  UNL     1       9.820   6.494   0.564  1.00  0.00    -0.354 N 
HETATM   24  C4  UNL     1      10.642   7.582   0.773  1.00  0.00     0.279 C 
HETATM   25  O2  UNL     1      10.322   8.711   0.222  1.00  0.00    -0.265 OA
ATOM     26  H2  UNL     1      10.105   5.613   0.989  1.00  0.00     0.162 HD
BRANCH  24  27
HETATM   27  C3  UNL     1      11.848   7.604   1.574  1.00  0.00     0.189 A 
HETATM   28  O1  UNL     1      13.026   7.315   1.186  1.00  0.00    -0.230 OA
HETATM   29  N1  UNL     1      13.927   7.416   2.124  1.00  0.00    -0.263 N 
HETATM   30  C2  UNL     1      13.297   7.810   3.237  1.00  0.00     0.053 A 
ATOM     31  H1  UNL     1      14.925   7.229   2.027  1.00  0.00     0.194 HD
HETATM   32  C1  UNL     1      13.915   8.086   4.610  1.00  0.00     0.072 C 
HETATM   33  C18 UNL     1      11.950   7.941   2.925  1.00  0.00     0.099 A 
HETATM   34 CL1  UNL     1      10.682   8.501   3.985  1.00  0.00    -0.079 Cl
ENDBRANCH  24  27
ENDBRANCH  22  23
ENDBRANCH  21  22
ENDBRANCH  20  21
ENDBRANCH  19  20
ENDBRANCH  18  19
ENDBRANCH  17  18
ENDBRANCH  16  17
ENDBRANCH  15  16
BRANCH  15  35
HETATM   35  O3  UNL     1       3.615   2.767  -2.844  1.00  0.00    -0.335 OA
ATOM     36  H3  UNL     1       3.680   2.063  -3.479  1.00  0.00     0.220 HD
ENDBRANCH  15  35
ENDBRANCH   1  15
TORSDOF 13
ENDMDL
MODEL 4
REMARK VINA RESULT: -7.917930517      4.938      9.596
REMARK  13 active torsions:
REMARK  status: ('A' for Active; 'I' for Inactive)
REMARK    1  A    between atoms: C3_6  and  C4_7 
REMARK       I    between atoms: C4_7  and  N2_9 
REMARK    2  A    between atoms: N2_9  and  C5_11 
REMARK    3  A    between atoms: C5_11  and  C6_12 
REMARK    4  A    between atoms: C6_12  and  S1_13 
REMARK    5  A    between atoms: S1_13  and  S2_14 
REMARK    6  A    between atoms: S2_14  and  C7_15 
REMARK    7  A    between atoms: C7_15  and  C8_16 
REMARK    8  A    between atoms: C8_16  and  N3_17 
REMARK    9  A    between atoms: N3_17  and  C9_18 
REMARK   10  A    between atoms: C9_18  and  O3_19 
REMARK   11  A    between atoms: C9_18  and  C10_21 
REMARK   12  A    between atoms: C14_28  and  C15_29 
REMARK   13  A    between atoms: C15_29  and  O4_31 
ROOT
HETATM    1  C10 UNL     1       2.509   4.535   0.110  1.00  0.00     0.083 A 
HETATM    2  S3  UNL     1       2.271   5.957   1.055  1.00  0.00    -0.068 SA
HETATM    3  C11 UNL     1       3.813   6.616   0.958  1.00  0.00     0.109 A 
HETATM    4  N4  UNL     1       4.262   7.872   1.533  1.00  0.00    -0.093 NA
HETATM    5  C12 UNL     1       4.530   5.731   0.195  1.00  0.00     0.087 A 
HETATM    6  C13 UNL     1       5.922   6.091  -0.092  1.00  0.00     0.102 C 
HETATM    7  N5  UNL     1       7.042   6.418  -0.270  1.00  0.00    -0.191 NA
HETATM    8  C14 UNL     1       3.834   4.623  -0.248  1.00  0.00     0.036 A 
ENDROOT
BRANCH   8   9
HETATM    9  C15 UNL     1       4.564   3.355  -0.695  1.00  0.00     0.173 C 
HETATM   10  C16 UNL     1       4.303   2.114   0.134  1.00  0.00     0.068 C 
HETATM   11  C17 UNL     1       4.084   3.061  -2.078  1.00  0.00     0.102 C 
HETATM   12  N6  UNL     1       3.673   2.862  -3.138  1.00  0.00    -0.194 NA
BRANCH   9  13
HETATM   13  O4  UNL     1       5.931   3.484  -0.717  1.00  0.00    -0.371 OA
ATOM     14  H4  UNL     1       6.372   2.996  -0.031  1.00  0.00     0.212 HD
ENDBRANCH   9  13
ENDBRANCH   8   9
BRANCH   1  15
HETATM   15  C9  UNL     1       1.527   3.432   0.014  1.00  0.00     0.231 C 
BRANCH  15  16
HETATM   16  N3  UNL     1       0.993   2.651   0.963  1.00  0.00    -0.395 NA
BRANCH  16  17
HETATM   17  C8  UNL     1       0.443   1.847   1.958  1.00  0.00     0.169 C 
BRANCH  17  18
HETATM   18  C7  UNL     1       0.245   0.388   1.760  1.00  0.00     0.145 C 
BRANCH  18  19
HETATM   19  S2  UNL     1      -1.648   0.188   1.901  1.00  0.00    -0.091 SA
BRANCH  19  20
HETATM   20  S1  UNL     1      -2.461   0.218  -0.024  1.00  0.00    -0.096 SA
BRANCH  20  21
HETATM   21  C6  UNL     1      -1.439   0.976  -1.262  1.00  0.00     0.105 C 
BRANCH  21  22
HETATM   22  C5  UNL     1      -0.745   0.045  -2.155  1.00  0.00     0.134 C 
BRANCH  22  23
HETATM   23  N2  UNL     1       0.106  -0.966  -1.642  1.00  0.00    -0.354 N 
HETATM   24  C4  UNL     1       1.446  -0.828  -1.346  1.00  0.00     0.279 C 
HETATM   25  O2  UNL     1       2.013   0.315  -1.571  1.00  0.00    -0.265 OA
ATOM     26  H2  UNL     1      -0.312  -1.881  -1.477  1.00  0.00     0.162 HD
BRANCH  24  27
HETATM   27  C3  UNL     1       2.306  -1.846  -0.780  1.00  0.00     0.189 A 
HETATM   28  O1  UNL     1       2.598  -1.999   0.451  1.00  0.00    -0.230 OA
HETATM   29  N1  UNL     1       3.403  -2.999   0.679  1.00  0.00    -0.263 N 
HETATM   30  C2  UNL     1       3.671  -3.569  -0.503  1.00  0.00     0.053 A 
ATOM     31  H1  UNL     1       3.762  -3.292   1.587  1.00  0.00     0.194 HD
HETATM   32  C1  UNL     1       4.555  -4.789  -0.770  1.00  0.00     0.072 C 
HETATM   33  C18 UNL     1       2.982  -2.851  -1.472  1.00  0.00     0.099 A 
HETATM   34 CL1  UNL     1       2.913  -3.205  -3.180  1.00  0.00    -0.079 Cl
ENDBRANCH  24  27
ENDBRANCH  22  23
ENDBRANCH  21  22
ENDBRANCH  20  21
ENDBRANCH  19  20
ENDBRANCH  18  19
ENDBRANCH  17  18
ENDBRANCH  16  17
ENDBRANCH  15  16
BRANCH  15  35
HETATM   35  O3  UNL     1       1.227   3.229  -1.257  1.00  0.00    -0.335 OA
ATOM     36  H3  UNL     1       1.756   3.624  -1.940  1.00  0.00     0.220 HD
ENDBRANCH  15  35
ENDBRANCH   1  15
TORSDOF 13
ENDMDL
MODEL 5
REMARK VINA RESULT: -7.916115604      5.817      9.769
REMARK  13 active torsions:
REMARK  status: ('A' for Active; 'I' for Inactive)
REMARK    1  A    between atoms: C3_6  and  C4_7 
REMARK       I    between atoms: C4_7  and  N2_9 
REMARK    2  A    between atoms: N2_9  and  C5_11 
REMARK    3  A    between atoms: C5_11  and  C6_12 
REMARK    4  A    between atoms: C6_12  and  S1_13 
REMARK    5  A    between atoms: S1_13  and  S2_14 
REMARK    6  A    between atoms: S2_14  and  C7_15 
REMARK    7  A    between atoms: C7_15  and  C8_16 
REMARK    8  A    between atoms: C8_16  and  N3_17 
REMARK    9  A    between atoms: N3_17  and  C9_18 
REMARK   10  A    between atoms: C9_18  and  O3_19 
REMARK   11  A    between atoms: C9_18  and  C10_21 
REMARK   12  A    between atoms: C14_28  and  C15_29 
REMARK   13  A    between atoms: C15_29  and  O4_31 
ROOT
HETATM    1  C10 UNL     1       3.091   4.779   0.081  1.00  0.00     0.083 A 
HETATM    2  S3  UNL     1       4.090   6.002   0.773  1.00  0.00    -0.068 SA
HETATM    3  C11 UNL     1       5.567   5.564   0.102  1.00  0.00     0.109 A 
HETATM    4  N4  UNL     1       6.839   6.245   0.275  1.00  0.00    -0.093 NA
HETATM    5  C12 UNL     1       5.297   4.458  -0.660  1.00  0.00     0.087 A 
HETATM    6  C13 UNL     1       6.423   3.887  -1.408  1.00  0.00     0.102 C 
HETATM    7  N5  UNL     1       7.367   3.455  -1.968  1.00  0.00    -0.191 NA
HETATM    8  C14 UNL     1       3.980   4.041  -0.663  1.00  0.00     0.036 A 
ENDROOT
BRANCH   8   9
HETATM    9  C15 UNL     1       3.602   2.612  -1.063  1.00  0.00     0.173 C 
HETATM   10  C16 UNL     1       3.862   2.239  -2.508  1.00  0.00     0.068 C 
HETATM   11  C17 UNL     1       4.444   1.707  -0.223  1.00  0.00     0.102 C 
HETATM   12  N6  UNL     1       5.125   1.045   0.432  1.00  0.00    -0.194 NA
BRANCH   9  13
HETATM   13  O4  UNL     1       2.279   2.312  -0.851  1.00  0.00    -0.371 OA
ATOM     14  H4  UNL     1       2.045   2.244   0.068  1.00  0.00     0.212 HD
ENDBRANCH   9  13
ENDBRANCH   8   9
BRANCH   1  15
HETATM   15  C9  UNL     1       1.689   4.530   0.487  1.00  0.00     0.231 C 
BRANCH  15  16
HETATM   16  N3  UNL     1       1.175   3.660   1.367  1.00  0.00    -0.395 NA
BRANCH  16  17
HETATM   17  C8  UNL     1       0.652   2.759   2.290  1.00  0.00     0.169 C 
BRANCH  17  18
HETATM   18  C7  UNL     1       0.339   1.355   1.916  1.00  0.00     0.145 C 
BRANCH  18  19
HETATM   19  S2  UNL     1      -1.266   0.999   2.884  1.00  0.00    -0.091 SA
BRANCH  19  20
HETATM   20  S1  UNL     1      -1.112  -0.901   3.742  1.00  0.00    -0.096 SA
BRANCH  20  21
HETATM   21  C6  UNL     1       0.185  -1.084   4.939  1.00  0.00     0.105 C 
BRANCH  21  22
HETATM   22  C5  UNL     1       0.439   0.095   5.771  1.00  0.00     0.134 C 
BRANCH  22  23
HETATM   23  N2  UNL     1       1.361   0.048   6.846  1.00  0.00    -0.354 N 
HETATM   24  C4  UNL     1       1.047  -0.081   8.183  1.00  0.00     0.279 C 
HETATM   25  O2  UNL     1      -0.203  -0.141   8.519  1.00  0.00    -0.265 OA
ATOM     26  H2  UNL     1       2.350   0.115   6.609  1.00  0.00     0.162 HD
BRANCH  24  27
HETATM   27  C3  UNL     1       1.988  -0.174   9.279  1.00  0.00     0.189 A 
HETATM   28  O1  UNL     1       2.188   0.695  10.188  1.00  0.00    -0.230 OA
HETATM   29  N1  UNL     1       3.103   0.351  11.051  1.00  0.00    -0.263 N 
HETATM   30  C2  UNL     1       3.552  -0.858  10.692  1.00  0.00     0.053 A 
ATOM     31  H1  UNL     1       3.417   0.900  11.852  1.00  0.00     0.194 HD
HETATM   32  C1  UNL     1       4.619  -1.702  11.392  1.00  0.00     0.072 C 
HETATM   33  C18 UNL     1       2.858  -1.232   9.548  1.00  0.00     0.099 A 
HETATM   34 CL1  UNL     1       2.992  -2.750   8.696  1.00  0.00    -0.079 Cl
ENDBRANCH  24  27
ENDBRANCH  22  23
ENDBRANCH  21  22
ENDBRANCH  20  21
ENDBRANCH  19  20
ENDBRANCH  18  19
ENDBRANCH  17  18
ENDBRANCH  16  17
ENDBRANCH  15  16
BRANCH  15  35
HETATM   35  O3  UNL     1       0.888   5.303  -0.226  1.00  0.00    -0.335 OA
ATOM     36  H3  UNL     1       0.823   6.230  -0.029  1.00  0.00     0.220 HD
ENDBRANCH  15  35
ENDBRANCH   1  15
TORSDOF 13
ENDMDL
