MODEL 1
REMARK VINA RESULT: -7.879798277      0.000      0.000
REMARK  4 active torsions:
REMARK  status: ('A' for Active; 'I' for Inactive)
REMARK    1  A    between atoms: O1_2  and  C2_3 
REMARK    2  A    between atoms: C2_3  and  C3_4 
REMARK    3  A    between atoms: C13_20  and  C14_21 
REMARK       I    between atoms: C14_21  and  N3_23 
REMARK    4  A    between atoms: N3_23  and  C15_25 
ROOT
HETATM    1  C3  UNL     1     216.293   5.322  18.290  1.00  0.00     0.153 C 
HETATM    2  C4  UNL     1     215.882   4.716  19.564  1.00  0.00     0.079 C 
HETATM    3  C5  UNL     1     216.779   4.394  20.647  1.00  0.00     0.259 C 
HETATM    4  C6  UNL     1     217.863   5.282  21.063  1.00  0.00     0.262 C 
HETATM    5  N1  UNL     1     217.869   6.515  20.380  1.00  0.00    -0.060 N 
ATOM      6  H11 UNL     1     218.255   7.254  20.966  1.00  0.00     0.278 HD
ATOM      7  H12 UNL     1     216.921   6.872  20.263  1.00  0.00     0.278 HD
HETATM    8  C7  UNL     1     218.542   6.452  19.136  1.00  0.00     0.221 C 
HETATM    9  C8  UNL     1     217.668   7.135  18.104  1.00  0.00     0.218 C 
HETATM   10  C9  UNL     1     217.789   6.261  16.845  1.00  0.00     0.043 C 
HETATM   11  C10 UNL     1     217.564   4.958  17.640  1.00  0.00     0.032 C 
HETATM   12  C11 UNL     1     218.782   5.111  18.547  1.00  0.00     0.021 C 
HETATM   13  C12 UNL     1     220.074   5.208  17.722  1.00  0.00     0.012 C 
HETATM   14  N2  UNL     1     216.287   6.790  18.444  1.00  0.00    -0.057 N 
ATOM     15  H21 UNL     1     215.968   7.127  19.352  1.00  0.00     0.278 HD
ATOM     16  H22 UNL     1     215.575   7.279  17.903  1.00  0.00     0.278 HD
HETATM   17  C13 UNL     1     217.299   5.288  22.480  1.00  0.00     0.347 C 
HETATM   18  N6  UNL     1     216.163   4.632  21.966  1.00  0.00     0.107 N 
HETATM   19  C18 UNL     1     215.617   3.478  22.575  1.00  0.00     0.311 C 
ENDROOT
BRANCH  17  20
HETATM   20  C14 UNL     1     218.095   4.508  23.463  1.00  0.00     0.259 C 
HETATM   21  O2  UNL     1     218.764   3.494  23.210  1.00  0.00    -0.271 OA
HETATM   22  N3  UNL     1     218.138   4.912  24.852  1.00  0.00    -0.310 N 
ATOM     23  H3  UNL     1     218.447   5.849  25.112  1.00  0.00     0.170 HD
BRANCH  22  24
HETATM   24  C15 UNL     1     217.773   4.057  25.763  1.00  0.00     0.125 A 
HETATM   25  C16 UNL     1     217.718   4.352  27.109  1.00  0.00     0.093 A 
HETATM   26  C17 UNL     1     217.289   3.198  27.755  1.00  0.00     0.121 A 
HETATM   27 CL1  UNL     1     217.036   2.985  29.476  1.00  0.00    -0.063 Cl
HETATM   28  N4  UNL     1     217.100   2.261  26.814  1.00  0.00    -0.288 N 
HETATM   29  N5  UNL     1     217.391   2.780  25.627  1.00  0.00    -0.284 N 
ATOM     30  H4  UNL     1     216.785   1.307  26.983  1.00  0.00     0.188 HD
ATOM     31  H5  UNL     1     217.332   2.278  24.741  1.00  0.00     0.188 HD
ENDBRANCH  22  24
ENDBRANCH  17  20
BRANCH   1  32
HETATM   32  C2  UNL     1     215.179   5.012  17.298  1.00  0.00     0.206 C 
BRANCH  32  33
HETATM   33  O1  UNL     1     215.332   3.688  16.817  1.00  0.00    -0.393 OA
HETATM   34  C1  UNL     1     214.804   3.667  15.531  1.00  0.00     0.201 C 
ENDBRANCH  32  33
ENDBRANCH   1  32
TORSDOF 4
ENDMDL
MODEL 2
REMARK VINA RESULT: -7.567029092      4.872      7.712
REMARK  4 active torsions:
REMARK  status: ('A' for Active; 'I' for Inactive)
REMARK    1  A    between atoms: O1_2  and  C2_3 
REMARK    2  A    between atoms: C2_3  and  C3_4 
REMARK    3  A    between atoms: C13_20  and  C14_21 
REMARK       I    between atoms: C14_21  and  N3_23 
REMARK    4  A    between atoms: N3_23  and  C15_25 
ROOT
HETATM    1  C3  UNL     1     222.634   7.617  19.548  1.00  0.00     0.153 C 
HETATM    2  C4  UNL     1     221.322   7.000  19.786  1.00  0.00     0.079 C 
HETATM    3  C5  UNL     1     220.218   7.032  18.858  1.00  0.00     0.259 C 
HETATM    4  C6  UNL     1     220.393   6.841  17.419  1.00  0.00     0.262 C 
HETATM    5  N1  UNL     1     221.715   6.515  17.055  1.00  0.00    -0.060 N 
ATOM      6  H11 UNL     1     221.730   5.934  16.217  1.00  0.00     0.278 HD
ATOM      7  H12 UNL     1     222.126   5.859  17.720  1.00  0.00     0.278 HD
HETATM    8  C7  UNL     1     222.539   7.654  16.894  1.00  0.00     0.221 C 
HETATM    9  C8  UNL     1     223.840   7.389  17.623  1.00  0.00     0.218 C 
HETATM   10  C9  UNL     1     224.192   8.723  18.300  1.00  0.00     0.043 C 
HETATM   11  C10 UNL     1     222.762   8.906  18.846  1.00  0.00     0.032 C 
HETATM   12  C11 UNL     1     222.072   8.933  17.485  1.00  0.00     0.021 C 
HETATM   13  C12 UNL     1     222.632  10.064  16.607  1.00  0.00     0.012 C 
HETATM   14  N2  UNL     1     223.487   6.647  18.835  1.00  0.00    -0.057 N 
ATOM     15  H21 UNL     1     223.063   5.734  18.674  1.00  0.00     0.278 HD
ATOM     16  H22 UNL     1     224.279   6.293  19.370  1.00  0.00     0.278 HD
HETATM   17  C13 UNL     1     219.392   5.690  17.462  1.00  0.00     0.347 C 
HETATM   18  N6  UNL     1     219.448   5.774  18.868  1.00  0.00     0.107 N 
HETATM   19  C18 UNL     1     218.285   5.806  19.669  1.00  0.00     0.311 C 
ENDROOT
BRANCH  17  20
HETATM   20  C14 UNL     1     218.071   6.002  16.858  1.00  0.00     0.259 C 
HETATM   21  O2  UNL     1     217.625   7.138  16.638  1.00  0.00    -0.271 OA
HETATM   22  N3  UNL     1     217.178   4.931  16.468  1.00  0.00    -0.310 N 
ATOM     23  H3  UNL     1     217.482   4.212  15.812  1.00  0.00     0.170 HD
BRANCH  22  24
HETATM   24  C15 UNL     1     215.978   4.904  16.973  1.00  0.00     0.125 A 
HETATM   25  C16 UNL     1     215.239   3.750  17.122  1.00  0.00     0.093 A 
HETATM   26  C17 UNL     1     214.024   4.122  17.689  1.00  0.00     0.121 A 
HETATM   27 CL1  UNL     1     212.687   3.069  18.106  1.00  0.00    -0.063 Cl
HETATM   28  N4  UNL     1     214.058   5.451  17.866  1.00  0.00    -0.288 N 
HETATM   29  N5  UNL     1     215.226   5.913  17.436  1.00  0.00    -0.284 N 
ATOM     30  H4  UNL     1     213.308   6.015  18.265  1.00  0.00     0.188 HD
ATOM     31  H5  UNL     1     215.510   6.892  17.455  1.00  0.00     0.188 HD
ENDBRANCH  22  24
ENDBRANCH  17  20
BRANCH   1  32
HETATM   32  C2  UNL     1     223.273   7.790  20.920  1.00  0.00     0.206 C 
BRANCH  32  33
HETATM   33  O1  UNL     1     222.626   6.941  21.852  1.00  0.00    -0.393 OA
HETATM   34  C1  UNL     1     222.922   7.436  23.116  1.00  0.00     0.201 C 
ENDBRANCH  32  33
ENDBRANCH   1  32
TORSDOF 4
ENDMDL
MODEL 3
REMARK VINA RESULT: -7.490670969      4.694      7.099
REMARK  4 active torsions:
REMARK  status: ('A' for Active; 'I' for Inactive)
REMARK    1  A    between atoms: O1_2  and  C2_3 
REMARK    2  A    between atoms: C2_3  and  C3_4 
REMARK    3  A    between atoms: C13_20  and  C14_21 
REMARK       I    between atoms: C14_21  and  N3_23 
REMARK    4  A    between atoms: N3_23  and  C15_25 
ROOT
HETATM    1  C3  UNL     1     215.069   4.185  18.959  1.00  0.00     0.153 C 
HETATM    2  C4  UNL     1     216.422   4.587  19.369  1.00  0.00     0.079 C 
HETATM    3  C5  UNL     1     217.470   4.990  18.464  1.00  0.00     0.259 C 
HETATM    4  C6  UNL     1     217.226   5.858  17.313  1.00  0.00     0.262 C 
HETATM    5  N1  UNL     1     215.904   6.342  17.248  1.00  0.00    -0.060 N 
ATOM      6  H11 UNL     1     215.872   7.257  16.798  1.00  0.00     0.278 HD
ATOM      7  H12 UNL     1     215.564   6.600  18.174  1.00  0.00     0.278 HD
HETATM    8  C7  UNL     1     215.016   5.438  16.617  1.00  0.00     0.221 C 
HETATM    9  C8  UNL     1     213.772   5.340  17.476  1.00  0.00     0.218 C 
HETATM   10  C9  UNL     1     213.391   3.850  17.449  1.00  0.00     0.043 C 
HETATM   11  C10 UNL     1     214.839   3.401  17.734  1.00  0.00     0.032 C 
HETATM   12  C11 UNL     1     215.450   4.025  16.482  1.00  0.00     0.021 C 
HETATM   13  C12 UNL     1     214.787   3.471  15.211  1.00  0.00     0.012 C 
HETATM   14  N2  UNL     1     214.228   5.394  18.866  1.00  0.00    -0.057 N 
ATOM     15  H21 UNL     1     214.688   6.263  19.136  1.00  0.00     0.278 HD
ATOM     16  H22 UNL     1     213.485   5.459  19.561  1.00  0.00     0.278 HD
HETATM   17  C13 UNL     1     218.284   6.825  17.833  1.00  0.00     0.347 C 
HETATM   18  N6  UNL     1     218.301   6.072  19.024  1.00  0.00     0.107 N 
HETATM   19  C18 UNL     1     219.504   5.635  19.624  1.00  0.00     0.311 C 
ENDROOT
BRANCH  17  20
HETATM   20  C14 UNL     1     219.553   6.823  17.059  1.00  0.00     0.259 C 
HETATM   21  O2  UNL     1     219.941   5.915  16.308  1.00  0.00    -0.271 OA
HETATM   22  N3  UNL     1     220.460   7.948  17.144  1.00  0.00    -0.310 N 
ATOM     23  H3  UNL     1     220.143   8.890  16.918  1.00  0.00     0.170 HD
BRANCH  22  24
HETATM   24  C15 UNL     1     221.689   7.732  17.516  1.00  0.00     0.125 A 
HETATM   25  C16 UNL     1     222.699   8.662  17.389  1.00  0.00     0.093 A 
HETATM   26  C17 UNL     1     223.854   8.071  17.890  1.00  0.00     0.121 A 
HETATM   27 CL1  UNL     1     225.451   8.786  17.984  1.00  0.00    -0.063 Cl
HETATM   28  N4  UNL     1     223.525   6.836  18.297  1.00  0.00    -0.288 N 
HETATM   29  N5  UNL     1     222.231   6.639  18.071  1.00  0.00    -0.284 N 
ATOM     30  H4  UNL     1     224.163   6.158  18.712  1.00  0.00     0.188 HD
ATOM     31  H5  UNL     1     221.725   5.781  18.287  1.00  0.00     0.188 HD
ENDBRANCH  22  24
ENDBRANCH  17  20
BRANCH   1  32
HETATM   32  C2  UNL     1     214.499   3.380  20.119  1.00  0.00     0.206 C 
BRANCH  32  33
HETATM   33  O1  UNL     1     215.074   3.830  21.333  1.00  0.00    -0.393 OA
HETATM   34  C1  UNL     1     215.043   2.755  22.214  1.00  0.00     0.201 C 
ENDBRANCH  32  33
ENDBRANCH   1  32
TORSDOF 4
ENDMDL
MODEL 4
REMARK VINA RESULT: -7.329423133      4.973      7.699
REMARK  4 active torsions:
REMARK  status: ('A' for Active; 'I' for Inactive)
REMARK    1  A    between atoms: O1_2  and  C2_3 
REMARK    2  A    between atoms: C2_3  and  C3_4 
REMARK    3  A    between atoms: C13_20  and  C14_21 
REMARK       I    between atoms: C14_21  and  N3_23 
REMARK    4  A    between atoms: N3_23  and  C15_25 
ROOT
HETATM    1  C3  UNL     1     222.990   7.721  18.462  1.00  0.00     0.153 C 
HETATM    2  C4  UNL     1     221.866   6.878  18.892  1.00  0.00     0.079 C 
HETATM    3  C5  UNL     1     220.505   7.028  18.439  1.00  0.00     0.259 C 
HETATM    4  C6  UNL     1     220.166   7.307  17.044  1.00  0.00     0.262 C 
HETATM    5  N1  UNL     1     221.283   7.300  16.185  1.00  0.00    -0.060 N 
ATOM      6  H11 UNL     1     221.018   7.007  15.245  1.00  0.00     0.278 HD
ATOM      7  H12 UNL     1     221.922   6.541  16.423  1.00  0.00     0.278 HD
HETATM    8  C7  UNL     1     221.962   8.542  16.155  1.00  0.00     0.221 C 
HETATM    9  C8  UNL     1     223.444   8.260  16.290  1.00  0.00     0.218 C 
HETATM   10  C9  UNL     1     223.972   9.364  17.220  1.00  0.00     0.043 C 
HETATM   11  C10 UNL     1     222.822   9.166  18.228  1.00  0.00     0.032 C 
HETATM   12  C11 UNL     1     221.695   9.502  17.255  1.00  0.00     0.021 C 
HETATM   13  C12 UNL     1     221.874  10.913  16.672  1.00  0.00     0.012 C 
HETATM   14  N2  UNL     1     223.565   7.145  17.231  1.00  0.00    -0.057 N 
ATOM     15  H21 UNL     1     223.139   6.271  16.923  1.00  0.00     0.278 HD
ATOM     16  H22 UNL     1     224.505   6.764  17.330  1.00  0.00     0.278 HD
HETATM   17  C13 UNL     1     219.280   6.065  17.024  1.00  0.00     0.347 C 
HETATM   18  N6  UNL     1     219.827   5.728  18.279  1.00  0.00     0.107 N 
HETATM   19  C18 UNL     1     219.021   5.349  19.376  1.00  0.00     0.311 C 
ENDROOT
BRANCH  17  20
HETATM   20  C14 UNL     1     217.822   6.350  17.020  1.00  0.00     0.259 C 
HETATM   21  O2  UNL     1     217.289   7.403  17.402  1.00  0.00    -0.271 OA
HETATM   22  N3  UNL     1     216.886   5.354  16.543  1.00  0.00    -0.310 N 
ATOM     23  H3  UNL     1     216.970   4.969  15.602  1.00  0.00     0.170 HD
BRANCH  22  24
HETATM   24  C15 UNL     1     215.935   4.958  17.339  1.00  0.00     0.125 A 
HETATM   25  C16 UNL     1     214.835   4.242  16.916  1.00  0.00     0.093 A 
HETATM   26  C17 UNL     1     214.052   4.008  18.042  1.00  0.00     0.121 A 
HETATM   27 CL1  UNL     1     212.530   3.143  18.108  1.00  0.00    -0.063 Cl
HETATM   28  N4  UNL     1     214.679   4.570  19.086  1.00  0.00    -0.288 N 
HETATM   29  N5  UNL     1     215.802   5.136  18.660  1.00  0.00    -0.284 N 
ATOM     30  H4  UNL     1     214.347   4.563  20.050  1.00  0.00     0.188 HD
ATOM     31  H5  UNL     1     216.466   5.633  19.253  1.00  0.00     0.188 HD
ENDBRANCH  22  24
ENDBRANCH  17  20
BRANCH   1  32
HETATM   32  C2  UNL     1     224.067   7.563  19.528  1.00  0.00     0.206 C 
BRANCH  32  33
HETATM   33  O1  UNL     1     223.461   7.223  20.763  1.00  0.00    -0.393 OA
HETATM   34  C1  UNL     1     223.901   8.156  21.694  1.00  0.00     0.201 C 
ENDBRANCH  32  33
ENDBRANCH   1  32
TORSDOF 4
ENDMDL
MODEL 5
REMARK VINA RESULT: -7.275024400      3.893      7.373
REMARK  4 active torsions:
REMARK  status: ('A' for Active; 'I' for Inactive)
REMARK    1  A    between atoms: O1_2  and  C2_3 
REMARK    2  A    between atoms: C2_3  and  C3_4 
REMARK    3  A    between atoms: C13_20  and  C14_21 
REMARK       I    between atoms: C14_21  and  N3_23 
REMARK    4  A    between atoms: N3_23  and  C15_25 
ROOT
HETATM    1  C3  UNL     1     221.293   6.231  24.153  1.00  0.00     0.153 C 
HETATM    2  C4  UNL     1     220.549   5.948  22.918  1.00  0.00     0.079 C 
HETATM    3  C5  UNL     1     219.466   5.001  22.809  1.00  0.00     0.259 C 
HETATM    4  C6  UNL     1     218.429   4.870  23.832  1.00  0.00     0.262 C 
HETATM    5  N1  UNL     1     218.535   5.827  24.861  1.00  0.00    -0.060 N 
ATOM      6  H11 UNL     1     217.618   6.047  25.250  1.00  0.00     0.278 HD
ATOM      7  H12 UNL     1     218.779   6.743  24.484  1.00  0.00     0.278 HD
HETATM    8  C7  UNL     1     219.437   5.442  25.881  1.00  0.00     0.221 C 
HETATM    9  C8  UNL     1     220.326   6.632  26.182  1.00  0.00     0.218 C 
HETATM   10  C9  UNL     1     221.728   6.033  26.384  1.00  0.00     0.043 C 
HETATM   11  C10 UNL     1     221.620   5.164  25.115  1.00  0.00     0.032 C 
HETATM   12  C11 UNL     1     220.406   4.360  25.574  1.00  0.00     0.021 C 
HETATM   13  C12 UNL     1     220.697   3.631  26.895  1.00  0.00     0.012 C 
HETATM   14  N2  UNL     1     220.582   7.287  24.899  1.00  0.00    -0.057 N 
ATOM     15  H21 UNL     1     219.756   7.663  24.433  1.00  0.00     0.278 HD
ATOM     16  H22 UNL     1     221.073   8.178  24.959  1.00  0.00     0.278 HD
HETATM   17  C13 UNL     1     217.365   5.123  22.768  1.00  0.00     0.347 C 
HETATM   18  N6  UNL     1     218.412   5.467  21.889  1.00  0.00     0.107 N 
HETATM   19  C18 UNL     1     218.502   4.941  20.581  1.00  0.00     0.311 C 
ENDROOT
BRANCH  17  20
HETATM   20  C14 UNL     1     216.581   3.920  22.385  1.00  0.00     0.259 C 
HETATM   21  O2  UNL     1     217.000   2.753  22.383  1.00  0.00    -0.271 OA
HETATM   22  N3  UNL     1     215.201   4.053  21.968  1.00  0.00    -0.310 N 
ATOM     23  H3  UNL     1     214.514   4.498  22.576  1.00  0.00     0.170 HD
BRANCH  22  24
HETATM   24  C15 UNL     1     214.855   3.594  20.800  1.00  0.00     0.125 A 
HETATM   25  C16 UNL     1     214.915   4.337  19.640  1.00  0.00     0.093 A 
HETATM   26  C17 UNL     1     214.469   3.513  18.612  1.00  0.00     0.121 A 
HETATM   27 CL1  UNL     1     214.329   3.924  16.915  1.00  0.00    -0.063 Cl
HETATM   28  N4  UNL     1     214.160   2.328  19.158  1.00  0.00    -0.288 N 
HETATM   29  N5  UNL     1     214.392   2.382  20.464  1.00  0.00    -0.284 N 
ATOM     30  H4  UNL     1     213.804   1.517  18.653  1.00  0.00     0.188 HD
ATOM     31  H5  UNL     1     214.239   1.614  21.117  1.00  0.00     0.188 HD
ENDBRANCH  22  24
ENDBRANCH  17  20
BRANCH   1  32
HETATM   32  C2  UNL     1     222.611   6.857  23.715  1.00  0.00     0.206 C 
BRANCH  32  33
HETATM   33  O1  UNL     1     222.656   6.922  22.301  1.00  0.00    -0.393 OA
HETATM   34  C1  UNL     1     223.446   8.018  21.976  1.00  0.00     0.201 C 
ENDBRANCH  32  33
ENDBRANCH   1  32
TORSDOF 4
ENDMDL
