MODEL 1
REMARK VINA RESULT: -5.670302786      0.000      0.000
REMARK  9 active torsions:
REMARK  status: ('A' for Active; 'I' for Inactive)
REMARK    1  A    between atoms: C2_2  and  C3_3 
REMARK    2  A    between atoms: C3_3  and  O1_4 
REMARK    3  A    between atoms: O1_4  and  C4_5 
REMARK       I    between atoms: C4_5  and  N1_7 
REMARK    4  A    between atoms: N1_7  and  C5_9 
REMARK    5  A    between atoms: C5_9  and  N2_11 
REMARK    6  A    between atoms: N2_11  and  N3_13 
REMARK    7  A    between atoms: N3_13  and  C6_15 
REMARK    8  A    between atoms: C6_15  and  N4_17 
REMARK    9  A    between atoms: N4_17  and  C7_19 
ROOT
HETATM    1  N3  UNL     1     218.103   5.311  24.585  1.00  0.00    -0.274 N 
ATOM      2  H3  UNL     1     217.668   5.878  23.858  1.00  0.00     0.189 HD
ENDROOT
BRANCH   1   3
HETATM    3  N2  UNL     1     219.109   5.842  25.372  1.00  0.00    -0.274 N 
ATOM      4  H2  UNL     1     218.884   6.520  26.099  1.00  0.00     0.189 HD
BRANCH   3   5
HETATM    5  C5  UNL     1     220.452   5.442  25.167  1.00  0.00     0.195 C 
HETATM    6  S1  UNL     1     221.157   4.469  26.300  1.00  0.00    -0.039 SA
BRANCH   5   7
HETATM    7  N1  UNL     1     221.208   5.837  24.040  1.00  0.00    -0.278 N 
HETATM    8  C4  UNL     1     221.101   5.148  22.813  1.00  0.00     0.367 C 
HETATM    9  O2  UNL     1     220.345   4.159  22.632  1.00  0.00    -0.238 OA
ATOM     10  H1  UNL     1     221.842   6.633  24.114  1.00  0.00     0.173 HD
BRANCH   8  11
HETATM   11  O1  UNL     1     221.848   5.532  21.685  1.00  0.00    -0.300 OA
BRANCH  11  12
HETATM   12  C3  UNL     1     221.274   6.346  20.684  1.00  0.00     0.207 C 
BRANCH  12  13
HETATM   13  C2  UNL     1     221.017   5.644  19.431  1.00  0.00    -0.011 C 
HETATM   14  C1  UNL     1     219.786   5.364  19.064  1.00  0.00     0.009 C 
ENDBRANCH  12  13
ENDBRANCH  11  12
ENDBRANCH   8  11
ENDBRANCH   5   7
ENDBRANCH   3   5
ENDBRANCH   1   3
BRANCH   1  15
HETATM   15  C6  UNL     1     217.680   3.981  24.792  1.00  0.00     0.192 C 
HETATM   16  S2  UNL     1     217.215   3.521  26.282  1.00  0.00    -0.039 SA
BRANCH  15  17
HETATM   17  N4  UNL     1     217.668   3.081  23.705  1.00  0.00    -0.318 N 
ATOM     18  H4  UNL     1     218.253   2.246  23.725  1.00  0.00     0.170 HD
BRANCH  17  19
HETATM   19  C7  UNL     1     216.925   3.315  22.699  1.00  0.00     0.107 A 
HETATM   20  C8  UNL     1     215.703   2.709  22.587  1.00  0.00     0.050 A 
HETATM   21  C9  UNL     1     214.884   2.951  21.504  1.00  0.00     0.024 A 
HETATM   22  C10 UNL     1     215.328   3.820  20.540  1.00  0.00     0.026 A 
HETATM   23 BR1  UNL     1     214.245   4.193  19.028  1.00  0.00    -0.050 Br
HETATM   24  C11 UNL     1     216.551   4.425  20.655  1.00  0.00     0.108 A 
HETATM   25  N5  UNL     1     217.324   4.156  21.740  1.00  0.00    -0.351 N 
ATOM     26  H5  UNL     1     218.235   4.608  21.824  1.00  0.00     0.166 HD
ENDBRANCH  17  19
ENDBRANCH  15  17
ENDBRANCH   1  15
TORSDOF 9
ENDMDL
MODEL 2
REMARK VINA RESULT: -5.549467573      5.760      8.109
REMARK  9 active torsions:
REMARK  status: ('A' for Active; 'I' for Inactive)
REMARK    1  A    between atoms: C2_2  and  C3_3 
REMARK    2  A    between atoms: C3_3  and  O1_4 
REMARK    3  A    between atoms: O1_4  and  C4_5 
REMARK       I    between atoms: C4_5  and  N1_7 
REMARK    4  A    between atoms: N1_7  and  C5_9 
REMARK    5  A    between atoms: C5_9  and  N2_11 
REMARK    6  A    between atoms: N2_11  and  N3_13 
REMARK    7  A    between atoms: N3_13  and  C6_15 
REMARK    8  A    between atoms: C6_15  and  N4_17 
REMARK    9  A    between atoms: N4_17  and  C7_19 
ROOT
HETATM    1  N3  UNL     1     215.101   6.404  16.833  1.00  0.00    -0.274 N 
ATOM      2  H3  UNL     1     214.565   6.627  17.671  1.00  0.00     0.189 HD
ENDROOT
BRANCH   1   3
HETATM    3  N2  UNL     1     214.522   5.672  15.812  1.00  0.00    -0.274 N 
ATOM      4  H2  UNL     1     214.042   6.149  15.049  1.00  0.00     0.189 HD
BRANCH   3   5
HETATM    5  C5  UNL     1     214.596   4.257  15.828  1.00  0.00     0.195 C 
HETATM    6  S1  UNL     1     214.361   3.450  14.407  1.00  0.00    -0.039 SA
BRANCH   5   7
HETATM    7  N1  UNL     1     214.862   3.514  17.001  1.00  0.00    -0.278 N 
HETATM    8  C4  UNL     1     214.055   3.653  18.149  1.00  0.00     0.367 C 
HETATM    9  O2  UNL     1     213.063   4.423  18.216  1.00  0.00    -0.238 OA
ATOM     10  H1  UNL     1     215.651   2.868  17.017  1.00  0.00     0.173 HD
BRANCH   8  11
HETATM   11  O1  UNL     1     214.311   2.919  19.322  1.00  0.00    -0.300 OA
BRANCH  11  12
HETATM   12  C3  UNL     1     214.785   3.564  20.485  1.00  0.00     0.207 C 
BRANCH  12  13
HETATM   13  C2  UNL     1     214.855   2.693  21.653  1.00  0.00    -0.011 C 
HETATM   14  C1  UNL     1     215.954   2.632  22.374  1.00  0.00     0.009 C 
ENDBRANCH  12  13
ENDBRANCH  11  12
ENDBRANCH   8  11
ENDBRANCH   5   7
ENDBRANCH   3   5
ENDBRANCH   1   3
BRANCH   1  15
HETATM   15  C6  UNL     1     216.436   6.844  16.709  1.00  0.00     0.192 C 
HETATM   16  S2  UNL     1     216.732   8.433  16.523  1.00  0.00    -0.039 SA
BRANCH  15  17
HETATM   17  N4  UNL     1     217.483   5.897  16.752  1.00  0.00    -0.318 N 
ATOM     18  H4  UNL     1     217.675   5.311  15.940  1.00  0.00     0.170 HD
BRANCH  17  19
HETATM   19  C7  UNL     1     218.184   5.778  17.805  1.00  0.00     0.107 A 
HETATM   20  C8  UNL     1     217.611   5.352  18.973  1.00  0.00     0.050 A 
HETATM   21  C9  UNL     1     218.356   5.217  20.125  1.00  0.00     0.024 A 
HETATM   22  C10 UNL     1     219.693   5.521  20.069  1.00  0.00     0.026 A 
HETATM   23 BR1  UNL     1     220.770   5.353  21.623  1.00  0.00    -0.050 Br
HETATM   24  C11 UNL     1     220.264   5.946  18.900  1.00  0.00     0.108 A 
HETATM   25  N5  UNL     1     219.490   6.065  17.789  1.00  0.00    -0.351 N 
ATOM     26  H5  UNL     1     219.917   6.382  16.919  1.00  0.00     0.166 HD
ENDBRANCH  17  19
ENDBRANCH  15  17
ENDBRANCH   1  15
TORSDOF 9
ENDMDL
MODEL 3
REMARK VINA RESULT: -5.526798941      4.982      7.587
REMARK  9 active torsions:
REMARK  status: ('A' for Active; 'I' for Inactive)
REMARK    1  A    between atoms: C2_2  and  C3_3 
REMARK    2  A    between atoms: C3_3  and  O1_4 
REMARK    3  A    between atoms: O1_4  and  C4_5 
REMARK       I    between atoms: C4_5  and  N1_7 
REMARK    4  A    between atoms: N1_7  and  C5_9 
REMARK    5  A    between atoms: C5_9  and  N2_11 
REMARK    6  A    between atoms: N2_11  and  N3_13 
REMARK    7  A    between atoms: N3_13  and  C6_15 
REMARK    8  A    between atoms: C6_15  and  N4_17 
REMARK    9  A    between atoms: N4_17  and  C7_19 
ROOT
HETATM    1  N3  UNL     1     216.804   6.066  16.575  1.00  0.00    -0.274 N 
ATOM      2  H3  UNL     1     216.022   6.688  16.371  1.00  0.00     0.189 HD
ENDROOT
BRANCH   1   3
HETATM    3  N2  UNL     1     216.656   4.697  16.446  1.00  0.00    -0.274 N 
ATOM      4  H2  UNL     1     217.468   4.112  16.250  1.00  0.00     0.189 HD
BRANCH   3   5
HETATM    5  C5  UNL     1     215.375   4.109  16.586  1.00  0.00     0.195 C 
HETATM    6  S1  UNL     1     214.398   4.045  15.257  1.00  0.00    -0.039 SA
BRANCH   5   7
HETATM    7  N1  UNL     1     214.903   3.577  17.808  1.00  0.00    -0.278 N 
HETATM    8  C4  UNL     1     215.039   4.295  19.015  1.00  0.00     0.367 C 
HETATM    9  O2  UNL     1     215.573   5.431  19.095  1.00  0.00    -0.238 OA
ATOM     10  H1  UNL     1     214.457   2.660  17.817  1.00  0.00     0.173 HD
BRANCH   8  11
HETATM   11  O1  UNL     1     214.573   3.776  20.237  1.00  0.00    -0.300 OA
BRANCH  11  12
HETATM   12  C3  UNL     1     215.154   4.181  21.458  1.00  0.00     0.207 C 
BRANCH  12  13
HETATM   13  C2  UNL     1     215.842   3.107  22.167  1.00  0.00    -0.011 C 
HETATM   14  C1  UNL     1     216.544   3.365  23.249  1.00  0.00     0.009 C 
ENDBRANCH  12  13
ENDBRANCH  11  12
ENDBRANCH   8  11
ENDBRANCH   5   7
ENDBRANCH   3   5
ENDBRANCH   1   3
BRANCH   1  15
HETATM   15  C6  UNL     1     218.042   6.600  16.992  1.00  0.00     0.192 C 
HETATM   16  S2  UNL     1     218.230   8.216  17.045  1.00  0.00    -0.039 SA
BRANCH  15  17
HETATM   17  N4  UNL     1     219.088   5.724  17.354  1.00  0.00    -0.318 N 
ATOM     18  H4  UNL     1     219.594   5.206  16.635  1.00  0.00     0.170 HD
BRANCH  17  19
HETATM   19  C7  UNL     1     219.396   5.581  18.579  1.00  0.00     0.107 A 
HETATM   20  C8  UNL     1     220.708   5.597  18.967  1.00  0.00     0.050 A 
HETATM   21  C9  UNL     1     221.062   5.444  20.292  1.00  0.00     0.024 A 
HETATM   22  C10 UNL     1     220.059   5.275  21.213  1.00  0.00     0.026 A 
HETATM   23 BR1  UNL     1     220.484   5.060  23.049  1.00  0.00    -0.050 Br
HETATM   24  C11 UNL     1     218.747   5.260  20.821  1.00  0.00     0.108 A 
HETATM   25  N5  UNL     1     218.447   5.414  19.504  1.00  0.00    -0.351 N 
ATOM     26  H5  UNL     1     217.469   5.402  19.215  1.00  0.00     0.166 HD
ENDBRANCH  17  19
ENDBRANCH  15  17
ENDBRANCH   1  15
TORSDOF 9
ENDMDL
MODEL 4
REMARK VINA RESULT: -5.514851300      4.593      6.046
REMARK  9 active torsions:
REMARK  status: ('A' for Active; 'I' for Inactive)
REMARK    1  A    between atoms: C2_2  and  C3_3 
REMARK    2  A    between atoms: C3_3  and  O1_4 
REMARK    3  A    between atoms: O1_4  and  C4_5 
REMARK       I    between atoms: C4_5  and  N1_7 
REMARK    4  A    between atoms: N1_7  and  C5_9 
REMARK    5  A    between atoms: C5_9  and  N2_11 
REMARK    6  A    between atoms: N2_11  and  N3_13 
REMARK    7  A    between atoms: N3_13  and  C6_15 
REMARK    8  A    between atoms: C6_15  and  N4_17 
REMARK    9  A    between atoms: N4_17  and  C7_19 
ROOT
HETATM    1  N3  UNL     1     220.368   6.968  16.138  1.00  0.00    -0.274 N 
ATOM      2  H3  UNL     1     220.649   7.288  15.211  1.00  0.00     0.189 HD
ENDROOT
BRANCH   1   3
HETATM    3  N2  UNL     1     221.239   6.219  16.907  1.00  0.00    -0.274 N 
ATOM      4  H2  UNL     1     221.108   5.211  16.992  1.00  0.00     0.189 HD
BRANCH   3   5
HETATM    5  C5  UNL     1     222.315   6.853  17.577  1.00  0.00     0.195 C 
HETATM    6  S1  UNL     1     223.115   8.064  16.791  1.00  0.00    -0.039 SA
BRANCH   5   7
HETATM    7  N1  UNL     1     222.726   6.495  18.881  1.00  0.00    -0.278 N 
HETATM    8  C4  UNL     1     221.824   6.532  19.965  1.00  0.00     0.367 C 
HETATM    9  O2  UNL     1     220.619   6.876  19.859  1.00  0.00    -0.238 OA
ATOM     10  H1  UNL     1     223.691   6.204  19.041  1.00  0.00     0.173 HD
BRANCH   8  11
HETATM   11  O1  UNL     1     222.223   6.178  21.267  1.00  0.00    -0.300 OA
BRANCH  11  12
HETATM   12  C3  UNL     1     221.271   6.063  22.304  1.00  0.00     0.207 C 
BRANCH  12  13
HETATM   13  C2  UNL     1     220.819   4.696  22.538  1.00  0.00    -0.011 C 
HETATM   14  C1  UNL     1     219.589   4.460  22.940  1.00  0.00     0.009 C 
ENDBRANCH  12  13
ENDBRANCH  11  12
ENDBRANCH   8  11
ENDBRANCH   5   7
ENDBRANCH   3   5
ENDBRANCH   1   3
BRANCH   1  15
HETATM   15  C6  UNL     1     219.089   7.288  16.639  1.00  0.00     0.192 C 
HETATM   16  S2  UNL     1     218.851   8.741  17.332  1.00  0.00    -0.039 SA
BRANCH  15  17
HETATM   17  N4  UNL     1     218.045   6.344  16.528  1.00  0.00    -0.318 N 
ATOM     18  H4  UNL     1     217.736   6.029  15.608  1.00  0.00     0.170 HD
BRANCH  17  19
HETATM   19  C7  UNL     1     217.492   5.887  17.577  1.00  0.00     0.107 A 
HETATM   20  C8  UNL     1     216.128   5.806  17.660  1.00  0.00     0.050 A 
HETATM   21  C9  UNL     1     215.510   5.313  18.790  1.00  0.00     0.024 A 
HETATM   22  C10 UNL     1     216.302   4.904  19.833  1.00  0.00     0.026 A 
HETATM   23 BR1  UNL     1     215.510   4.216  21.414  1.00  0.00    -0.050 Br
HETATM   24  C11 UNL     1     217.667   4.986  19.748  1.00  0.00     0.108 A 
HETATM   25  N5  UNL     1     218.231   5.479  18.613  1.00  0.00    -0.351 N 
ATOM     26  H5  UNL     1     219.247   5.539  18.551  1.00  0.00     0.166 HD
ENDBRANCH  17  19
ENDBRANCH  15  17
ENDBRANCH   1  15
TORSDOF 9
ENDMDL
MODEL 5
REMARK VINA RESULT: -5.498514807      3.619      5.237
REMARK  9 active torsions:
REMARK  status: ('A' for Active; 'I' for Inactive)
REMARK    1  A    between atoms: C2_2  and  C3_3 
REMARK    2  A    between atoms: C3_3  and  O1_4 
REMARK    3  A    between atoms: O1_4  and  C4_5 
REMARK       I    between atoms: C4_5  and  N1_7 
REMARK    4  A    between atoms: N1_7  and  C5_9 
REMARK    5  A    between atoms: C5_9  and  N2_11 
REMARK    6  A    between atoms: N2_11  and  N3_13 
REMARK    7  A    between atoms: N3_13  and  C6_15 
REMARK    8  A    between atoms: C6_15  and  N4_17 
REMARK    9  A    between atoms: N4_17  and  C7_19 
ROOT
HETATM    1  N3  UNL     1     220.607   6.151  18.658  1.00  0.00    -0.274 N 
ATOM      2  H3  UNL     1     221.257   6.854  18.305  1.00  0.00     0.189 HD
ENDROOT
BRANCH   1   3
HETATM    3  N2  UNL     1     220.691   5.725  19.971  1.00  0.00    -0.274 N 
ATOM      4  H2  UNL     1     221.324   4.966  20.222  1.00  0.00     0.189 HD
BRANCH   3   5
HETATM    5  C5  UNL     1     219.896   6.343  20.967  1.00  0.00     0.195 C 
HETATM    6  S1  UNL     1     220.011   7.980  21.149  1.00  0.00    -0.039 SA
BRANCH   5   7
HETATM    7  N1  UNL     1     219.015   5.622  21.804  1.00  0.00    -0.278 N 
HETATM    8  C4  UNL     1     219.477   4.550  22.597  1.00  0.00     0.367 C 
HETATM    9  O2  UNL     1     220.674   4.165  22.621  1.00  0.00    -0.238 OA
ATOM     10  H1  UNL     1     218.028   5.880  21.836  1.00  0.00     0.173 HD
BRANCH   8  11
HETATM   11  O1  UNL     1     218.608   3.825  23.433  1.00  0.00    -0.300 OA
BRANCH  11  12
HETATM   12  C3  UNL     1     217.208   3.941  23.291  1.00  0.00     0.207 C 
BRANCH  12  13
HETATM   13  C2  UNL     1     216.624   2.949  22.394  1.00  0.00    -0.011 C 
HETATM   14  C1  UNL     1     215.331   2.711  22.414  1.00  0.00     0.009 C 
ENDBRANCH  12  13
ENDBRANCH  11  12
ENDBRANCH   8  11
ENDBRANCH   5   7
ENDBRANCH   3   5
ENDBRANCH   1   3
BRANCH   1  15
HETATM   15  C6  UNL     1     219.619   5.612  17.808  1.00  0.00     0.192 C 
HETATM   16  S2  UNL     1     219.900   4.188  17.071  1.00  0.00    -0.039 SA
BRANCH  15  17
HETATM   17  N4  UNL     1     218.410   6.316  17.617  1.00  0.00    -0.318 N 
ATOM     18  H4  UNL     1     218.428   7.309  17.386  1.00  0.00     0.170 HD
BRANCH  17  19
HETATM   19  C7  UNL     1     217.300   5.708  17.733  1.00  0.00     0.107 A 
HETATM   20  C8  UNL     1     216.795   5.423  18.973  1.00  0.00     0.050 A 
HETATM   21  C9  UNL     1     215.592   4.764  19.119  1.00  0.00     0.024 A 
HETATM   22  C10 UNL     1     214.912   4.402  17.983  1.00  0.00     0.026 A 
HETATM   23 BR1  UNL     1     213.251   3.495  18.120  1.00  0.00    -0.050 Br
HETATM   24  C11 UNL     1     215.419   4.689  16.744  1.00  0.00     0.108 A 
HETATM   25  N5  UNL     1     216.610   5.339  16.650  1.00  0.00    -0.351 N 
ATOM     26  H5  UNL     1     216.986   5.552  15.726  1.00  0.00     0.166 HD
ENDBRANCH  17  19
ENDBRANCH  15  17
ENDBRANCH   1  15
TORSDOF 9
ENDMDL
