MODEL 1
REMARK VINA RESULT: -6.780893149      0.000      0.000
REMARK  7 active torsions:
REMARK  status: ('A' for Active; 'I' for Inactive)
REMARK    1  A    between atoms: O1_2  and  C2_3 
REMARK    2  A    between atoms: C2_3  and  C3_4 
REMARK    3  A    between atoms: C2_3  and  C13_18 
REMARK       I    between atoms: C3_4  and  N1_6 
REMARK    4  A    between atoms: N1_6  and  C4_8 
REMARK    5  A    between atoms: C13_18  and  O3_19 
REMARK    6  A    between atoms: C13_18  and  C14_21 
REMARK    7  A    between atoms: C14_21  and  N3_22 
ROOT
HETATM    1  C2  UNL     1      -4.261   3.030  11.830  1.00  0.00     0.242 C 
ENDROOT
BRANCH   1   2
HETATM    2  O1  UNL     1      -5.299   2.152  11.784  1.00  0.00    -0.379 OA
HETATM    3  C1  UNL     1      -5.161   1.026  11.048  1.00  0.00     0.202 C 
ENDBRANCH   1   2
BRANCH   1   4
HETATM    4  C3  UNL     1      -4.330   4.146  10.887  1.00  0.00     0.249 C 
HETATM    5  O2  UNL     1      -3.880   3.985   9.724  1.00  0.00    -0.271 OA
HETATM    6  N1  UNL     1      -4.872   5.431  11.165  1.00  0.00    -0.354 N 
ATOM      7  H1  UNL     1      -5.246   5.590  12.100  1.00  0.00     0.162 HD
BRANCH   6   8
HETATM    8  C4  UNL     1      -4.934   6.510  10.246  1.00  0.00     0.088 C 
HETATM    9  C5  UNL     1      -4.570   7.851  10.845  1.00  0.00     0.061 C 
HETATM   10  C6  UNL     1      -4.511   8.893   9.754  1.00  0.00     0.225 C 
HETATM   11  C7  UNL     1      -5.669   9.841   9.888  1.00  0.00     0.042 C 
HETATM   12  N2  UNL     1      -4.757   8.261   8.480  1.00  0.00     0.094 N 
HETATM   13  C8  UNL     1      -6.797   9.098   9.228  1.00  0.00     0.017 C 
HETATM   14  C9  UNL     1      -7.433   9.945   8.156  1.00  0.00     0.012 C 
HETATM   15  C10 UNL     1      -6.144   7.859   8.610  1.00  0.00     0.228 C 
HETATM   16  C11 UNL     1      -6.261   6.679   9.556  1.00  0.00     0.061 C 
HETATM   17  C12 UNL     1      -4.522   9.133   7.374  1.00  0.00     0.310 C 
ENDBRANCH   6   8
ENDBRANCH   1   4
BRANCH   1  18
HETATM   18  C13 UNL     1      -3.894   3.451  13.239  1.00  0.00     0.184 C 
BRANCH  18  19
HETATM   19  O3  UNL     1      -3.068   4.586  13.211  1.00  0.00    -0.391 OA
ATOM     20  H3  UNL     1      -3.593   5.377  13.229  1.00  0.00     0.210 HD
ENDBRANCH  18  19
BRANCH  18  21
HETATM   21  C14 UNL     1      -5.058   3.786  14.100  1.00  0.00     0.307 C 
BRANCH  21  22
HETATM   22  N3  UNL     1      -5.192   3.095  15.324  1.00  0.00     0.095 N 
HETATM   23  C15 UNL     1      -6.416   2.380  15.515  1.00  0.00     0.304 C 
HETATM   24  C16 UNL     1      -6.272   1.618  16.825  1.00  0.00     0.210 C 
HETATM   25  C17 UNL     1      -7.598   1.187  17.364  1.00  0.00     0.042 C 
HETATM   26  N4  UNL     1      -5.335   0.529  16.682  1.00  0.00    -0.064 N 
HETATM   27  C18 UNL     1      -4.268   0.843  15.752  1.00  0.00     0.210 C 
ATOM     28  H42 UNL     1      -4.962   0.241  17.587  1.00  0.00     0.278 HD
ATOM     29  H41 UNL     1      -5.810  -0.335  16.421  1.00  0.00     0.278 HD
HETATM   30  C19 UNL     1      -4.431   0.100  14.443  1.00  0.00     0.042 C 
HETATM   31  C20 UNL     1      -4.044   2.302  15.577  1.00  0.00     0.304 C 
ENDBRANCH  21  22
ENDBRANCH  18  21
ENDBRANCH   1  18
TORSDOF 7
ENDMDL
MODEL 2
REMARK VINA RESULT: -6.663651639      1.415      2.021
REMARK  7 active torsions:
REMARK  status: ('A' for Active; 'I' for Inactive)
REMARK    1  A    between atoms: O1_2  and  C2_3 
REMARK    2  A    between atoms: C2_3  and  C3_4 
REMARK    3  A    between atoms: C2_3  and  C13_18 
REMARK       I    between atoms: C3_4  and  N1_6 
REMARK    4  A    between atoms: N1_6  and  C4_8 
REMARK    5  A    between atoms: C13_18  and  O3_19 
REMARK    6  A    between atoms: C13_18  and  C14_21 
REMARK    7  A    between atoms: C14_21  and  N3_22 
ROOT
HETATM    1  C2  UNL     1      -3.152   4.748  12.980  1.00  0.00     0.242 C 
ENDROOT
BRANCH   1   2
HETATM    2  O1  UNL     1      -2.451   3.597  12.789  1.00  0.00    -0.379 OA
HETATM    3  C1  UNL     1      -1.297   3.654  12.087  1.00  0.00     0.202 C 
ENDBRANCH   1   2
BRANCH   1   4
HETATM    4  C3  UNL     1      -4.127   5.078  11.942  1.00  0.00     0.249 C 
HETATM    5  O2  UNL     1      -4.707   4.141  11.336  1.00  0.00    -0.271 OA
HETATM    6  N1  UNL     1      -4.493   6.391  11.538  1.00  0.00    -0.354 N 
ATOM      7  H1  UNL     1      -4.039   7.171  12.014  1.00  0.00     0.162 HD
BRANCH   6   8
HETATM    8  C4  UNL     1      -5.438   6.705  10.528  1.00  0.00     0.088 C 
HETATM    9  C5  UNL     1      -4.841   6.837   9.144  1.00  0.00     0.061 C 
HETATM   10  C6  UNL     1      -5.946   7.008   8.131  1.00  0.00     0.225 C 
HETATM   11  C7  UNL     1      -5.938   8.413   7.595  1.00  0.00     0.042 C 
HETATM   12  N2  UNL     1      -7.222   6.925   8.800  1.00  0.00     0.094 N 
HETATM   13  C8  UNL     1      -6.678   9.185   8.652  1.00  0.00     0.017 C 
HETATM   14  C9  UNL     1      -7.822   9.954   8.042  1.00  0.00     0.012 C 
HETATM   15  C10 UNL     1      -7.206   8.122   9.619  1.00  0.00     0.228 C 
HETATM   16  C11 UNL     1      -6.248   7.949  10.782  1.00  0.00     0.061 C 
HETATM   17  C12 UNL     1      -8.322   6.875   7.892  1.00  0.00     0.310 C 
ENDBRANCH   6   8
ENDBRANCH   1   4
BRANCH   1  18
HETATM   18  C13 UNL     1      -3.697   4.890  14.388  1.00  0.00     0.184 C 
BRANCH  18  19
HETATM   19  O3  UNL     1      -3.811   6.246  14.733  1.00  0.00    -0.391 OA
ATOM     20  H3  UNL     1      -4.018   6.336  15.655  1.00  0.00     0.210 HD
ENDBRANCH  18  19
BRANCH  18  21
HETATM   21  C14 UNL     1      -5.036   4.280  14.590  1.00  0.00     0.307 C 
BRANCH  21  22
HETATM   22  N3  UNL     1      -5.174   3.320  15.617  1.00  0.00     0.095 N 
HETATM   23  C15 UNL     1      -6.408   2.596  15.644  1.00  0.00     0.304 C 
HETATM   24  C16 UNL     1      -6.268   1.544  16.735  1.00  0.00     0.210 C 
HETATM   25  C17 UNL     1      -7.598   1.016  17.168  1.00  0.00     0.042 C 
HETATM   26  N4  UNL     1      -5.349   0.507  16.329  1.00  0.00    -0.064 N 
HETATM   27  C18 UNL     1      -4.283   1.018  15.489  1.00  0.00     0.210 C 
ATOM     28  H42 UNL     1      -4.975   0.007  17.136  1.00  0.00     0.278 HD
ATOM     29  H41 UNL     1      -5.840  -0.264  15.874  1.00  0.00     0.278 HD
HETATM   30  C19 UNL     1      -4.465   0.609  14.043  1.00  0.00     0.042 C 
HETATM   31  C20 UNL     1      -4.038   2.474  15.663  1.00  0.00     0.304 C 
ENDBRANCH  21  22
ENDBRANCH  18  21
ENDBRANCH   1  18
TORSDOF 7
ENDMDL
MODEL 3
REMARK VINA RESULT: -6.638316240      1.512      2.492
REMARK  7 active torsions:
REMARK  status: ('A' for Active; 'I' for Inactive)
REMARK    1  A    between atoms: O1_2  and  C2_3 
REMARK    2  A    between atoms: C2_3  and  C3_4 
REMARK    3  A    between atoms: C2_3  and  C13_18 
REMARK       I    between atoms: C3_4  and  N1_6 
REMARK    4  A    between atoms: N1_6  and  C4_8 
REMARK    5  A    between atoms: C13_18  and  O3_19 
REMARK    6  A    between atoms: C13_18  and  C14_21 
REMARK    7  A    between atoms: C14_21  and  N3_22 
ROOT
HETATM    1  C2  UNL     1      -3.691   2.952  12.512  1.00  0.00     0.242 C 
ENDROOT
BRANCH   1   2
HETATM    2  O1  UNL     1      -2.363   2.743  12.297  1.00  0.00    -0.379 OA
HETATM    3  C1  UNL     1      -1.558   3.819  12.148  1.00  0.00     0.202 C 
ENDBRANCH   1   2
BRANCH   1   4
HETATM    4  C3  UNL     1      -4.382   3.749  11.499  1.00  0.00     0.249 C 
HETATM    5  O2  UNL     1      -4.819   3.172  10.470  1.00  0.00    -0.271 OA
HETATM    6  N1  UNL     1      -4.615   5.149  11.565  1.00  0.00    -0.354 N 
ATOM      7  H1  UNL     1      -4.274   5.643  12.390  1.00  0.00     0.162 HD
BRANCH   6   8
HETATM    8  C4  UNL     1      -5.285   5.917  10.578  1.00  0.00     0.088 C 
HETATM    9  C5  UNL     1      -4.387   6.402   9.460  1.00  0.00     0.061 C 
HETATM   10  C6  UNL     1      -5.223   7.062   8.391  1.00  0.00     0.225 C 
HETATM   11  C7  UNL     1      -4.982   8.545   8.395  1.00  0.00     0.042 C 
HETATM   12  N2  UNL     1      -6.618   6.960   8.747  1.00  0.00     0.094 N 
HETATM   13  C8  UNL     1      -5.872   9.033   9.504  1.00  0.00     0.017 C 
HETATM   14  C9  UNL     1      -6.786  10.124   9.009  1.00  0.00     0.012 C 
HETATM   15  C10 UNL     1      -6.687   7.806   9.924  1.00  0.00     0.228 C 
HETATM   16  C11 UNL     1      -6.026   7.117  11.103  1.00  0.00     0.061 C 
HETATM   17  C12 UNL     1      -7.490   7.379   7.698  1.00  0.00     0.310 C 
ENDBRANCH   6   8
ENDBRANCH   1   4
BRANCH   1  18
HETATM   18  C13 UNL     1      -4.439   1.692  12.904  1.00  0.00     0.184 C 
BRANCH  18  19
HETATM   19  O3  UNL     1      -3.954   0.591  12.181  1.00  0.00    -0.391 OA
ATOM     20  H3  UNL     1      -3.294   0.131  12.685  1.00  0.00     0.210 HD
ENDBRANCH  18  19
BRANCH  18  21
HETATM   21  C14 UNL     1      -4.334   1.343  14.344  1.00  0.00     0.307 C 
BRANCH  21  22
HETATM   22  N3  UNL     1      -5.444   1.624  15.172  1.00  0.00     0.095 N 
HETATM   23  C15 UNL     1      -5.154   1.905  16.544  1.00  0.00     0.304 C 
HETATM   24  C16 UNL     1      -6.472   2.303  17.192  1.00  0.00     0.210 C 
HETATM   25  C17 UNL     1      -6.409   2.202  18.682  1.00  0.00     0.042 C 
HETATM   26  N4  UNL     1      -6.897   3.603  16.728  1.00  0.00    -0.064 N 
HETATM   27  C18 UNL     1      -6.511   3.846  15.352  1.00  0.00     0.210 C 
ATOM     28  H42 UNL     1      -7.901   3.732  16.857  1.00  0.00     0.278 HD
ATOM     29  H41 UNL     1      -6.558   4.343  17.343  1.00  0.00     0.278 HD
HETATM   30  C19 UNL     1      -5.369   4.836  15.258  1.00  0.00     0.042 C 
HETATM   31  C20 UNL     1      -6.278   2.602  14.573  1.00  0.00     0.304 C 
ENDBRANCH  21  22
ENDBRANCH  18  21
ENDBRANCH   1  18
TORSDOF 7
ENDMDL
MODEL 4
REMARK VINA RESULT: -6.473884856      3.083      4.502
REMARK  7 active torsions:
REMARK  status: ('A' for Active; 'I' for Inactive)
REMARK    1  A    between atoms: O1_2  and  C2_3 
REMARK    2  A    between atoms: C2_3  and  C3_4 
REMARK    3  A    between atoms: C2_3  and  C13_18 
REMARK       I    between atoms: C3_4  and  N1_6 
REMARK    4  A    between atoms: N1_6  and  C4_8 
REMARK    5  A    between atoms: C13_18  and  O3_19 
REMARK    6  A    between atoms: C13_18  and  C14_21 
REMARK    7  A    between atoms: C14_21  and  N3_22 
ROOT
HETATM    1  C2  UNL     1      -3.387   3.752  10.544  1.00  0.00     0.242 C 
ENDROOT
BRANCH   1   2
HETATM    2  O1  UNL     1      -3.758   4.031   9.264  1.00  0.00    -0.379 OA
HETATM    3  C1  UNL     1      -2.929   4.778   8.501  1.00  0.00     0.202 C 
ENDBRANCH   1   2
BRANCH   1   4
HETATM    4  C3  UNL     1      -2.551   4.757  11.198  1.00  0.00     0.249 C 
HETATM    5  O2  UNL     1      -1.330   4.510  11.369  1.00  0.00    -0.271 OA
HETATM    6  N1  UNL     1      -2.995   6.022  11.670  1.00  0.00    -0.354 N 
ATOM      7  H1  UNL     1      -3.981   6.250  11.543  1.00  0.00     0.162 HD
BRANCH   6   8
HETATM    8  C4  UNL     1      -2.178   6.993  12.306  1.00  0.00     0.088 C 
HETATM    9  C5  UNL     1      -2.205   6.928  13.818  1.00  0.00     0.061 C 
HETATM   10  C6  UNL     1      -1.187   7.887  14.383  1.00  0.00     0.225 C 
HETATM   11  C7  UNL     1      -1.883   9.048  15.036  1.00  0.00     0.042 C 
HETATM   12  N2  UNL     1      -0.467   8.511  13.298  1.00  0.00     0.094 N 
HETATM   13  C8  UNL     1      -2.205   9.949  13.876  1.00  0.00     0.017 C 
HETATM   14  C9  UNL     1      -1.670  11.336  14.119  1.00  0.00     0.012 C 
HETATM   15  C10 UNL     1      -1.504   9.310  12.674  1.00  0.00     0.228 C 
HETATM   16  C11 UNL     1      -2.470   8.418  11.918  1.00  0.00     0.061 C 
HETATM   17  C12 UNL     1       0.650   9.280  13.744  1.00  0.00     0.310 C 
ENDBRANCH   6   8
ENDBRANCH   1   4
BRANCH   1  18
HETATM   18  C13 UNL     1      -4.535   3.265  11.407  1.00  0.00     0.184 C 
BRANCH  18  19
HETATM   19  O3  UNL     1      -5.252   2.258  10.744  1.00  0.00    -0.391 OA
ATOM     20  H3  UNL     1      -5.107   1.418  11.162  1.00  0.00     0.210 HD
ENDBRANCH  18  19
BRANCH  18  21
HETATM   21  C14 UNL     1      -4.118   2.705  12.719  1.00  0.00     0.307 C 
BRANCH  21  22
HETATM   22  N3  UNL     1      -5.119   2.501  13.695  1.00  0.00     0.095 N 
HETATM   23  C15 UNL     1      -4.661   2.197  15.016  1.00  0.00     0.304 C 
HETATM   24  C16 UNL     1      -5.897   2.155  15.903  1.00  0.00     0.210 C 
HETATM   25  C17 UNL     1      -5.633   1.436  17.186  1.00  0.00     0.042 C 
HETATM   26  N4  UNL     1      -6.432   3.484  16.095  1.00  0.00    -0.064 N 
HETATM   27  C18 UNL     1      -6.241   4.325  14.930  1.00  0.00     0.210 C 
ATOM     28  H42 UNL     1      -7.413   3.450  16.370  1.00  0.00     0.278 HD
ATOM     29  H41 UNL     1      -6.044   3.919  16.932  1.00  0.00     0.278 HD
HETATM   30  C19 UNL     1      -5.163   5.362  15.159  1.00  0.00     0.042 C 
HETATM   31  C20 UNL     1      -6.063   3.558  13.668  1.00  0.00     0.304 C 
ENDBRANCH  21  22
ENDBRANCH  18  21
ENDBRANCH   1  18
TORSDOF 7
ENDMDL
MODEL 5
REMARK VINA RESULT: -6.437810108      2.239      4.051
REMARK  7 active torsions:
REMARK  status: ('A' for Active; 'I' for Inactive)
REMARK    1  A    between atoms: O1_2  and  C2_3 
REMARK    2  A    between atoms: C2_3  and  C3_4 
REMARK    3  A    between atoms: C2_3  and  C13_18 
REMARK       I    between atoms: C3_4  and  N1_6 
REMARK    4  A    between atoms: N1_6  and  C4_8 
REMARK    5  A    between atoms: C13_18  and  O3_19 
REMARK    6  A    between atoms: C13_18  and  C14_21 
REMARK    7  A    between atoms: C14_21  and  N3_22 
ROOT
HETATM    1  C2  UNL     1      -4.147   5.811   8.866  1.00  0.00     0.242 C 
ENDROOT
BRANCH   1   2
HETATM    2  O1  UNL     1      -3.615   4.696   8.294  1.00  0.00    -0.379 OA
HETATM    3  C1  UNL     1      -2.358   4.762   7.800  1.00  0.00     0.202 C 
ENDBRANCH   1   2
BRANCH   1   4
HETATM    4  C3  UNL     1      -5.092   6.560   8.039  1.00  0.00     0.249 C 
HETATM    5  O2  UNL     1      -5.480   6.055   6.955  1.00  0.00    -0.271 OA
HETATM    6  N1  UNL     1      -5.629   7.839   8.349  1.00  0.00    -0.354 N 
ATOM      7  H1  UNL     1      -5.332   8.273   9.223  1.00  0.00     0.162 HD
BRANCH   6   8
HETATM    8  C4  UNL     1      -6.544   8.562   7.540  1.00  0.00     0.088 C 
HETATM    9  C5  UNL     1      -6.370  10.064   7.606  1.00  0.00     0.061 C 
HETATM   10  C6  UNL     1      -7.277  10.722   6.594  1.00  0.00     0.225 C 
HETATM   11  C7  UNL     1      -8.394  11.440   7.297  1.00  0.00     0.042 C 
HETATM   12  N2  UNL     1      -7.970   9.703   5.843  1.00  0.00     0.094 N 
HETATM   13  C8  UNL     1      -9.380  10.341   7.584  1.00  0.00     0.017 C 
HETATM   14  C9  UNL     1     -10.741  10.696   7.044  1.00  0.00     0.012 C 
HETATM   15  C10 UNL     1      -8.822   9.113   6.858  1.00  0.00     0.228 C 
HETATM   16  C11 UNL     1      -7.996   8.272   7.812  1.00  0.00     0.061 C 
HETATM   17  C12 UNL     1      -8.695  10.229   4.732  1.00  0.00     0.310 C 
ENDBRANCH   6   8
ENDBRANCH   1   4
BRANCH   1  18
HETATM   18  C13 UNL     1      -4.634   5.582  10.284  1.00  0.00     0.184 C 
BRANCH  18  19
HETATM   19  O3  UNL     1      -6.036   5.520  10.315  1.00  0.00    -0.391 OA
ATOM     20  H3  UNL     1      -6.338   4.693   9.961  1.00  0.00     0.210 HD
ENDBRANCH  18  19
BRANCH  18  21
HETATM   21  C14 UNL     1      -4.133   4.330  10.907  1.00  0.00     0.307 C 
BRANCH  21  22
HETATM   22  N3  UNL     1      -4.531   4.051  12.234  1.00  0.00     0.095 N 
HETATM   23  C15 UNL     1      -4.151   2.772  12.752  1.00  0.00     0.304 C 
HETATM   24  C16 UNL     1      -4.567   2.758  14.216  1.00  0.00     0.210 C 
HETATM   25  C17 UNL     1      -4.632   1.367  14.759  1.00  0.00     0.042 C 
HETATM   26  N4  UNL     1      -3.722   3.634  14.995  1.00  0.00    -0.064 N 
HETATM   27  C18 UNL     1      -3.289   4.793  14.238  1.00  0.00     0.210 C 
ATOM     28  H42 UNL     1      -4.179   3.911  15.864  1.00  0.00     0.278 HD
ATOM     29  H41 UNL     1      -2.926   3.129  15.384  1.00  0.00     0.278 HD
HETATM   30  C19 UNL     1      -1.829   4.694  13.851  1.00  0.00     0.042 C 
HETATM   31  C20 UNL     1      -4.181   5.121  13.095  1.00  0.00     0.304 C 
ENDBRANCH  21  22
ENDBRANCH  18  21
ENDBRANCH   1  18
TORSDOF 7
ENDMDL
