MODEL 1
REMARK VINA RESULT: -7.463332610      0.000      0.000
REMARK  6 active torsions:
REMARK  status: ('A' for Active; 'I' for Inactive)
REMARK    1  A    between atoms: N3_4  and  C2_6 
REMARK    2  A    between atoms: C2_6  and  C3_7 
REMARK    3  A    between atoms: C3_7  and  S1_8 
REMARK    4  A    between atoms: S1_8  and  C4_9 
REMARK    5  A    between atoms: C4_9  and  C5_10 
REMARK       I    between atoms: C5_10  and  N4_12 
REMARK    6  A    between atoms: C12_19  and  N5_20 
ROOT
HETATM    1  C5  UNL     1      -4.684   5.817  12.873  1.00  0.00     0.229 C 
HETATM    2  O1  UNL     1      -5.485   6.477  12.157  1.00  0.00    -0.273 OA
HETATM    3  N4  UNL     1      -3.978   4.742  12.302  1.00  0.00    -0.351 N 
HETATM    4  C6  UNL     1      -4.186   4.420  10.910  1.00  0.00     0.129 C 
HETATM    5  C7  UNL     1      -4.561   2.937  10.881  1.00  0.00     0.058 C 
HETATM    6  C8  UNL     1      -3.407   2.108  11.337  1.00  0.00     0.066 C 
HETATM    7  C9  UNL     1      -2.389   2.938  12.068  1.00  0.00     0.058 C 
HETATM    8  C10 UNL     1      -3.043   3.932  13.040  1.00  0.00     0.129 C 
HETATM    9  C11 UNL     1      -3.929   0.971  12.172  1.00  0.00     0.071 C 
HETATM   10  C12 UNL     1      -4.297  -0.206  11.299  1.00  0.00     0.188 C 
HETATM   11  C13 UNL     1      -3.000  -0.755  10.719  1.00  0.00     0.059 C 
HETATM   12  C14 UNL     1      -2.053   0.417  10.575  1.00  0.00     0.170 C 
HETATM   13  O2  UNL     1      -2.750   1.565  10.223  1.00  0.00    -0.380 OA
ENDROOT
BRANCH   1  14
HETATM   14  C4  UNL     1      -4.532   6.216  14.296  1.00  0.00     0.176 C 
BRANCH  14  15
HETATM   15  S1  UNL     1      -5.950   5.584  15.218  1.00  0.00    -0.158 SA
BRANCH  15  16
HETATM   16  C3  UNL     1      -6.103   3.820  14.833  1.00  0.00     0.094 C 
BRANCH  16  17
HETATM   17  C2  UNL     1      -6.032   2.988  16.095  1.00  0.00     0.132 C 
BRANCH  17  18
HETATM   18  N3  UNL     1      -5.902   1.604  15.695  1.00  0.00    -0.366 N 
HETATM   19  C1  UNL     1      -4.839   0.909  15.788  1.00  0.00     0.196 C 
HETATM   20  N1  UNL     1      -3.670   1.502  16.322  1.00  0.00    -0.067 NA
HETATM   21  N2  UNL     1      -4.868  -0.439  15.352  1.00  0.00    -0.067 NA
ATOM     22  H3  UNL     1      -6.728   1.148  15.307  1.00  0.00     0.161 HD
ENDBRANCH  17  18
ENDBRANCH  16  17
ENDBRANCH  15  16
ENDBRANCH  14  15
ENDBRANCH   1  14
BRANCH  10  23
HETATM   23  N5  UNL     1      -5.145   0.162  10.196  1.00  0.00    -0.075 N 
ATOM     24  H53 UNL     1      -5.090   1.163  10.010  1.00  0.00     0.274 HD
ATOM     25  H52 UNL     1      -4.772  -0.191   9.314  1.00  0.00     0.274 HD
ATOM     26  H51 UNL     1      -6.113  -0.132  10.327  1.00  0.00     0.274 HD
ENDBRANCH  10  23
TORSDOF 6
ENDMDL
MODEL 2
REMARK VINA RESULT: -6.663398271      2.988      5.731
REMARK  6 active torsions:
REMARK  status: ('A' for Active; 'I' for Inactive)
REMARK    1  A    between atoms: N3_4  and  C2_6 
REMARK    2  A    between atoms: C2_6  and  C3_7 
REMARK    3  A    between atoms: C3_7  and  S1_8 
REMARK    4  A    between atoms: S1_8  and  C4_9 
REMARK    5  A    between atoms: C4_9  and  C5_10 
REMARK       I    between atoms: C5_10  and  N4_12 
REMARK    6  A    between atoms: C12_19  and  N5_20 
ROOT
HETATM    1  C5  UNL     1      -4.156   4.299  11.334  1.00  0.00     0.229 C 
HETATM    2  O1  UNL     1      -5.155   4.644  10.646  1.00  0.00    -0.273 OA
HETATM    3  N4  UNL     1      -3.708   5.142  12.367  1.00  0.00    -0.351 N 
HETATM    4  C6  UNL     1      -4.402   6.383  12.617  1.00  0.00     0.129 C 
HETATM    5  C7  UNL     1      -3.330   7.473  12.564  1.00  0.00     0.058 C 
HETATM    6  C8  UNL     1      -2.365   7.297  13.689  1.00  0.00     0.066 C 
HETATM    7  C9  UNL     1      -2.459   5.919  14.282  1.00  0.00     0.058 C 
HETATM    8  C10 UNL     1      -2.578   4.831  13.204  1.00  0.00     0.129 C 
HETATM    9  C11 UNL     1      -0.982   7.616  13.193  1.00  0.00     0.071 C 
HETATM   10  C12 UNL     1      -0.698   9.095  13.319  1.00  0.00     0.188 C 
HETATM   11  C13 UNL     1      -0.626   9.411  14.807  1.00  0.00     0.059 C 
HETATM   12  C14 UNL     1      -1.560   8.447  15.506  1.00  0.00     0.170 C 
HETATM   13  O2  UNL     1      -2.677   8.195  14.720  1.00  0.00    -0.380 OA
ENDROOT
BRANCH   1  14
HETATM   14  C4  UNL     1      -3.501   3.006  11.007  1.00  0.00     0.176 C 
BRANCH  14  15
HETATM   15  S1  UNL     1      -4.694   1.678  11.284  1.00  0.00    -0.158 SA
BRANCH  15  16
HETATM   16  C3  UNL     1      -4.337   0.960  12.908  1.00  0.00     0.094 C 
BRANCH  16  17
HETATM   17  C2  UNL     1      -4.702   1.927  14.014  1.00  0.00     0.132 C 
BRANCH  17  18
HETATM   18  N3  UNL     1      -5.471   1.193  14.995  1.00  0.00    -0.366 N 
HETATM   19  C1  UNL     1      -5.019   0.740  16.095  1.00  0.00     0.196 C 
HETATM   20  N1  UNL     1      -3.657   0.952  16.421  1.00  0.00    -0.067 NA
HETATM   21  N2  UNL     1      -5.898   0.038  16.956  1.00  0.00    -0.067 NA
ATOM     22  H3  UNL     1      -6.456   1.025  14.789  1.00  0.00     0.161 HD
ENDBRANCH  17  18
ENDBRANCH  16  17
ENDBRANCH  15  16
ENDBRANCH  14  15
ENDBRANCH   1  14
BRANCH  10  23
HETATM   23  N5  UNL     1      -1.739   9.912  12.751  1.00  0.00    -0.075 N 
ATOM     24  H53 UNL     1      -1.561  10.096  11.764  1.00  0.00     0.274 HD
ATOM     25  H52 UNL     1      -2.610   9.388  12.667  1.00  0.00     0.274 HD
ATOM     26  H51 UNL     1      -1.882  10.782  13.264  1.00  0.00     0.274 HD
ENDBRANCH  10  23
TORSDOF 6
ENDMDL
MODEL 3
REMARK VINA RESULT: -6.659374225      1.905      2.360
REMARK  6 active torsions:
REMARK  status: ('A' for Active; 'I' for Inactive)
REMARK    1  A    between atoms: N3_4  and  C2_6 
REMARK    2  A    between atoms: C2_6  and  C3_7 
REMARK    3  A    between atoms: C3_7  and  S1_8 
REMARK    4  A    between atoms: S1_8  and  C4_9 
REMARK    5  A    between atoms: C4_9  and  C5_10 
REMARK       I    between atoms: C5_10  and  N4_12 
REMARK    6  A    between atoms: C12_19  and  N5_20 
ROOT
HETATM    1  C5  UNL     1      -2.028   6.042  11.147  1.00  0.00     0.229 C 
HETATM    2  O1  UNL     1      -2.596   6.772  10.290  1.00  0.00    -0.273 OA
HETATM    3  N4  UNL     1      -2.001   4.649  10.953  1.00  0.00    -0.351 N 
HETATM    4  C6  UNL     1      -2.621   4.087   9.778  1.00  0.00     0.129 C 
HETATM    5  C7  UNL     1      -3.600   3.030  10.293  1.00  0.00     0.058 C 
HETATM    6  C8  UNL     1      -2.853   1.916  10.948  1.00  0.00     0.066 C 
HETATM    7  C9  UNL     1      -1.445   2.322  11.283  1.00  0.00     0.058 C 
HETATM    8  C10 UNL     1      -1.376   3.738  11.877  1.00  0.00     0.129 C 
HETATM    9  C11 UNL     1      -3.623   1.462  12.157  1.00  0.00     0.071 C 
HETATM   10  C12 UNL     1      -4.644   0.415  11.776  1.00  0.00     0.188 C 
HETATM   11  C13 UNL     1      -3.872  -0.829  11.356  1.00  0.00     0.059 C 
HETATM   12  C14 UNL     1      -2.567  -0.354  10.758  1.00  0.00     0.170 C 
HETATM   13  O2  UNL     1      -2.753   0.834  10.062  1.00  0.00    -0.380 OA
ENDROOT
BRANCH   1  14
HETATM   14  C4  UNL     1      -1.416   6.704  12.328  1.00  0.00     0.176 C 
BRANCH  14  15
HETATM   15  S1  UNL     1      -2.700   6.942  13.575  1.00  0.00    -0.158 SA
BRANCH  15  16
HETATM   16  C3  UNL     1      -2.598   5.551  14.730  1.00  0.00     0.094 C 
BRANCH  16  17
HETATM   17  C2  UNL     1      -3.714   4.561  14.477  1.00  0.00     0.132 C 
BRANCH  17  18
HETATM   18  N3  UNL     1      -3.394   3.352  15.206  1.00  0.00    -0.366 N 
HETATM   19  C1  UNL     1      -4.240   2.492  15.611  1.00  0.00     0.196 C 
HETATM   20  N1  UNL     1      -5.615   2.698  15.344  1.00  0.00    -0.067 NA
HETATM   21  N2  UNL     1      -3.772   1.355  16.315  1.00  0.00    -0.067 NA
ATOM     22  H3  UNL     1      -2.410   3.176  15.412  1.00  0.00     0.161 HD
ENDBRANCH  17  18
ENDBRANCH  16  17
ENDBRANCH  15  16
ENDBRANCH  14  15
ENDBRANCH   1  14
BRANCH  10  23
HETATM   23  N5  UNL     1      -5.464   0.815  10.662  1.00  0.00    -0.075 N 
ATOM     24  H53 UNL     1      -6.397   1.082  10.973  1.00  0.00     0.274 HD
ATOM     25  H52 UNL     1      -5.154   1.710  10.283  1.00  0.00     0.274 HD
ATOM     26  H51 UNL     1      -5.511   0.104   9.932  1.00  0.00     0.274 HD
ENDBRANCH  10  23
TORSDOF 6
ENDMDL
MODEL 4
REMARK VINA RESULT: -6.564704959      3.086      4.505
REMARK  6 active torsions:
REMARK  status: ('A' for Active; 'I' for Inactive)
REMARK    1  A    between atoms: N3_4  and  C2_6 
REMARK    2  A    between atoms: C2_6  and  C3_7 
REMARK    3  A    between atoms: C3_7  and  S1_8 
REMARK    4  A    between atoms: S1_8  and  C4_9 
REMARK    5  A    between atoms: C4_9  and  C5_10 
REMARK       I    between atoms: C5_10  and  N4_12 
REMARK    6  A    between atoms: C12_19  and  N5_20 
ROOT
HETATM    1  C5  UNL     1      -3.548   2.082  11.973  1.00  0.00     0.229 C 
HETATM    2  O1  UNL     1      -3.346   0.997  12.582  1.00  0.00    -0.273 OA
HETATM    3  N4  UNL     1      -2.550   2.587  11.120  1.00  0.00    -0.351 N 
HETATM    4  C6  UNL     1      -1.318   1.852  10.962  1.00  0.00     0.129 C 
HETATM    5  C7  UNL     1      -0.200   2.847  11.282  1.00  0.00     0.058 C 
HETATM    6  C8  UNL     1      -0.175   3.935  10.261  1.00  0.00     0.066 C 
HETATM    7  C9  UNL     1      -1.460   3.985   9.481  1.00  0.00     0.058 C 
HETATM    8  C10 UNL     1      -2.692   3.817  10.383  1.00  0.00     0.129 C 
HETATM    9  C11 UNL     1       0.131   5.237  10.948  1.00  0.00     0.071 C 
HETATM   10  C12 UNL     1       1.623   5.445  11.055  1.00  0.00     0.188 C 
HETATM   11  C13 UNL     1       2.148   5.657   9.641  1.00  0.00     0.059 C 
HETATM   12  C14 UNL     1       1.251   4.861   8.718  1.00  0.00     0.170 C 
HETATM   13  O2  UNL     1       0.843   3.683   9.331  1.00  0.00    -0.380 OA
ENDROOT
BRANCH   1  14
HETATM   14  C4  UNL     1      -4.845   2.773  12.195  1.00  0.00     0.176 C 
BRANCH  14  15
HETATM   15  S1  UNL     1      -4.672   3.858  13.627  1.00  0.00    -0.158 SA
BRANCH  15  16
HETATM   16  C3  UNL     1      -6.180   3.694  14.617  1.00  0.00     0.094 C 
BRANCH  16  17
HETATM   17  C2  UNL     1      -5.904   2.928  15.892  1.00  0.00     0.132 C 
BRANCH  17  18
HETATM   18  N3  UNL     1      -5.784   1.529  15.540  1.00  0.00    -0.366 N 
HETATM   19  C1  UNL     1      -4.764   0.800  15.759  1.00  0.00     0.196 C 
HETATM   20  N1  UNL     1      -3.634   1.368  16.396  1.00  0.00    -0.067 NA
HETATM   21  N2  UNL     1      -4.797  -0.557  15.354  1.00  0.00    -0.067 NA
ATOM     22  H3  UNL     1      -6.583   1.092  15.080  1.00  0.00     0.161 HD
ENDBRANCH  17  18
ENDBRANCH  16  17
ENDBRANCH  15  16
ENDBRANCH  14  15
ENDBRANCH   1  14
BRANCH  10  23
HETATM   23  N5  UNL     1       2.307   4.304  11.606  1.00  0.00    -0.075 N 
ATOM     24  H53 UNL     1       2.218   4.279  12.621  1.00  0.00     0.274 HD
ATOM     25  H52 UNL     1       1.818   3.438  11.377  1.00  0.00     0.274 HD
ATOM     26  H51 UNL     1       3.287   4.256  11.324  1.00  0.00     0.274 HD
ENDBRANCH  10  23
TORSDOF 6
ENDMDL
MODEL 5
REMARK VINA RESULT: -6.541958609      3.709      5.727
REMARK  6 active torsions:
REMARK  status: ('A' for Active; 'I' for Inactive)
REMARK    1  A    between atoms: N3_4  and  C2_6 
REMARK    2  A    between atoms: C2_6  and  C3_7 
REMARK    3  A    between atoms: C3_7  and  S1_8 
REMARK    4  A    between atoms: S1_8  and  C4_9 
REMARK    5  A    between atoms: C4_9  and  C5_10 
REMARK       I    between atoms: C5_10  and  N4_12 
REMARK    6  A    between atoms: C12_19  and  N5_20 
ROOT
HETATM    1  C5  UNL     1      -5.757   5.905  13.049  1.00  0.00     0.229 C 
HETATM    2  O1  UNL     1      -6.822   5.435  13.532  1.00  0.00    -0.273 OA
HETATM    3  N4  UNL     1      -5.831   6.923  12.081  1.00  0.00    -0.351 N 
HETATM    4  C6  UNL     1      -7.125   7.409  11.665  1.00  0.00     0.129 C 
HETATM    5  C7  UNL     1      -7.144   7.281  10.140  1.00  0.00     0.058 C 
HETATM    6  C8  UNL     1      -6.135   8.201   9.537  1.00  0.00     0.066 C 
HETATM    7  C9  UNL     1      -5.134   8.664  10.559  1.00  0.00     0.058 C 
HETATM    8  C10 UNL     1      -4.669   7.520  11.474  1.00  0.00     0.129 C 
HETATM    9  C11 UNL     1      -5.488   7.510   8.370  1.00  0.00     0.071 C 
HETATM   10  C12 UNL     1      -6.290   7.729   7.108  1.00  0.00     0.188 C 
HETATM   11  C13 UNL     1      -6.175   9.207   6.757  1.00  0.00     0.059 C 
HETATM   12  C14 UNL     1      -6.024   9.957   8.062  1.00  0.00     0.170 C 
HETATM   13  O2  UNL     1      -6.777   9.353   9.061  1.00  0.00    -0.380 OA
ENDROOT
BRANCH   1  14
HETATM   14  C4  UNL     1      -4.468   5.346  13.533  1.00  0.00     0.176 C 
BRANCH  14  15
HETATM   15  S1  UNL     1      -4.157   3.796  12.660  1.00  0.00    -0.158 SA
BRANCH  15  16
HETATM   16  C3  UNL     1      -4.896   2.464  13.640  1.00  0.00     0.094 C 
BRANCH  16  17
HETATM   17  C2  UNL     1      -5.024   2.875  15.091  1.00  0.00     0.132 C 
BRANCH  17  18
HETATM   18  N3  UNL     1      -5.747   1.825  15.776  1.00  0.00    -0.366 N 
HETATM   19  C1  UNL     1      -5.215   0.838  16.380  1.00  0.00     0.196 C 
HETATM   20  N1  UNL     1      -3.804   0.724  16.405  1.00  0.00    -0.067 NA
HETATM   21  N2  UNL     1      -6.059  -0.112  17.006  1.00  0.00    -0.067 NA
ATOM     22  H3  UNL     1      -6.766   1.881  15.776  1.00  0.00     0.161 HD
ENDBRANCH  17  18
ENDBRANCH  16  17
ENDBRANCH  15  16
ENDBRANCH  14  15
ENDBRANCH   1  14
BRANCH  10  23
HETATM   23  N5  UNL     1      -7.688   7.430   7.278  1.00  0.00    -0.075 N 
ATOM     24  H53 UNL     1      -8.270   8.170   6.885  1.00  0.00     0.274 HD
ATOM     25  H52 UNL     1      -7.973   6.658   6.676  1.00  0.00     0.274 HD
ATOM     26  H51 UNL     1      -7.937   7.248   8.250  1.00  0.00     0.274 HD
ENDBRANCH  10  23
TORSDOF 6
ENDMDL
