MODEL 1
REMARK VINA RESULT: -7.557068897      0.000      0.000
REMARK  10 active torsions:
REMARK  status: ('A' for Active; 'I' for Inactive)
REMARK    1  A    between atoms: C1_2  and  C2_3 
REMARK    2  A    between atoms: C1_2  and  O2_12 
REMARK    3  A    between atoms: C2_3  and  C3_4 
REMARK    4  A    between atoms: C3_4  and  C4_5 
REMARK    5  A    between atoms: C4_5  and  C5_6 
REMARK    6  A    between atoms: O2_12  and  C10_13 
REMARK    7  A    between atoms: C10_13  and  C11_14 
REMARK    8  A    between atoms: C11_14  and  C12_15 
REMARK    9  A    between atoms: C12_15  and  O3_16 
REMARK   10  A    between atoms: C14_20  and  O5_21 
ROOT
HETATM    1  O2  UNL     1     -10.781  11.223 -21.593  1.00  0.00    -0.318 OA
ENDROOT
BRANCH   1   2
HETATM    2  C1  UNL     1     -11.339  12.269 -22.347  1.00  0.00     0.258 C 
HETATM    3  O1  UNL     1     -12.315  11.980 -23.040  1.00  0.00    -0.265 OA
BRANCH   2   4
HETATM    4  C2  UNL     1     -10.756  13.606 -22.278  1.00  0.00     0.111 C 
BRANCH   4   5
HETATM    5  C3  UNL     1      -9.308  13.721 -22.651  1.00  0.00     0.010 C 
BRANCH   5   6
HETATM    6  C4  UNL     1      -8.497  14.102 -21.493  1.00  0.00     0.005 C 
BRANCH   6   7
HETATM    7  C5  UNL     1      -7.717  12.948 -20.855  1.00  0.00    -0.013 C 
HETATM    8  C6  UNL     1      -6.258  13.160 -20.806  1.00  0.00     0.015 C 
HETATM    9  C7  UNL     1      -5.634  13.829 -19.658  1.00  0.00     0.074 C 
HETATM   10  S1  UNL     1      -6.524  13.493 -18.087  1.00  0.00    -0.169 SA
HETATM   11  C8  UNL     1      -7.518  12.003 -18.507  1.00  0.00     0.074 C 
HETATM   12  C9  UNL     1      -8.399  12.420 -19.640  1.00  0.00     0.015 C 
ENDBRANCH   6   7
ENDBRANCH   5   6
ENDBRANCH   4   5
ENDBRANCH   2   4
ENDBRANCH   1   2
BRANCH   1  13
HETATM   13  C10 UNL     1     -11.532  10.043 -21.325  1.00  0.00     0.227 C 
BRANCH  13  14
HETATM   14  C11 UNL     1     -10.640   8.873 -21.668  1.00  0.00     0.166 C 
HETATM   15  O4  UNL     1     -11.184   7.708 -21.131  1.00  0.00    -0.365 OA
HETATM   16  C13 UNL     1     -10.699   6.632 -21.833  1.00  0.00     0.209 C 
HETATM   17  C14 UNL     1     -10.322   7.099 -23.200  1.00  0.00     0.214 C 
HETATM   18  C15 UNL     1     -10.617   8.561 -23.122  1.00  0.00     0.196 C 
HETATM   19  O6  UNL     1     -10.802   9.349 -24.029  1.00  0.00    -0.292 OA
BRANCH  14  20
HETATM   20  C12 UNL     1      -9.243   9.074 -21.116  1.00  0.00     0.212 C 
BRANCH  20  21
HETATM   21  O3  UNL     1      -9.262   9.092 -19.735  1.00  0.00    -0.397 OA
ATOM     22  H3  UNL     1      -9.712   9.865 -19.417  1.00  0.00     0.209 HD
ENDBRANCH  20  21
ENDBRANCH  14  20
BRANCH  17  23
HETATM   23  O5  UNL     1     -11.113   6.468 -24.160  1.00  0.00    -0.386 OA
ATOM     24  H5  UNL     1     -11.847   7.024 -24.396  1.00  0.00     0.210 HD
ENDBRANCH  17  23
ENDBRANCH  13  14
ENDBRANCH   1  13
TORSDOF 10
ENDMDL
MODEL 2
REMARK VINA RESULT: -7.517905917      0.974      1.603
REMARK  10 active torsions:
REMARK  status: ('A' for Active; 'I' for Inactive)
REMARK    1  A    between atoms: C1_2  and  C2_3 
REMARK    2  A    between atoms: C1_2  and  O2_12 
REMARK    3  A    between atoms: C2_3  and  C3_4 
REMARK    4  A    between atoms: C3_4  and  C4_5 
REMARK    5  A    between atoms: C4_5  and  C5_6 
REMARK    6  A    between atoms: O2_12  and  C10_13 
REMARK    7  A    between atoms: C10_13  and  C11_14 
REMARK    8  A    between atoms: C11_14  and  C12_15 
REMARK    9  A    between atoms: C12_15  and  O3_16 
REMARK   10  A    between atoms: C14_20  and  O5_21 
ROOT
HETATM    1  O2  UNL     1     -10.607  10.850 -22.085  1.00  0.00    -0.318 OA
ENDROOT
BRANCH   1   2
HETATM    2  C1  UNL     1     -11.079  11.797 -23.009  1.00  0.00     0.258 C 
HETATM    3  O1  UNL     1     -12.302  11.909 -23.096  1.00  0.00    -0.265 OA
BRANCH   2   4
HETATM    4  C2  UNL     1     -10.131  12.580 -23.795  1.00  0.00     0.111 C 
BRANCH   4   5
HETATM    5  C3  UNL     1      -9.808  13.951 -23.278  1.00  0.00     0.010 C 
BRANCH   5   6
HETATM    6  C4  UNL     1      -8.363  14.127 -23.128  1.00  0.00     0.005 C 
BRANCH   6   7
HETATM    7  C5  UNL     1      -7.905  14.451 -21.702  1.00  0.00    -0.013 C 
HETATM    8  C6  UNL     1      -8.856  14.035 -20.654  1.00  0.00     0.015 C 
HETATM    9  C7  UNL     1      -8.779  12.694 -20.060  1.00  0.00     0.074 C 
HETATM   10  S1  UNL     1      -7.056  12.063 -19.982  1.00  0.00    -0.169 SA
HETATM   11  C8  UNL     1      -6.064  13.600 -20.176  1.00  0.00     0.074 C 
HETATM   12  C9  UNL     1      -6.458  14.161 -21.504  1.00  0.00     0.015 C 
ENDBRANCH   6   7
ENDBRANCH   5   6
ENDBRANCH   4   5
ENDBRANCH   2   4
ENDBRANCH   1   2
BRANCH   1  13
HETATM   13  C10 UNL     1     -11.391   9.708 -21.753  1.00  0.00     0.227 C 
BRANCH  13  14
HETATM   14  C11 UNL     1     -10.491   8.504 -21.905  1.00  0.00     0.166 C 
HETATM   15  O4  UNL     1     -11.081   7.408 -21.280  1.00  0.00    -0.365 OA
HETATM   16  C13 UNL     1     -10.562   6.259 -21.825  1.00  0.00     0.209 C 
HETATM   17  C14 UNL     1     -10.092   6.570 -23.208  1.00  0.00     0.214 C 
HETATM   18  C15 UNL     1     -10.376   8.032 -23.311  1.00  0.00     0.196 C 
HETATM   19  O6  UNL     1     -10.493   8.715 -24.310  1.00  0.00    -0.292 OA
BRANCH  14  20
HETATM   20  C12 UNL     1      -9.130   8.761 -21.288  1.00  0.00     0.212 C 
BRANCH  20  21
HETATM   21  O3  UNL     1      -9.253   9.057 -19.945  1.00  0.00    -0.397 OA
ATOM     22  H3  UNL     1      -8.487   9.523 -19.633  1.00  0.00     0.209 HD
ENDBRANCH  20  21
ENDBRANCH  14  20
BRANCH  17  23
HETATM   23  O5  UNL     1     -10.825   5.839 -24.142  1.00  0.00    -0.386 OA
ATOM     24  H5  UNL     1     -10.709   6.207 -25.010  1.00  0.00     0.210 HD
ENDBRANCH  17  23
ENDBRANCH  13  14
ENDBRANCH   1  13
TORSDOF 10
ENDMDL
MODEL 3
REMARK VINA RESULT: -7.401143446      3.408      5.855
REMARK  10 active torsions:
REMARK  status: ('A' for Active; 'I' for Inactive)
REMARK    1  A    between atoms: C1_2  and  C2_3 
REMARK    2  A    between atoms: C1_2  and  O2_12 
REMARK    3  A    between atoms: C2_3  and  C3_4 
REMARK    4  A    between atoms: C3_4  and  C4_5 
REMARK    5  A    between atoms: C4_5  and  C5_6 
REMARK    6  A    between atoms: O2_12  and  C10_13 
REMARK    7  A    between atoms: C10_13  and  C11_14 
REMARK    8  A    between atoms: C11_14  and  C12_15 
REMARK    9  A    between atoms: C12_15  and  O3_16 
REMARK   10  A    between atoms: C14_20  and  O5_21 
ROOT
HETATM    1  O2  UNL     1      -7.176  13.097 -21.505  1.00  0.00    -0.318 OA
ENDROOT
BRANCH   1   2
HETATM    2  C1  UNL     1      -7.037  14.326 -22.171  1.00  0.00     0.258 C 
HETATM    3  O1  UNL     1      -6.008  14.959 -21.934  1.00  0.00    -0.265 OA
BRANCH   2   4
HETATM    4  C2  UNL     1      -8.082  14.781 -23.083  1.00  0.00     0.111 C 
BRANCH   4   5
HETATM    5  C3  UNL     1      -9.467  14.269 -22.817  1.00  0.00     0.010 C 
BRANCH   5   6
HETATM    6  C4  UNL     1      -9.763  13.104 -23.653  1.00  0.00     0.005 C 
BRANCH   6   7
HETATM    7  C5  UNL     1     -11.026  12.335 -23.250  1.00  0.00    -0.013 C 
HETATM    8  C6  UNL     1     -11.191  11.042 -23.940  1.00  0.00     0.015 C 
HETATM    9  C7  UNL     1     -10.618   9.813 -23.378  1.00  0.00     0.074 C 
HETATM   10  S1  UNL     1     -10.594   9.831 -21.542  1.00  0.00    -0.169 SA
HETATM   11  C8  UNL     1     -11.807  11.154 -21.144  1.00  0.00     0.074 C 
HETATM   12  C9  UNL     1     -11.267  12.393 -21.781  1.00  0.00     0.015 C 
ENDBRANCH   6   7
ENDBRANCH   5   6
ENDBRANCH   4   5
ENDBRANCH   2   4
ENDBRANCH   1   2
BRANCH   1  13
HETATM   13  C10 UNL     1      -6.433  12.826 -20.321  1.00  0.00     0.227 C 
BRANCH  13  14
HETATM   14  C11 UNL     1      -7.395  12.200 -19.337  1.00  0.00     0.166 C 
HETATM   15  O4  UNL     1      -7.355  10.814 -19.474  1.00  0.00    -0.365 OA
HETATM   16  C13 UNL     1      -7.800  10.244 -18.307  1.00  0.00     0.209 C 
HETATM   17  C14 UNL     1      -7.561  11.212 -17.195  1.00  0.00     0.214 C 
HETATM   18  C15 UNL     1      -6.983  12.382 -17.920  1.00  0.00     0.196 C 
HETATM   19  O6  UNL     1      -6.319  13.298 -17.477  1.00  0.00    -0.292 OA
BRANCH  14  20
HETATM   20  C12 UNL     1      -8.810  12.687 -19.577  1.00  0.00     0.212 C 
BRANCH  20  21
HETATM   21  O3  UNL     1      -8.922  14.029 -19.268  1.00  0.00    -0.397 OA
ATOM     22  H3  UNL     1      -8.361  14.550 -19.830  1.00  0.00     0.209 HD
ENDBRANCH  20  21
ENDBRANCH  14  20
BRANCH  17  23
HETATM   23  O5  UNL     1      -6.655  10.679 -16.280  1.00  0.00    -0.386 OA
ATOM     24  H5  UNL     1      -7.116  10.189 -15.608  1.00  0.00     0.210 HD
ENDBRANCH  17  23
ENDBRANCH  13  14
ENDBRANCH   1  13
TORSDOF 10
ENDMDL
MODEL 4
REMARK VINA RESULT: -7.246159825      1.499      2.709
REMARK  10 active torsions:
REMARK  status: ('A' for Active; 'I' for Inactive)
REMARK    1  A    between atoms: C1_2  and  C2_3 
REMARK    2  A    between atoms: C1_2  and  O2_12 
REMARK    3  A    between atoms: C2_3  and  C3_4 
REMARK    4  A    between atoms: C3_4  and  C4_5 
REMARK    5  A    between atoms: C4_5  and  C5_6 
REMARK    6  A    between atoms: O2_12  and  C10_13 
REMARK    7  A    between atoms: C10_13  and  C11_14 
REMARK    8  A    between atoms: C11_14  and  C12_15 
REMARK    9  A    between atoms: C12_15  and  O3_16 
REMARK   10  A    between atoms: C14_20  and  O5_21 
ROOT
HETATM    1  O2  UNL     1     -10.646   9.982 -23.367  1.00  0.00    -0.318 OA
ENDROOT
BRANCH   1   2
HETATM    2  C1  UNL     1     -11.002  11.341 -23.351  1.00  0.00     0.258 C 
HETATM    3  O1  UNL     1     -12.070  11.616 -22.803  1.00  0.00    -0.265 OA
BRANCH   2   4
HETATM    4  C2  UNL     1     -10.121  12.330 -23.964  1.00  0.00     0.111 C 
BRANCH   4   5
HETATM    5  C3  UNL     1     -10.029  13.658 -23.272  1.00  0.00     0.010 C 
BRANCH   5   6
HETATM    6  C4  UNL     1      -8.632  14.046 -23.067  1.00  0.00     0.005 C 
BRANCH   6   7
HETATM    7  C5  UNL     1      -8.243  14.277 -21.603  1.00  0.00    -0.013 C 
HETATM    8  C6  UNL     1      -9.200  13.720 -20.629  1.00  0.00     0.015 C 
HETATM    9  C7  UNL     1      -9.060  12.341 -20.143  1.00  0.00     0.074 C 
HETATM   10  S1  UNL     1      -7.305  11.809 -20.051  1.00  0.00    -0.169 SA
HETATM   11  C8  UNL     1      -6.404  13.412 -20.082  1.00  0.00     0.074 C 
HETATM   12  C9  UNL     1      -6.787  14.058 -21.374  1.00  0.00     0.015 C 
ENDBRANCH   6   7
ENDBRANCH   5   6
ENDBRANCH   4   5
ENDBRANCH   2   4
ENDBRANCH   1   2
BRANCH   1  13
HETATM   13  C10 UNL     1     -10.222   9.330 -22.174  1.00  0.00     0.227 C 
BRANCH  13  14
HETATM   14  C11 UNL     1      -9.889   7.905 -22.551  1.00  0.00     0.166 C 
HETATM   15  O4  UNL     1      -8.566   7.636 -22.206  1.00  0.00    -0.365 OA
HETATM   16  C13 UNL     1      -8.416   6.278 -22.068  1.00  0.00     0.209 C 
HETATM   17  C14 UNL     1      -9.746   5.694 -21.724  1.00  0.00     0.214 C 
HETATM   18  C15 UNL     1     -10.629   6.897 -21.746  1.00  0.00     0.196 C 
HETATM   19  O6  UNL     1     -11.719   7.050 -21.230  1.00  0.00    -0.292 OA
BRANCH  14  20
HETATM   20  C12 UNL     1     -10.075   7.680 -24.039  1.00  0.00     0.212 C 
BRANCH  20  21
HETATM   21  O3  UNL     1     -11.362   7.261 -24.311  1.00  0.00    -0.397 OA
ATOM     22  H3  UNL     1     -11.880   7.976 -24.661  1.00  0.00     0.209 HD
ENDBRANCH  20  21
ENDBRANCH  14  20
BRANCH  17  23
HETATM   23  O5  UNL     1      -9.704   5.114 -20.457  1.00  0.00    -0.386 OA
ATOM     24  H5  UNL     1      -9.198   5.658 -19.864  1.00  0.00     0.210 HD
ENDBRANCH  17  23
ENDBRANCH  13  14
ENDBRANCH   1  13
TORSDOF 10
ENDMDL
MODEL 5
REMARK VINA RESULT: -7.204071861      3.714      5.990
REMARK  10 active torsions:
REMARK  status: ('A' for Active; 'I' for Inactive)
REMARK    1  A    between atoms: C1_2  and  C2_3 
REMARK    2  A    between atoms: C1_2  and  O2_12 
REMARK    3  A    between atoms: C2_3  and  C3_4 
REMARK    4  A    between atoms: C3_4  and  C4_5 
REMARK    5  A    between atoms: C4_5  and  C5_6 
REMARK    6  A    between atoms: O2_12  and  C10_13 
REMARK    7  A    between atoms: C10_13  and  C11_14 
REMARK    8  A    between atoms: C11_14  and  C12_15 
REMARK    9  A    between atoms: C12_15  and  O3_16 
REMARK   10  A    between atoms: C14_20  and  O5_21 
ROOT
HETATM    1  O2  UNL     1      -8.084  11.411 -18.991  1.00  0.00    -0.318 OA
ENDROOT
BRANCH   1   2
HETATM    2  C1  UNL     1      -7.264  11.369 -20.132  1.00  0.00     0.258 C 
HETATM    3  O1  UNL     1      -7.143  10.270 -20.674  1.00  0.00    -0.265 OA
BRANCH   2   4
HETATM    4  C2  UNL     1      -6.617  12.588 -20.608  1.00  0.00     0.111 C 
BRANCH   4   5
HETATM    5  C3  UNL     1      -7.434  13.843 -20.545  1.00  0.00     0.010 C 
BRANCH   5   6
HETATM    6  C4  UNL     1      -7.949  14.200 -21.868  1.00  0.00     0.005 C 
BRANCH   6   7
HETATM    7  C5  UNL     1      -9.472  14.099 -22.009  1.00  0.00    -0.013 C 
HETATM    8  C6  UNL     1      -9.926  13.655 -23.340  1.00  0.00     0.015 C 
HETATM    9  C7  UNL     1     -10.098  12.228 -23.637  1.00  0.00     0.074 C 
HETATM   10  S1  UNL     1     -10.628  11.267 -22.164  1.00  0.00    -0.169 SA
HETATM   11  C8  UNL     1     -11.262  12.581 -21.043  1.00  0.00     0.074 C 
HETATM   12  C9  UNL     1     -10.102  13.492 -20.804  1.00  0.00     0.015 C 
ENDBRANCH   6   7
ENDBRANCH   5   6
ENDBRANCH   4   5
ENDBRANCH   2   4
ENDBRANCH   1   2
BRANCH   1  13
HETATM   13  C10 UNL     1      -8.328  10.232 -18.231  1.00  0.00     0.227 C 
BRANCH  13  14
HETATM   14  C11 UNL     1      -8.087  10.591 -16.783  1.00  0.00     0.166 C 
HETATM   15  O4  UNL     1      -9.210  10.252 -16.032  1.00  0.00    -0.365 OA
HETATM   16  C13 UNL     1      -8.832  10.095 -14.721  1.00  0.00     0.209 C 
HETATM   17  C14 UNL     1      -7.384   9.732 -14.694  1.00  0.00     0.214 C 
HETATM   18  C15 UNL     1      -7.028   9.766 -16.143  1.00  0.00     0.196 C 
HETATM   19  O6  UNL     1      -6.086   9.244 -16.707  1.00  0.00    -0.292 OA
BRANCH  14  20
HETATM   20  C12 UNL     1      -7.811  12.074 -16.629  1.00  0.00     0.212 C 
BRANCH  20  21
HETATM   21  O3  UNL     1      -6.479  12.349 -16.872  1.00  0.00    -0.397 OA
ATOM     22  H3  UNL     1      -5.984  12.350 -16.062  1.00  0.00     0.209 HD
ENDBRANCH  20  21
ENDBRANCH  14  20
BRANCH  17  23
HETATM   23  O5  UNL     1      -7.217   8.457 -14.156  1.00  0.00    -0.386 OA
ATOM     24  H5  UNL     1      -7.080   8.513 -13.217  1.00  0.00     0.210 HD
ENDBRANCH  17  23
ENDBRANCH  13  14
ENDBRANCH   1  13
TORSDOF 10
ENDMDL
