MODEL 1
REMARK VINA RESULT: -8.881875636      0.000      0.000
REMARK  5 active torsions:
REMARK  status: ('A' for Active; 'I' for Inactive)
REMARK    1  A    between atoms: C4_5  and  C5_6 
REMARK    2  A    between atoms: C5_6  and  C6_7 
REMARK    3  A    between atoms: C6_7  and  C7_8 
REMARK    4  A    between atoms: C6_7  and  C8_17 
REMARK    5  A    between atoms: C13_25  and  C14_26 
ROOT
HETATM    1  C6  UNL     1      14.150  21.423   3.956  1.00  0.00     0.065 C 
ENDROOT
BRANCH   1   2
HETATM    2  C5  UNL     1      13.632  20.416   2.995  1.00  0.00     0.052 C 
BRANCH   2   3
HETATM    3  C4  UNL     1      12.711  20.966   1.965  1.00  0.00    -0.043 A 
HETATM    4  C3  UNL     1      13.236  21.942   1.093  1.00  0.00     0.010 A 
HETATM    5  C2  UNL     1      12.493  22.564   0.128  1.00  0.00     0.026 A 
HETATM    6  C1  UNL     1      11.174  22.203   0.022  1.00  0.00     0.056 A 
HETATM    7 CL1  UNL     1      10.162  22.976  -1.207  1.00  0.00    -0.083 Cl
HETATM    8  C18 UNL     1      10.642  21.235   0.880  1.00  0.00     0.069 A 
HETATM    9  C13 UNL     1      11.369  20.609   1.843  1.00  0.00     0.028 A 
HETATM   10 CL2  UNL     1       8.967  20.840   0.596  1.00  0.00    -0.082 Cl
BRANCH   9  11
HETATM   11  C14 UNL     1      10.829  19.529   2.687  1.00  0.00     0.087 A 
HETATM   12  C15 UNL     1      10.892  18.179   2.481  1.00  0.00     0.040 A 
HETATM   13  C16 UNL     1      10.233  17.518   3.545  1.00  0.00     0.027 A 
HETATM   14  C17 UNL     1       9.804  18.533   4.347  1.00  0.00     0.142 A 
HETATM   15  O1  UNL     1      10.166  19.650   3.817  1.00  0.00    -0.322 OA
ENDBRANCH   9  11
ENDBRANCH   2   3
ENDBRANCH   1   2
BRANCH   1  16
HETATM   16  C7  UNL     1      12.998  21.910   4.809  1.00  0.00     0.117 A 
HETATM   17  N1  UNL     1      12.754  23.172   5.204  1.00  0.00    -0.272 N 
HETATM   18  N2  UNL     1      11.634  23.156   5.943  1.00  0.00    -0.227 N 
ATOM     19  H1  UNL     1      13.317  23.993   4.982  1.00  0.00     0.190 HD
HETATM   20  N3  UNL     1      11.172  21.931   6.022  1.00  0.00    -0.227 N 
ATOM     21  H2  UNL     1      11.206  23.973   6.378  1.00  0.00     0.210 HD
HETATM   22  N4  UNL     1      11.998  21.178   5.335  1.00  0.00    -0.272 N 
ATOM     23  H3  UNL     1      10.337  21.625   6.520  1.00  0.00     0.210 HD
ATOM     24  H4  UNL     1      11.895  20.170   5.215  1.00  0.00     0.190 HD
ENDBRANCH   1  16
BRANCH   1  25
HETATM   25  C8  UNL     1      15.258  20.966   4.850  1.00  0.00     0.000 C 
HETATM   26  C9  UNL     1      14.964  19.498   5.216  1.00  0.00     0.033 C 
HETATM   27  C10 UNL     1      16.247  18.840   5.697  1.00  0.00     0.232 C 
HETATM   28  N5  UNL     1      17.100  19.761   6.376  1.00  0.00    -0.075 N 
HETATM   29  C11 UNL     1      17.588  20.748   5.465  1.00  0.00     0.232 C 
ATOM     30  H52 UNL     1      16.639  20.182   7.183  1.00  0.00     0.277 HD
ATOM     31  H51 UNL     1      17.858  19.288   6.866  1.00  0.00     0.277 HD
HETATM   32  C12 UNL     1      16.626  20.951   4.283  1.00  0.00     0.033 C 
ENDBRANCH   1  25
TORSDOF 5
ENDMDL
MODEL 2
REMARK VINA RESULT: -8.687243535      3.384      5.695
REMARK  5 active torsions:
REMARK  status: ('A' for Active; 'I' for Inactive)
REMARK    1  A    between atoms: C4_5  and  C5_6 
REMARK    2  A    between atoms: C5_6  and  C6_7 
REMARK    3  A    between atoms: C6_7  and  C7_8 
REMARK    4  A    between atoms: C6_7  and  C8_17 
REMARK    5  A    between atoms: C13_25  and  C14_26 
ROOT
HETATM    1  C6  UNL     1      11.871  20.070   3.496  1.00  0.00     0.065 C 
ENDROOT
BRANCH   1   2
HETATM    2  C5  UNL     1      13.297  19.860   3.853  1.00  0.00     0.052 C 
BRANCH   2   3
HETATM    3  C4  UNL     1      14.246  20.769   3.159  1.00  0.00    -0.043 A 
HETATM    4  C3  UNL     1      13.749  21.488   2.052  1.00  0.00     0.010 A 
HETATM    5  C2  UNL     1      14.518  22.327   1.293  1.00  0.00     0.026 A 
HETATM    6  C1  UNL     1      15.837  22.459   1.648  1.00  0.00     0.056 A 
HETATM    7 CL1  UNL     1      16.883  23.529   0.703  1.00  0.00    -0.083 Cl
HETATM    8  C18 UNL     1      16.342  21.754   2.744  1.00  0.00     0.069 A 
HETATM    9  C13 UNL     1      15.588  20.917   3.507  1.00  0.00     0.028 A 
HETATM   10 CL2  UNL     1      18.020  22.059   3.108  1.00  0.00    -0.082 Cl
BRANCH   9  11
HETATM   11  C14 UNL     1      16.100  20.242   4.711  1.00  0.00     0.087 A 
HETATM   12  C15 UNL     1      16.656  20.804   5.826  1.00  0.00     0.040 A 
HETATM   13  C16 UNL     1      17.013  19.776   6.732  1.00  0.00     0.027 A 
HETATM   14  C17 UNL     1      16.641  18.631   6.093  1.00  0.00     0.142 A 
HETATM   15  O1  UNL     1      16.131  18.949   4.954  1.00  0.00    -0.322 OA
ENDBRANCH   9  11
ENDBRANCH   2   3
ENDBRANCH   1   2
BRANCH   1  16
HETATM   16  C7  UNL     1      11.123  18.773   3.723  1.00  0.00     0.117 A 
HETATM   17  N1  UNL     1      10.894  17.798   2.825  1.00  0.00    -0.272 N 
HETATM   18  N2  UNL     1      10.196  16.834   3.444  1.00  0.00    -0.227 N 
ATOM     19  H1  UNL     1      11.196  17.792   1.850  1.00  0.00     0.190 HD
HETATM   20  N3  UNL     1       9.983  17.172   4.692  1.00  0.00    -0.227 N 
ATOM     21  H2  UNL     1       9.879  15.968   3.009  1.00  0.00     0.210 HD
HETATM   22  N4  UNL     1      10.545  18.346   4.861  1.00  0.00    -0.272 N 
ATOM     23  H3  UNL     1       9.480  16.630   5.395  1.00  0.00     0.210 HD
ATOM     24  H4  UNL     1      10.544  18.865   5.738  1.00  0.00     0.190 HD
ENDBRANCH   1  16
BRANCH   1  25
HETATM   25  C8  UNL     1      11.168  21.171   4.224  1.00  0.00     0.000 C 
HETATM   26  C9  UNL     1      12.186  21.780   5.208  1.00  0.00     0.033 C 
HETATM   27  C10 UNL     1      11.717  23.168   5.613  1.00  0.00     0.232 C 
HETATM   28  N5  UNL     1      10.293  23.261   5.650  1.00  0.00    -0.075 N 
HETATM   29  C11 UNL     1       9.752  23.130   4.334  1.00  0.00     0.232 C 
ATOM     30  H52 UNL     1       9.884  22.588   6.299  1.00  0.00     0.277 HD
ATOM     31  H51 UNL     1       9.980  24.119   6.106  1.00  0.00     0.277 HD
HETATM   32  C12 UNL     1      10.683  22.316   3.420  1.00  0.00     0.033 C 
ENDBRANCH   1  25
TORSDOF 5
ENDMDL
MODEL 3
REMARK VINA RESULT: -8.404210015      0.944      1.427
REMARK  5 active torsions:
REMARK  status: ('A' for Active; 'I' for Inactive)
REMARK    1  A    between atoms: C4_5  and  C5_6 
REMARK    2  A    between atoms: C5_6  and  C6_7 
REMARK    3  A    between atoms: C6_7  and  C7_8 
REMARK    4  A    between atoms: C6_7  and  C8_17 
REMARK    5  A    between atoms: C13_25  and  C14_26 
ROOT
HETATM    1  C6  UNL     1      13.946  21.479   3.326  1.00  0.00     0.065 C 
ENDROOT
BRANCH   1   2
HETATM    2  C5  UNL     1      13.325  20.454   2.448  1.00  0.00     0.052 C 
BRANCH   2   3
HETATM    3  C4  UNL     1      12.190  20.953   1.629  1.00  0.00    -0.043 A 
HETATM    4  C3  UNL     1      12.483  21.937   0.661  1.00  0.00     0.010 A 
HETATM    5  C2  UNL     1      11.532  22.517  -0.133  1.00  0.00     0.026 A 
HETATM    6  C1  UNL     1      10.235  22.104   0.039  1.00  0.00     0.056 A 
HETATM    7 CL1  UNL     1       8.961  22.819  -0.959  1.00  0.00    -0.083 Cl
HETATM    8  C18 UNL     1       9.931  21.127   0.993  1.00  0.00     0.069 A 
HETATM    9  C13 UNL     1      10.867  20.543   1.789  1.00  0.00     0.028 A 
HETATM   10 CL2  UNL     1       8.252  20.664   1.065  1.00  0.00    -0.082 Cl
BRANCH   9  11
HETATM   11  C14 UNL     1      10.557  19.455   2.732  1.00  0.00     0.087 A 
HETATM   12  C15 UNL     1      10.708  18.109   2.553  1.00  0.00     0.040 A 
HETATM   13  C16 UNL     1      10.278  17.436   3.722  1.00  0.00     0.027 A 
HETATM   14  C17 UNL     1       9.885  18.442   4.554  1.00  0.00     0.142 A 
HETATM   15  O1  UNL     1      10.063  19.564   3.946  1.00  0.00    -0.322 OA
ENDBRANCH   9  11
ENDBRANCH   2   3
ENDBRANCH   1   2
BRANCH   1  16
HETATM   16  C7  UNL     1      12.959  21.840   4.415  1.00  0.00     0.117 A 
HETATM   17  N1  UNL     1      12.258  20.995   5.192  1.00  0.00    -0.272 N 
HETATM   18  N2  UNL     1      11.506  21.736   6.020  1.00  0.00    -0.227 N 
ATOM     19  H1  UNL     1      12.293  19.976   5.158  1.00  0.00     0.190 HD
HETATM   20  N3  UNL     1      11.712  23.009   5.788  1.00  0.00    -0.227 N 
ATOM     21  H2  UNL     1      10.868  21.364   6.724  1.00  0.00     0.210 HD
HETATM   22  N4  UNL     1      12.593  23.072   4.817  1.00  0.00    -0.272 N 
ATOM     23  H3  UNL     1      11.275  23.796   6.267  1.00  0.00     0.210 HD
ATOM     24  H4  UNL     1      12.952  23.940   4.419  1.00  0.00     0.190 HD
ENDBRANCH   1  16
BRANCH   1  25
HETATM   25  C8  UNL     1      15.249  21.100   3.956  1.00  0.00     0.000 C 
HETATM   26  C9  UNL     1      16.363  21.555   2.993  1.00  0.00     0.033 C 
HETATM   27  C10 UNL     1      17.673  21.649   3.757  1.00  0.00     0.232 C 
HETATM   28  N5  UNL     1      17.754  20.678   4.801  1.00  0.00    -0.075 N 
HETATM   29  C11 UNL     1      16.789  20.960   5.817  1.00  0.00     0.232 C 
ATOM     30  H52 UNL     1      17.665  19.727   4.444  1.00  0.00     0.277 HD
ATOM     31  H51 UNL     1      18.697  20.608   5.182  1.00  0.00     0.277 HD
HETATM   32  C12 UNL     1      15.585  21.731   5.252  1.00  0.00     0.033 C 
ENDBRANCH   1  25
TORSDOF 5
ENDMDL
MODEL 4
REMARK VINA RESULT: -8.272047589      4.337      6.414
REMARK  5 active torsions:
REMARK  status: ('A' for Active; 'I' for Inactive)
REMARK    1  A    between atoms: C4_5  and  C5_6 
REMARK    2  A    between atoms: C5_6  and  C6_7 
REMARK    3  A    between atoms: C6_7  and  C7_8 
REMARK    4  A    between atoms: C6_7  and  C8_17 
REMARK    5  A    between atoms: C13_25  and  C14_26 
ROOT
HETATM    1  C6  UNL     1      10.658  23.007   0.326  1.00  0.00     0.065 C 
ENDROOT
BRANCH   1   2
HETATM    2  C5  UNL     1      11.618  21.947  -0.073  1.00  0.00     0.052 C 
BRANCH   2   3
HETATM    3  C4  UNL     1      12.889  21.946   0.697  1.00  0.00    -0.043 A 
HETATM    4  C3  UNL     1      13.928  22.770   0.217  1.00  0.00     0.010 A 
HETATM    5  C2  UNL     1      15.164  22.836   0.799  1.00  0.00     0.026 A 
HETATM    6  C1  UNL     1      15.379  22.054   1.905  1.00  0.00     0.056 A 
HETATM    7 CL1  UNL     1      16.959  22.096   2.700  1.00  0.00    -0.083 Cl
HETATM    8  C18 UNL     1      14.356  21.234   2.393  1.00  0.00     0.069 A 
HETATM    9  C13 UNL     1      13.123  21.159   1.823  1.00  0.00     0.028 A 
HETATM   10 CL2  UNL     1      14.755  20.336   3.833  1.00  0.00    -0.082 Cl
BRANCH   9  11
HETATM   11  C14 UNL     1      12.022  20.361   2.389  1.00  0.00     0.087 A 
HETATM   12  C15 UNL     1      11.565  19.138   1.983  1.00  0.00     0.040 A 
HETATM   13  C16 UNL     1      10.485  18.750   2.811  1.00  0.00     0.027 A 
HETATM   14  C17 UNL     1      10.353  19.787   3.686  1.00  0.00     0.142 A 
HETATM   15  O1  UNL     1      11.245  20.672   3.404  1.00  0.00    -0.322 OA
ENDBRANCH   9  11
ENDBRANCH   2   3
ENDBRANCH   1   2
BRANCH   1  16
HETATM   16  C7  UNL     1      10.684  24.098  -0.724  1.00  0.00     0.117 A 
HETATM   17  N1  UNL     1      10.544  23.951  -2.054  1.00  0.00    -0.272 N 
HETATM   18  N2  UNL     1      10.631  25.171  -2.607  1.00  0.00    -0.227 N 
ATOM     19  H1  UNL     1      10.397  23.073  -2.552  1.00  0.00     0.190 HD
HETATM   20  N3  UNL     1      10.819  26.070  -1.672  1.00  0.00    -0.227 N 
ATOM     21  H2  UNL     1      10.561  25.368  -3.605  1.00  0.00     0.210 HD
HETATM   22  N4  UNL     1      10.850  25.420  -0.533  1.00  0.00    -0.272 N 
ATOM     23  H3  UNL     1      10.921  27.076  -1.804  1.00  0.00     0.210 HD
ATOM     24  H4  UNL     1      10.983  25.859   0.378  1.00  0.00     0.190 HD
ENDBRANCH   1  16
BRANCH   1  25
HETATM   25  C8  UNL     1       9.244  22.567   0.535  1.00  0.00     0.000 C 
HETATM   26  C9  UNL     1       9.160  21.096   0.084  1.00  0.00     0.033 C 
HETATM   27  C10 UNL     1       7.929  20.456   0.704  1.00  0.00     0.232 C 
HETATM   28  N5  UNL     1       6.861  21.390   0.860  1.00  0.00    -0.075 N 
HETATM   29  C11 UNL     1       7.208  22.383   1.829  1.00  0.00     0.232 C 
ATOM     30  H52 UNL     1       6.586  21.806  -0.030  1.00  0.00     0.277 HD
ATOM     31  H51 UNL     1       5.981  20.928   1.088  1.00  0.00     0.277 HD
HETATM   32  C12 UNL     1       8.731  22.570   1.924  1.00  0.00     0.033 C 
ENDBRANCH   1  25
TORSDOF 5
ENDMDL
MODEL 5
REMARK VINA RESULT: -8.244665682      3.838      5.559
REMARK  5 active torsions:
REMARK  status: ('A' for Active; 'I' for Inactive)
REMARK    1  A    between atoms: C4_5  and  C5_6 
REMARK    2  A    between atoms: C5_6  and  C6_7 
REMARK    3  A    between atoms: C6_7  and  C7_8 
REMARK    4  A    between atoms: C6_7  and  C8_17 
REMARK    5  A    between atoms: C13_25  and  C14_26 
ROOT
HETATM    1  C6  UNL     1      12.053  21.912   2.006  1.00  0.00     0.065 C 
ENDROOT
BRANCH   1   2
HETATM    2  C5  UNL     1      13.242  21.031   1.874  1.00  0.00     0.052 C 
BRANCH   2   3
HETATM    3  C4  UNL     1      14.529  21.756   1.713  1.00  0.00    -0.043 A 
HETATM    4  C3  UNL     1      14.647  22.611   0.597  1.00  0.00     0.010 A 
HETATM    5  C2  UNL     1      15.786  23.306   0.300  1.00  0.00     0.026 A 
HETATM    6  C1  UNL     1      16.855  23.148   1.145  1.00  0.00     0.056 A 
HETATM    7 CL1  UNL     1      18.357  24.021   0.811  1.00  0.00    -0.083 Cl
HETATM    8  C18 UNL     1      16.751  22.305   2.256  1.00  0.00     0.069 A 
HETATM    9  C13 UNL     1      15.624  21.608   2.563  1.00  0.00     0.028 A 
HETATM   10 CL2  UNL     1      18.169  22.243   3.269  1.00  0.00    -0.082 Cl
BRANCH   9  11
HETATM   11  C14 UNL     1      15.489  20.789   3.780  1.00  0.00     0.087 A 
HETATM   12  C15 UNL     1      15.171  21.197   5.045  1.00  0.00     0.040 A 
HETATM   13  C16 UNL     1      15.159  20.071   5.903  1.00  0.00     0.027 A 
HETATM   14  C17 UNL     1      15.478  19.030   5.084  1.00  0.00     0.142 A 
HETATM   15  O1  UNL     1      15.655  19.489   3.894  1.00  0.00    -0.322 OA
ENDBRANCH   9  11
ENDBRANCH   2   3
ENDBRANCH   1   2
BRANCH   1  16
HETATM   16  C7  UNL     1      11.007  21.459   1.009  1.00  0.00     0.117 A 
HETATM   17  N1  UNL     1       9.929  20.692   1.252  1.00  0.00    -0.272 N 
HETATM   18  N2  UNL     1       9.275  20.535   0.091  1.00  0.00    -0.227 N 
ATOM     19  H1  UNL     1       9.658  20.301   2.154  1.00  0.00     0.190 HD
HETATM   20  N3  UNL     1       9.904  21.175  -0.864  1.00  0.00    -0.227 N 
ATOM     21  H2  UNL     1       8.416  19.997  -0.031  1.00  0.00     0.210 HD
HETATM   22  N4  UNL     1      10.952  21.735  -0.308  1.00  0.00    -0.272 N 
ATOM     23  H3  UNL     1       9.634  21.227  -1.846  1.00  0.00     0.210 HD
ATOM     24  H4  UNL     1      11.636  22.304  -0.807  1.00  0.00     0.190 HD
ENDBRANCH   1  16
BRANCH   1  25
HETATM   25  C8  UNL     1      11.432  21.977   3.365  1.00  0.00     0.000 C 
HETATM   26  C9  UNL     1      11.624  20.593   4.013  1.00  0.00     0.033 C 
HETATM   27  C10 UNL     1      11.468  20.723   5.520  1.00  0.00     0.232 C 
HETATM   28  N5  UNL     1      10.530  21.739   5.875  1.00  0.00    -0.075 N 
HETATM   29  C11 UNL     1      11.030  23.027   5.508  1.00  0.00     0.232 C 
ATOM     30  H52 UNL     1       9.608  21.560   5.476  1.00  0.00     0.277 HD
ATOM     31  H51 UNL     1      10.278  21.696   6.862  1.00  0.00     0.277 HD
HETATM   32  C12 UNL     1      12.016  22.935   4.332  1.00  0.00     0.033 C 
ENDBRANCH   1  25
TORSDOF 5
ENDMDL
