MODEL 1
REMARK VINA RESULT: -7.536498453      0.000      0.000
REMARK  3 active torsions:
REMARK  status: ('A' for Active; 'I' for Inactive)
REMARK       I    between atoms: C1_2  and  N3_17 
REMARK       I    between atoms: N2_3  and  C2_5 
REMARK    1  A    between atoms: C2_5  and  C3_7 
REMARK    2  A    between atoms: C5_9  and  C6_10 
REMARK    3  A    between atoms: N3_17  and  C12_19 
ROOT
HETATM    1  N1  UNL     1     124.058 108.659 -44.120  1.00  0.00    -0.063 NA
HETATM    2  C1  UNL     1     123.326 107.466 -44.319  1.00  0.00     0.191 C 
HETATM    3  N2  UNL     1     123.885 106.498 -44.899  1.00  0.00    -0.301 N 
ATOM      4  H2  UNL     1     124.851 106.638 -45.196  1.00  0.00     0.171 HD
HETATM    5  C2  UNL     1     123.307 105.237 -45.180  1.00  0.00     0.228 C 
HETATM    6  O1  UNL     1     122.161 105.087 -45.654  1.00  0.00    -0.273 OA
HETATM    7  N3  UNL     1     121.991 107.386 -43.866  1.00  0.00    -0.360 N 
ATOM      8  H3  UNL     1     121.554 106.476 -43.721  1.00  0.00     0.162 HD
ENDROOT
BRANCH   5   9
HETATM    9  C3  UNL     1     124.119 104.030 -44.890  1.00  0.00     0.087 A 
HETATM   10  C4  UNL     1     123.379 102.672 -44.964  1.00  0.00     0.025 A 
HETATM   11  C5  UNL     1     123.832 103.296 -43.639  1.00  0.00     0.032 A 
BRANCH  11  12
HETATM   12  C6  UNL     1     124.869 102.490 -42.963  1.00  0.00    -0.053 A 
HETATM   13  C7  UNL     1     125.323 102.792 -41.700  1.00  0.00     0.010 A 
HETATM   14  C8  UNL     1     126.300 102.020 -41.085  1.00  0.00     0.043 A 
HETATM   15  C9  UNL     1     126.829 100.926 -41.750  1.00  0.00     0.116 A 
HETATM   16  F1  UNL     1     127.788 100.183 -41.123  1.00  0.00    -0.206 F 
HETATM   17  C10 UNL     1     126.386 100.606 -43.015  1.00  0.00     0.043 A 
HETATM   18  C11 UNL     1     125.407 101.400 -43.603  1.00  0.00     0.010 A 
ENDBRANCH  11  12
ENDBRANCH   5   9
BRANCH   7  19
HETATM   19  C12 UNL     1     121.236 108.607 -43.604  1.00  0.00     0.084 C 
HETATM   20  C13 UNL     1     119.939 108.705 -44.322  1.00  0.00     0.025 C 
HETATM   21  C14 UNL     1     119.216 108.275 -43.048  1.00  0.00     0.004 C 
HETATM   22  C15 UNL     1     120.503 108.525 -42.298  1.00  0.00     0.025 C 
ENDBRANCH   7  19
TORSDOF 3
ENDMDL
MODEL 2
REMARK VINA RESULT: -7.507500266      0.047      1.064
REMARK  3 active torsions:
REMARK  status: ('A' for Active; 'I' for Inactive)
REMARK       I    between atoms: C1_2  and  N3_17 
REMARK       I    between atoms: N2_3  and  C2_5 
REMARK    1  A    between atoms: C2_5  and  C3_7 
REMARK    2  A    between atoms: C5_9  and  C6_10 
REMARK    3  A    between atoms: N3_17  and  C12_19 
ROOT
HETATM    1  N1  UNL     1     124.092 108.612 -44.103  1.00  0.00    -0.063 NA
HETATM    2  C1  UNL     1     123.342 107.432 -44.317  1.00  0.00     0.191 C 
HETATM    3  N2  UNL     1     123.888 106.462 -44.904  1.00  0.00    -0.301 N 
ATOM      4  H2  UNL     1     124.858 106.589 -45.196  1.00  0.00     0.171 HD
HETATM    5  C2  UNL     1     123.292 105.213 -45.200  1.00  0.00     0.228 C 
HETATM    6  O1  UNL     1     122.145 105.086 -45.680  1.00  0.00    -0.273 OA
HETATM    7  N3  UNL     1     122.004 107.369 -43.870  1.00  0.00    -0.360 N 
ATOM      8  H3  UNL     1     121.553 106.464 -43.735  1.00  0.00     0.162 HD
ENDROOT
BRANCH   5   9
HETATM    9  C3  UNL     1     124.084 103.991 -44.920  1.00  0.00     0.087 A 
HETATM   10  C4  UNL     1     123.307 102.652 -44.932  1.00  0.00     0.025 A 
HETATM   11  C5  UNL     1     123.832 103.290 -43.642  1.00  0.00     0.032 A 
BRANCH  11  12
HETATM   12  C6  UNL     1     124.876 102.470 -42.994  1.00  0.00    -0.053 A 
HETATM   13  C7  UNL     1     125.432 101.372 -43.609  1.00  0.00     0.010 A 
HETATM   14  C8  UNL     1     126.413 100.617 -42.979  1.00  0.00     0.043 A 
HETATM   15  C9  UNL     1     126.841 100.970 -41.710  1.00  0.00     0.116 A 
HETATM   16  F1  UNL     1     127.807 100.211 -41.114  1.00  0.00    -0.206 F 
HETATM   17  C10 UNL     1     126.296 102.066 -41.078  1.00  0.00     0.043 A 
HETATM   18  C11 UNL     1     125.317 102.802 -41.736  1.00  0.00     0.010 A 
ENDBRANCH  11  12
ENDBRANCH   5   9
BRANCH   7  19
HETATM   19  C12 UNL     1     121.267 108.598 -43.598  1.00  0.00     0.084 C 
HETATM   20  C13 UNL     1     119.993 108.741 -44.349  1.00  0.00     0.025 C 
HETATM   21  C14 UNL     1     119.226 108.295 -43.106  1.00  0.00     0.004 C 
HETATM   22  C15 UNL     1     120.498 108.501 -42.316  1.00  0.00     0.025 C 
ENDBRANCH   7  19
TORSDOF 3
ENDMDL
MODEL 3
REMARK VINA RESULT: -6.956788112      1.795      2.405
REMARK  3 active torsions:
REMARK  status: ('A' for Active; 'I' for Inactive)
REMARK       I    between atoms: C1_2  and  N3_17 
REMARK       I    between atoms: N2_3  and  C2_5 
REMARK    1  A    between atoms: C2_5  and  C3_7 
REMARK    2  A    between atoms: C5_9  and  C6_10 
REMARK    3  A    between atoms: N3_17  and  C12_19 
ROOT
HETATM    1  N1  UNL     1     125.415 109.403 -44.998  1.00  0.00    -0.063 NA
HETATM    2  C1  UNL     1     124.544 108.435 -44.446  1.00  0.00     0.191 C 
HETATM    3  N2  UNL     1     124.453 107.311 -45.005  1.00  0.00    -0.301 N 
ATOM      4  H2  UNL     1     125.024 107.164 -45.837  1.00  0.00     0.171 HD
HETATM    5  C2  UNL     1     123.637 106.230 -44.592  1.00  0.00     0.228 C 
HETATM    6  O1  UNL     1     122.442 106.352 -44.247  1.00  0.00    -0.273 OA
HETATM    7  N3  UNL     1     123.800 108.750 -43.288  1.00  0.00    -0.360 N 
ATOM      8  H3  UNL     1     123.415 108.003 -42.710  1.00  0.00     0.162 HD
ENDROOT
BRANCH   5   9
HETATM    9  C3  UNL     1     124.247 104.878 -44.573  1.00  0.00     0.087 A 
HETATM   10  C4  UNL     1     123.325 103.704 -44.986  1.00  0.00     0.025 A 
HETATM   11  C5  UNL     1     123.778 103.930 -43.539  1.00  0.00     0.032 A 
BRANCH  11  12
HETATM   12  C6  UNL     1     124.644 102.840 -43.044  1.00  0.00    -0.053 A 
HETATM   13  C7  UNL     1     124.951 101.742 -43.815  1.00  0.00     0.010 A 
HETATM   14  C8  UNL     1     125.768 100.730 -43.327  1.00  0.00     0.043 A 
HETATM   15  C9  UNL     1     126.283 100.822 -42.045  1.00  0.00     0.116 A 
HETATM   16  F1  UNL     1     127.084  99.814 -41.590  1.00  0.00    -0.206 F 
HETATM   17  C10 UNL     1     125.988 101.915 -41.259  1.00  0.00     0.043 A 
HETATM   18  C11 UNL     1     125.168 102.911 -41.776  1.00  0.00     0.010 A 
ENDBRANCH  11  12
ENDBRANCH   5   9
BRANCH   7  19
HETATM   19  C12 UNL     1     123.582 110.144 -42.917  1.00  0.00     0.084 C 
HETATM   20  C13 UNL     1     122.454 110.372 -41.978  1.00  0.00     0.025 C 
HETATM   21  C14 UNL     1     123.451 110.475 -40.826  1.00  0.00     0.004 C 
HETATM   22  C15 UNL     1     124.549 110.584 -41.859  1.00  0.00     0.025 C 
ENDBRANCH   7  19
TORSDOF 3
ENDMDL
MODEL 4
REMARK VINA RESULT: -6.897942155      4.041      5.471
REMARK  3 active torsions:
REMARK  status: ('A' for Active; 'I' for Inactive)
REMARK       I    between atoms: C1_2  and  N3_17 
REMARK       I    between atoms: N2_3  and  C2_5 
REMARK    1  A    between atoms: C2_5  and  C3_7 
REMARK    2  A    between atoms: C5_9  and  C6_10 
REMARK    3  A    between atoms: N3_17  and  C12_19 
ROOT
HETATM    1  N1  UNL     1     123.820 104.195 -41.031  1.00  0.00    -0.063 NA
HETATM    2  C1  UNL     1     123.813 104.325 -42.439  1.00  0.00     0.191 C 
HETATM    3  N2  UNL     1     124.082 103.317 -43.144  1.00  0.00    -0.301 N 
ATOM      4  H2  UNL     1     124.293 102.452 -42.646  1.00  0.00     0.171 HD
HETATM    5  C2  UNL     1     124.121 103.265 -44.558  1.00  0.00     0.228 C 
HETATM    6  O1  UNL     1     124.672 104.130 -45.271  1.00  0.00    -0.273 OA
HETATM    7  N3  UNL     1     123.506 105.575 -43.020  1.00  0.00    -0.360 N 
ATOM      8  H3  UNL     1     123.200 105.625 -43.992  1.00  0.00     0.162 HD
ENDROOT
BRANCH   5   9
HETATM    9  C3  UNL     1     123.466 102.110 -45.220  1.00  0.00     0.087 A 
HETATM   10  C4  UNL     1     124.112 100.724 -44.977  1.00  0.00     0.025 A 
HETATM   11  C5  UNL     1     124.197 101.450 -46.324  1.00  0.00     0.032 A 
BRANCH  11  12
HETATM   12  C6  UNL     1     123.482 100.729 -47.397  1.00  0.00    -0.053 A 
HETATM   13  C7  UNL     1     122.506 101.330 -48.158  1.00  0.00     0.010 A 
HETATM   14  C8  UNL     1     121.848 100.631 -49.162  1.00  0.00     0.043 A 
HETATM   15  C9  UNL     1     122.175  99.307 -49.405  1.00  0.00     0.116 A 
HETATM   16  F1  UNL     1     121.514  98.643 -50.398  1.00  0.00    -0.206 F 
HETATM   17  C10 UNL     1     123.151  98.688 -48.653  1.00  0.00     0.043 A 
HETATM   18  C11 UNL     1     123.791  99.416 -47.655  1.00  0.00     0.010 A 
ENDBRANCH  11  12
ENDBRANCH   5   9
BRANCH   7  19
HETATM   19  C12 UNL     1     123.625 106.796 -42.230  1.00  0.00     0.084 C 
HETATM   20  C13 UNL     1     124.680 107.735 -42.688  1.00  0.00     0.025 C 
HETATM   21  C14 UNL     1     123.611 108.578 -43.380  1.00  0.00     0.004 C 
HETATM   22  C15 UNL     1     122.574 107.795 -42.609  1.00  0.00     0.025 C 
ENDBRANCH   7  19
TORSDOF 3
ENDMDL
MODEL 5
REMARK VINA RESULT: -6.885341029      4.438      6.988
REMARK  3 active torsions:
REMARK  status: ('A' for Active; 'I' for Inactive)
REMARK       I    between atoms: C1_2  and  N3_17 
REMARK       I    between atoms: N2_3  and  C2_5 
REMARK    1  A    between atoms: C2_5  and  C3_7 
REMARK    2  A    between atoms: C5_9  and  C6_10 
REMARK    3  A    between atoms: N3_17  and  C12_19 
ROOT
HETATM    1  N1  UNL     1     124.699  98.972 -47.163  1.00  0.00    -0.063 NA
HETATM    2  C1  UNL     1     124.112 100.254 -47.053  1.00  0.00     0.191 C 
HETATM    3  N2  UNL     1     124.012 100.781 -45.915  1.00  0.00    -0.301 N 
ATOM      4  H2  UNL     1     124.367 100.240 -45.126  1.00  0.00     0.171 HD
HETATM    5  C2  UNL     1     123.457 102.050 -45.620  1.00  0.00     0.228 C 
HETATM    6  O1  UNL     1     122.383 102.468 -46.102  1.00  0.00    -0.273 OA
HETATM    7  N3  UNL     1     123.655 100.911 -48.217  1.00  0.00    -0.360 N 
ATOM      8  H3  UNL     1     123.518 101.922 -48.211  1.00  0.00     0.162 HD
ENDROOT
BRANCH   5   9
HETATM    9  C3  UNL     1     124.203 102.924 -44.682  1.00  0.00     0.087 A 
HETATM   10  C4  UNL     1     124.550 102.312 -43.303  1.00  0.00     0.025 A 
HETATM   11  C5  UNL     1     123.489 103.403 -43.479  1.00  0.00     0.032 A 
BRANCH  11  12
HETATM   12  C6  UNL     1     123.866 104.666 -42.812  1.00  0.00    -0.053 A 
HETATM   13  C7  UNL     1     123.865 105.872 -43.474  1.00  0.00     0.010 A 
HETATM   14  C8  UNL     1     124.224 107.047 -42.826  1.00  0.00     0.043 A 
HETATM   15  C9  UNL     1     124.589 107.010 -41.491  1.00  0.00     0.116 A 
HETATM   16  F1  UNL     1     124.936 108.179 -40.877  1.00  0.00    -0.206 F 
HETATM   17  C10 UNL     1     124.596 105.812 -40.810  1.00  0.00     0.043 A 
HETATM   18  C11 UNL     1     124.231 104.653 -41.488  1.00  0.00     0.010 A 
ENDBRANCH  11  12
ENDBRANCH   5   9
BRANCH   7  19
HETATM   19  C12 UNL     1     123.380 100.144 -49.427  1.00  0.00     0.084 C 
HETATM   20  C13 UNL     1     122.052  99.480 -49.457  1.00  0.00     0.025 C 
HETATM   21  C14 UNL     1     121.523 100.606 -50.343  1.00  0.00     0.004 C 
HETATM   22  C15 UNL     1     122.956 101.038 -50.553  1.00  0.00     0.025 C 
ENDBRANCH   7  19
TORSDOF 3
ENDMDL
