MODEL 1
REMARK VINA RESULT: -5.903381168      0.000      0.000
REMARK  1 active torsions:
REMARK  status: ('A' for Active; 'I' for Inactive)
REMARK    1  A    between atoms: C2_5  and  O1_6 
ROOT
HETATM    1  N1  UNL     1      91.151  94.539 -40.755  1.00  0.00    -0.402 N 
ATOM      2  H11 UNL     1      90.367  95.161 -40.951  1.00  0.00     0.155 HD
ATOM      3  H12 UNL     1      91.722  94.627 -39.915  1.00  0.00     0.155 HD
HETATM    4  C1  UNL     1      91.444  93.612 -41.577  1.00  0.00     0.032 C 
HETATM    5  C2  UNL     1      92.580  92.710 -41.294  1.00  0.00     0.183 C 
HETATM    6  C3  UNL     1      93.178  92.300 -42.616  1.00  0.00     0.119 C 
HETATM    7 CL1  UNL     1      94.481  91.121 -42.287  1.00  0.00    -0.122 Cl
HETATM    8  C4  UNL     1      92.217  91.700 -43.565  1.00  0.00     0.067 C 
HETATM    9  C5  UNL     1      90.840  92.208 -43.545  1.00  0.00     0.136 C 
HETATM   10 CL2  UNL     1      90.295  92.484 -45.221  1.00  0.00    -0.100 Cl
HETATM   11 CL3  UNL     1      89.714  90.985 -42.857  1.00  0.00    -0.100 Cl
HETATM   12  C6  UNL     1      90.617  93.483 -42.793  1.00  0.00     0.168 C 
HETATM   13 CL4  UNL     1      88.906  93.497 -42.267  1.00  0.00    -0.115 Cl
ENDROOT
BRANCH   5  14
HETATM   14  O1  UNL     1      93.585  93.311 -40.551  1.00  0.00    -0.388 OA
ATOM     15  H1  UNL     1      94.088  92.696 -40.031  1.00  0.00     0.210 HD
ENDBRANCH   5  14
TORSDOF 1
ENDMDL
MODEL 2
REMARK VINA RESULT: -5.608653755      3.098      3.994
REMARK  1 active torsions:
REMARK  status: ('A' for Active; 'I' for Inactive)
REMARK    1  A    between atoms: C2_5  and  O1_6 
ROOT
HETATM    1  N1  UNL     1      89.276  91.802 -43.704  1.00  0.00    -0.402 N 
ATOM      2  H11 UNL     1      89.216  92.816 -43.794  1.00  0.00     0.155 HD
ATOM      3  H12 UNL     1      88.561  91.177 -44.078  1.00  0.00     0.155 HD
HETATM    4  C1  UNL     1      90.270  91.277 -43.108  1.00  0.00     0.032 C 
HETATM    5  C2  UNL     1      90.356  89.807 -42.977  1.00  0.00     0.183 C 
HETATM    6  C3  UNL     1      91.072  89.505 -41.685  1.00  0.00     0.119 C 
HETATM    7 CL1  UNL     1      91.282  87.734 -41.574  1.00  0.00    -0.122 Cl
HETATM    8  C4  UNL     1      92.394  90.153 -41.548  1.00  0.00     0.067 C 
HETATM    9  C5  UNL     1      92.560  91.483 -42.149  1.00  0.00     0.136 C 
HETATM   10 CL2  UNL     1      93.392  92.548 -40.986  1.00  0.00    -0.100 Cl
HETATM   11 CL3  UNL     1      93.628  91.404 -43.595  1.00  0.00    -0.100 Cl
HETATM   12  C6  UNL     1      91.304  92.180 -42.567  1.00  0.00     0.168 C 
HETATM   13 CL4  UNL     1      91.741  93.320 -43.877  1.00  0.00    -0.115 Cl
ENDROOT
BRANCH   5  14
HETATM   14  O1  UNL     1      89.117  89.188 -42.921  1.00  0.00    -0.388 OA
ATOM     15  H1  UNL     1      89.171  88.249 -42.784  1.00  0.00     0.210 HD
ENDBRANCH   5  14
TORSDOF 1
ENDMDL
MODEL 3
REMARK VINA RESULT: -5.485762436      1.557      3.400
REMARK  1 active torsions:
REMARK  status: ('A' for Active; 'I' for Inactive)
REMARK    1  A    between atoms: C2_5  and  O1_6 
ROOT
HETATM    1  N1  UNL     1      93.234  93.220 -40.864  1.00  0.00    -0.402 N 
ATOM      2  H11 UNL     1      93.873  92.425 -40.847  1.00  0.00     0.155 HD
ATOM      3  H12 UNL     1      93.443  94.100 -40.392  1.00  0.00     0.155 HD
HETATM    4  C1  UNL     1      92.130  93.130 -41.491  1.00  0.00     0.032 C 
HETATM    5  C2  UNL     1      91.203  94.281 -41.515  1.00  0.00     0.183 C 
HETATM    6  C3  UNL     1      89.798  93.736 -41.582  1.00  0.00     0.119 C 
HETATM    7 CL1  UNL     1      88.677  95.119 -41.726  1.00  0.00    -0.122 Cl
HETATM    8  C4  UNL     1      89.555  92.803 -42.703  1.00  0.00     0.067 C 
HETATM    9  C5  UNL     1      90.666  91.935 -43.115  1.00  0.00     0.136 C 
HETATM   10 CL2  UNL     1      90.057  90.274 -43.339  1.00  0.00    -0.100 Cl
HETATM   11 CL3  UNL     1      91.316  92.442 -44.715  1.00  0.00    -0.100 Cl
HETATM   12  C6  UNL     1      91.827  91.857 -42.173  1.00  0.00     0.168 C 
HETATM   13 CL4  UNL     1      93.269  91.427 -43.144  1.00  0.00    -0.115 Cl
ENDROOT
BRANCH   5  14
HETATM   14  O1  UNL     1      91.286  95.076 -40.382  1.00  0.00    -0.388 OA
ATOM     15  H1  UNL     1      91.017  95.975 -40.532  1.00  0.00     0.210 HD
ENDBRANCH   5  14
TORSDOF 1
ENDMDL
MODEL 4
REMARK VINA RESULT: -5.460729854      2.911      4.160
REMARK  1 active torsions:
REMARK  status: ('A' for Active; 'I' for Inactive)
REMARK    1  A    between atoms: C2_5  and  O1_6 
ROOT
HETATM    1  N1  UNL     1      89.818  89.862 -42.959  1.00  0.00    -0.402 N 
ATOM      2  H11 UNL     1      90.194  88.931 -42.780  1.00  0.00     0.155 HD
ATOM      3  H12 UNL     1      88.818  90.038 -43.056  1.00  0.00     0.155 HD
HETATM    4  C1  UNL     1      90.609  90.853 -43.069  1.00  0.00     0.032 C 
HETATM    5  C2  UNL     1      90.065  92.202 -43.330  1.00  0.00     0.183 C 
HETATM    6  C3  UNL     1      91.083  92.955 -44.149  1.00  0.00     0.119 C 
HETATM    7 CL1  UNL     1      90.484  94.624 -44.373  1.00  0.00    -0.122 Cl
HETATM    8  C4  UNL     1      92.435  93.007 -43.552  1.00  0.00     0.067 C 
HETATM    9  C5  UNL     1      92.879  91.840 -42.781  1.00  0.00     0.136 C 
HETATM   10 CL2  UNL     1      94.547  91.425 -43.256  1.00  0.00    -0.100 Cl
HETATM   11 CL3  UNL     1      92.949  92.221 -41.023  1.00  0.00    -0.100 Cl
HETATM   12  C6  UNL     1      92.056  90.598 -42.929  1.00  0.00     0.168 C 
HETATM   13 CL4  UNL     1      92.276  89.635 -41.435  1.00  0.00    -0.115 Cl
ENDROOT
BRANCH   5  14
HETATM   14  O1  UNL     1      88.881  92.186 -44.051  1.00  0.00    -0.388 OA
ATOM     15  H1  UNL     1      88.208  91.644 -43.656  1.00  0.00     0.210 HD
ENDBRANCH   5  14
TORSDOF 1
ENDMDL
MODEL 5
REMARK VINA RESULT: -5.027455706      2.554      3.111
REMARK  1 active torsions:
REMARK  status: ('A' for Active; 'I' for Inactive)
REMARK    1  A    between atoms: C2_5  and  O1_6 
ROOT
HETATM    1  N1  UNL     1      89.548  89.929 -42.864  1.00  0.00    -0.402 N 
ATOM      2  H11 UNL     1      88.609  90.299 -43.012  1.00  0.00     0.155 HD
ATOM      3  H12 UNL     1      89.756  88.932 -42.913  1.00  0.00     0.155 HD
HETATM    4  C1  UNL     1      90.508  90.724 -42.608  1.00  0.00     0.032 C 
HETATM    5  C2  UNL     1      91.869  90.188 -42.394  1.00  0.00     0.183 C 
HETATM    6  C3  UNL     1      92.567  91.093 -41.410  1.00  0.00     0.119 C 
HETATM    7 CL1  UNL     1      94.249  90.519 -41.232  1.00  0.00    -0.122 Cl
HETATM    8  C4  UNL     1      92.587  92.521 -41.796  1.00  0.00     0.067 C 
HETATM    9  C5  UNL     1      91.423  93.040 -42.525  1.00  0.00     0.136 C 
HETATM   10 CL2  UNL     1      90.941  94.604 -41.817  1.00  0.00    -0.100 Cl
HETATM   11 CL3  UNL     1      91.843  93.386 -44.241  1.00  0.00    -0.100 Cl
HETATM   12  C6  UNL     1      90.207  92.167 -42.537  1.00  0.00     0.168 C 
HETATM   13 CL4  UNL     1      89.272  92.580 -44.008  1.00  0.00    -0.115 Cl
ENDROOT
BRANCH   5  14
HETATM   14  O1  UNL     1      91.876  88.909 -41.859  1.00  0.00    -0.388 OA
ATOM     15  H1  UNL     1      92.678  88.700 -41.393  1.00  0.00     0.210 HD
ENDBRANCH   5  14
TORSDOF 1
ENDMDL
