MODEL 1
REMARK VINA RESULT: -5.677538026      0.000      0.000
REMARK  0 active torsions:
REMARK  status: ('A' for Active; 'I' for Inactive)
ROOT
HETATM    1  C1  UNL     1      93.089  92.366 -41.091  1.00  0.00     0.178 C 
HETATM    2  N1  UNL     1      92.096  93.349 -41.468  1.00  0.00    -0.293 N 
HETATM    3  N2  UNL     1      91.761  94.492 -40.724  1.00  0.00    -0.284 N 
ATOM      4  H2  UNL     1      92.181  94.764 -39.835  1.00  0.00     0.188 HD
HETATM    5  C2  UNL     1      90.741  95.210 -41.409  1.00  0.00     0.136 C 
HETATM    6  N3  UNL     1      90.302  96.387 -41.147  1.00  0.00    -0.385 N 
ATOM      7  H31 UNL     1      89.572  96.902 -41.638  1.00  0.00     0.157 HD
ATOM      8  H32 UNL     1      90.653  96.964 -40.381  1.00  0.00     0.157 HD
HETATM    9  C3  UNL     1      90.233  94.373 -42.521  1.00  0.00     0.217 C 
HETATM   10 CL1  UNL     1      88.674  93.622 -42.158  1.00  0.00    -0.086 Cl
HETATM   11 CL2  UNL     1      90.202  95.280 -44.055  1.00  0.00    -0.086 Cl
HETATM   12  C4  UNL     1      91.301  93.314 -42.637  1.00  0.00     0.107 C 
HETATM   13  C5  UNL     1      91.385  92.542 -43.705  1.00  0.00     0.131 C 
HETATM   14 CL3  UNL     1      92.660  91.344 -43.757  1.00  0.00    -0.069 Cl
HETATM   15 CL4  UNL     1      90.251  92.715 -45.020  1.00  0.00    -0.069 Cl
ENDROOT
TORSDOF 0
ENDMDL
MODEL 2
REMARK VINA RESULT: -5.382070102      3.205      4.241
REMARK  0 active torsions:
REMARK  status: ('A' for Active; 'I' for Inactive)
ROOT
HETATM    1  C1  UNL     1      88.681  88.861 -42.316  1.00  0.00     0.178 C 
HETATM    2  N1  UNL     1      89.374  90.109 -42.555  1.00  0.00    -0.293 N 
HETATM    3  N2  UNL     1      88.772  91.302 -42.989  1.00  0.00    -0.284 N 
ATOM      4  H2  UNL     1      87.778  91.428 -43.182  1.00  0.00     0.188 HD
HETATM    5  C2  UNL     1      89.772  92.306 -43.116  1.00  0.00     0.136 C 
HETATM    6  N3  UNL     1      89.598  93.563 -43.310  1.00  0.00    -0.385 N 
ATOM      7  H31 UNL     1      90.314  94.283 -43.401  1.00  0.00     0.157 HD
ATOM      8  H32 UNL     1      88.680  93.999 -43.400  1.00  0.00     0.157 HD
HETATM    9  C3  UNL     1      91.105  91.673 -42.986  1.00  0.00     0.217 C 
HETATM   10 CL1  UNL     1      91.921  91.463 -44.541  1.00  0.00    -0.086 Cl
HETATM   11 CL2  UNL     1      92.122  92.537 -41.804  1.00  0.00    -0.086 Cl
HETATM   12  C4  UNL     1      90.762  90.327 -42.397  1.00  0.00     0.107 C 
HETATM   13  C5  UNL     1      91.689  89.565 -41.847  1.00  0.00     0.131 C 
HETATM   14 CL3  UNL     1      91.201  88.022 -41.183  1.00  0.00    -0.069 Cl
HETATM   15 CL4  UNL     1      93.353  90.088 -41.791  1.00  0.00    -0.069 Cl
ENDROOT
TORSDOF 0
ENDMDL
MODEL 3
REMARK VINA RESULT: -5.181849254      2.880      4.300
REMARK  0 active torsions:
REMARK  status: ('A' for Active; 'I' for Inactive)
ROOT
HETATM    1  C1  UNL     1      87.388  91.339 -42.328  1.00  0.00     0.178 C 
HETATM    2  N1  UNL     1      88.595  91.987 -42.796  1.00  0.00    -0.293 N 
HETATM    3  N2  UNL     1      89.518  91.432 -43.697  1.00  0.00    -0.284 N 
ATOM      4  H2  UNL     1      89.444  90.511 -44.129  1.00  0.00     0.188 HD
HETATM    5  C2  UNL     1      90.574  92.362 -43.911  1.00  0.00     0.136 C 
HETATM    6  N3  UNL     1      91.503  92.300 -44.794  1.00  0.00    -0.385 N 
ATOM      7  H31 UNL     1      92.260  92.967 -44.948  1.00  0.00     0.157 HD
ATOM      8  H32 UNL     1      91.590  91.542 -45.471  1.00  0.00     0.157 HD
HETATM    9  C3  UNL     1      90.448  93.463 -42.928  1.00  0.00     0.217 C 
HETATM   10 CL1  UNL     1      91.598  93.327 -41.592  1.00  0.00    -0.086 Cl
HETATM   11 CL2  UNL     1      90.527  95.056 -43.723  1.00  0.00    -0.086 Cl
HETATM   12  C4  UNL     1      89.040  93.276 -42.418  1.00  0.00     0.107 C 
HETATM   13  C5  UNL     1      88.424  94.229 -41.745  1.00  0.00     0.131 C 
HETATM   14 CL3  UNL     1      86.790  93.928 -41.198  1.00  0.00    -0.069 Cl
HETATM   15 CL4  UNL     1      89.225  95.743 -41.411  1.00  0.00    -0.069 Cl
ENDROOT
TORSDOF 0
ENDMDL
MODEL 4
REMARK VINA RESULT: -5.166100563      3.349      4.083
REMARK  0 active torsions:
REMARK  status: ('A' for Active; 'I' for Inactive)
ROOT
HETATM    1  C1  UNL     1      91.477  88.192 -41.509  1.00  0.00     0.178 C 
HETATM    2  N1  UNL     1      90.832  89.362 -42.065  1.00  0.00    -0.293 N 
HETATM    3  N2  UNL     1      89.454  89.494 -42.302  1.00  0.00    -0.284 N 
ATOM      4  H2  UNL     1      88.748  88.782 -42.107  1.00  0.00     0.188 HD
HETATM    5  C2  UNL     1      89.199  90.778 -42.858  1.00  0.00     0.136 C 
HETATM    6  N3  UNL     1      88.059  91.339 -43.041  1.00  0.00    -0.385 N 
ATOM      7  H31 UNL     1      87.876  92.260 -43.440  1.00  0.00     0.157 HD
ATOM      8  H32 UNL     1      87.169  90.904 -42.797  1.00  0.00     0.157 HD
HETATM    9  C3  UNL     1      90.491  91.411 -43.212  1.00  0.00     0.217 C 
HETATM   10 CL1  UNL     1      90.832  91.352 -44.946  1.00  0.00    -0.086 Cl
HETATM   11 CL2  UNL     1      90.605  93.065 -42.560  1.00  0.00    -0.086 Cl
HETATM   12  C4  UNL     1      91.481  90.554 -42.462  1.00  0.00     0.107 C 
HETATM   13  C5  UNL     1      92.723  90.956 -42.267  1.00  0.00     0.131 C 
HETATM   14 CL3  UNL     1      93.801  89.901 -41.381  1.00  0.00    -0.069 Cl
HETATM   15 CL4  UNL     1      93.267  92.496 -42.881  1.00  0.00    -0.069 Cl
ENDROOT
TORSDOF 0
ENDMDL
MODEL 5
REMARK VINA RESULT: -5.152991043      7.332      8.309
REMARK  0 active torsions:
REMARK  status: ('A' for Active; 'I' for Inactive)
ROOT
HETATM    1  C1  UNL     1      86.837  89.560 -42.515  1.00  0.00     0.178 C 
HETATM    2  N1  UNL     1      86.882  88.261 -41.879  1.00  0.00    -0.293 N 
HETATM    3  N2  UNL     1      85.780  87.413 -41.684  1.00  0.00    -0.284 N 
ATOM      4  H2  UNL     1      84.821  87.612 -41.971  1.00  0.00     0.188 HD
HETATM    5  C2  UNL     1      86.214  86.231 -41.022  1.00  0.00     0.136 C 
HETATM    6  N3  UNL     1      85.548  85.151 -40.832  1.00  0.00    -0.385 N 
ATOM      7  H31 UNL     1      85.860  84.303 -40.358  1.00  0.00     0.157 HD
ATOM      8  H32 UNL     1      84.588  85.016 -41.150  1.00  0.00     0.157 HD
HETATM    9  C3  UNL     1      87.609  86.426 -40.561  1.00  0.00     0.217 C 
HETATM   10 CL1  UNL     1      87.720  86.759 -38.829  1.00  0.00    -0.086 Cl
HETATM   11 CL2  UNL     1      88.652  85.068 -41.053  1.00  0.00    -0.086 Cl
HETATM   12  C4  UNL     1      88.038  87.641 -41.349  1.00  0.00     0.107 C 
HETATM   13  C5  UNL     1      89.311  87.970 -41.458  1.00  0.00     0.131 C 
HETATM   14 CL3  UNL     1      89.717  89.390 -42.395  1.00  0.00    -0.069 Cl
HETATM   15 CL4  UNL     1      90.548  87.013 -40.683  1.00  0.00    -0.069 Cl
ENDROOT
TORSDOF 0
ENDMDL
