MODEL 1
REMARK VINA RESULT: -4.192186788      0.000      0.000
REMARK  4 active torsions:
REMARK  status: ('A' for Active; 'I' for Inactive)
REMARK    1  A    between atoms: C1_4  and  N2_5 
REMARK    2  A    between atoms: C1_4  and  C2_10 
REMARK    3  A    between atoms: N2_5  and  N3_7 
REMARK    4  A    between atoms: C5_13  and  N4_14 
ROOT
HETATM    1  N1  UNL     1      22.524 142.194 145.812  1.00  0.00    -0.388 N 
ATOM      2  H11 UNL     1      22.241 143.173 145.831  1.00  0.00     0.157 HD
ATOM      3  H12 UNL     1      21.829 141.447 145.839  1.00  0.00     0.157 HD
HETATM    4  C1  UNL     1      23.767 141.917 145.756  1.00  0.00     0.095 C 
ENDROOT
BRANCH   4   5
HETATM    5  N2  UNL     1      24.159 140.562 145.730  1.00  0.00    -0.296 N 
ATOM      6  H2  UNL     1      24.489 140.096 146.575  1.00  0.00     0.187 HD
BRANCH   5   7
HETATM    7  N3  UNL     1      24.082 139.878 144.515  1.00  0.00    -0.344 N 
ATOM      8  H32 UNL     1      23.300 140.048 143.882  1.00  0.00     0.176 HD
ATOM      9  H31 UNL     1      24.823 139.215 144.290  1.00  0.00     0.176 HD
ENDBRANCH   5   7
ENDBRANCH   4   5
BRANCH   4  10
HETATM   10  C2  UNL     1      24.757 142.982 145.719  1.00  0.00     0.084 C 
HETATM   11  C3  UNL     1      26.178 142.605 146.081  1.00  0.00     0.016 C 
HETATM   12  C4  UNL     1      26.615 143.643 145.038  1.00  0.00     0.034 C 
HETATM   13  C5  UNL     1      25.295 143.326 144.324  1.00  0.00     0.194 C 
BRANCH  13  14
HETATM   14  N4  UNL     1      24.667 144.446 143.698  1.00  0.00    -0.074 N 
ATOM     15  H43 UNL     1      24.624 144.308 142.688  1.00  0.00     0.274 HD
ATOM     16  H42 UNL     1      23.671 144.460 143.917  1.00  0.00     0.274 HD
ATOM     17  H41 UNL     1      25.088 145.350 143.913  1.00  0.00     0.274 HD
ENDBRANCH  13  14
ENDBRANCH   4  10
TORSDOF 4
ENDMDL
MODEL 2
REMARK VINA RESULT: -4.124741154      6.523      7.676
REMARK  4 active torsions:
REMARK  status: ('A' for Active; 'I' for Inactive)
REMARK    1  A    between atoms: C1_4  and  N2_5 
REMARK    2  A    between atoms: C1_4  and  C2_10 
REMARK    3  A    between atoms: N2_5  and  N3_7 
REMARK    4  A    between atoms: C5_13  and  N4_14 
ROOT
HETATM    1  N1  UNL     1      26.795 138.367 147.271  1.00  0.00    -0.388 N 
ATOM      2  H11 UNL     1      25.886 138.252 147.717  1.00  0.00     0.157 HD
ATOM      3  H12 UNL     1      26.870 138.730 146.320  1.00  0.00     0.157 HD
HETATM    4  C1  UNL     1      27.842 138.048 147.923  1.00  0.00     0.095 C 
ENDROOT
BRANCH   4   5
HETATM    5  N2  UNL     1      29.101 138.207 147.306  1.00  0.00    -0.296 N 
ATOM      6  H2  UNL     1      29.672 139.032 147.486  1.00  0.00     0.187 HD
BRANCH   5   7
HETATM    7  N3  UNL     1      29.541 137.203 146.441  1.00  0.00    -0.344 N 
ATOM      8  H32 UNL     1      29.131 136.270 146.492  1.00  0.00     0.176 HD
ATOM      9  H31 UNL     1      30.273 137.434 145.770  1.00  0.00     0.176 HD
ENDBRANCH   5   7
ENDBRANCH   4   5
BRANCH   4  10
HETATM   10  C2  UNL     1      27.736 137.530 149.278  1.00  0.00     0.084 C 
HETATM   11  C3  UNL     1      27.767 136.025 149.438  1.00  0.00     0.016 C 
HETATM   12  C4  UNL     1      28.511 136.278 150.757  1.00  0.00     0.034 C 
HETATM   13  C5  UNL     1      29.035 137.557 150.093  1.00  0.00     0.194 C 
BRANCH  13  14
HETATM   14  N4  UNL     1      29.172 138.677 150.969  1.00  0.00    -0.074 N 
ATOM     15  H43 UNL     1      29.555 138.379 151.866  1.00  0.00     0.274 HD
ATOM     16  H42 UNL     1      29.925 139.286 150.649  1.00  0.00     0.274 HD
ATOM     17  H41 UNL     1      28.318 139.216 151.112  1.00  0.00     0.274 HD
ENDBRANCH  13  14
ENDBRANCH   4  10
TORSDOF 4
ENDMDL
MODEL 3
REMARK VINA RESULT: -4.052282566      6.885      8.189
REMARK  4 active torsions:
REMARK  status: ('A' for Active; 'I' for Inactive)
REMARK    1  A    between atoms: C1_4  and  N2_5 
REMARK    2  A    between atoms: C1_4  and  C2_10 
REMARK    3  A    between atoms: N2_5  and  N3_7 
REMARK    4  A    between atoms: C5_13  and  N4_14 
ROOT
HETATM    1  N1  UNL     1      28.258 136.337 145.858  1.00  0.00    -0.388 N 
ATOM      2  H11 UNL     1      28.580 135.374 145.764  1.00  0.00     0.157 HD
ATOM      3  H12 UNL     1      28.463 137.030 145.137  1.00  0.00     0.157 HD
HETATM    4  C1  UNL     1      27.593 136.662 146.895  1.00  0.00     0.095 C 
ENDROOT
BRANCH   4   5
HETATM    5  N2  UNL     1      27.148 137.995 147.024  1.00  0.00    -0.296 N 
ATOM      6  H2  UNL     1      26.169 138.237 146.876  1.00  0.00     0.187 HD
BRANCH   5   7
HETATM    7  N3  UNL     1      28.086 138.972 147.361  1.00  0.00    -0.344 N 
ATOM      8  H32 UNL     1      29.083 138.776 147.268  1.00  0.00     0.176 HD
ATOM      9  H31 UNL     1      27.744 139.872 147.697  1.00  0.00     0.176 HD
ENDBRANCH   5   7
ENDBRANCH   4   5
BRANCH   4  10
HETATM   10  C2  UNL     1      27.301 135.674 147.921  1.00  0.00     0.084 C 
HETATM   11  C3  UNL     1      27.915 134.302 147.743  1.00  0.00     0.016 C 
HETATM   12  C4  UNL     1      28.032 134.262 149.273  1.00  0.00     0.034 C 
HETATM   13  C5  UNL     1      28.143 135.790 149.198  1.00  0.00     0.194 C 
BRANCH  13  14
HETATM   14  N4  UNL     1      27.514 136.491 150.272  1.00  0.00    -0.074 N 
ATOM     15  H43 UNL     1      26.796 137.120 149.910  1.00  0.00     0.274 HD
ATOM     16  H42 UNL     1      26.933 135.854 150.817  1.00  0.00     0.274 HD
ATOM     17  H41 UNL     1      28.151 136.999 150.885  1.00  0.00     0.274 HD
ENDBRANCH  13  14
ENDBRANCH   4  10
TORSDOF 4
ENDMDL
MODEL 4
REMARK VINA RESULT: -4.004108477      6.435      7.753
REMARK  4 active torsions:
REMARK  status: ('A' for Active; 'I' for Inactive)
REMARK    1  A    between atoms: C1_4  and  N2_5 
REMARK    2  A    between atoms: C1_4  and  C2_10 
REMARK    3  A    between atoms: N2_5  and  N3_7 
REMARK    4  A    between atoms: C5_13  and  N4_14 
ROOT
HETATM    1  N1  UNL     1      28.133 138.857 147.358  1.00  0.00    -0.388 N 
ATOM      2  H11 UNL     1      27.729 139.395 148.124  1.00  0.00     0.157 HD
ATOM      3  H12 UNL     1      27.982 139.133 146.387  1.00  0.00     0.157 HD
HETATM    4  C1  UNL     1      28.832 137.828 147.635  1.00  0.00     0.095 C 
ENDROOT
BRANCH   4   5
HETATM    5  N2  UNL     1      29.390 137.083 146.575  1.00  0.00    -0.296 N 
ATOM      6  H2  UNL     1      30.383 137.149 146.353  1.00  0.00     0.187 HD
BRANCH   5   7
HETATM    7  N3  UNL     1      28.544 136.252 145.837  1.00  0.00    -0.344 N 
ATOM      8  H32 UNL     1      27.534 136.388 145.877  1.00  0.00     0.176 HD
ATOM      9  H31 UNL     1      28.967 135.519 145.268  1.00  0.00     0.176 HD
ENDBRANCH   5   7
ENDBRANCH   4   5
BRANCH   4  10
HETATM   10  C2  UNL     1      29.046 137.434 149.018  1.00  0.00     0.084 C 
HETATM   11  C3  UNL     1      29.243 138.549 150.023  1.00  0.00     0.016 C 
HETATM   12  C4  UNL     1      28.501 137.649 151.021  1.00  0.00     0.034 C 
HETATM   13  C5  UNL     1      27.776 137.072 149.799  1.00  0.00     0.194 C 
BRANCH  13  14
HETATM   14  N4  UNL     1      27.494 135.673 149.873  1.00  0.00    -0.074 N 
ATOM     15  H43 UNL     1      26.812 135.489 150.609  1.00  0.00     0.274 HD
ATOM     16  H42 UNL     1      26.957 135.378 149.057  1.00  0.00     0.274 HD
ATOM     17  H41 UNL     1      28.312 135.077 149.992  1.00  0.00     0.274 HD
ENDBRANCH  13  14
ENDBRANCH   4  10
TORSDOF 4
ENDMDL
MODEL 5
REMARK VINA RESULT: -3.997481399      6.204      7.513
REMARK  4 active torsions:
REMARK  status: ('A' for Active; 'I' for Inactive)
REMARK    1  A    between atoms: C1_4  and  N2_5 
REMARK    2  A    between atoms: C1_4  and  C2_10 
REMARK    3  A    between atoms: N2_5  and  N3_7 
REMARK    4  A    between atoms: C5_13  and  N4_14 
ROOT
HETATM    1  N1  UNL     1      28.261 138.958 147.354  1.00  0.00    -0.388 N 
ATOM      2  H11 UNL     1      29.215 139.312 147.286  1.00  0.00     0.157 HD
ATOM      3  H12 UNL     1      27.541 139.265 146.700  1.00  0.00     0.157 HD
HETATM    4  C1  UNL     1      27.982 138.123 148.275  1.00  0.00     0.095 C 
ENDROOT
BRANCH   4   5
HETATM    5  N2  UNL     1      26.662 137.634 148.369  1.00  0.00    -0.296 N 
ATOM      6  H2  UNL     1      26.023 137.984 149.083  1.00  0.00     0.187 HD
BRANCH   5   7
HETATM    7  N3  UNL     1      26.256 136.657 147.459  1.00  0.00    -0.344 N 
ATOM      8  H32 UNL     1      26.730 136.569 146.560  1.00  0.00     0.176 HD
ATOM      9  H31 UNL     1      25.483 136.046 147.722  1.00  0.00     0.176 HD
ENDBRANCH   5   7
ENDBRANCH   4   5
BRANCH   4  10
HETATM   10  C2  UNL     1      29.008 137.687 149.209  1.00  0.00     0.084 C 
HETATM   11  C3  UNL     1      30.386 138.290 149.039  1.00  0.00     0.016 C 
HETATM   12  C4  UNL     1      30.501 138.216 150.568  1.00  0.00     0.034 C 
HETATM   13  C5  UNL     1      28.974 138.367 150.583  1.00  0.00     0.194 C 
BRANCH  13  14
HETATM   14  N4  UNL     1      28.307 137.625 151.605  1.00  0.00    -0.074 N 
ATOM     15  H43 UNL     1      28.934 137.468 152.394  1.00  0.00     0.274 HD
ATOM     16  H42 UNL     1      27.597 138.202 152.055  1.00  0.00     0.274 HD
ATOM     17  H41 UNL     1      27.900 136.742 151.297  1.00  0.00     0.274 HD
ENDBRANCH  13  14
ENDBRANCH   4  10
TORSDOF 4
ENDMDL
