MODEL 1
REMARK VINA RESULT: -6.801425684      0.000      0.000
REMARK  7 active torsions:
REMARK  status: ('A' for Active; 'I' for Inactive)
REMARK    1  A    between atoms: C2_2  and  C3_3 
REMARK    2  A    between atoms: C3_3  and  C4_4 
REMARK    3  A    between atoms: C4_4  and  C6_6 
REMARK       I    between atoms: C6_6  and  N1_8 
REMARK    4  A    between atoms: N1_8  and  C7_10 
REMARK    5  A    between atoms: C8_11  and  N2_12 
REMARK       I    between atoms: N2_12  and  C9_13 
REMARK    6  A    between atoms: N2_12  and  C12_22 
REMARK    7  A    between atoms: C9_13  and  C10_15 
ROOT
HETATM    1  C7  UNL     1     -13.140 -57.073 -32.315  1.00  0.00     0.084 A 
HETATM    2  C8  UNL     1     -13.413 -57.886 -33.388  1.00  0.00     0.068 A 
HETATM    3  C17 UNL     1     -14.369 -58.913 -33.278  1.00  0.00     0.056 A 
HETATM    4  C18 UNL     1     -15.044 -59.107 -32.097  1.00  0.00     0.007 A 
HETATM    5  C19 UNL     1     -16.067 -60.204 -31.966  1.00  0.00     0.068 C 
HETATM    6  N5  UNL     1     -14.777 -58.328 -31.083  1.00  0.00    -0.362 N 
ATOM      7  H5  UNL     1     -15.280 -58.479 -30.208  1.00  0.00     0.165 HD
HETATM    8  C20 UNL     1     -13.877 -57.345 -31.137  1.00  0.00     0.035 A 
HETATM    9  C21 UNL     1     -13.635 -56.498 -29.940  1.00  0.00     0.070 C 
ENDROOT
BRANCH   2  10
HETATM   10  N2  UNL     1     -12.760 -57.740 -34.648  1.00  0.00    -0.305 N 
HETATM   11  C9  UNL     1     -11.398 -58.100 -34.625  1.00  0.00     0.277 C 
HETATM   12  O2  UNL     1     -11.008 -58.762 -33.603  1.00  0.00    -0.265 OA
BRANCH  11  13
HETATM   13  C10 UNL     1     -10.368 -57.804 -35.643  1.00  0.00     0.124 A 
HETATM   14  C11 UNL     1      -9.890 -58.804 -36.474  1.00  0.00     0.106 A 
HETATM   15  S1  UNL     1      -8.766 -57.938 -37.451  1.00  0.00    -0.008 SA
HETATM   16  N3  UNL     1      -8.973 -56.428 -36.764  1.00  0.00    -0.269 N 
HETATM   17  N4  UNL     1      -9.852 -56.627 -35.855  1.00  0.00    -0.289 N 
ATOM     18  H3  UNL     1      -8.509 -55.554 -37.010  1.00  0.00     0.195 HD
ATOM     19  H4  UNL     1     -10.158 -55.841 -35.280  1.00  0.00     0.188 HD
ENDBRANCH  11  13
BRANCH  10  20
HETATM   20  C12 UNL     1     -13.435 -57.434 -35.869  1.00  0.00     0.093 C 
HETATM   21  C13 UNL     1     -14.799 -56.776 -35.704  1.00  0.00     0.026 C 
HETATM   22  C14 UNL     1     -15.771 -57.903 -36.028  1.00  0.00     0.002 C 
HETATM   23  C15 UNL     1     -15.139 -58.412 -37.301  1.00  0.00     0.002 C 
HETATM   24  C16 UNL     1     -13.667 -58.528 -36.835  1.00  0.00     0.026 C 
ENDBRANCH  10  20
ENDBRANCH   2  10
BRANCH   1  25
HETATM   25  N1  UNL     1     -12.162 -56.117 -32.163  1.00  0.00    -0.319 N 
HETATM   26  C6  UNL     1     -10.865 -56.021 -31.678  1.00  0.00     0.259 C 
HETATM   27  O1  UNL     1     -10.296 -56.993 -31.144  1.00  0.00    -0.267 OA
ATOM     28  H1  UNL     1     -12.485 -55.213 -32.508  1.00  0.00     0.169 HD
BRANCH  26  29
HETATM   29  C4  UNL     1     -10.058 -54.764 -31.747  1.00  0.00     0.047 C 
HETATM   30  C5  UNL     1      -9.500 -54.408 -33.032  1.00  0.00     0.063 C 
BRANCH  29  31
HETATM   31  C3  UNL     1      -9.794 -54.156 -30.566  1.00  0.00    -0.144 C 
BRANCH  31  32
HETATM   32  C2  UNL     1      -9.488 -53.696 -29.363  1.00  0.00     0.081 C 
HETATM   33  C1  UNL     1      -9.944 -54.648 -28.201  1.00  0.00     0.017 C 
ENDBRANCH  31  32
ENDBRANCH  29  31
ENDBRANCH  26  29
ENDBRANCH   1  25
TORSDOF 7
ENDMDL
MODEL 2
REMARK VINA RESULT: -6.523542580      2.177      3.656
REMARK  7 active torsions:
REMARK  status: ('A' for Active; 'I' for Inactive)
REMARK    1  A    between atoms: C2_2  and  C3_3 
REMARK    2  A    between atoms: C3_3  and  C4_4 
REMARK    3  A    between atoms: C4_4  and  C6_6 
REMARK       I    between atoms: C6_6  and  N1_8 
REMARK    4  A    between atoms: N1_8  and  C7_10 
REMARK    5  A    between atoms: C8_11  and  N2_12 
REMARK       I    between atoms: N2_12  and  C9_13 
REMARK    6  A    between atoms: N2_12  and  C12_22 
REMARK    7  A    between atoms: C9_13  and  C10_15 
ROOT
HETATM    1  C7  UNL     1     -10.832 -55.290 -29.798  1.00  0.00     0.084 A 
HETATM    2  C8  UNL     1     -11.912 -55.910 -30.376  1.00  0.00     0.068 A 
HETATM    3  C17 UNL     1     -12.990 -56.346 -29.584  1.00  0.00     0.056 A 
HETATM    4  C18 UNL     1     -12.975 -56.149 -28.225  1.00  0.00     0.007 A 
HETATM    5  C19 UNL     1     -14.122 -56.614 -27.366  1.00  0.00     0.068 C 
HETATM    6  N5  UNL     1     -11.942 -55.558 -27.684  1.00  0.00    -0.362 N 
ATOM      7  H5  UNL     1     -11.936 -55.417 -26.674  1.00  0.00     0.165 HD
HETATM    8  C20 UNL     1     -10.896 -55.131 -28.392  1.00  0.00     0.035 A 
HETATM    9  C21 UNL     1      -9.761 -54.462 -27.703  1.00  0.00     0.070 C 
ENDROOT
BRANCH   2  10
HETATM   10  N2  UNL     1     -12.004 -56.142 -31.781  1.00  0.00    -0.305 N 
HETATM   11  C9  UNL     1     -10.889 -56.814 -32.318  1.00  0.00     0.277 C 
HETATM   12  O2  UNL     1     -10.107 -57.371 -31.473  1.00  0.00    -0.265 OA
BRANCH  11  13
HETATM   13  C10 UNL     1     -10.518 -56.955 -33.742  1.00  0.00     0.124 A 
HETATM   14  C11 UNL     1     -10.756 -58.139 -34.419  1.00  0.00     0.106 A 
HETATM   15  S1  UNL     1     -10.175 -57.762 -35.996  1.00  0.00    -0.008 SA
HETATM   16  N3  UNL     1      -9.689 -56.190 -35.697  1.00  0.00    -0.269 N 
HETATM   17  N4  UNL     1      -9.975 -56.015 -34.462  1.00  0.00    -0.289 N 
ATOM     18  H3  UNL     1      -9.266 -55.527 -36.346  1.00  0.00     0.195 HD
ATOM     19  H4  UNL     1      -9.771 -55.114 -34.029  1.00  0.00     0.188 HD
ENDBRANCH  11  13
BRANCH  10  20
HETATM   20  C12 UNL     1     -13.174 -55.888 -32.559  1.00  0.00     0.093 C 
HETATM   21  C13 UNL     1     -14.213 -57.004 -32.544  1.00  0.00     0.026 C 
HETATM   22  C14 UNL     1     -14.047 -57.653 -33.911  1.00  0.00     0.002 C 
HETATM   23  C15 UNL     1     -14.037 -56.413 -34.771  1.00  0.00     0.002 C 
HETATM   24  C16 UNL     1     -13.007 -55.561 -33.990  1.00  0.00     0.026 C 
ENDBRANCH  10  20
ENDBRANCH   2  10
BRANCH   1  25
HETATM   25  N1  UNL     1      -9.630 -54.917 -30.355  1.00  0.00    -0.319 N 
HETATM   26  C6  UNL     1      -9.162 -54.102 -31.376  1.00  0.00     0.259 C 
HETATM   27  O1  UNL     1      -9.943 -53.499 -32.138  1.00  0.00    -0.267 OA
ATOM     28  H1  UNL     1      -8.854 -55.375 -29.876  1.00  0.00     0.169 HD
BRANCH  26  29
HETATM   29  C4  UNL     1      -7.707 -53.888 -31.650  1.00  0.00     0.047 C 
HETATM   30  C5  UNL     1      -7.248 -54.129 -32.999  1.00  0.00     0.063 C 
BRANCH  29  31
HETATM   31  C3  UNL     1      -6.925 -53.639 -30.573  1.00  0.00    -0.144 C 
BRANCH  31  32
HETATM   32  C2  UNL     1      -6.289 -53.367 -29.445  1.00  0.00     0.081 C 
HETATM   33  C1  UNL     1      -4.754 -53.104 -29.648  1.00  0.00     0.017 C 
ENDBRANCH  31  32
ENDBRANCH  29  31
ENDBRANCH  26  29
ENDBRANCH   1  25
TORSDOF 7
ENDMDL
MODEL 3
REMARK VINA RESULT: -6.494038800      2.300      3.667
REMARK  7 active torsions:
REMARK  status: ('A' for Active; 'I' for Inactive)
REMARK    1  A    between atoms: C2_2  and  C3_3 
REMARK    2  A    between atoms: C3_3  and  C4_4 
REMARK    3  A    between atoms: C4_4  and  C6_6 
REMARK       I    between atoms: C6_6  and  N1_8 
REMARK    4  A    between atoms: N1_8  and  C7_10 
REMARK    5  A    between atoms: C8_11  and  N2_12 
REMARK       I    between atoms: N2_12  and  C9_13 
REMARK    6  A    between atoms: N2_12  and  C12_22 
REMARK    7  A    between atoms: C9_13  and  C10_15 
ROOT
HETATM    1  C7  UNL     1     -11.849 -55.923 -33.318  1.00  0.00     0.084 A 
HETATM    2  C8  UNL     1     -11.583 -56.353 -34.595  1.00  0.00     0.068 A 
HETATM    3  C17 UNL     1     -12.612 -56.885 -35.395  1.00  0.00     0.056 A 
HETATM    4  C18 UNL     1     -13.893 -56.972 -34.907  1.00  0.00     0.007 A 
HETATM    5  C19 UNL     1     -15.002 -57.541 -35.753  1.00  0.00     0.068 C 
HETATM    6  N5  UNL     1     -14.135 -56.561 -33.690  1.00  0.00    -0.362 N 
ATOM      7  H5  UNL     1     -15.088 -56.631 -33.334  1.00  0.00     0.165 HD
HETATM    8  C20 UNL     1     -13.194 -56.054 -32.893  1.00  0.00     0.035 A 
HETATM    9  C21 UNL     1     -13.550 -55.602 -31.523  1.00  0.00     0.070 C 
ENDROOT
BRANCH   2  10
HETATM   10  N2  UNL     1     -10.281 -56.286 -35.173  1.00  0.00    -0.305 N 
HETATM   11  C9  UNL     1      -9.696 -55.006 -35.106  1.00  0.00     0.277 C 
HETATM   12  O2  UNL     1     -10.252 -54.175 -34.310  1.00  0.00    -0.265 OA
BRANCH  11  13
HETATM   13  C10 UNL     1      -8.515 -54.512 -35.845  1.00  0.00     0.124 A 
HETATM   14  C11 UNL     1      -8.620 -54.139 -37.175  1.00  0.00     0.106 A 
HETATM   15  S1  UNL     1      -7.010 -53.637 -37.525  1.00  0.00    -0.008 SA
HETATM   16  N3  UNL     1      -6.343 -53.925 -36.018  1.00  0.00    -0.269 N 
HETATM   17  N4  UNL     1      -7.326 -54.373 -35.332  1.00  0.00    -0.289 N 
ATOM     18  H3  UNL     1      -5.379 -53.778 -35.717  1.00  0.00     0.195 HD
ATOM     19  H4  UNL     1      -7.174 -54.628 -34.356  1.00  0.00     0.188 HD
ENDBRANCH  11  13
BRANCH  10  20
HETATM   20  C12 UNL     1      -9.545 -57.425 -35.622  1.00  0.00     0.093 C 
HETATM   21  C13 UNL     1      -9.201 -57.426 -37.107  1.00  0.00     0.026 C 
HETATM   22  C14 UNL     1     -10.172 -58.444 -37.689  1.00  0.00     0.002 C 
HETATM   23  C15 UNL     1      -9.978 -59.563 -36.695  1.00  0.00     0.002 C 
HETATM   24  C16 UNL     1     -10.111 -58.767 -35.374  1.00  0.00     0.026 C 
ENDBRANCH  10  20
ENDBRANCH   2  10
BRANCH   1  25
HETATM   25  N1  UNL     1     -10.982 -55.509 -32.332  1.00  0.00    -0.319 N 
HETATM   26  C6  UNL     1      -9.889 -55.999 -31.632  1.00  0.00     0.259 C 
HETATM   27  O1  UNL     1      -9.479 -57.164 -31.796  1.00  0.00    -0.267 OA
ATOM     28  H1  UNL     1     -11.212 -54.563 -32.026  1.00  0.00     0.169 HD
BRANCH  26  29
HETATM   29  C4  UNL     1      -9.128 -55.187 -30.632  1.00  0.00     0.047 C 
HETATM   30  C5  UNL     1      -9.737 -55.001 -29.334  1.00  0.00     0.063 C 
BRANCH  29  31
HETATM   31  C3  UNL     1      -8.012 -54.571 -31.086  1.00  0.00    -0.144 C 
BRANCH  31  32
HETATM   32  C2  UNL     1      -6.843 -54.089 -31.479  1.00  0.00     0.081 C 
HETATM   33  C1  UNL     1      -5.969 -53.541 -30.296  1.00  0.00     0.017 C 
ENDBRANCH  31  32
ENDBRANCH  29  31
ENDBRANCH  26  29
ENDBRANCH   1  25
TORSDOF 7
ENDMDL
MODEL 4
REMARK VINA RESULT: -6.416431435      2.461      5.077
REMARK  7 active torsions:
REMARK  status: ('A' for Active; 'I' for Inactive)
REMARK    1  A    between atoms: C2_2  and  C3_3 
REMARK    2  A    between atoms: C3_3  and  C4_4 
REMARK    3  A    between atoms: C4_4  and  C6_6 
REMARK       I    between atoms: C6_6  and  N1_8 
REMARK    4  A    between atoms: N1_8  and  C7_10 
REMARK    5  A    between atoms: C8_11  and  N2_12 
REMARK       I    between atoms: N2_12  and  C9_13 
REMARK    6  A    between atoms: N2_12  and  C12_22 
REMARK    7  A    between atoms: C9_13  and  C10_15 
ROOT
HETATM    1  C7  UNL     1     -11.549 -56.548 -31.734  1.00  0.00     0.084 A 
HETATM    2  C8  UNL     1     -11.278 -56.568 -33.080  1.00  0.00     0.068 A 
HETATM    3  C17 UNL     1     -10.294 -55.719 -33.620  1.00  0.00     0.056 A 
HETATM    4  C18 UNL     1      -9.589 -54.868 -32.804  1.00  0.00     0.007 A 
HETATM    5  C19 UNL     1      -8.535 -53.954 -33.370  1.00  0.00     0.068 C 
HETATM    6  N5  UNL     1      -9.855 -54.858 -31.524  1.00  0.00    -0.362 N 
ATOM      7  H5  UNL     1      -9.329 -54.222 -30.924  1.00  0.00     0.165 HD
HETATM    8  C20 UNL     1     -10.781 -55.639 -30.967  1.00  0.00     0.035 A 
HETATM    9  C21 UNL     1     -11.019 -55.572 -29.501  1.00  0.00     0.070 C 
ENDROOT
BRANCH   2  10
HETATM   10  N2  UNL     1     -11.961 -57.429 -33.989  1.00  0.00    -0.305 N 
HETATM   11  C9  UNL     1     -13.251 -56.980 -34.334  1.00  0.00     0.277 C 
HETATM   12  O2  UNL     1     -13.522 -55.766 -34.039  1.00  0.00    -0.265 OA
BRANCH  11  13
HETATM   13  C10 UNL     1     -14.327 -57.746 -34.999  1.00  0.00     0.124 A 
HETATM   14  C11 UNL     1     -14.675 -57.478 -36.312  1.00  0.00     0.106 A 
HETATM   15  S1  UNL     1     -15.922 -58.635 -36.585  1.00  0.00    -0.008 SA
HETATM   16  N3  UNL     1     -15.913 -59.350 -35.073  1.00  0.00    -0.269 N 
HETATM   17  N4  UNL     1     -15.002 -58.711 -34.441  1.00  0.00    -0.289 N 
ATOM     18  H3  UNL     1     -16.497 -60.115 -34.734  1.00  0.00     0.195 HD
ATOM     19  H4  UNL     1     -14.798 -58.964 -33.474  1.00  0.00     0.188 HD
ENDBRANCH  11  13
BRANCH  10  20
HETATM   20  C12 UNL     1     -11.357 -58.547 -34.640  1.00  0.00     0.093 C 
HETATM   21  C13 UNL     1     -10.768 -58.253 -36.015  1.00  0.00     0.026 C 
HETATM   22  C14 UNL     1     -11.779 -58.875 -36.968  1.00  0.00     0.002 C 
HETATM   23  C15 UNL     1     -11.945 -60.221 -36.303  1.00  0.00     0.002 C 
HETATM   24  C16 UNL     1     -12.170 -59.765 -34.841  1.00  0.00     0.026 C 
ENDBRANCH  10  20
ENDBRANCH   2  10
BRANCH   1  25
HETATM   25  N1  UNL     1     -12.549 -57.179 -31.029  1.00  0.00    -0.319 N 
HETATM   26  C6  UNL     1     -13.836 -56.915 -30.583  1.00  0.00     0.259 C 
HETATM   27  O1  UNL     1     -14.367 -55.799 -30.748  1.00  0.00    -0.267 OA
ATOM     28  H1  UNL     1     -12.258 -58.117 -30.754  1.00  0.00     0.169 HD
BRANCH  26  29
HETATM   29  C4  UNL     1     -14.678 -57.926 -29.870  1.00  0.00     0.047 C 
HETATM   30  C5  UNL     1     -15.412 -58.864 -30.688  1.00  0.00     0.063 C 
BRANCH  29  31
HETATM   31  C3  UNL     1     -14.796 -57.770 -28.531  1.00  0.00    -0.144 C 
BRANCH  31  32
HETATM   32  C2  UNL     1     -14.813 -57.503 -27.235  1.00  0.00     0.081 C 
HETATM   33  C1  UNL     1     -13.666 -56.530 -26.787  1.00  0.00     0.017 C 
ENDBRANCH  31  32
ENDBRANCH  29  31
ENDBRANCH  26  29
ENDBRANCH   1  25
TORSDOF 7
ENDMDL
MODEL 5
REMARK VINA RESULT: -6.382155343      2.782      5.093
REMARK  7 active torsions:
REMARK  status: ('A' for Active; 'I' for Inactive)
REMARK    1  A    between atoms: C2_2  and  C3_3 
REMARK    2  A    between atoms: C3_3  and  C4_4 
REMARK    3  A    between atoms: C4_4  and  C6_6 
REMARK       I    between atoms: C6_6  and  N1_8 
REMARK    4  A    between atoms: N1_8  and  C7_10 
REMARK    5  A    between atoms: C8_11  and  N2_12 
REMARK       I    between atoms: N2_12  and  C9_13 
REMARK    6  A    between atoms: N2_12  and  C12_22 
REMARK    7  A    between atoms: C9_13  and  C10_15 
ROOT
HETATM    1  C7  UNL     1     -11.658 -56.544 -32.400  1.00  0.00     0.084 A 
HETATM    2  C8  UNL     1     -11.654 -56.992 -33.698  1.00  0.00     0.068 A 
HETATM    3  C17 UNL     1     -10.884 -56.333 -34.675  1.00  0.00     0.056 A 
HETATM    4  C18 UNL     1     -10.123 -55.241 -34.337  1.00  0.00     0.007 A 
HETATM    5  C19 UNL     1      -9.298 -54.527 -35.374  1.00  0.00     0.068 C 
HETATM    6  N5  UNL     1     -10.135 -54.823 -33.099  1.00  0.00    -0.362 N 
ATOM      7  H5  UNL     1      -9.569 -54.010 -32.855  1.00  0.00     0.165 HD
HETATM    8  C20 UNL     1     -10.851 -55.410 -32.139  1.00  0.00     0.035 A 
HETATM    9  C21 UNL     1     -10.805 -54.878 -30.752  1.00  0.00     0.070 C 
ENDROOT
BRANCH   2  10
HETATM   10  N2  UNL     1     -12.411 -58.124 -34.123  1.00  0.00    -0.305 N 
HETATM   11  C9  UNL     1     -13.803 -57.909 -34.119  1.00  0.00     0.277 C 
HETATM   12  O2  UNL     1     -14.183 -56.692 -34.026  1.00  0.00    -0.265 OA
BRANCH  11  13
HETATM   13  C10 UNL     1     -14.874 -58.923 -34.213  1.00  0.00     0.124 A 
HETATM   14  C11 UNL     1     -15.175 -59.733 -33.131  1.00  0.00     0.106 A 
HETATM   15  S1  UNL     1     -16.471 -60.681 -33.755  1.00  0.00    -0.008 SA
HETATM   16  N3  UNL     1     -16.537 -60.010 -35.285  1.00  0.00    -0.269 N 
HETATM   17  N4  UNL     1     -15.611 -59.126 -35.268  1.00  0.00    -0.289 N 
ATOM     18  H3  UNL     1     -17.166 -60.248 -36.052  1.00  0.00     0.195 HD
ATOM     19  H4  UNL     1     -15.446 -58.564 -36.103  1.00  0.00     0.188 HD
ENDBRANCH  11  13
BRANCH  10  20
HETATM   20  C12 UNL     1     -11.836 -59.310 -34.674  1.00  0.00     0.093 C 
HETATM   21  C13 UNL     1     -11.624 -59.284 -36.183  1.00  0.00     0.026 C 
HETATM   22  C14 UNL     1     -12.741 -60.176 -36.707  1.00  0.00     0.002 C 
HETATM   23  C15 UNL     1     -12.575 -61.349 -35.772  1.00  0.00     0.002 C 
HETATM   24  C16 UNL     1     -12.512 -60.599 -34.419  1.00  0.00     0.026 C 
ENDBRANCH  10  20
ENDBRANCH   2  10
BRANCH   1  25
HETATM   25  N1  UNL     1     -12.433 -56.944 -31.335  1.00  0.00    -0.319 N 
HETATM   26  C6  UNL     1     -13.563 -56.519 -30.651  1.00  0.00     0.259 C 
HETATM   27  O1  UNL     1     -14.133 -55.447 -30.935  1.00  0.00    -0.267 OA
ATOM     28  H1  UNL     1     -12.068 -57.806 -30.929  1.00  0.00     0.169 HD
BRANCH  26  29
HETATM   29  C4  UNL     1     -14.179 -57.294 -29.529  1.00  0.00     0.047 C 
HETATM   30  C5  UNL     1     -15.011 -58.421 -29.885  1.00  0.00     0.063 C 
BRANCH  29  31
HETATM   31  C3  UNL     1     -14.025 -56.776 -28.288  1.00  0.00    -0.144 C 
BRANCH  31  32
HETATM   32  C2  UNL     1     -13.829 -56.406 -27.032  1.00  0.00     0.081 C 
HETATM   33  C1  UNL     1     -12.440 -55.710 -26.802  1.00  0.00     0.017 C 
ENDBRANCH  31  32
ENDBRANCH  29  31
ENDBRANCH  26  29
ENDBRANCH   1  25
TORSDOF 7
ENDMDL
