MODEL 1
REMARK VINA RESULT: -5.902842022      0.000      0.000
REMARK  7 active torsions:
REMARK  status: ('A' for Active; 'I' for Inactive)
REMARK    1  A    between atoms: C2_2  and  C3_3 
REMARK    2  A    between atoms: C3_3  and  C4_4 
REMARK    3  A    between atoms: C4_4  and  C5_5 
REMARK    4  A    between atoms: C5_5  and  C6_6 
REMARK    5  A    between atoms: C6_6  and  C7_7 
REMARK    6  A    between atoms: N2_17  and  C13_18 
REMARK    7  A    between atoms: C22_30  and  O2_31 
ROOT
HETATM    1  C7  UNL     1     -15.311 -57.631 -28.266  1.00  0.00     0.093 A 
HETATM    2  N1  UNL     1     -14.284 -56.761 -28.497  1.00  0.00    -0.339 N 
ATOM      3  H1  UNL     1     -13.991 -56.135 -27.747  1.00  0.00     0.168 HD
HETATM    4  C8  UNL     1     -13.637 -56.701 -29.696  1.00  0.00     0.092 A 
HETATM    5  S1  UNL     1     -12.346 -55.767 -30.327  1.00  0.00    -0.073 SA
HETATM    6  C9  UNL     1     -12.274 -56.422 -31.890  1.00  0.00     0.021 A 
HETATM    7  C10 UNL     1     -13.265 -57.364 -31.889  1.00  0.00    -0.024 A 
HETATM    8  C11 UNL     1     -13.978 -57.507 -30.736  1.00  0.00     0.074 A 
HETATM    9  C12 UNL     1     -15.037 -58.403 -30.491  1.00  0.00     0.268 A 
HETATM   10  O1  UNL     1     -15.460 -59.206 -31.352  1.00  0.00    -0.267 OA
HETATM   11  N2  UNL     1     -15.645 -58.420 -29.277  1.00  0.00    -0.250 N 
HETATM   12  C19 UNL     1     -13.373 -58.082 -33.232  1.00  0.00     0.041 C 
HETATM   13  C20 UNL     1     -13.447 -57.062 -34.351  1.00  0.00     0.007 C 
HETATM   14  C21 UNL     1     -12.367 -56.039 -34.279  1.00  0.00     0.037 C 
HETATM   15  C22 UNL     1     -11.438 -56.207 -33.130  1.00  0.00     0.158 C 
ENDROOT
BRANCH  11  16
HETATM   16  C13 UNL     1     -16.690 -59.392 -29.124  1.00  0.00     0.140 A 
HETATM   17  C14 UNL     1     -16.530 -60.712 -28.769  1.00  0.00     0.008 A 
HETATM   18  C15 UNL     1     -15.275 -61.455 -28.452  1.00  0.00     0.054 C 
HETATM   19  C16 UNL     1     -17.779 -61.320 -28.714  1.00  0.00     0.032 A 
HETATM   20  C17 UNL     1     -18.066 -62.738 -28.373  1.00  0.00     0.070 C 
HETATM   21  N3  UNL     1     -18.646 -60.355 -29.033  1.00  0.00    -0.301 N 
HETATM   22  N4  UNL     1     -18.013 -59.218 -29.276  1.00  0.00    -0.280 N 
ATOM     23  H3  UNL     1     -19.657 -60.477 -29.084  1.00  0.00     0.187 HD
HETATM   24  C18 UNL     1     -18.664 -57.950 -29.629  1.00  0.00     0.179 C 
ENDBRANCH  11  16
BRANCH   1  25
HETATM   25  C6  UNL     1     -15.974 -57.681 -26.949  1.00  0.00     0.077 C 
BRANCH  25  26
HETATM   26  C5  UNL     1     -15.296 -58.539 -25.926  1.00  0.00     0.007 C 
BRANCH  26  27
HETATM   27  C4  UNL     1     -16.147 -59.581 -25.282  1.00  0.00     0.000 C 
BRANCH  27  28
HETATM   28  C3  UNL     1     -15.408 -60.789 -24.784  1.00  0.00    -0.000 C 
BRANCH  28  29
HETATM   29  C2  UNL     1     -16.376 -61.961 -24.842  1.00  0.00    -0.005 C 
HETATM   30  C1  UNL     1     -17.812 -61.435 -24.909  1.00  0.00     0.005 C 
ENDBRANCH  28  29
ENDBRANCH  27  28
ENDBRANCH  26  27
ENDBRANCH  25  26
ENDBRANCH   1  25
BRANCH  15  31
HETATM   31  O2  UNL     1     -10.583 -57.276 -33.243  1.00  0.00    -0.390 OA
ATOM     32  H2  UNL     1     -10.504 -57.483 -34.167  1.00  0.00     0.210 HD
ENDBRANCH  15  31
TORSDOF 7
ENDMDL
MODEL 2
REMARK VINA RESULT: -5.813432081      2.189      3.585
REMARK  7 active torsions:
REMARK  status: ('A' for Active; 'I' for Inactive)
REMARK    1  A    between atoms: C2_2  and  C3_3 
REMARK    2  A    between atoms: C3_3  and  C4_4 
REMARK    3  A    between atoms: C4_4  and  C5_5 
REMARK    4  A    between atoms: C5_5  and  C6_6 
REMARK    5  A    between atoms: C6_6  and  C7_7 
REMARK    6  A    between atoms: N2_17  and  C13_18 
REMARK    7  A    between atoms: C22_30  and  O2_31 
ROOT
HETATM    1  C7  UNL     1     -14.678 -57.888 -29.643  1.00  0.00     0.093 A 
HETATM    2  N1  UNL     1     -13.777 -57.297 -30.481  1.00  0.00    -0.339 N 
ATOM      3  H1  UNL     1     -13.146 -56.589 -30.106  1.00  0.00     0.168 HD
HETATM    4  C8  UNL     1     -13.692 -57.620 -31.803  1.00  0.00     0.092 A 
HETATM    5  S1  UNL     1     -12.715 -57.104 -33.113  1.00  0.00    -0.073 SA
HETATM    6  C9  UNL     1     -13.360 -58.085 -34.337  1.00  0.00     0.021 A 
HETATM    7  C10 UNL     1     -14.332 -58.802 -33.696  1.00  0.00    -0.024 A 
HETATM    8  C11 UNL     1     -14.503 -58.554 -32.366  1.00  0.00     0.074 A 
HETATM    9  C12 UNL     1     -15.429 -59.162 -31.496  1.00  0.00     0.268 A 
HETATM   10  O1  UNL     1     -16.239 -60.039 -31.871  1.00  0.00    -0.267 OA
HETATM   11  N2  UNL     1     -15.469 -58.801 -30.187  1.00  0.00    -0.250 N 
HETATM   12  C19 UNL     1     -15.052 -59.761 -34.640  1.00  0.00     0.041 C 
HETATM   13  C20 UNL     1     -15.507 -59.013 -35.878  1.00  0.00     0.007 C 
HETATM   14  C21 UNL     1     -14.419 -58.219 -36.512  1.00  0.00     0.037 C 
HETATM   15  C22 UNL     1     -13.109 -58.305 -35.811  1.00  0.00     0.158 C 
ENDROOT
BRANCH  11  16
HETATM   16  C13 UNL     1     -16.428 -59.503 -29.383  1.00  0.00     0.140 A 
HETATM   17  C14 UNL     1     -16.227 -60.701 -28.735  1.00  0.00     0.008 A 
HETATM   18  C15 UNL     1     -15.002 -61.553 -28.691  1.00  0.00     0.054 C 
HETATM   19  C16 UNL     1     -17.387 -61.046 -28.051  1.00  0.00     0.032 A 
HETATM   20  C17 UNL     1     -17.607 -62.260 -27.223  1.00  0.00     0.070 C 
HETATM   21  N3  UNL     1     -18.243 -60.052 -28.304  1.00  0.00    -0.301 N 
HETATM   22  N4  UNL     1     -17.686 -59.141 -29.086  1.00  0.00    -0.280 N 
ATOM     23  H3  UNL     1     -19.196 -60.002 -27.944  1.00  0.00     0.187 HD
HETATM   24  C18 UNL     1     -18.339 -57.906 -29.539  1.00  0.00     0.179 C 
ENDBRANCH  11  16
BRANCH   1  25
HETATM   25  C6  UNL     1     -14.727 -57.526 -28.213  1.00  0.00     0.077 C 
BRANCH  25  26
HETATM   26  C5  UNL     1     -13.982 -56.281 -27.844  1.00  0.00     0.007 C 
BRANCH  26  27
HETATM   27  C4  UNL     1     -13.211 -56.338 -26.569  1.00  0.00     0.000 C 
BRANCH  27  28
HETATM   28  C3  UNL     1     -12.277 -55.185 -26.337  1.00  0.00    -0.000 C 
BRANCH  28  29
HETATM   29  C2  UNL     1     -10.869 -55.687 -26.624  1.00  0.00    -0.005 C 
HETATM   30  C1  UNL     1     -10.228 -54.816 -27.707  1.00  0.00     0.005 C 
ENDBRANCH  28  29
ENDBRANCH  27  28
ENDBRANCH  26  27
ENDBRANCH  25  26
ENDBRANCH   1  25
BRANCH  15  31
HETATM   31  O2  UNL     1     -12.471 -59.513 -35.946  1.00  0.00    -0.390 OA
ATOM     32  H2  UNL     1     -12.857 -59.958 -36.690  1.00  0.00     0.210 HD
ENDBRANCH  15  31
TORSDOF 7
ENDMDL
MODEL 3
REMARK VINA RESULT: -5.810780520      4.133      7.375
REMARK  7 active torsions:
REMARK  status: ('A' for Active; 'I' for Inactive)
REMARK    1  A    between atoms: C2_2  and  C3_3 
REMARK    2  A    between atoms: C3_3  and  C4_4 
REMARK    3  A    between atoms: C4_4  and  C5_5 
REMARK    4  A    between atoms: C5_5  and  C6_6 
REMARK    5  A    between atoms: C6_6  and  C7_7 
REMARK    6  A    between atoms: N2_17  and  C13_18 
REMARK    7  A    between atoms: C22_30  and  O2_31 
ROOT
HETATM    1  C7  UNL     1     -12.686 -56.337 -32.593  1.00  0.00     0.093 A 
HETATM    2  N1  UNL     1     -13.726 -57.183 -32.853  1.00  0.00    -0.339 N 
ATOM      3  H1  UNL     1     -14.641 -56.978 -32.451  1.00  0.00     0.168 HD
HETATM    4  C8  UNL     1     -13.583 -58.293 -33.632  1.00  0.00     0.092 A 
HETATM    5  S1  UNL     1     -14.631 -59.542 -34.161  1.00  0.00    -0.073 SA
HETATM    6  C9  UNL     1     -13.533 -60.448 -35.083  1.00  0.00     0.021 A 
HETATM    7  C10 UNL     1     -12.361 -59.753 -34.960  1.00  0.00    -0.024 A 
HETATM    8  C11 UNL     1     -12.392 -58.623 -34.198  1.00  0.00     0.074 A 
HETATM    9  C12 UNL     1     -11.324 -57.746 -33.926  1.00  0.00     0.268 A 
HETATM   10  O1  UNL     1     -10.170 -57.920 -34.379  1.00  0.00    -0.267 OA
HETATM   11  N2  UNL     1     -11.523 -56.655 -33.144  1.00  0.00    -0.250 N 
HETATM   12  C19 UNL     1     -11.220 -60.417 -35.727  1.00  0.00     0.041 C 
HETATM   13  C20 UNL     1     -11.146 -61.886 -35.361  1.00  0.00     0.007 C 
HETATM   14  C21 UNL     1     -12.457 -62.582 -35.475  1.00  0.00     0.037 C 
HETATM   15  C22 UNL     1     -13.580 -61.709 -35.914  1.00  0.00     0.158 C 
ENDROOT
BRANCH  11  16
HETATM   16  C13 UNL     1     -10.378 -55.811 -32.956  1.00  0.00     0.140 A 
HETATM   17  C14 UNL     1      -9.660 -55.658 -31.792  1.00  0.00     0.008 A 
HETATM   18  C15 UNL     1      -9.869 -56.311 -30.466  1.00  0.00     0.054 C 
HETATM   19  C16 UNL     1      -8.617 -54.767 -32.016  1.00  0.00     0.032 A 
HETATM   20  C17 UNL     1      -7.601 -54.316 -31.031  1.00  0.00     0.070 C 
HETATM   21  N3  UNL     1      -8.737 -54.416 -33.300  1.00  0.00    -0.301 N 
HETATM   22  N4  UNL     1      -9.769 -55.026 -33.859  1.00  0.00    -0.280 N 
ATOM     23  H3  UNL     1      -8.116 -53.766 -33.783  1.00  0.00     0.187 HD
HETATM   24  C18 UNL     1     -10.171 -54.885 -35.265  1.00  0.00     0.179 C 
ENDBRANCH  11  16
BRANCH   1  25
HETATM   25  C6  UNL     1     -12.884 -55.135 -31.761  1.00  0.00     0.077 C 
BRANCH  25  26
HETATM   26  C5  UNL     1     -13.803 -55.312 -30.592  1.00  0.00     0.007 C 
BRANCH  26  27
HETATM   27  C4  UNL     1     -13.291 -56.168 -29.483  1.00  0.00     0.000 C 
BRANCH  27  28
HETATM   28  C3  UNL     1     -14.326 -57.015 -28.802  1.00  0.00    -0.000 C 
BRANCH  28  29
HETATM   29  C2  UNL     1     -14.251 -56.704 -27.315  1.00  0.00    -0.005 C 
HETATM   30  C1  UNL     1     -12.959 -55.938 -27.018  1.00  0.00     0.005 C 
ENDBRANCH  28  29
ENDBRANCH  27  28
ENDBRANCH  26  27
ENDBRANCH  25  26
ENDBRANCH   1  25
BRANCH  15  31
HETATM   31  O2  UNL     1     -13.526 -61.337 -37.234  1.00  0.00    -0.390 OA
ATOM     32  H2  UNL     1     -13.978 -62.003 -37.738  1.00  0.00     0.210 HD
ENDBRANCH  15  31
TORSDOF 7
ENDMDL
MODEL 4
REMARK VINA RESULT: -5.762337684      2.296      3.915
REMARK  7 active torsions:
REMARK  status: ('A' for Active; 'I' for Inactive)
REMARK    1  A    between atoms: C2_2  and  C3_3 
REMARK    2  A    between atoms: C3_3  and  C4_4 
REMARK    3  A    between atoms: C4_4  and  C5_5 
REMARK    4  A    between atoms: C5_5  and  C6_6 
REMARK    5  A    between atoms: C6_6  and  C7_7 
REMARK    6  A    between atoms: N2_17  and  C13_18 
REMARK    7  A    between atoms: C22_30  and  O2_31 
ROOT
HETATM    1  C7  UNL     1     -14.674 -57.882 -29.659  1.00  0.00     0.093 A 
HETATM    2  N1  UNL     1     -13.775 -57.289 -30.499  1.00  0.00    -0.339 N 
ATOM      3  H1  UNL     1     -13.147 -56.577 -30.124  1.00  0.00     0.168 HD
HETATM    4  C8  UNL     1     -13.687 -57.614 -31.820  1.00  0.00     0.092 A 
HETATM    5  S1  UNL     1     -12.712 -57.097 -33.130  1.00  0.00    -0.073 SA
HETATM    6  C9  UNL     1     -13.352 -58.083 -34.353  1.00  0.00     0.021 A 
HETATM    7  C10 UNL     1     -14.321 -58.802 -33.711  1.00  0.00    -0.024 A 
HETATM    8  C11 UNL     1     -14.494 -58.553 -32.381  1.00  0.00     0.074 A 
HETATM    9  C12 UNL     1     -15.418 -59.162 -31.511  1.00  0.00     0.268 A 
HETATM   10  O1  UNL     1     -16.224 -60.044 -31.884  1.00  0.00    -0.267 OA
HETATM   11  N2  UNL     1     -15.461 -58.800 -30.203  1.00  0.00    -0.250 N 
HETATM   12  C19 UNL     1     -15.037 -59.767 -34.653  1.00  0.00     0.041 C 
HETATM   13  C20 UNL     1     -15.494 -59.023 -35.893  1.00  0.00     0.007 C 
HETATM   14  C21 UNL     1     -14.408 -58.226 -36.527  1.00  0.00     0.037 C 
HETATM   15  C22 UNL     1     -13.099 -58.305 -35.826  1.00  0.00     0.158 C 
ENDROOT
BRANCH  11  16
HETATM   16  C13 UNL     1     -16.417 -59.504 -29.397  1.00  0.00     0.140 A 
HETATM   17  C14 UNL     1     -17.706 -59.105 -29.127  1.00  0.00     0.008 A 
HETATM   18  C15 UNL     1     -18.430 -57.885 -29.590  1.00  0.00     0.054 C 
HETATM   19  C16 UNL     1     -18.317 -60.061 -28.323  1.00  0.00     0.032 A 
HETATM   20  C17 UNL     1     -19.705 -60.028 -27.796  1.00  0.00     0.070 C 
HETATM   21  N3  UNL     1     -17.384 -60.999 -28.137  1.00  0.00    -0.301 N 
HETATM   22  N4  UNL     1     -16.264 -60.679 -28.765  1.00  0.00    -0.280 N 
ATOM     23  H3  UNL     1     -17.516 -61.847 -27.585  1.00  0.00     0.187 HD
HETATM   24  C18 UNL     1     -15.047 -61.500 -28.791  1.00  0.00     0.179 C 
ENDBRANCH  11  16
BRANCH   1  25
HETATM   25  C6  UNL     1     -14.725 -57.517 -28.231  1.00  0.00     0.077 C 
BRANCH  25  26
HETATM   26  C5  UNL     1     -13.973 -56.276 -27.862  1.00  0.00     0.007 C 
BRANCH  26  27
HETATM   27  C4  UNL     1     -13.211 -56.333 -26.581  1.00  0.00     0.000 C 
BRANCH  27  28
HETATM   28  C3  UNL     1     -12.276 -55.183 -26.344  1.00  0.00    -0.000 C 
BRANCH  28  29
HETATM   29  C2  UNL     1     -10.867 -55.687 -26.622  1.00  0.00    -0.005 C 
HETATM   30  C1  UNL     1     -10.240 -54.860 -27.746  1.00  0.00     0.005 C 
ENDBRANCH  28  29
ENDBRANCH  27  28
ENDBRANCH  26  27
ENDBRANCH  25  26
ENDBRANCH   1  25
BRANCH  15  31
HETATM   31  O2  UNL     1     -12.455 -59.510 -35.958  1.00  0.00    -0.390 OA
ATOM     32  H2  UNL     1     -12.719 -59.886 -36.790  1.00  0.00     0.210 HD
ENDBRANCH  15  31
TORSDOF 7
ENDMDL
MODEL 5
REMARK VINA RESULT: -5.738156522      0.964      1.722
REMARK  7 active torsions:
REMARK  status: ('A' for Active; 'I' for Inactive)
REMARK    1  A    between atoms: C2_2  and  C3_3 
REMARK    2  A    between atoms: C3_3  and  C4_4 
REMARK    3  A    between atoms: C4_4  and  C5_5 
REMARK    4  A    between atoms: C5_5  and  C6_6 
REMARK    5  A    between atoms: C6_6  and  C7_7 
REMARK    6  A    between atoms: N2_17  and  C13_18 
REMARK    7  A    between atoms: C22_30  and  O2_31 
ROOT
HETATM    1  C7  UNL     1     -15.082 -57.402 -28.255  1.00  0.00     0.093 A 
HETATM    2  N1  UNL     1     -14.040 -56.556 -28.506  1.00  0.00    -0.339 N 
ATOM      3  H1  UNL     1     -13.732 -55.922 -27.769  1.00  0.00     0.168 HD
HETATM    4  C8  UNL     1     -13.397 -56.530 -29.708  1.00  0.00     0.092 A 
HETATM    5  S1  UNL     1     -12.091 -55.634 -30.362  1.00  0.00    -0.073 SA
HETATM    6  C9  UNL     1     -12.038 -56.320 -31.912  1.00  0.00     0.021 A 
HETATM    7  C10 UNL     1     -13.047 -57.242 -31.890  1.00  0.00    -0.024 A 
HETATM    8  C11 UNL     1     -13.758 -57.349 -30.731  1.00  0.00     0.074 A 
HETATM    9  C12 UNL     1     -14.833 -58.220 -30.466  1.00  0.00     0.268 A 
HETATM   10  O1  UNL     1     -15.274 -59.032 -31.310  1.00  0.00    -0.267 OA
HETATM   11  N2  UNL     1     -15.436 -58.204 -29.249  1.00  0.00    -0.250 N 
HETATM   12  C19 UNL     1     -13.174 -57.983 -33.218  1.00  0.00     0.041 C 
HETATM   13  C20 UNL     1     -13.233 -56.983 -34.356  1.00  0.00     0.007 C 
HETATM   14  C21 UNL     1     -12.134 -55.980 -34.308  1.00  0.00     0.037 C 
HETATM   15  C22 UNL     1     -11.203 -56.144 -33.159  1.00  0.00     0.158 C 
ENDROOT
BRANCH  11  16
HETATM   16  C13 UNL     1     -16.498 -59.152 -29.074  1.00  0.00     0.140 A 
HETATM   17  C14 UNL     1     -17.845 -58.898 -29.195  1.00  0.00     0.008 A 
HETATM   18  C15 UNL     1     -18.534 -57.619 -29.538  1.00  0.00     0.054 C 
HETATM   19  C16 UNL     1     -18.551 -60.073 -28.964  1.00  0.00     0.032 A 
HETATM   20  C17 UNL     1     -20.026 -60.249 -28.992  1.00  0.00     0.070 C 
HETATM   21  N3  UNL     1     -17.613 -60.992 -28.713  1.00  0.00    -0.301 N 
HETATM   22  N4  UNL     1     -16.404 -60.458 -28.777  1.00  0.00    -0.280 N 
ATOM     23  H3  UNL     1     -17.804 -61.972 -28.503  1.00  0.00     0.187 HD
HETATM   24  C18 UNL     1     -15.147 -61.192 -28.579  1.00  0.00     0.179 C 
ENDBRANCH  11  16
BRANCH   1  25
HETATM   25  C6  UNL     1     -15.741 -57.415 -26.935  1.00  0.00     0.077 C 
BRANCH  25  26
HETATM   26  C5  UNL     1     -15.224 -58.441 -25.974  1.00  0.00     0.007 C 
BRANCH  26  27
HETATM   27  C4  UNL     1     -16.240 -59.379 -25.415  1.00  0.00     0.000 C 
BRANCH  27  28
HETATM   28  C3  UNL     1     -15.679 -60.605 -24.754  1.00  0.00    -0.000 C 
BRANCH  28  29
HETATM   29  C2  UNL     1     -16.634 -60.985 -23.632  1.00  0.00    -0.005 C 
HETATM   30  C1  UNL     1     -17.036 -59.728 -22.857  1.00  0.00     0.005 C 
ENDBRANCH  28  29
ENDBRANCH  27  28
ENDBRANCH  26  27
ENDBRANCH  25  26
ENDBRANCH   1  25
BRANCH  15  31
HETATM   31  O2  UNL     1     -10.369 -57.231 -33.255  1.00  0.00    -0.390 OA
ATOM     32  H2  UNL     1      -9.694 -57.133 -32.595  1.00  0.00     0.210 HD
ENDBRANCH  15  31
TORSDOF 7
ENDMDL
