MODEL 1
REMARK VINA RESULT: -5.129784111      0.000      0.000
REMARK  4 active torsions:
REMARK  status: ('A' for Active; 'I' for Inactive)
REMARK    1  A    between atoms: C2_2  and  N1_4 
REMARK    2  A    between atoms: C6_9  and  C7_10 
REMARK    3  A    between atoms: C7_10  and  N2_11 
REMARK       I    between atoms: N3_15  and  C11_16 
REMARK    4  A    between atoms: C11_16  and  C12_18 
ROOT
HETATM    1  N1  UNL     1      10.221 -15.966  -3.876  1.00  0.00    -0.367 N 
ATOM      2  H1  UNL     1       9.345 -15.462  -3.743  1.00  0.00     0.162 HD
HETATM    3  C4  UNL     1      11.059 -15.467  -4.675  1.00  0.00     0.145 C 
HETATM    4  S1  UNL     1      12.657 -16.170  -5.065  1.00  0.00    -0.092 SA
HETATM    5  C5  UNL     1      13.187 -14.746  -6.118  1.00  0.00     0.110 C 
HETATM    6  C6  UNL     1      11.810 -14.302  -6.576  1.00  0.00     0.133 C 
HETATM    7  N3  UNL     1      10.946 -14.282  -5.426  1.00  0.00    -0.290 N 
HETATM    8  C11 UNL     1      10.096 -13.202  -5.111  1.00  0.00     0.234 C 
HETATM    9  O1  UNL     1       9.369 -13.339  -4.053  1.00  0.00    -0.272 OA
ENDROOT
BRANCH   6  10
HETATM   10  C7  UNL     1      11.345 -15.444  -7.497  1.00  0.00     0.298 C 
BRANCH  10  11
HETATM   11  N2  UNL     1      10.639 -14.827  -8.577  1.00  0.00     0.090 N 
HETATM   12  C8  UNL     1      10.667 -15.590  -9.835  1.00  0.00     0.274 C 
HETATM   13  C9  UNL     1      10.535 -14.227 -10.529  1.00  0.00     0.060 C 
HETATM   14  C10 UNL     1      11.362 -13.791  -9.308  1.00  0.00     0.274 C 
ENDBRANCH  10  11
ENDBRANCH   6  10
BRANCH   8  15
HETATM   15  C12 UNL     1       9.962 -11.933  -5.872  1.00  0.00     0.030 C 
HETATM   16  C13 UNL     1      11.241 -11.371  -6.386  1.00  0.00     0.025 C 
HETATM   17  C14 UNL     1       9.297 -10.865  -5.008  1.00  0.00     0.025 C 
HETATM   18  C15 UNL     1       9.027 -12.162  -7.028  1.00  0.00     0.025 C 
ENDBRANCH   8  15
BRANCH   1  19
HETATM   19  C2  UNL     1      10.397 -17.187  -3.135  1.00  0.00     0.075 C 
HETATM   20  C1  UNL     1       9.343 -18.217  -3.411  1.00  0.00     0.032 C 
HETATM   21  C3  UNL     1      10.441 -16.912  -1.649  1.00  0.00     0.032 C 
ENDBRANCH   1  19
TORSDOF 4
ENDMDL
MODEL 2
REMARK VINA RESULT: -5.072837076      3.192      4.923
REMARK  4 active torsions:
REMARK  status: ('A' for Active; 'I' for Inactive)
REMARK    1  A    between atoms: C2_2  and  N1_4 
REMARK    2  A    between atoms: C6_9  and  C7_10 
REMARK    3  A    between atoms: C7_10  and  N2_11 
REMARK       I    between atoms: N3_15  and  C11_16 
REMARK    4  A    between atoms: C11_16  and  C12_18 
ROOT
HETATM    1  N1  UNL     1       7.094 -16.083  -6.653  1.00  0.00    -0.367 N 
ATOM      2  H1  UNL     1       7.213 -16.565  -5.763  1.00  0.00     0.162 HD
HETATM    3  C4  UNL     1       7.988 -15.258  -6.986  1.00  0.00     0.145 C 
HETATM    4  S1  UNL     1       7.994 -14.300  -8.496  1.00  0.00    -0.092 SA
HETATM    5  C5  UNL     1       9.662 -13.563  -8.193  1.00  0.00     0.110 C 
HETATM    6  C6  UNL     1       9.636 -13.609  -6.676  1.00  0.00     0.133 C 
HETATM    7  N3  UNL     1       9.152 -14.904  -6.280  1.00  0.00    -0.290 N 
HETATM    8  C11 UNL     1       9.778 -15.701  -5.300  1.00  0.00     0.234 C 
HETATM    9  O1  UNL     1       9.216 -16.834  -5.042  1.00  0.00    -0.272 OA
ENDROOT
BRANCH   6  10
HETATM   10  C7  UNL     1       8.566 -12.568  -6.298  1.00  0.00     0.298 C 
BRANCH  10  11
HETATM   11  N2  UNL     1       9.247 -11.534  -5.581  1.00  0.00     0.090 N 
HETATM   12  C8  UNL     1       9.235 -10.223  -6.250  1.00  0.00     0.274 C 
HETATM   13  C9  UNL     1      10.565  -9.973  -5.526  1.00  0.00     0.060 C 
HETATM   14  C10 UNL     1      10.697 -11.490  -5.741  1.00  0.00     0.274 C 
ENDBRANCH  10  11
ENDBRANCH   6  10
BRANCH   8  15
HETATM   15  C12 UNL     1      11.013 -15.364  -4.546  1.00  0.00     0.030 C 
HETATM   16  C13 UNL     1      12.149 -14.890  -5.382  1.00  0.00     0.025 C 
HETATM   17  C14 UNL     1      11.494 -16.576  -3.751  1.00  0.00     0.025 C 
HETATM   18  C15 UNL     1      10.682 -14.311  -3.524  1.00  0.00     0.025 C 
ENDBRANCH   8  15
BRANCH   1  19
HETATM   19  C2  UNL     1       5.921 -16.402  -7.423  1.00  0.00     0.075 C 
HETATM   20  C1  UNL     1       4.686 -16.580  -6.594  1.00  0.00     0.032 C 
HETATM   21  C3  UNL     1       6.145 -17.648  -8.250  1.00  0.00     0.032 C 
ENDBRANCH   1  19
TORSDOF 4
ENDMDL
MODEL 3
REMARK VINA RESULT: -4.964230257      0.662      1.226
REMARK  4 active torsions:
REMARK  status: ('A' for Active; 'I' for Inactive)
REMARK    1  A    between atoms: C2_2  and  N1_4 
REMARK    2  A    between atoms: C6_9  and  C7_10 
REMARK    3  A    between atoms: C7_10  and  N2_11 
REMARK       I    between atoms: N3_15  and  C11_16 
REMARK    4  A    between atoms: C11_16  and  C12_18 
ROOT
HETATM    1  N1  UNL     1      10.238 -15.949  -3.851  1.00  0.00    -0.367 N 
ATOM      2  H1  UNL     1       9.360 -15.449  -3.718  1.00  0.00     0.162 HD
HETATM    3  C4  UNL     1      11.064 -15.456  -4.667  1.00  0.00     0.145 C 
HETATM    4  S1  UNL     1      12.664 -16.155  -5.061  1.00  0.00    -0.092 SA
HETATM    5  C5  UNL     1      13.175 -14.745  -6.141  1.00  0.00     0.110 C 
HETATM    6  C6  UNL     1      11.790 -14.317  -6.593  1.00  0.00     0.133 C 
HETATM    7  N3  UNL     1      10.936 -14.285  -5.435  1.00  0.00    -0.290 N 
HETATM    8  C11 UNL     1      10.082 -13.206  -5.130  1.00  0.00     0.234 C 
HETATM    9  O1  UNL     1       9.366 -13.331  -4.063  1.00  0.00    -0.272 OA
ENDROOT
BRANCH   6  10
HETATM   10  C7  UNL     1      11.324 -15.478  -7.491  1.00  0.00     0.298 C 
BRANCH  10  11
HETATM   11  N2  UNL     1      10.339 -14.933  -8.373  1.00  0.00     0.090 N 
HETATM   12  C8  UNL     1       9.029 -15.601  -8.309  1.00  0.00     0.274 C 
HETATM   13  C9  UNL     1       8.870 -15.173  -9.775  1.00  0.00     0.060 C 
HETATM   14  C10 UNL     1      10.391 -15.391  -9.758  1.00  0.00     0.274 C 
ENDBRANCH  10  11
ENDBRANCH   6  10
BRANCH   8  15
HETATM   15  C12 UNL     1       9.932 -11.951  -5.910  1.00  0.00     0.030 C 
HETATM   16  C13 UNL     1       9.151 -12.084  -7.170  1.00  0.00     0.025 C 
HETATM   17  C14 UNL     1      11.303 -11.384  -6.269  1.00  0.00     0.025 C 
HETATM   18  C15 UNL     1       9.280 -10.915  -5.035  1.00  0.00     0.025 C 
ENDBRANCH   8  15
BRANCH   1  19
HETATM   19  C2  UNL     1      10.430 -17.157  -3.093  1.00  0.00     0.075 C 
HETATM   20  C1  UNL     1       9.411 -18.217  -3.381  1.00  0.00     0.032 C 
HETATM   21  C3  UNL     1      10.432 -16.864  -1.610  1.00  0.00     0.032 C 
ENDBRANCH   1  19
TORSDOF 4
ENDMDL
MODEL 4
REMARK VINA RESULT: -4.851410444      2.135      5.379
REMARK  4 active torsions:
REMARK  status: ('A' for Active; 'I' for Inactive)
REMARK    1  A    between atoms: C2_2  and  N1_4 
REMARK    2  A    between atoms: C6_9  and  C7_10 
REMARK    3  A    between atoms: C7_10  and  N2_11 
REMARK       I    between atoms: N3_15  and  C11_16 
REMARK    4  A    between atoms: C11_16  and  C12_18 
ROOT
HETATM    1  N1  UNL     1      10.675 -13.330  -5.258  1.00  0.00    -0.367 N 
ATOM      2  H1  UNL     1      10.625 -13.227  -4.245  1.00  0.00     0.162 HD
HETATM    3  C4  UNL     1      10.947 -14.476  -5.708  1.00  0.00     0.145 C 
HETATM    4  S1  UNL     1      11.088 -14.895  -7.442  1.00  0.00    -0.092 SA
HETATM    5  C5  UNL     1      11.326 -16.702  -7.135  1.00  0.00     0.110 C 
HETATM    6  C6  UNL     1      11.964 -16.597  -5.762  1.00  0.00     0.133 C 
HETATM    7  N3  UNL     1      11.197 -15.658  -4.987  1.00  0.00    -0.290 N 
HETATM    8  C11 UNL     1      10.764 -15.909  -3.670  1.00  0.00     0.234 C 
HETATM    9  O1  UNL     1      10.097 -14.963  -3.099  1.00  0.00    -0.272 OA
ENDROOT
BRANCH   6  10
HETATM   10  C7  UNL     1      13.339 -15.963  -6.045  1.00  0.00     0.298 C 
BRANCH  10  11
HETATM   11  N2  UNL     1      14.306 -17.000  -5.855  1.00  0.00     0.090 N 
HETATM   12  C8  UNL     1      15.322 -16.703  -4.833  1.00  0.00     0.274 C 
HETATM   13  C9  UNL     1      16.244 -17.616  -5.652  1.00  0.00     0.060 C 
HETATM   14  C10 UNL     1      15.415 -17.027  -6.804  1.00  0.00     0.274 C 
ENDBRANCH  10  11
ENDBRANCH   6  10
BRANCH   8  15
HETATM   15  C12 UNL     1      10.998 -17.149  -2.885  1.00  0.00     0.030 C 
HETATM   16  C13 UNL     1      12.413 -17.604  -2.837  1.00  0.00     0.025 C 
HETATM   17  C14 UNL     1      10.157 -18.295  -3.442  1.00  0.00     0.025 C 
HETATM   18  C15 UNL     1      10.506 -16.929  -1.480  1.00  0.00     0.025 C 
ENDBRANCH   8  15
BRANCH   1  19
HETATM   19  C2  UNL     1      10.429 -12.156  -6.053  1.00  0.00     0.075 C 
HETATM   20  C1  UNL     1      11.094 -10.921  -5.524  1.00  0.00     0.032 C 
HETATM   21  C3  UNL     1       8.946 -11.900  -6.186  1.00  0.00     0.032 C 
ENDBRANCH   1  19
TORSDOF 4
ENDMDL
MODEL 5
REMARK VINA RESULT: -4.718553421      2.836      5.264
REMARK  4 active torsions:
REMARK  status: ('A' for Active; 'I' for Inactive)
REMARK    1  A    between atoms: C2_2  and  N1_4 
REMARK    2  A    between atoms: C6_9  and  C7_10 
REMARK    3  A    between atoms: C7_10  and  N2_11 
REMARK       I    between atoms: N3_15  and  C11_16 
REMARK    4  A    between atoms: C11_16  and  C12_18 
ROOT
HETATM    1  N1  UNL     1      10.218 -10.939  -6.492  1.00  0.00    -0.367 N 
ATOM      2  H1  UNL     1      10.552 -10.649  -7.410  1.00  0.00     0.162 HD
HETATM    3  C4  UNL     1      10.191 -12.177  -6.253  1.00  0.00     0.145 C 
HETATM    4  S1  UNL     1       9.648 -12.918  -4.718  1.00  0.00    -0.092 SA
HETATM    5  C5  UNL     1      10.098 -14.639  -5.220  1.00  0.00     0.110 C 
HETATM    6  C6  UNL     1       9.929 -14.468  -6.719  1.00  0.00     0.133 C 
HETATM    7  N3  UNL     1      10.567 -13.236  -7.100  1.00  0.00    -0.290 N 
HETATM    8  C11 UNL     1      11.451 -13.124  -8.191  1.00  0.00     0.234 C 
HETATM    9  O1  UNL     1      11.932 -11.948  -8.417  1.00  0.00    -0.272 OA
ENDROOT
BRANCH   6  10
HETATM   10  C7  UNL     1       8.410 -14.288  -6.897  1.00  0.00     0.298 C 
BRANCH  10  11
HETATM   11  N2  UNL     1       7.929 -15.498  -7.490  1.00  0.00     0.090 N 
HETATM   12  C8  UNL     1       7.093 -15.298  -8.685  1.00  0.00     0.274 C 
HETATM   13  C9  UNL     1       6.413 -16.615  -8.285  1.00  0.00     0.060 C 
HETATM   14  C10 UNL     1       6.740 -16.084  -6.880  1.00  0.00     0.274 C 
ENDBRANCH  10  11
ENDBRANCH   6  10
BRANCH   8  15
HETATM   15  C12 UNL     1      11.879 -14.222  -9.096  1.00  0.00     0.030 C 
HETATM   16  C13 UNL     1      10.771 -14.933  -9.789  1.00  0.00     0.025 C 
HETATM   17  C14 UNL     1      12.687 -15.261  -8.323  1.00  0.00     0.025 C 
HETATM   18  C15 UNL     1      12.820 -13.658 -10.126  1.00  0.00     0.025 C 
ENDBRANCH   8  15
BRANCH   1  19
HETATM   19  C2  UNL     1       9.818  -9.901  -5.579  1.00  0.00     0.075 C 
HETATM   20  C1  UNL     1       8.837  -8.930  -6.162  1.00  0.00     0.032 C 
HETATM   21  C3  UNL     1      11.022  -9.142  -5.070  1.00  0.00     0.032 C 
ENDBRANCH   1  19
TORSDOF 4
ENDMDL
