MODEL 1
REMARK VINA RESULT: -8.068483236      0.000      0.000
REMARK  21 active torsions:
REMARK  status: ('A' for Active; 'I' for Inactive)
REMARK    1  A    between atoms: N1_1  and  C1_5 
REMARK    2  A    between atoms: C1_5  and  C2_6 
REMARK    3  A    between atoms: C3_8  and  O2_9 
REMARK    4  A    between atoms: O2_9  and  C4_10 
REMARK    5  A    between atoms: C5_12  and  O4_13 
REMARK    6  A    between atoms: O4_13  and  C6_14 
REMARK    7  A    between atoms: C7_16  and  C8_17 
REMARK    8  A    between atoms: C8_17  and  O7_19 
REMARK    9  A    between atoms: O7_19  and  C9_20 
REMARK   10  A    between atoms: C9_20  and  C10_21 
REMARK   11  A    between atoms: C10_21  and  C11_22 
REMARK   12  A    between atoms: C11_22  and  C12_23 
REMARK   13  A    between atoms: C13_25  and  O8_26 
REMARK   14  A    between atoms: C14_28  and  O9_29 
REMARK   15  A    between atoms: C15_31  and  N2_32 
REMARK   16  A    between atoms: C16_36  and  N3_37 
REMARK   17  A    between atoms: C18_42  and  N4_43 
REMARK   18  A    between atoms: C19_47  and  O10_48 
REMARK   19  A    between atoms: O10_48  and  C20_49 
REMARK   20  A    between atoms: C23_55  and  N6_56 
REMARK   21  A    between atoms: C24_61  and  O12_62 
ROOT
HETATM    1  C4  UNL     1       5.267 -17.179  -5.503  1.00  0.00     0.296 C 
HETATM    2  O3  UNL     1       6.334 -16.308  -5.264  1.00  0.00    -0.327 OA
HETATM    3  C5  UNL     1       7.426 -16.550  -6.144  1.00  0.00     0.296 C 
HETATM    4  C16 UNL     1       7.478 -18.028  -6.320  1.00  0.00     0.240 C 
HETATM    5  C17 UNL     1       6.374 -18.375  -7.324  1.00  0.00     0.075 C 
HETATM    6  C18 UNL     1       5.134 -17.621  -6.919  1.00  0.00     0.240 C 
ENDROOT
BRANCH   1   7
HETATM    7  O2  UNL     1       4.135 -16.468  -5.039  1.00  0.00    -0.324 OA
BRANCH   7   8
HETATM    8  C3  UNL     1       3.688 -16.954  -3.804  1.00  0.00     0.318 C 
HETATM    9  O1  UNL     1       4.750 -17.000  -2.892  1.00  0.00    -0.344 OA
HETATM   10  C2  UNL     1       4.707 -15.961  -1.978  1.00  0.00     0.205 C 
HETATM   11  C24 UNL     1       3.403 -15.889  -1.234  1.00  0.00     0.290 C 
HETATM   12  O11 UNL     1       2.388 -16.579  -1.901  1.00  0.00    -0.324 OA
HETATM   13  C19 UNL     1       2.480 -16.239  -3.278  1.00  0.00     0.321 C 
BRANCH  10  14
HETATM   14  C1  UNL     1       5.813 -16.174  -0.977  1.00  0.00     0.266 C 
BRANCH  14  15
HETATM   15  N1  UNL     1       6.121 -14.960  -0.249  1.00  0.00    -0.077 N 
ATOM     16  H13 UNL     1       5.477 -14.208  -0.493  1.00  0.00     0.274 HD
ATOM     17  H12 UNL     1       5.890 -15.052   0.741  1.00  0.00     0.274 HD
ATOM     18  H11 UNL     1       7.091 -14.676  -0.380  1.00  0.00     0.274 HD
ENDBRANCH  14  15
ENDBRANCH  10  14
BRANCH  11  19
HETATM   19  O12 UNL     1       3.489 -16.336   0.079  1.00  0.00    -0.368 OA
ATOM     20  H12 UNL     1       3.411 -15.640   0.722  1.00  0.00     0.212 HD
ENDBRANCH  11  19
BRANCH  13  21
HETATM   21  O10 UNL     1       2.592 -14.852  -3.310  1.00  0.00    -0.322 OA
BRANCH  21  22
HETATM   22  C20 UNL     1       1.654 -14.291  -4.141  1.00  0.00     0.353 C 
HETATM   23  N5  UNL     1       1.040 -15.211  -5.042  1.00  0.00    -0.047 N 
HETATM   24  C21 UNL     1       0.368 -14.374  -6.016  1.00  0.00     0.237 C 
ATOM     25  H52 UNL     1       1.686 -15.886  -5.451  1.00  0.00     0.280 HD
ATOM     26  H51 UNL     1       0.432 -15.892  -4.590  1.00  0.00     0.280 HD
HETATM   27  C22 UNL     1       1.035 -13.022  -5.994  1.00  0.00     0.065 C 
HETATM   28  C23 UNL     1       2.248 -13.262  -5.084  1.00  0.00     0.241 C 
BRANCH  28  29
HETATM   29  N6  UNL     1       3.305 -13.846  -5.857  1.00  0.00    -0.071 N 
ATOM     30  H63 UNL     1       3.694 -14.673  -5.405  1.00  0.00     0.274 HD
ATOM     31  H62 UNL     1       2.955 -14.288  -6.706  1.00  0.00     0.274 HD
ATOM     32  H61 UNL     1       4.023 -13.150  -6.058  1.00  0.00     0.274 HD
ENDBRANCH  28  29
ENDBRANCH  21  22
ENDBRANCH  13  21
ENDBRANCH   7   8
ENDBRANCH   1   7
BRANCH   6  33
HETATM   33  N4  UNL     1       4.030 -18.547  -7.036  1.00  0.00    -0.070 N 
ATOM     34  H43 UNL     1       3.178 -18.187  -6.607  1.00  0.00     0.274 HD
ATOM     35  H42 UNL     1       3.691 -18.623  -7.994  1.00  0.00     0.274 HD
ATOM     36  H41 UNL     1       4.302 -19.452  -6.650  1.00  0.00     0.274 HD
ENDBRANCH   6  33
BRANCH   3  37
HETATM   37  O4  UNL     1       7.120 -15.811  -7.275  1.00  0.00    -0.327 OA
BRANCH  37  38
HETATM   38  C6  UNL     1       8.073 -14.859  -7.573  1.00  0.00     0.297 C 
HETATM   39  O5  UNL     1       9.343 -15.461  -7.738  1.00  0.00    -0.341 OA
HETATM   40  C7  UNL     1      10.338 -14.535  -7.887  1.00  0.00     0.255 C 
HETATM   41  C13 UNL     1       9.916 -13.117  -8.042  1.00  0.00     0.188 C 
HETATM   42  C14 UNL     1       8.924 -12.659  -7.034  1.00  0.00     0.185 C 
HETATM   43  C15 UNL     1       8.214 -13.882  -6.447  1.00  0.00     0.269 C 
BRANCH  40  44
HETATM   44  C8  UNL     1      11.299 -14.914  -8.965  1.00  0.00     0.290 C 
HETATM   45  O6  UNL     1      12.449 -15.274  -8.602  1.00  0.00    -0.262 OA
BRANCH  44  46
HETATM   46  O7  UNL     1      11.029 -14.902 -10.303  1.00  0.00    -0.319 OA
BRANCH  46  47
HETATM   47  C9  UNL     1      11.989 -14.526 -11.290  1.00  0.00     0.178 C 
BRANCH  47  48
HETATM   48  C10 UNL     1      12.108 -15.664 -12.268  1.00  0.00     0.028 C 
BRANCH  48  49
HETATM   49  C11 UNL     1      10.846 -16.461 -12.389  1.00  0.00     0.017 C 
BRANCH  49  50
HETATM   50  C12 UNL     1      10.562 -16.882 -13.814  1.00  0.00     0.115 C 
HETATM   51 CL1  UNL     1      11.418 -15.786 -14.924  1.00  0.00    -0.130 Cl
ENDBRANCH  49  50
ENDBRANCH  48  49
ENDBRANCH  47  48
ENDBRANCH  46  47
ENDBRANCH  44  46
ENDBRANCH  40  44
BRANCH  41  52
HETATM   52  O8  UNL     1       9.578 -12.772  -9.356  1.00  0.00    -0.390 OA
ATOM     53  H8  UNL     1      10.289 -12.365  -9.837  1.00  0.00     0.210 HD
ENDBRANCH  41  52
BRANCH  42  54
HETATM   54  O9  UNL     1       9.455 -11.857  -6.032  1.00  0.00    -0.391 OA
ATOM     55  H9  UNL     1       8.841 -11.632  -5.342  1.00  0.00     0.210 HD
ENDBRANCH  42  54
BRANCH  43  56
HETATM   56  N2  UNL     1       6.943 -13.405  -5.949  1.00  0.00    -0.068 N 
ATOM     57  H23 UNL     1       6.857 -12.397  -6.077  1.00  0.00     0.275 HD
ATOM     58  H22 UNL     1       6.179 -13.715  -6.548  1.00  0.00     0.275 HD
ATOM     59  H21 UNL     1       6.773 -13.665  -4.977  1.00  0.00     0.275 HD
ENDBRANCH  43  56
ENDBRANCH  37  38
ENDBRANCH   3  37
BRANCH   4  60
HETATM   60  N3  UNL     1       8.760 -18.561  -6.709  1.00  0.00    -0.070 N 
ATOM     61  H33 UNL     1       9.463 -17.822  -6.698  1.00  0.00     0.274 HD
ATOM     62  H32 UNL     1       9.124 -19.168  -5.975  1.00  0.00     0.274 HD
ATOM     63  H31 UNL     1       8.778 -19.048  -7.606  1.00  0.00     0.274 HD
ENDBRANCH   4  60
TORSDOF 21
ENDMDL
MODEL 2
REMARK VINA RESULT: -7.920433907      1.644      3.348
REMARK  21 active torsions:
REMARK  status: ('A' for Active; 'I' for Inactive)
REMARK    1  A    between atoms: N1_1  and  C1_5 
REMARK    2  A    between atoms: C1_5  and  C2_6 
REMARK    3  A    between atoms: C3_8  and  O2_9 
REMARK    4  A    between atoms: O2_9  and  C4_10 
REMARK    5  A    between atoms: C5_12  and  O4_13 
REMARK    6  A    between atoms: O4_13  and  C6_14 
REMARK    7  A    between atoms: C7_16  and  C8_17 
REMARK    8  A    between atoms: C8_17  and  O7_19 
REMARK    9  A    between atoms: O7_19  and  C9_20 
REMARK   10  A    between atoms: C9_20  and  C10_21 
REMARK   11  A    between atoms: C10_21  and  C11_22 
REMARK   12  A    between atoms: C11_22  and  C12_23 
REMARK   13  A    between atoms: C13_25  and  O8_26 
REMARK   14  A    between atoms: C14_28  and  O9_29 
REMARK   15  A    between atoms: C15_31  and  N2_32 
REMARK   16  A    between atoms: C16_36  and  N3_37 
REMARK   17  A    between atoms: C18_42  and  N4_43 
REMARK   18  A    between atoms: C19_47  and  O10_48 
REMARK   19  A    between atoms: O10_48  and  C20_49 
REMARK   20  A    between atoms: C23_55  and  N6_56 
REMARK   21  A    between atoms: C24_61  and  O12_62 
ROOT
HETATM    1  C4  UNL     1       5.560 -16.660  -6.360  1.00  0.00     0.296 C 
HETATM    2  O3  UNL     1       6.406 -15.611  -5.987  1.00  0.00    -0.327 OA
HETATM    3  C5  UNL     1       7.774 -15.923  -6.219  1.00  0.00     0.296 C 
HETATM    4  C16 UNL     1       7.916 -17.368  -5.889  1.00  0.00     0.240 C 
HETATM    5  C17 UNL     1       7.365 -18.135  -7.094  1.00  0.00     0.075 C 
HETATM    6  C18 UNL     1       6.062 -17.489  -7.491  1.00  0.00     0.240 C 
ENDROOT
BRANCH   1   7
HETATM    7  O2  UNL     1       4.330 -16.023  -6.648  1.00  0.00    -0.324 OA
BRANCH   7   8
HETATM    8  C3  UNL     1       4.066 -14.977  -5.755  1.00  0.00     0.318 C 
HETATM    9  O1  UNL     1       3.095 -14.120  -6.288  1.00  0.00    -0.344 OA
HETATM   10  C2  UNL     1       1.850 -14.310  -5.714  1.00  0.00     0.205 C 
HETATM   11  C24 UNL     1       1.870 -14.181  -4.216  1.00  0.00     0.290 C 
HETATM   12  O11 UNL     1       3.160 -14.329  -3.702  1.00  0.00    -0.324 OA
HETATM   13  C19 UNL     1       3.754 -15.439  -4.363  1.00  0.00     0.321 C 
BRANCH  10  14
HETATM   14  C1  UNL     1       0.917 -13.264  -6.268  1.00  0.00     0.266 C 
BRANCH  14  15
HETATM   15  N1  UNL     1       1.559 -11.970  -6.367  1.00  0.00    -0.077 N 
ATOM     16  H13 UNL     1       1.667 -11.537  -5.449  1.00  0.00     0.274 HD
ATOM     17  H12 UNL     1       2.544 -12.061  -6.616  1.00  0.00     0.274 HD
ATOM     18  H11 UNL     1       1.068 -11.352  -7.014  1.00  0.00     0.274 HD
ENDBRANCH  14  15
ENDBRANCH  10  14
BRANCH  11  19
HETATM   19  O12 UNL     1       1.315 -12.994  -3.755  1.00  0.00    -0.368 OA
ATOM     20  H12 UNL     1       1.229 -12.958  -2.809  1.00  0.00     0.212 HD
ENDBRANCH  11  19
BRANCH  13  21
HETATM   21  O10 UNL     1       2.804 -16.454  -4.309  1.00  0.00    -0.322 OA
BRANCH  21  22
HETATM   22  C20 UNL     1       2.933 -17.204  -3.168  1.00  0.00     0.353 C 
HETATM   23  N5  UNL     1       4.083 -16.891  -2.384  1.00  0.00    -0.047 N 
HETATM   24  C21 UNL     1       4.201 -17.994  -1.450  1.00  0.00     0.237 C 
ATOM     25  H52 UNL     1       4.926 -16.720  -2.932  1.00  0.00     0.280 HD
ATOM     26  H51 UNL     1       4.046 -15.973  -1.941  1.00  0.00     0.280 HD
HETATM   27  C22 UNL     1       3.472 -19.173  -2.043  1.00  0.00     0.065 C 
HETATM   28  C23 UNL     1       3.133 -18.680  -3.457  1.00  0.00     0.241 C 
BRANCH  28  29
HETATM   29  N6  UNL     1       4.272 -18.873  -4.306  1.00  0.00    -0.071 N 
ATOM     30  H63 UNL     1       4.703 -17.987  -4.569  1.00  0.00     0.274 HD
ATOM     31  H62 UNL     1       5.058 -19.280  -3.800  1.00  0.00     0.274 HD
ATOM     32  H61 UNL     1       4.016 -19.428  -5.122  1.00  0.00     0.274 HD
ENDBRANCH  28  29
ENDBRANCH  21  22
ENDBRANCH  13  21
ENDBRANCH   7   8
ENDBRANCH   1   7
BRANCH   6  33
HETATM   33  N4  UNL     1       5.131 -18.562  -7.756  1.00  0.00    -0.070 N 
ATOM     34  H43 UNL     1       4.165 -18.285  -7.583  1.00  0.00     0.274 HD
ATOM     35  H42 UNL     1       5.049 -18.764  -8.752  1.00  0.00     0.274 HD
ATOM     36  H41 UNL     1       5.398 -19.386  -7.217  1.00  0.00     0.274 HD
ENDBRANCH   6  33
BRANCH   3  37
HETATM   37  O4  UNL     1       7.982 -15.575  -7.543  1.00  0.00    -0.327 OA
BRANCH  37  38
HETATM   38  C6  UNL     1       8.943 -14.598  -7.703  1.00  0.00     0.297 C 
HETATM   39  O5  UNL     1      10.235 -15.131  -7.480  1.00  0.00    -0.341 OA
HETATM   40  C7  UNL     1      11.200 -14.161  -7.482  1.00  0.00     0.255 C 
HETATM   41  C13 UNL     1      10.778 -12.796  -7.895  1.00  0.00     0.188 C 
HETATM   42  C14 UNL     1       9.547 -12.306  -7.221  1.00  0.00     0.185 C 
HETATM   43  C15 UNL     1       8.758 -13.507  -6.694  1.00  0.00     0.269 C 
BRANCH  40  44
HETATM   44  C8  UNL     1      12.416 -14.583  -8.239  1.00  0.00     0.290 C 
HETATM   45  O6  UNL     1      13.421 -13.830  -8.167  1.00  0.00    -0.262 OA
BRANCH  44  46
HETATM   46  O7  UNL     1      12.520 -15.713  -8.998  1.00  0.00    -0.319 OA
BRANCH  46  47
HETATM   47  C9  UNL     1      12.872 -15.695 -10.381  1.00  0.00     0.178 C 
BRANCH  47  48
HETATM   48  C10 UNL     1      11.600 -15.556 -11.174  1.00  0.00     0.028 C 
BRANCH  48  49
HETATM   49  C11 UNL     1      11.780 -15.884 -12.624  1.00  0.00     0.017 C 
BRANCH  49  50
HETATM   50  C12 UNL     1      10.706 -16.812 -13.146  1.00  0.00     0.115 C 
HETATM   51 CL1  UNL     1       9.969 -16.089 -14.596  1.00  0.00    -0.130 Cl
ENDBRANCH  49  50
ENDBRANCH  48  49
ENDBRANCH  47  48
ENDBRANCH  46  47
ENDBRANCH  44  46
ENDBRANCH  40  44
BRANCH  41  52
HETATM   52  O8  UNL     1      10.770 -12.606  -9.281  1.00  0.00    -0.390 OA
ATOM     53  H8  UNL     1      11.636 -12.501  -9.656  1.00  0.00     0.210 HD
ENDBRANCH  41  52
BRANCH  42  54
HETATM   54  O9  UNL     1       9.777 -11.375  -6.215  1.00  0.00    -0.391 OA
ATOM     55  H9  UNL     1       9.962 -11.755  -5.364  1.00  0.00     0.210 HD
ENDBRANCH  42  54
BRANCH  43  56
HETATM   56  N2  UNL     1       7.386 -13.067  -6.581  1.00  0.00    -0.068 N 
ATOM     57  H23 UNL     1       7.164 -12.381  -7.304  1.00  0.00     0.275 HD
ATOM     58  H22 UNL     1       6.742 -13.809  -6.853  1.00  0.00     0.275 HD
ATOM     59  H21 UNL     1       7.157 -12.707  -5.655  1.00  0.00     0.275 HD
ENDBRANCH  43  56
ENDBRANCH  37  38
ENDBRANCH   3  37
BRANCH   4  60
HETATM   60  N3  UNL     1       9.246 -17.794  -5.531  1.00  0.00    -0.070 N 
ATOM     61  H33 UNL     1       9.279 -18.811  -5.456  1.00  0.00     0.274 HD
ATOM     62  H32 UNL     1       9.883 -17.651  -6.316  1.00  0.00     0.274 HD
ATOM     63  H31 UNL     1       9.631 -17.368  -4.688  1.00  0.00     0.274 HD
ENDBRANCH   4  60
TORSDOF 21
ENDMDL
MODEL 3
REMARK VINA RESULT: -7.806608780      2.797      4.355
REMARK  21 active torsions:
REMARK  status: ('A' for Active; 'I' for Inactive)
REMARK    1  A    between atoms: N1_1  and  C1_5 
REMARK    2  A    between atoms: C1_5  and  C2_6 
REMARK    3  A    between atoms: C3_8  and  O2_9 
REMARK    4  A    between atoms: O2_9  and  C4_10 
REMARK    5  A    between atoms: C5_12  and  O4_13 
REMARK    6  A    between atoms: O4_13  and  C6_14 
REMARK    7  A    between atoms: C7_16  and  C8_17 
REMARK    8  A    between atoms: C8_17  and  O7_19 
REMARK    9  A    between atoms: O7_19  and  C9_20 
REMARK   10  A    between atoms: C9_20  and  C10_21 
REMARK   11  A    between atoms: C10_21  and  C11_22 
REMARK   12  A    between atoms: C11_22  and  C12_23 
REMARK   13  A    between atoms: C13_25  and  O8_26 
REMARK   14  A    between atoms: C14_28  and  O9_29 
REMARK   15  A    between atoms: C15_31  and  N2_32 
REMARK   16  A    between atoms: C16_36  and  N3_37 
REMARK   17  A    between atoms: C18_42  and  N4_43 
REMARK   18  A    between atoms: C19_47  and  O10_48 
REMARK   19  A    between atoms: O10_48  and  C20_49 
REMARK   20  A    between atoms: C23_55  and  N6_56 
REMARK   21  A    between atoms: C24_61  and  O12_62 
ROOT
HETATM    1  C4  UNL     1       7.483 -15.183  -4.402  1.00  0.00     0.296 C 
HETATM    2  O3  UNL     1       8.688 -15.186  -5.109  1.00  0.00    -0.327 OA
HETATM    3  C5  UNL     1       8.558 -15.808  -6.382  1.00  0.00     0.296 C 
HETATM    4  C16 UNL     1       7.620 -16.947  -6.176  1.00  0.00     0.240 C 
HETATM    5  C17 UNL     1       6.215 -16.339  -6.143  1.00  0.00     0.075 C 
HETATM    6  C18 UNL     1       6.264 -15.121  -5.256  1.00  0.00     0.240 C 
ENDROOT
BRANCH   1   7
HETATM    7  O2  UNL     1       7.600 -14.076  -3.529  1.00  0.00    -0.324 OA
BRANCH   7   8
HETATM    8  C3  UNL     1       8.576 -14.290  -2.549  1.00  0.00     0.318 C 
HETATM    9  O1  UNL     1       9.229 -13.088  -2.247  1.00  0.00    -0.344 OA
HETATM   10  C2  UNL     1       8.803 -12.542  -1.048  1.00  0.00     0.205 C 
HETATM   11  C24 UNL     1       8.936 -13.494   0.108  1.00  0.00     0.290 C 
HETATM   12  O11 UNL     1       9.040 -14.818  -0.322  1.00  0.00    -0.324 OA
HETATM   13  C19 UNL     1       8.065 -15.011  -1.338  1.00  0.00     0.321 C 
BRANCH  10  14
HETATM   14  C1  UNL     1       9.648 -11.328  -0.762  1.00  0.00     0.266 C 
BRANCH  14  15
HETATM   15  N1  UNL     1      10.970 -11.445  -1.343  1.00  0.00    -0.077 N 
ATOM     16  H13 UNL     1      11.035 -12.255  -1.960  1.00  0.00     0.274 HD
ATOM     17  H12 UNL     1      11.142 -10.709  -2.028  1.00  0.00     0.274 HD
ATOM     18  H11 UNL     1      11.697 -11.464  -0.628  1.00  0.00     0.274 HD
ENDBRANCH  14  15
ENDBRANCH  10  14
BRANCH  11  19
HETATM   19  O12 UNL     1       9.994 -13.191   0.956  1.00  0.00    -0.368 OA
ATOM     20  H12 UNL     1      10.269 -12.283   0.909  1.00  0.00     0.212 HD
ENDBRANCH  11  19
BRANCH  13  21
HETATM   21  O10 UNL     1       6.885 -14.480  -0.825  1.00  0.00    -0.322 OA
BRANCH  21  22
HETATM   22  C20 UNL     1       5.922 -15.445  -0.675  1.00  0.00     0.353 C 
HETATM   23  N5  UNL     1       4.711 -14.981  -0.081  1.00  0.00    -0.047 N 
HETATM   24  C21 UNL     1       3.997 -16.189   0.285  1.00  0.00     0.237 C 
ATOM     25  H52 UNL     1       4.849 -14.330   0.692  1.00  0.00     0.280 HD
ATOM     26  H51 UNL     1       4.176 -14.345  -0.672  1.00  0.00     0.280 HD
HETATM   27  C22 UNL     1       5.011 -17.299   0.403  1.00  0.00     0.065 C 
HETATM   28  C23 UNL     1       6.344 -16.550   0.275  1.00  0.00     0.241 C 
BRANCH  28  29
HETATM   29  N6  UNL     1       6.697 -16.002   1.552  1.00  0.00    -0.071 N 
ATOM     30  H63 UNL     1       6.914 -15.007   1.492  1.00  0.00     0.274 HD
ATOM     31  H62 UNL     1       5.893 -15.945   2.176  1.00  0.00     0.274 HD
ATOM     32  H61 UNL     1       7.464 -16.533   1.966  1.00  0.00     0.274 HD
ENDBRANCH  28  29
ENDBRANCH  21  22
ENDBRANCH  13  21
ENDBRANCH   7   8
ENDBRANCH   1   7
BRANCH   6  33
HETATM   33  N4  UNL     1       5.084 -15.169  -4.422  1.00  0.00    -0.070 N 
ATOM     34  H43 UNL     1       5.265 -15.620  -3.525  1.00  0.00     0.274 HD
ATOM     35  H42 UNL     1       4.823 -14.248  -4.072  1.00  0.00     0.274 HD
ATOM     36  H41 UNL     1       4.323 -15.618  -4.932  1.00  0.00     0.274 HD
ENDBRANCH   6  33
BRANCH   3  37
HETATM   37  O4  UNL     1       8.112 -14.793  -7.212  1.00  0.00    -0.327 OA
BRANCH  37  38
HETATM   38  C6  UNL     1       9.135 -14.148  -7.876  1.00  0.00     0.297 C 
HETATM   39  O5  UNL     1      10.355 -14.843  -7.704  1.00  0.00    -0.341 OA
HETATM   40  C7  UNL     1      11.419 -14.155  -8.221  1.00  0.00     0.255 C 
HETATM   41  C13 UNL     1      11.105 -12.939  -9.019  1.00  0.00     0.188 C 
HETATM   42  C14 UNL     1      10.149 -12.006  -8.365  1.00  0.00     0.185 C 
HETATM   43  C15 UNL     1       9.347 -12.777  -7.313  1.00  0.00     0.269 C 
BRANCH  40  44
HETATM   44  C8  UNL     1      12.350 -15.047  -8.973  1.00  0.00     0.290 C 
HETATM   45  O6  UNL     1      13.505 -15.195  -8.497  1.00  0.00    -0.262 OA
BRANCH  44  46
HETATM   46  O7  UNL     1      12.048 -15.709 -10.128  1.00  0.00    -0.319 OA
BRANCH  46  47
HETATM   47  C9  UNL     1      12.893 -15.700 -11.278  1.00  0.00     0.178 C 
BRANCH  47  48
HETATM   48  C10 UNL     1      12.016 -15.523 -12.489  1.00  0.00     0.028 C 
BRANCH  48  49
HETATM   49  C11 UNL     1      10.838 -16.448 -12.493  1.00  0.00     0.017 C 
BRANCH  49  50
HETATM   50  C12 UNL     1      10.416 -16.840 -13.892  1.00  0.00     0.115 C 
HETATM   51 CL1  UNL     1      11.225 -15.772 -15.063  1.00  0.00    -0.130 Cl
ENDBRANCH  49  50
ENDBRANCH  48  49
ENDBRANCH  47  48
ENDBRANCH  46  47
ENDBRANCH  44  46
ENDBRANCH  40  44
BRANCH  41  52
HETATM   52  O8  UNL     1      10.797 -13.209 -10.356  1.00  0.00    -0.390 OA
ATOM     53  H8  UNL     1      11.256 -12.650 -10.973  1.00  0.00     0.210 HD
ENDBRANCH  41  52
BRANCH  42  54
HETATM   54  O9  UNL     1      10.738 -10.873  -7.818  1.00  0.00    -0.391 OA
ATOM     55  H9  UNL     1      10.603 -10.079  -8.322  1.00  0.00     0.210 HD
ENDBRANCH  42  54
BRANCH  43  56
HETATM   56  N2  UNL     1       8.116 -12.042  -7.132  1.00  0.00    -0.068 N 
ATOM     57  H23 UNL     1       8.248 -11.266  -6.482  1.00  0.00     0.275 HD
ATOM     58  H22 UNL     1       7.879 -11.516  -7.973  1.00  0.00     0.275 HD
ATOM     59  H21 UNL     1       7.338 -12.633  -6.840  1.00  0.00     0.275 HD
ENDBRANCH  43  56
ENDBRANCH  37  38
ENDBRANCH   3  37
BRANCH   4  60
HETATM   60  N3  UNL     1       7.729 -18.021  -7.132  1.00  0.00    -0.070 N 
ATOM     61  H33 UNL     1       6.850 -18.129  -7.639  1.00  0.00     0.274 HD
ATOM     62  H32 UNL     1       8.346 -17.746  -7.897  1.00  0.00     0.274 HD
ATOM     63  H31 UNL     1       8.026 -18.919  -6.750  1.00  0.00     0.274 HD
ENDBRANCH   4  60
TORSDOF 21
ENDMDL
MODEL 4
REMARK VINA RESULT: -7.629258778      1.412      3.453
REMARK  21 active torsions:
REMARK  status: ('A' for Active; 'I' for Inactive)
REMARK    1  A    between atoms: N1_1  and  C1_5 
REMARK    2  A    between atoms: C1_5  and  C2_6 
REMARK    3  A    between atoms: C3_8  and  O2_9 
REMARK    4  A    between atoms: O2_9  and  C4_10 
REMARK    5  A    between atoms: C5_12  and  O4_13 
REMARK    6  A    between atoms: O4_13  and  C6_14 
REMARK    7  A    between atoms: C7_16  and  C8_17 
REMARK    8  A    between atoms: C8_17  and  O7_19 
REMARK    9  A    between atoms: O7_19  and  C9_20 
REMARK   10  A    between atoms: C9_20  and  C10_21 
REMARK   11  A    between atoms: C10_21  and  C11_22 
REMARK   12  A    between atoms: C11_22  and  C12_23 
REMARK   13  A    between atoms: C13_25  and  O8_26 
REMARK   14  A    between atoms: C14_28  and  O9_29 
REMARK   15  A    between atoms: C15_31  and  N2_32 
REMARK   16  A    between atoms: C16_36  and  N3_37 
REMARK   17  A    between atoms: C18_42  and  N4_43 
REMARK   18  A    between atoms: C19_47  and  O10_48 
REMARK   19  A    between atoms: O10_48  and  C20_49 
REMARK   20  A    between atoms: C23_55  and  N6_56 
REMARK   21  A    between atoms: C24_61  and  O12_62 
ROOT
HETATM    1  C4  UNL     1       4.785 -17.971  -5.425  1.00  0.00     0.296 C 
HETATM    2  O3  UNL     1       5.656 -16.948  -5.038  1.00  0.00    -0.327 OA
HETATM    3  C5  UNL     1       6.776 -16.845  -5.909  1.00  0.00     0.296 C 
HETATM    4  C16 UNL     1       7.123 -18.244  -6.283  1.00  0.00     0.240 C 
HETATM    5  C17 UNL     1       6.114 -18.659  -7.357  1.00  0.00     0.075 C 
HETATM    6  C18 UNL     1       4.747 -18.229  -6.892  1.00  0.00     0.240 C 
ENDROOT
BRANCH   1   7
HETATM    7  O2  UNL     1       3.532 -17.570  -4.905  1.00  0.00    -0.324 OA
BRANCH   7   8
HETATM    8  C3  UNL     1       3.435 -16.176  -4.805  1.00  0.00     0.318 C 
HETATM    9  O1  UNL     1       2.369 -15.710  -5.586  1.00  0.00    -0.344 OA
HETATM   10  C2  UNL     1       1.261 -15.381  -4.825  1.00  0.00     0.205 C 
HETATM   11  C24 UNL     1       1.569 -14.384  -3.743  1.00  0.00     0.290 C 
HETATM   12  O11 UNL     1       2.936 -14.334  -3.460  1.00  0.00    -0.324 OA
HETATM   13  C19 UNL     1       3.403 -15.675  -3.393  1.00  0.00     0.321 C 
BRANCH  10  14
HETATM   14  C1  UNL     1       0.227 -14.781  -5.743  1.00  0.00     0.266 C 
BRANCH  14  15
HETATM   15  N1  UNL     1       0.838 -14.050  -6.835  1.00  0.00    -0.077 N 
ATOM     16  H13 UNL     1       0.457 -13.106  -6.908  1.00  0.00     0.274 HD
ATOM     17  H12 UNL     1       1.809 -13.814  -6.628  1.00  0.00     0.274 HD
ATOM     18  H11 UNL     1       0.758 -14.553  -7.718  1.00  0.00     0.274 HD
ENDBRANCH  14  15
ENDBRANCH  10  14
BRANCH  11  19
HETATM   19  O12 UNL     1       1.100 -13.105  -4.018  1.00  0.00    -0.368 OA
ATOM     20  H12 UNL     1       0.484 -12.780  -3.372  1.00  0.00     0.212 HD
ENDBRANCH  11  19
BRANCH  13  21
HETATM   21  O10 UNL     1       2.492 -16.344  -2.581  1.00  0.00    -0.322 OA
BRANCH  21  22
HETATM   22  C20 UNL     1       2.981 -16.517  -1.311  1.00  0.00     0.353 C 
HETATM   23  N5  UNL     1       4.275 -15.954  -1.097  1.00  0.00    -0.047 N 
HETATM   24  C21 UNL     1       4.723 -16.532   0.155  1.00  0.00     0.237 C 
ATOM     25  H52 UNL     1       4.922 -16.091  -1.873  1.00  0.00     0.280 HD
ATOM     26  H51 UNL     1       4.292 -14.934  -1.113  1.00  0.00     0.280 HD
HETATM   27  C22 UNL     1       3.949 -17.809   0.369  1.00  0.00     0.065 C 
HETATM   28  C23 UNL     1       3.203 -17.976  -0.962  1.00  0.00     0.241 C 
BRANCH  28  29
HETATM   29  N6  UNL     1       4.080 -18.589  -1.916  1.00  0.00    -0.071 N 
ATOM     30  H63 UNL     1       4.942 -18.057  -2.037  1.00  0.00     0.274 HD
ATOM     31  H62 UNL     1       4.486 -19.454  -1.558  1.00  0.00     0.274 HD
ATOM     32  H61 UNL     1       3.595 -18.734  -2.801  1.00  0.00     0.274 HD
ENDBRANCH  28  29
ENDBRANCH  21  22
ENDBRANCH  13  21
ENDBRANCH   7   8
ENDBRANCH   1   7
BRANCH   6  33
HETATM   33  N4  UNL     1       3.851 -19.330  -7.167  1.00  0.00    -0.070 N 
ATOM     34  H43 UNL     1       2.879 -19.095  -6.964  1.00  0.00     0.274 HD
ATOM     35  H42 UNL     1       3.754 -19.508  -8.166  1.00  0.00     0.274 HD
ATOM     36  H41 UNL     1       4.161 -20.158  -6.657  1.00  0.00     0.274 HD
ENDBRANCH   6  33
BRANCH   3  37
HETATM   37  O4  UNL     1       6.332 -16.030  -6.938  1.00  0.00    -0.327 OA
BRANCH  37  38
HETATM   38  C6  UNL     1       7.239 -15.050  -7.284  1.00  0.00     0.297 C 
HETATM   39  O5  UNL     1       8.372 -15.621  -7.910  1.00  0.00    -0.341 OA
HETATM   40  C7  UNL     1       9.359 -14.699  -8.132  1.00  0.00     0.255 C 
HETATM   41  C13 UNL     1       9.015 -13.275  -7.870  1.00  0.00     0.188 C 
HETATM   42  C14 UNL     1       8.361 -13.034  -6.557  1.00  0.00     0.185 C 
HETATM   43  C15 UNL     1       7.743 -14.345  -6.063  1.00  0.00     0.269 C 
BRANCH  40  44
HETATM   44  C8  UNL     1       9.970 -14.847  -9.485  1.00  0.00     0.290 C 
HETATM   45  O6  UNL     1       9.181 -14.912 -10.463  1.00  0.00    -0.262 OA
BRANCH  44  46
HETATM   46  O7  UNL     1      11.309 -14.918  -9.743  1.00  0.00    -0.319 OA
BRANCH  46  47
HETATM   47  C9  UNL     1      11.888 -14.511 -10.982  1.00  0.00     0.178 C 
BRANCH  47  48
HETATM   48  C10 UNL     1      12.275 -15.755 -11.736  1.00  0.00     0.028 C 
BRANCH  48  49
HETATM   49  C11 UNL     1      11.794 -15.748 -13.154  1.00  0.00     0.017 C 
BRANCH  49  50
HETATM   50  C12 UNL     1      10.684 -16.749 -13.393  1.00  0.00     0.115 C 
HETATM   51 CL1  UNL     1       9.511 -16.051 -14.535  1.00  0.00    -0.130 Cl
ENDBRANCH  49  50
ENDBRANCH  48  49
ENDBRANCH  47  48
ENDBRANCH  46  47
ENDBRANCH  44  46
ENDBRANCH  40  44
BRANCH  41  52
HETATM   52  O8  UNL     1       8.369 -12.647  -8.941  1.00  0.00    -0.390 OA
ATOM     53  H8  UNL     1       8.812 -11.865  -9.248  1.00  0.00     0.210 HD
ENDBRANCH  41  52
BRANCH  42  54
HETATM   54  O9  UNL     1       9.195 -12.477  -5.595  1.00  0.00    -0.391 OA
ATOM     55  H9  UNL     1       8.958 -11.595  -5.333  1.00  0.00     0.210 HD
ENDBRANCH  42  54
BRANCH  43  56
HETATM   56  N2  UNL     1       6.688 -13.970  -5.149  1.00  0.00    -0.068 N 
ATOM     57  H23 UNL     1       5.939 -13.481  -5.639  1.00  0.00     0.275 HD
ATOM     58  H22 UNL     1       6.173 -14.791  -4.833  1.00  0.00     0.275 HD
ATOM     59  H21 UNL     1       7.022 -13.423  -4.356  1.00  0.00     0.275 HD
ENDBRANCH  43  56
ENDBRANCH  37  38
ENDBRANCH   3  37
BRANCH   4  60
HETATM   60  N3  UNL     1       8.487 -18.454  -6.702  1.00  0.00    -0.070 N 
ATOM     61  H33 UNL     1       8.877 -17.586  -7.071  1.00  0.00     0.274 HD
ATOM     62  H32 UNL     1       9.086 -18.589  -5.887  1.00  0.00     0.274 HD
ATOM     63  H31 UNL     1       8.629 -19.212  -7.369  1.00  0.00     0.274 HD
ENDBRANCH   4  60
TORSDOF 21
ENDMDL
MODEL 5
REMARK VINA RESULT: -7.544775407      1.307      1.455
REMARK  21 active torsions:
REMARK  status: ('A' for Active; 'I' for Inactive)
REMARK    1  A    between atoms: N1_1  and  C1_5 
REMARK    2  A    between atoms: C1_5  and  C2_6 
REMARK    3  A    between atoms: C3_8  and  O2_9 
REMARK    4  A    between atoms: O2_9  and  C4_10 
REMARK    5  A    between atoms: C5_12  and  O4_13 
REMARK    6  A    between atoms: O4_13  and  C6_14 
REMARK    7  A    between atoms: C7_16  and  C8_17 
REMARK    8  A    between atoms: C8_17  and  O7_19 
REMARK    9  A    between atoms: O7_19  and  C9_20 
REMARK   10  A    between atoms: C9_20  and  C10_21 
REMARK   11  A    between atoms: C10_21  and  C11_22 
REMARK   12  A    between atoms: C11_22  and  C12_23 
REMARK   13  A    between atoms: C13_25  and  O8_26 
REMARK   14  A    between atoms: C14_28  and  O9_29 
REMARK   15  A    between atoms: C15_31  and  N2_32 
REMARK   16  A    between atoms: C16_36  and  N3_37 
REMARK   17  A    between atoms: C18_42  and  N4_43 
REMARK   18  A    between atoms: C19_47  and  O10_48 
REMARK   19  A    between atoms: O10_48  and  C20_49 
REMARK   20  A    between atoms: C23_55  and  N6_56 
REMARK   21  A    between atoms: C24_61  and  O12_62 
ROOT
HETATM    1  C4  UNL     1       5.429 -15.937  -4.891  1.00  0.00     0.296 C 
HETATM    2  O3  UNL     1       6.656 -15.283  -4.747  1.00  0.00    -0.327 OA
HETATM    3  C5  UNL     1       7.528 -15.538  -5.841  1.00  0.00     0.296 C 
HETATM    4  C16 UNL     1       7.293 -16.961  -6.215  1.00  0.00     0.240 C 
HETATM    5  C17 UNL     1       5.996 -16.977  -7.029  1.00  0.00     0.075 C 
HETATM    6  C18 UNL     1       4.989 -16.123  -6.303  1.00  0.00     0.240 C 
ENDROOT
BRANCH   1   7
HETATM    7  O2  UNL     1       4.529 -15.150  -4.134  1.00  0.00    -0.324 OA
BRANCH   7   8
HETATM    8  C3  UNL     1       3.807 -15.926  -3.219  1.00  0.00     0.318 C 
HETATM    9  O1  UNL     1       4.328 -15.762  -1.929  1.00  0.00    -0.344 OA
HETATM   10  C2  UNL     1       3.545 -14.935  -1.144  1.00  0.00     0.205 C 
HETATM   11  C24 UNL     1       2.115 -15.391  -1.057  1.00  0.00     0.290 C 
HETATM   12  O11 UNL     1       1.788 -16.265  -2.096  1.00  0.00    -0.324 OA
HETATM   13  C19 UNL     1       2.324 -15.718  -3.293  1.00  0.00     0.321 C 
BRANCH  10  14
HETATM   14  C1  UNL     1       4.126 -14.926   0.247  1.00  0.00     0.266 C 
BRANCH  14  15
HETATM   15  N1  UNL     1       4.939 -16.099   0.497  1.00  0.00    -0.077 N 
ATOM     16  H13 UNL     1       4.417 -16.957   0.322  1.00  0.00     0.274 HD
ATOM     17  H12 UNL     1       5.664 -16.206  -0.212  1.00  0.00     0.274 HD
ATOM     18  H11 UNL     1       5.336 -16.090   1.436  1.00  0.00     0.274 HD
ENDBRANCH  14  15
ENDBRANCH  10  14
BRANCH  11  19
HETATM   19  O12 UNL     1       1.792 -15.972   0.164  1.00  0.00    -0.368 OA
ATOM     20  H12 UNL     1       0.980 -15.647   0.535  1.00  0.00     0.212 HD
ENDBRANCH  11  19
BRANCH  13  21
HETATM   21  O10 UNL     1       1.945 -14.379  -3.291  1.00  0.00    -0.322 OA
BRANCH  21  22
HETATM   22  C20 UNL     1       1.085 -14.098  -4.322  1.00  0.00     0.353 C 
HETATM   23  N5  UNL     1       0.836 -15.196  -5.198  1.00  0.00    -0.047 N 
HETATM   24  C21 UNL     1       0.204 -14.602  -6.359  1.00  0.00     0.237 C 
ATOM     25  H52 UNL     1       1.664 -15.751  -5.415  1.00  0.00     0.280 HD
ATOM     26  H51 UNL     1       0.299 -15.952  -4.774  1.00  0.00     0.280 HD
HETATM   27  C22 UNL     1       0.581 -13.142  -6.386  1.00  0.00     0.065 C 
HETATM   28  C23 UNL     1       1.630 -13.047  -5.270  1.00  0.00     0.241 C 
BRANCH  28  29
HETATM   29  N6  UNL     1       2.903 -13.455  -5.788  1.00  0.00    -0.071 N 
ATOM     30  H63 UNL     1       3.002 -14.470  -5.798  1.00  0.00     0.274 HD
ATOM     31  H62 UNL     1       2.978 -13.285  -6.790  1.00  0.00     0.274 HD
ATOM     32  H61 UNL     1       3.658 -13.005  -5.268  1.00  0.00     0.274 HD
ENDBRANCH  28  29
ENDBRANCH  21  22
ENDBRANCH  13  21
ENDBRANCH   7   8
ENDBRANCH   1   7
BRANCH   6  33
HETATM   33  N4  UNL     1       3.738 -16.846  -6.329  1.00  0.00    -0.070 N 
ATOM     34  H43 UNL     1       3.874 -17.854  -6.257  1.00  0.00     0.274 HD
ATOM     35  H42 UNL     1       3.197 -16.710  -5.475  1.00  0.00     0.274 HD
ATOM     36  H41 UNL     1       3.211 -16.587  -7.163  1.00  0.00     0.274 HD
ENDBRANCH   6  33
BRANCH   3  37
HETATM   37  O4  UNL     1       7.173 -14.591  -6.787  1.00  0.00    -0.327 OA
BRANCH  37  38
HETATM   38  C6  UNL     1       8.257 -13.927  -7.322  1.00  0.00     0.297 C 
HETATM   39  O5  UNL     1       8.768 -14.629  -8.440  1.00  0.00    -0.341 OA
HETATM   40  C7  UNL     1       9.933 -14.082  -8.905  1.00  0.00     0.255 C 
HETATM   41  C13 UNL     1      10.346 -12.782  -8.311  1.00  0.00     0.188 C 
HETATM   42  C14 UNL     1      10.311 -12.749  -6.825  1.00  0.00     0.185 C 
HETATM   43  C15 UNL     1       9.373 -13.851  -6.326  1.00  0.00     0.269 C 
BRANCH  40  44
HETATM   44  C8  UNL     1       9.960 -14.006 -10.395  1.00  0.00     0.290 C 
HETATM   45  O6  UNL     1       8.854 -13.860 -10.978  1.00  0.00    -0.262 OA
BRANCH  44  46
HETATM   46  O7  UNL     1      11.082 -14.082 -11.169  1.00  0.00    -0.319 OA
BRANCH  46  47
HETATM   47  C9  UNL     1      11.987 -15.184 -11.127  1.00  0.00     0.178 C 
BRANCH  47  48
HETATM   48  C10 UNL     1      11.946 -15.861 -12.470  1.00  0.00     0.028 C 
BRANCH  48  49
HETATM   49  C11 UNL     1      10.709 -16.680 -12.671  1.00  0.00     0.017 C 
BRANCH  49  50
HETATM   50  C12 UNL     1      10.141 -16.538 -14.066  1.00  0.00     0.115 C 
HETATM   51 CL1  UNL     1      11.339 -15.722 -15.099  1.00  0.00    -0.130 Cl
ENDBRANCH  49  50
ENDBRANCH  48  49
ENDBRANCH  47  48
ENDBRANCH  46  47
ENDBRANCH  44  46
ENDBRANCH  40  44
BRANCH  41  52
HETATM   52  O8  UNL     1       9.739 -11.673  -8.910  1.00  0.00    -0.390 OA
ATOM     53  H8  UNL     1       9.490 -10.995  -8.292  1.00  0.00     0.210 HD
ENDBRANCH  41  52
BRANCH  42  54
HETATM   54  O9  UNL     1      11.559 -12.839  -6.221  1.00  0.00    -0.391 OA
ATOM     55  H9  UNL     1      12.051 -13.618  -6.451  1.00  0.00     0.210 HD
ENDBRANCH  42  54
BRANCH  43  56
HETATM   56  N2  UNL     1       8.933 -13.439  -5.013  1.00  0.00    -0.068 N 
ATOM     57  H23 UNL     1       7.974 -13.741  -4.839  1.00  0.00     0.275 HD
ATOM     58  H22 UNL     1       9.410 -13.971  -4.286  1.00  0.00     0.275 HD
ATOM     59  H21 UNL     1       9.033 -12.436  -4.855  1.00  0.00     0.275 HD
ENDBRANCH  43  56
ENDBRANCH  37  38
ENDBRANCH   3  37
BRANCH   4  60
HETATM   60  N3  UNL     1       8.381 -17.608  -6.906  1.00  0.00    -0.070 N 
ATOM     61  H33 UNL     1       8.944 -16.914  -7.399  1.00  0.00     0.274 HD
ATOM     62  H32 UNL     1       9.067 -17.952  -6.233  1.00  0.00     0.274 HD
ATOM     63  H31 UNL     1       8.111 -18.357  -7.543  1.00  0.00     0.274 HD
ENDBRANCH   4  60
TORSDOF 21
ENDMDL
