MODEL 1
REMARK VINA RESULT: -8.839708018      0.000      0.000
REMARK  18 active torsions:
REMARK  status: ('A' for Active; 'I' for Inactive)
REMARK    1  A    between atoms: N1_1  and  C1_4 
REMARK    2  A    between atoms: N5_15  and  C5_16 
REMARK    3  A    between atoms: C6_18  and  C7_19 
REMARK    4  A    between atoms: C7_19  and  C8_20 
REMARK    5  A    between atoms: C7_19  and  S1_39 
REMARK    6  A    between atoms: N6_22  and  C10_23 
REMARK    7  A    between atoms: C10_23  and  C11_24 
REMARK    8  A    between atoms: C11_24  and  C12_25 
REMARK    9  A    between atoms: C12_25  and  N7_26 
REMARK   10  A    between atoms: C12_25  and  C13_30 
REMARK   11  A    between atoms: C13_30  and  N8_31 
REMARK   12  A    between atoms: S1_39  and  C14_42 
REMARK   13  A    between atoms: C14_42  and  C15_43 
REMARK   14  A    between atoms: C15_43  and  O4_44 
REMARK   15  A    between atoms: C16_46  and  N11_47 
REMARK   16  A    between atoms: C19_54  and  C20_55 
REMARK   17  A    between atoms: C20_55  and  N13_56 
REMARK   18  A    between atoms: C21_60  and  O6_61 
ROOT
HETATM    1  C5  UNL     1       4.693 -15.064  -5.493  1.00  0.00     0.261 C 
HETATM    2  O1  UNL     1       5.844 -14.748  -4.815  1.00  0.00    -0.354 OA
HETATM    3  C6  UNL     1       6.896 -15.504  -5.337  1.00  0.00     0.176 C 
HETATM    4  C16 UNL     1       6.392 -16.284  -6.490  1.00  0.00     0.172 C 
HETATM    5  C21 UNL     1       4.899 -16.424  -6.073  1.00  0.00     0.194 C 
ENDROOT
BRANCH   3   6
HETATM    6  C7  UNL     1       7.998 -14.517  -5.590  1.00  0.00     0.192 C 
BRANCH   6   7
HETATM    7  C8  UNL     1       8.622 -14.614  -6.925  1.00  0.00     0.065 A 
HETATM    8  C9  UNL     1       8.432 -13.873  -8.073  1.00  0.00     0.139 A 
HETATM    9  N6  UNL     1       9.243 -14.327  -9.026  1.00  0.00    -0.287 N 
HETATM   10  N9  UNL     1       9.927 -15.325  -8.505  1.00  0.00    -0.241 N 
HETATM   11  N10 UNL     1       9.564 -15.502  -7.257  1.00  0.00    -0.288 N 
ATOM     12  H9  UNL     1      10.630 -15.876  -8.997  1.00  0.00     0.208 HD
ATOM     13  H10 UNL     1       9.944 -16.213  -6.633  1.00  0.00     0.188 HD
BRANCH   9  14
HETATM   14  C10 UNL     1       9.382 -13.841 -10.407  1.00  0.00     0.152 C 
BRANCH  14  15
HETATM   15  C11 UNL     1      10.450 -14.634 -11.111  1.00  0.00     0.056 C 
BRANCH  15  16
HETATM   16  C12 UNL     1       9.854 -15.611 -12.090  1.00  0.00     0.210 C 
BRANCH  16  17
HETATM   17  N7  UNL     1       8.764 -14.938 -12.776  1.00  0.00    -0.073 N 
ATOM     18  H73 UNL     1       8.923 -13.936 -12.885  1.00  0.00     0.274 HD
ATOM     19  H72 UNL     1       8.713 -15.174 -13.767  1.00  0.00     0.274 HD
ATOM     20  H71 UNL     1       7.903 -15.151 -12.272  1.00  0.00     0.274 HD
ENDBRANCH  16  17
BRANCH  16  21
HETATM   21  C13 UNL     1      10.870 -16.084 -13.111  1.00  0.00     0.262 C 
BRANCH  21  22
HETATM   22  N8  UNL     1      10.461 -17.282 -13.780  1.00  0.00    -0.077 N 
ATOM     23  H83 UNL     1       9.739 -17.770 -13.249  1.00  0.00     0.274 HD
ATOM     24  H82 UNL     1       9.928 -17.068 -14.622  1.00  0.00     0.274 HD
ATOM     25  H81 UNL     1      11.244 -17.901 -13.989  1.00  0.00     0.274 HD
ENDBRANCH  21  22
ENDBRANCH  16  21
ENDBRANCH  15  16
ENDBRANCH  14  15
ENDBRANCH   9  14
ENDBRANCH   6   7
BRANCH   6  26
HETATM   26  S1  UNL     1       9.173 -14.322  -4.314  1.00  0.00     0.158 S 
HETATM   27  O2  UNL     1      10.482 -14.997  -4.556  1.00  0.00    -0.227 OA
HETATM   28  O3  UNL     1       9.507 -12.827  -4.268  1.00  0.00    -0.227 OA
BRANCH  26  29
HETATM   29  C14 UNL     1       8.490 -14.710  -2.741  1.00  0.00     0.167 C 
BRANCH  29  30
HETATM   30  C15 UNL     1       8.859 -13.624  -1.733  1.00  0.00     0.179 C 
BRANCH  30  31
HETATM   31  O4  UNL     1       7.778 -12.767  -1.615  1.00  0.00    -0.400 OA
ATOM     32  H4  UNL     1       7.548 -12.712  -0.694  1.00  0.00     0.209 HD
ENDBRANCH  30  31
ENDBRANCH  29  30
ENDBRANCH  26  29
ENDBRANCH   6  26
ENDBRANCH   3   6
BRANCH   4  33
HETATM   33  N11 UNL     1       6.845 -17.646  -6.531  1.00  0.00    -0.279 N 
HETATM   34  N12 UNL     1       6.490 -18.429  -7.564  1.00  0.00    -0.261 N 
HETATM   35  C17 UNL     1       7.019 -19.644  -7.404  1.00  0.00     0.300 A 
ATOM     36  H12 UNL     1       5.906 -18.139  -8.349  1.00  0.00     0.190 HD
HETATM   37  O5  UNL     1       6.932 -20.665  -8.135  1.00  0.00    -0.263 OA
HETATM   38  C18 UNL     1       7.724 -19.599  -6.228  1.00  0.00     0.211 A 
HETATM   39  F1  UNL     1       8.428 -20.616  -5.669  1.00  0.00    -0.198 F 
HETATM   40  C19 UNL     1       7.596 -18.305  -5.689  1.00  0.00     0.099 A 
BRANCH  40  41
HETATM   41  C20 UNL     1       8.245 -17.958  -4.437  1.00  0.00     0.291 C 
BRANCH  41  42
HETATM   42  N13 UNL     1       9.656 -17.934  -4.374  1.00  0.00    -0.074 N 
ATOM     43 3H13 UNL     1       9.995 -18.891  -4.279  1.00  0.00     0.274 HD
ATOM     44 2H13 UNL     1      10.021 -17.683  -5.294  1.00  0.00     0.274 HD
ATOM     45 1H13 UNL     1      10.114 -17.354  -3.672  1.00  0.00     0.274 HD
ENDBRANCH  41  42
ENDBRANCH  40  41
ENDBRANCH   4  33
BRANCH   1  46
HETATM   46  N5  UNL     1       3.599 -14.992  -4.564  1.00  0.00    -0.297 N 
HETATM   47  C4  UNL     1       3.298 -15.819  -3.546  1.00  0.00     0.188 A 
HETATM   48  N4  UNL     1       2.194 -15.429  -2.893  1.00  0.00    -0.346 N 
HETATM   49  C3  UNL     1       1.785 -14.316  -3.521  1.00  0.00     0.123 A 
ATOM     50  H4  UNL     1       1.758 -15.881  -2.090  1.00  0.00     0.167 HD
HETATM   51  C2  UNL     1       0.713 -13.468  -3.309  1.00  0.00     0.145 A 
HETATM   52  C22 UNL     1       2.659 -14.042  -4.563  1.00  0.00     0.157 A 
HETATM   53  N2  UNL     1       0.551 -12.405  -4.116  1.00  0.00    -0.175 N 
HETATM   54  N3  UNL     1      -0.132 -13.678  -2.350  1.00  0.00    -0.383 N 
HETATM   55  C1  UNL     1       1.416 -12.147  -5.135  1.00  0.00     0.679 A 
ATOM     56  H2  UNL     1      -0.238 -11.777  -3.961  1.00  0.00     0.186 HD
HETATM   57  N14 UNL     1       2.460 -12.956  -5.357  1.00  0.00    -0.174 N 
ATOM     58  H14 UNL     1       3.105 -12.759  -6.123  1.00  0.00     0.186 HD
ATOM     59  H32 UNL     1      -0.922 -13.053  -2.194  1.00  0.00     0.157 HD
ATOM     60  H31 UNL     1      -0.009 -14.485  -1.738  1.00  0.00     0.157 HD
BRANCH  55  61
HETATM   61  N1  UNL     1       1.270 -11.127  -5.919  1.00  0.00    -0.234 N 
ATOM     62  H12 UNL     1       0.328 -10.915  -6.246  1.00  0.00     0.174 HD
ATOM     63  H11 UNL     1       2.059 -10.548  -6.206  1.00  0.00     0.174 HD
ENDBRANCH  55  61
ENDBRANCH   1  46
BRANCH   5  64
HETATM   64  O6  UNL     1       4.102 -16.728  -7.137  1.00  0.00    -0.389 OA
ATOM     65  H6  UNL     1       4.502 -16.604  -7.990  1.00  0.00     0.210 HD
ENDBRANCH   5  64
TORSDOF 18
ENDMDL
MODEL 2
REMARK VINA RESULT: -8.792596090      1.045      1.126
REMARK  18 active torsions:
REMARK  status: ('A' for Active; 'I' for Inactive)
REMARK    1  A    between atoms: N1_1  and  C1_4 
REMARK    2  A    between atoms: N5_15  and  C5_16 
REMARK    3  A    between atoms: C6_18  and  C7_19 
REMARK    4  A    between atoms: C7_19  and  C8_20 
REMARK    5  A    between atoms: C7_19  and  S1_39 
REMARK    6  A    between atoms: N6_22  and  C10_23 
REMARK    7  A    between atoms: C10_23  and  C11_24 
REMARK    8  A    between atoms: C11_24  and  C12_25 
REMARK    9  A    between atoms: C12_25  and  N7_26 
REMARK   10  A    between atoms: C12_25  and  C13_30 
REMARK   11  A    between atoms: C13_30  and  N8_31 
REMARK   12  A    between atoms: S1_39  and  C14_42 
REMARK   13  A    between atoms: C14_42  and  C15_43 
REMARK   14  A    between atoms: C15_43  and  O4_44 
REMARK   15  A    between atoms: C16_46  and  N11_47 
REMARK   16  A    between atoms: C19_54  and  C20_55 
REMARK   17  A    between atoms: C20_55  and  N13_56 
REMARK   18  A    between atoms: C21_60  and  O6_61 
ROOT
HETATM    1  C5  UNL     1       4.694 -15.057  -5.492  1.00  0.00     0.261 C 
HETATM    2  O1  UNL     1       5.851 -14.760  -4.816  1.00  0.00    -0.354 OA
HETATM    3  C6  UNL     1       6.892 -15.523  -5.349  1.00  0.00     0.176 C 
HETATM    4  C16 UNL     1       6.375 -16.288  -6.506  1.00  0.00     0.172 C 
HETATM    5  C21 UNL     1       4.881 -16.414  -6.084  1.00  0.00     0.194 C 
ENDROOT
BRANCH   3   6
HETATM    6  C7  UNL     1       8.004 -14.547  -5.598  1.00  0.00     0.192 C 
BRANCH   6   7
HETATM    7  C8  UNL     1       8.633 -14.651  -6.930  1.00  0.00     0.065 A 
HETATM    8  C9  UNL     1       8.478 -13.889  -8.070  1.00  0.00     0.139 A 
HETATM    9  N6  UNL     1       9.277 -14.361  -9.023  1.00  0.00    -0.287 N 
HETATM   10  N9  UNL     1       9.920 -15.391  -8.512  1.00  0.00    -0.241 N 
HETATM   11  N10 UNL     1       9.542 -15.570  -7.268  1.00  0.00    -0.288 N 
ATOM     12  H9  UNL     1      10.605 -15.961  -9.006  1.00  0.00     0.208 HD
ATOM     13  H10 UNL     1       9.892 -16.302  -6.650  1.00  0.00     0.188 HD
BRANCH   9  14
HETATM   14  C10 UNL     1       9.443 -13.864 -10.398  1.00  0.00     0.152 C 
BRANCH  14  15
HETATM   15  C11 UNL     1      10.168 -14.896 -11.219  1.00  0.00     0.056 C 
BRANCH  15  16
HETATM   16  C12 UNL     1      11.513 -14.392 -11.672  1.00  0.00     0.210 C 
BRANCH  16  17
HETATM   17  N7  UNL     1      11.677 -13.045 -11.152  1.00  0.00    -0.073 N 
ATOM     18  H73 UNL     1      11.457 -12.974 -10.159  1.00  0.00     0.274 HD
ATOM     19  H72 UNL     1      12.655 -12.759 -11.094  1.00  0.00     0.274 HD
ATOM     20  H71 UNL     1      11.114 -12.420 -11.730  1.00  0.00     0.274 HD
ENDBRANCH  16  17
BRANCH  16  21
HETATM   21  C13 UNL     1      12.646 -15.263 -11.168  1.00  0.00     0.262 C 
BRANCH  21  22
HETATM   22  N8  UNL     1      13.639 -14.517 -10.455  1.00  0.00    -0.077 N 
ATOM     23  H83 UNL     1      14.572 -14.706 -10.821  1.00  0.00     0.274 HD
ATOM     24  H82 UNL     1      13.575 -13.523 -10.670  1.00  0.00     0.274 HD
ATOM     25  H81 UNL     1      13.601 -14.677  -9.447  1.00  0.00     0.274 HD
ENDBRANCH  21  22
ENDBRANCH  16  21
ENDBRANCH  15  16
ENDBRANCH  14  15
ENDBRANCH   9  14
ENDBRANCH   6   7
BRANCH   6  26
HETATM   26  S1  UNL     1       9.176 -14.362  -4.317  1.00  0.00     0.158 S 
HETATM   27  O2  UNL     1      10.500 -15.000  -4.580  1.00  0.00    -0.227 OA
HETATM   28  O3  UNL     1       9.475 -12.862  -4.228  1.00  0.00    -0.227 OA
BRANCH  26  29
HETATM   29  C14 UNL     1       8.503 -14.811  -2.756  1.00  0.00     0.167 C 
BRANCH  29  30
HETATM   30  C15 UNL     1       8.818 -13.728  -1.725  1.00  0.00     0.179 C 
BRANCH  30  31
HETATM   31  O4  UNL     1       7.763 -12.831  -1.715  1.00  0.00    -0.400 OA
ATOM     32  H4  UNL     1       8.075 -12.018  -1.337  1.00  0.00     0.209 HD
ENDBRANCH  30  31
ENDBRANCH  29  30
ENDBRANCH  26  29
ENDBRANCH   6  26
ENDBRANCH   3   6
BRANCH   4  33
HETATM   33  N11 UNL     1       6.812 -17.654  -6.560  1.00  0.00    -0.279 N 
HETATM   34  N12 UNL     1       6.437 -18.427  -7.594  1.00  0.00    -0.261 N 
HETATM   35  C17 UNL     1       6.954 -19.649  -7.447  1.00  0.00     0.300 A 
ATOM     36  H12 UNL     1       5.848 -18.126  -8.371  1.00  0.00     0.190 HD
HETATM   37  O5  UNL     1       6.848 -20.664  -8.184  1.00  0.00    -0.263 OA
HETATM   38  C18 UNL     1       7.672 -19.619  -6.278  1.00  0.00     0.211 A 
HETATM   39  F1  UNL     1       8.370 -20.647  -5.733  1.00  0.00    -0.198 F 
HETATM   40  C19 UNL     1       7.564 -18.327  -5.730  1.00  0.00     0.099 A 
BRANCH  40  41
HETATM   41  C20 UNL     1       8.230 -17.995  -4.483  1.00  0.00     0.291 C 
BRANCH  41  42
HETATM   42  N13 UNL     1       9.642 -17.966  -4.440  1.00  0.00    -0.074 N 
ATOM     43 3H13 UNL     1      10.001 -18.745  -4.992  1.00  0.00     0.274 HD
ATOM     44 2H13 UNL     1       9.970 -17.167  -4.984  1.00  0.00     0.274 HD
ATOM     45 1H13 UNL     1      10.113 -17.962  -3.536  1.00  0.00     0.274 HD
ENDBRANCH  41  42
ENDBRANCH  40  41
ENDBRANCH   4  33
BRANCH   1  46
HETATM   46  N5  UNL     1       3.604 -14.980  -4.558  1.00  0.00    -0.297 N 
HETATM   47  C4  UNL     1       3.310 -15.800  -3.532  1.00  0.00     0.188 A 
HETATM   48  N4  UNL     1       2.209 -15.407  -2.877  1.00  0.00    -0.346 N 
HETATM   49  C3  UNL     1       1.794 -14.300  -3.511  1.00  0.00     0.123 A 
ATOM     50  H4  UNL     1       1.778 -15.854  -2.068  1.00  0.00     0.167 HD
HETATM   51  C2  UNL     1       0.721 -13.453  -3.300  1.00  0.00     0.145 A 
HETATM   52  C22 UNL     1       2.662 -14.032  -4.560  1.00  0.00     0.157 A 
HETATM   53  N2  UNL     1       0.553 -12.397  -4.115  1.00  0.00    -0.175 N 
HETATM   54  N3  UNL     1      -0.118 -13.657  -2.336  1.00  0.00    -0.383 N 
HETATM   55  C1  UNL     1       1.412 -12.145  -5.140  1.00  0.00     0.679 A 
ATOM     56  H2  UNL     1      -0.237 -11.770  -3.961  1.00  0.00     0.186 HD
HETATM   57  N14 UNL     1       2.456 -12.953  -5.362  1.00  0.00    -0.174 N 
ATOM     58  H14 UNL     1       3.097 -12.760  -6.132  1.00  0.00     0.186 HD
ATOM     59  H32 UNL     1      -0.909 -13.033  -2.180  1.00  0.00     0.157 HD
ATOM     60  H31 UNL     1       0.009 -14.459  -1.717  1.00  0.00     0.157 HD
BRANCH  55  61
HETATM   61  N1  UNL     1       1.259 -11.131  -5.931  1.00  0.00    -0.234 N 
ATOM     62  H12 UNL     1       0.432 -11.118  -6.528  1.00  0.00     0.174 HD
ATOM     63  H11 UNL     1       1.933 -10.367  -5.967  1.00  0.00     0.174 HD
ENDBRANCH  55  61
ENDBRANCH   1  46
BRANCH   5  64
HETATM   64  O6  UNL     1       4.078 -16.700  -7.148  1.00  0.00    -0.389 OA
ATOM     65  H6  UNL     1       4.427 -16.456  -7.997  1.00  0.00     0.210 HD
ENDBRANCH   5  64
TORSDOF 18
ENDMDL
MODEL 3
REMARK VINA RESULT: -8.589539612      0.840      1.507
REMARK  18 active torsions:
REMARK  status: ('A' for Active; 'I' for Inactive)
REMARK    1  A    between atoms: N1_1  and  C1_4 
REMARK    2  A    between atoms: N5_15  and  C5_16 
REMARK    3  A    between atoms: C6_18  and  C7_19 
REMARK    4  A    between atoms: C7_19  and  C8_20 
REMARK    5  A    between atoms: C7_19  and  S1_39 
REMARK    6  A    between atoms: N6_22  and  C10_23 
REMARK    7  A    between atoms: C10_23  and  C11_24 
REMARK    8  A    between atoms: C11_24  and  C12_25 
REMARK    9  A    between atoms: C12_25  and  N7_26 
REMARK   10  A    between atoms: C12_25  and  C13_30 
REMARK   11  A    between atoms: C13_30  and  N8_31 
REMARK   12  A    between atoms: S1_39  and  C14_42 
REMARK   13  A    between atoms: C14_42  and  C15_43 
REMARK   14  A    between atoms: C15_43  and  O4_44 
REMARK   15  A    between atoms: C16_46  and  N11_47 
REMARK   16  A    between atoms: C19_54  and  C20_55 
REMARK   17  A    between atoms: C20_55  and  N13_56 
REMARK   18  A    between atoms: C21_60  and  O6_61 
ROOT
HETATM    1  C5  UNL     1       4.747 -15.103  -5.465  1.00  0.00     0.261 C 
HETATM    2  O1  UNL     1       5.904 -14.764  -4.808  1.00  0.00    -0.354 OA
HETATM    3  C6  UNL     1       6.957 -15.516  -5.333  1.00  0.00     0.176 C 
HETATM    4  C16 UNL     1       6.446 -16.320  -6.466  1.00  0.00     0.172 C 
HETATM    5  C21 UNL     1       4.960 -16.469  -6.027  1.00  0.00     0.194 C 
ENDROOT
BRANCH   3   6
HETATM    6  C7  UNL     1       8.044 -14.522  -5.617  1.00  0.00     0.192 C 
BRANCH   6   7
HETATM    7  C8  UNL     1       8.617 -14.601  -6.976  1.00  0.00     0.065 A 
HETATM    8  C9  UNL     1       8.414 -13.820  -8.095  1.00  0.00     0.139 A 
HETATM    9  N6  UNL     1       9.174 -14.274  -9.088  1.00  0.00    -0.287 N 
HETATM   10  N9  UNL     1       9.839 -15.311  -8.621  1.00  0.00    -0.241 N 
HETATM   11  N10 UNL     1       9.514 -15.511  -7.367  1.00  0.00    -0.288 N 
ATOM     12  H9  UNL     1      10.505 -15.871  -9.154  1.00  0.00     0.208 HD
ATOM     13  H10 UNL     1       9.889 -16.253  -6.776  1.00  0.00     0.188 HD
BRANCH   9  14
HETATM   14  C10 UNL     1       9.283 -13.752 -10.459  1.00  0.00     0.152 C 
BRANCH  14  15
HETATM   15  C11 UNL     1      10.383 -14.479 -11.185  1.00  0.00     0.056 C 
BRANCH  15  16
HETATM   16  C12 UNL     1       9.831 -15.554 -12.084  1.00  0.00     0.210 C 
BRANCH  16  17
HETATM   17  N7  UNL     1       8.763 -14.964 -12.873  1.00  0.00    -0.073 N 
ATOM     18  H73 UNL     1       7.997 -14.609 -12.301  1.00  0.00     0.274 HD
ATOM     19  H72 UNL     1       9.031 -14.078 -13.304  1.00  0.00     0.274 HD
ATOM     20  H71 UNL     1       8.461 -15.661 -13.555  1.00  0.00     0.274 HD
ENDBRANCH  16  17
BRANCH  16  21
HETATM   21  C13 UNL     1      10.888 -16.115 -13.014  1.00  0.00     0.262 C 
BRANCH  21  22
HETATM   22  N8  UNL     1      10.436 -17.274 -13.724  1.00  0.00    -0.077 N 
ATOM     23  H83 UNL     1      11.112 -18.035 -13.651  1.00  0.00     0.274 HD
ATOM     24  H82 UNL     1       9.646 -17.710 -13.249  1.00  0.00     0.274 HD
ATOM     25  H81 UNL     1      10.213 -17.074 -14.699  1.00  0.00     0.274 HD
ENDBRANCH  21  22
ENDBRANCH  16  21
ENDBRANCH  15  16
ENDBRANCH  14  15
ENDBRANCH   9  14
ENDBRANCH   6   7
BRANCH   6  26
HETATM   26  S1  UNL     1       9.266 -14.335  -4.384  1.00  0.00     0.158 S 
HETATM   27  O2  UNL     1      10.611 -14.874  -4.745  1.00  0.00    -0.227 OA
HETATM   28  O3  UNL     1       9.481 -12.827  -4.223  1.00  0.00    -0.227 OA
BRANCH  26  29
HETATM   29  C14 UNL     1       8.701 -14.910  -2.822  1.00  0.00     0.167 C 
BRANCH  29  30
HETATM   30  C15 UNL     1       8.807 -13.790  -1.788  1.00  0.00     0.179 C 
BRANCH  30  31
HETATM   31  O4  UNL     1       7.642 -13.043  -1.851  1.00  0.00    -0.400 OA
ATOM     32  H4  UNL     1       7.297 -12.966  -0.969  1.00  0.00     0.209 HD
ENDBRANCH  30  31
ENDBRANCH  29  30
ENDBRANCH  26  29
ENDBRANCH   6  26
ENDBRANCH   3   6
BRANCH   4  33
HETATM   33  N11 UNL     1       6.913 -17.677  -6.492  1.00  0.00    -0.279 N 
HETATM   34  N12 UNL     1       7.737 -18.109  -5.522  1.00  0.00    -0.261 N 
HETATM   35  C17 UNL     1       8.043 -19.391  -5.737  1.00  0.00     0.300 A 
ATOM     36  H12 UNL     1       8.077 -17.546  -4.742  1.00  0.00     0.190 HD
HETATM   37  O5  UNL     1       8.778 -20.168  -5.073  1.00  0.00    -0.263 OA
HETATM   38  C18 UNL     1       7.379 -19.753  -6.882  1.00  0.00     0.211 A 
HETATM   39  F1  UNL     1       7.401 -20.972  -7.477  1.00  0.00    -0.198 F 
HETATM   40  C19 UNL     1       6.662 -18.633  -7.346  1.00  0.00     0.099 A 
BRANCH  40  41
HETATM   41  C20 UNL     1       5.856 -18.718  -8.550  1.00  0.00     0.291 C 
BRANCH  41  42
HETATM   42  N13 UNL     1       4.682 -19.506  -8.541  1.00  0.00    -0.074 N 
ATOM     43 3H13 UNL     1       4.052 -19.163  -9.265  1.00  0.00     0.274 HD
ATOM     44 2H13 UNL     1       4.908 -20.435  -8.896  1.00  0.00     0.274 HD
ATOM     45 1H13 UNL     1       4.157 -19.606  -7.672  1.00  0.00     0.274 HD
ENDBRANCH  41  42
ENDBRANCH  40  41
ENDBRANCH   4  33
BRANCH   1  46
HETATM   46  N5  UNL     1       3.665 -15.028  -4.522  1.00  0.00    -0.297 N 
HETATM   47  C4  UNL     1       3.389 -15.840  -3.485  1.00  0.00     0.188 A 
HETATM   48  N4  UNL     1       2.290 -15.452  -2.824  1.00  0.00    -0.346 N 
HETATM   49  C3  UNL     1       1.857 -14.356  -3.466  1.00  0.00     0.123 A 
ATOM     50  H4  UNL     1       1.871 -15.895  -2.007  1.00  0.00     0.167 HD
HETATM   51  C2  UNL     1       0.778 -13.519  -3.254  1.00  0.00     0.145 A 
HETATM   52  C22 UNL     1       2.713 -14.090  -4.525  1.00  0.00     0.157 A 
HETATM   53  N2  UNL     1       0.590 -12.472  -4.078  1.00  0.00    -0.175 N 
HETATM   54  N3  UNL     1      -0.051 -13.722  -2.280  1.00  0.00    -0.383 N 
HETATM   55  C1  UNL     1       1.438 -12.222  -5.113  1.00  0.00     0.679 A 
ATOM     56  H2  UNL     1      -0.205 -11.852  -3.923  1.00  0.00     0.186 HD
HETATM   57  N14 UNL     1       2.489 -13.022  -5.336  1.00  0.00    -0.174 N 
ATOM     58  H14 UNL     1       3.120 -12.830  -6.113  1.00  0.00     0.186 HD
ATOM     59  H32 UNL     1      -0.847 -13.104  -2.124  1.00  0.00     0.157 HD
ATOM     60  H31 UNL     1       0.090 -14.515  -1.654  1.00  0.00     0.157 HD
BRANCH  55  61
HETATM   61  N1  UNL     1       1.267 -11.218  -5.913  1.00  0.00    -0.234 N 
ATOM     62  H12 UNL     1       1.034 -10.317  -5.497  1.00  0.00     0.174 HD
ATOM     63  H11 UNL     1       1.360 -11.311  -6.925  1.00  0.00     0.174 HD
ENDBRANCH  55  61
ENDBRANCH   1  46
BRANCH   5  64
HETATM   64  O6  UNL     1       4.152 -16.799  -7.075  1.00  0.00    -0.389 OA
ATOM     65  H6  UNL     1       4.285 -16.287  -7.864  1.00  0.00     0.210 HD
ENDBRANCH   5  64
TORSDOF 18
ENDMDL
MODEL 4
REMARK VINA RESULT: -8.558706882      1.330      1.864
REMARK  18 active torsions:
REMARK  status: ('A' for Active; 'I' for Inactive)
REMARK    1  A    between atoms: N1_1  and  C1_4 
REMARK    2  A    between atoms: N5_15  and  C5_16 
REMARK    3  A    between atoms: C6_18  and  C7_19 
REMARK    4  A    between atoms: C7_19  and  C8_20 
REMARK    5  A    between atoms: C7_19  and  S1_39 
REMARK    6  A    between atoms: N6_22  and  C10_23 
REMARK    7  A    between atoms: C10_23  and  C11_24 
REMARK    8  A    between atoms: C11_24  and  C12_25 
REMARK    9  A    between atoms: C12_25  and  N7_26 
REMARK   10  A    between atoms: C12_25  and  C13_30 
REMARK   11  A    between atoms: C13_30  and  N8_31 
REMARK   12  A    between atoms: S1_39  and  C14_42 
REMARK   13  A    between atoms: C14_42  and  C15_43 
REMARK   14  A    between atoms: C15_43  and  O4_44 
REMARK   15  A    between atoms: C16_46  and  N11_47 
REMARK   16  A    between atoms: C19_54  and  C20_55 
REMARK   17  A    between atoms: C20_55  and  N13_56 
REMARK   18  A    between atoms: C21_60  and  O6_61 
ROOT
HETATM    1  C5  UNL     1       4.720 -15.086  -5.471  1.00  0.00     0.261 C 
HETATM    2  O1  UNL     1       5.871 -14.746  -4.806  1.00  0.00    -0.354 OA
HETATM    3  C6  UNL     1       6.927 -15.503  -5.317  1.00  0.00     0.176 C 
HETATM    4  C16 UNL     1       6.425 -16.312  -6.450  1.00  0.00     0.172 C 
HETATM    5  C21 UNL     1       4.935 -16.456  -6.024  1.00  0.00     0.194 C 
ENDROOT
BRANCH   3   6
HETATM    6  C7  UNL     1       8.019 -14.512  -5.596  1.00  0.00     0.192 C 
BRANCH   6   7
HETATM    7  C8  UNL     1       8.629 -14.623  -6.937  1.00  0.00     0.065 A 
HETATM    8  C9  UNL     1       8.461 -13.865  -8.077  1.00  0.00     0.139 A 
HETATM    9  N6  UNL     1       9.245 -14.344  -9.039  1.00  0.00    -0.287 N 
HETATM   10  N9  UNL     1       9.892 -15.374  -8.533  1.00  0.00    -0.241 N 
HETATM   11  N10 UNL     1       9.530 -15.547  -7.284  1.00  0.00    -0.288 N 
ATOM     12  H9  UNL     1      10.568 -15.949  -9.034  1.00  0.00     0.208 HD
ATOM     13  H10 UNL     1       9.885 -16.278  -6.668  1.00  0.00     0.188 HD
BRANCH   9  14
HETATM   14  C10 UNL     1       9.395 -13.852 -10.418  1.00  0.00     0.152 C 
BRANCH  14  15
HETATM   15  C11 UNL     1      10.105 -14.890 -11.244  1.00  0.00     0.056 C 
BRANCH  15  16
HETATM   16  C12 UNL     1      11.459 -14.404 -11.690  1.00  0.00     0.210 C 
BRANCH  16  17
HETATM   17  N7  UNL     1      11.654 -13.074 -11.139  1.00  0.00    -0.073 N 
ATOM     18  H73 UNL     1      11.932 -12.390 -11.843  1.00  0.00     0.274 HD
ATOM     19  H72 UNL     1      10.780 -12.629 -10.857  1.00  0.00     0.274 HD
ATOM     20  H71 UNL     1      12.325 -13.151 -10.374  1.00  0.00     0.274 HD
ENDBRANCH  16  17
BRANCH  16  21
HETATM   21  C13 UNL     1      12.575 -15.311 -11.212  1.00  0.00     0.262 C 
BRANCH  21  22
HETATM   22  N8  UNL     1      13.649 -14.587 -10.601  1.00  0.00    -0.077 N 
ATOM     23  H83 UNL     1      13.296 -13.892  -9.944  1.00  0.00     0.274 HD
ATOM     24  H82 UNL     1      14.168 -15.179  -9.953  1.00  0.00     0.274 HD
ATOM     25  H81 UNL     1      14.273 -14.159 -11.286  1.00  0.00     0.274 HD
ENDBRANCH  21  22
ENDBRANCH  16  21
ENDBRANCH  15  16
ENDBRANCH  14  15
ENDBRANCH   9  14
ENDBRANCH   6   7
BRANCH   6  26
HETATM   26  S1  UNL     1       9.207 -14.291  -4.336  1.00  0.00     0.158 S 
HETATM   27  O2  UNL     1      10.531 -14.928  -4.601  1.00  0.00    -0.227 OA
HETATM   28  O3  UNL     1       9.500 -12.788  -4.287  1.00  0.00    -0.227 OA
BRANCH  26  29
HETATM   29  C14 UNL     1       8.558 -14.706  -2.756  1.00  0.00     0.167 C 
BRANCH  29  30
HETATM   30  C15 UNL     1       8.886 -13.601  -1.754  1.00  0.00     0.179 C 
BRANCH  30  31
HETATM   31  O4  UNL     1       7.764 -12.799  -1.622  1.00  0.00    -0.400 OA
ATOM     32  H4  UNL     1       7.195 -13.198  -0.973  1.00  0.00     0.209 HD
ENDBRANCH  30  31
ENDBRANCH  29  30
ENDBRANCH  26  29
ENDBRANCH   6  26
ENDBRANCH   3   6
BRANCH   4  33
HETATM   33  N11 UNL     1       6.890 -17.670  -6.465  1.00  0.00    -0.279 N 
HETATM   34  N12 UNL     1       7.698 -18.101  -5.480  1.00  0.00    -0.261 N 
HETATM   35  C17 UNL     1       8.004 -19.384  -5.686  1.00  0.00     0.300 A 
ATOM     36  H12 UNL     1       8.026 -17.536  -4.697  1.00  0.00     0.190 HD
HETATM   37  O5  UNL     1       8.727 -20.160  -5.008  1.00  0.00    -0.263 OA
HETATM   38  C18 UNL     1       7.358 -19.748  -6.841  1.00  0.00     0.211 A 
HETATM   39  F1  UNL     1       7.386 -20.970  -7.431  1.00  0.00    -0.198 F 
HETATM   40  C19 UNL     1       6.650 -18.629  -7.319  1.00  0.00     0.099 A 
BRANCH  40  41
HETATM   41  C20 UNL     1       5.863 -18.716  -8.536  1.00  0.00     0.291 C 
BRANCH  41  42
HETATM   42  N13 UNL     1       4.682 -19.494  -8.539  1.00  0.00    -0.074 N 
ATOM     43 3H13 UNL     1       4.796 -20.264  -7.880  1.00  0.00     0.274 HD
ATOM     44 2H13 UNL     1       3.936 -18.958  -8.094  1.00  0.00     0.274 HD
ATOM     45 1H13 UNL     1       4.335 -19.868  -9.422  1.00  0.00     0.274 HD
ENDBRANCH  41  42
ENDBRANCH  40  41
ENDBRANCH   4  33
BRANCH   1  46
HETATM   46  N5  UNL     1       3.629 -15.004  -4.539  1.00  0.00    -0.297 N 
HETATM   47  C4  UNL     1       3.333 -15.819  -3.510  1.00  0.00     0.188 A 
HETATM   48  N4  UNL     1       2.232 -15.422  -2.858  1.00  0.00    -0.346 N 
HETATM   49  C3  UNL     1       1.818 -14.317  -3.498  1.00  0.00     0.123 A 
ATOM     50  H4  UNL     1       1.799 -15.865  -2.047  1.00  0.00     0.167 HD
HETATM   51  C2  UNL     1       0.746 -13.468  -3.292  1.00  0.00     0.145 A 
HETATM   52  C22 UNL     1       2.688 -14.055  -4.547  1.00  0.00     0.157 A 
HETATM   53  N2  UNL     1       0.580 -12.415  -4.111  1.00  0.00    -0.175 N 
HETATM   54  N3  UNL     1      -0.094 -13.667  -2.327  1.00  0.00    -0.383 N 
HETATM   55  C1  UNL     1       1.440 -12.169  -5.137  1.00  0.00     0.679 A 
ATOM     56  H2  UNL     1      -0.210 -11.787  -3.961  1.00  0.00     0.186 HD
HETATM   57  N14 UNL     1       2.484 -12.980  -5.353  1.00  0.00    -0.174 N 
ATOM     58  H14 UNL     1       3.126 -12.791  -6.124  1.00  0.00     0.186 HD
ATOM     59  H32 UNL     1      -0.885 -13.041  -2.176  1.00  0.00     0.157 HD
ATOM     60  H31 UNL     1       0.032 -14.466  -1.705  1.00  0.00     0.157 HD
BRANCH  55  61
HETATM   61  N1  UNL     1       1.289 -11.159  -5.933  1.00  0.00    -0.234 N 
ATOM     62  H12 UNL     1       0.440 -11.124  -6.496  1.00  0.00     0.174 HD
ATOM     63  H11 UNL     1       1.986 -10.418  -6.004  1.00  0.00     0.174 HD
ENDBRANCH  55  61
ENDBRANCH   1  46
BRANCH   5  64
HETATM   64  O6  UNL     1       4.136 -16.790  -7.078  1.00  0.00    -0.389 OA
ATOM     65  H6  UNL     1       4.312 -16.319  -7.884  1.00  0.00     0.210 HD
ENDBRANCH   5  64
TORSDOF 18
ENDMDL
MODEL 5
REMARK VINA RESULT: -8.555428791      1.795      2.821
REMARK  18 active torsions:
REMARK  status: ('A' for Active; 'I' for Inactive)
REMARK    1  A    between atoms: N1_1  and  C1_4 
REMARK    2  A    between atoms: N5_15  and  C5_16 
REMARK    3  A    between atoms: C6_18  and  C7_19 
REMARK    4  A    between atoms: C7_19  and  C8_20 
REMARK    5  A    between atoms: C7_19  and  S1_39 
REMARK    6  A    between atoms: N6_22  and  C10_23 
REMARK    7  A    between atoms: C10_23  and  C11_24 
REMARK    8  A    between atoms: C11_24  and  C12_25 
REMARK    9  A    between atoms: C12_25  and  N7_26 
REMARK   10  A    between atoms: C12_25  and  C13_30 
REMARK   11  A    between atoms: C13_30  and  N8_31 
REMARK   12  A    between atoms: S1_39  and  C14_42 
REMARK   13  A    between atoms: C14_42  and  C15_43 
REMARK   14  A    between atoms: C15_43  and  O4_44 
REMARK   15  A    between atoms: C16_46  and  N11_47 
REMARK   16  A    between atoms: C19_54  and  C20_55 
REMARK   17  A    between atoms: C20_55  and  N13_56 
REMARK   18  A    between atoms: C21_60  and  O6_61 
ROOT
HETATM    1  C5  UNL     1       3.827 -14.790  -5.197  1.00  0.00     0.261 C 
HETATM    2  O1  UNL     1       4.877 -14.566  -4.342  1.00  0.00    -0.354 OA
HETATM    3  C6  UNL     1       5.876 -15.507  -4.599  1.00  0.00     0.176 C 
HETATM    4  C16 UNL     1       5.468 -16.324  -5.764  1.00  0.00     0.172 C 
HETATM    5  C21 UNL     1       3.921 -16.216  -5.625  1.00  0.00     0.194 C 
ENDROOT
BRANCH   3   6
HETATM    6  C7  UNL     1       7.142 -14.710  -4.714  1.00  0.00     0.192 C 
BRANCH   6   7
HETATM    7  C8  UNL     1       7.887 -14.909  -5.974  1.00  0.00     0.065 A 
HETATM    8  C9  UNL     1       7.889 -14.189  -7.152  1.00  0.00     0.139 A 
HETATM    9  N6  UNL     1       8.744 -14.749  -8.004  1.00  0.00    -0.287 N 
HETATM   10  N9  UNL     1       9.270 -15.791  -7.393  1.00  0.00    -0.241 N 
HETATM   11  N10 UNL     1       8.765 -15.893  -6.187  1.00  0.00    -0.288 N 
ATOM     12  H9  UNL     1       9.962 -16.422  -7.797  1.00  0.00     0.208 HD
ATOM     13  H10 UNL     1       9.007 -16.616  -5.511  1.00  0.00     0.188 HD
BRANCH   9  14
HETATM   14  C10 UNL     1       9.071 -14.322  -9.374  1.00  0.00     0.152 C 
BRANCH  14  15
HETATM   15  C11 UNL     1      10.394 -14.913  -9.778  1.00  0.00     0.056 C 
BRANCH  15  16
HETATM   16  C12 UNL     1      10.413 -15.268 -11.242  1.00  0.00     0.210 C 
BRANCH  16  17
HETATM   17  N7  UNL     1       9.204 -14.729 -11.842  1.00  0.00    -0.073 N 
ATOM     18  H73 UNL     1       8.381 -14.847 -11.251  1.00  0.00     0.274 HD
ATOM     19  H72 UNL     1       9.199 -13.709 -11.877  1.00  0.00     0.274 HD
ATOM     20  H71 UNL     1       9.097 -15.157 -12.762  1.00  0.00     0.274 HD
ENDBRANCH  16  17
BRANCH  16  21
HETATM   21  C13 UNL     1      11.622 -14.693 -11.952  1.00  0.00     0.262 C 
BRANCH  21  22
HETATM   22  N8  UNL     1      12.141 -13.529 -11.299  1.00  0.00    -0.077 N 
ATOM     23  H83 UNL     1      11.729 -13.413 -10.374  1.00  0.00     0.274 HD
ATOM     24  H82 UNL     1      13.116 -13.664 -11.030  1.00  0.00     0.274 HD
ATOM     25  H81 UNL     1      12.030 -12.683 -11.859  1.00  0.00     0.274 HD
ENDBRANCH  21  22
ENDBRANCH  16  21
ENDBRANCH  15  16
ENDBRANCH  14  15
ENDBRANCH   9  14
ENDBRANCH   6   7
BRANCH   6  26
HETATM   26  S1  UNL     1       8.185 -14.703  -3.314  1.00  0.00     0.158 S 
HETATM   27  O2  UNL     1       9.645 -14.644  -3.619  1.00  0.00    -0.227 OA
HETATM   28  O3  UNL     1       7.888 -13.397  -2.570  1.00  0.00    -0.227 OA
BRANCH  26  29
HETATM   29  C14 UNL     1       7.775 -15.997  -2.197  1.00  0.00     0.167 C 
BRANCH  29  30
HETATM   30  C15 UNL     1       7.111 -15.414  -0.950  1.00  0.00     0.179 C 
BRANCH  30  31
HETATM   31  O4  UNL     1       5.844 -14.982  -1.306  1.00  0.00    -0.400 OA
ATOM     32  H4  UNL     1       5.470 -15.627  -1.894  1.00  0.00     0.209 HD
ENDBRANCH  30  31
ENDBRANCH  29  30
ENDBRANCH  26  29
ENDBRANCH   6  26
ENDBRANCH   3   6
BRANCH   4  33
HETATM   33  N11 UNL     1       5.709 -17.732  -5.617  1.00  0.00    -0.279 N 
HETATM   34  N12 UNL     1       5.737 -18.272  -4.386  1.00  0.00    -0.261 N 
HETATM   35  C17 UNL     1       5.970 -19.583  -4.481  1.00  0.00     0.300 A 
ATOM     36  H12 UNL     1       5.601 -17.759  -3.515  1.00  0.00     0.190 HD
HETATM   37  O5  UNL     1       6.073 -20.452  -3.576  1.00  0.00    -0.263 OA
HETATM   38  C18 UNL     1       6.088 -19.851  -5.822  1.00  0.00     0.211 A 
HETATM   39  F1  UNL     1       6.329 -21.063  -6.384  1.00  0.00    -0.198 F 
HETATM   40  C19 UNL     1       5.916 -18.646  -6.528  1.00  0.00     0.099 A 
BRANCH  40  41
HETATM   41  C20 UNL     1       5.986 -18.621  -7.978  1.00  0.00     0.291 C 
BRANCH  41  42
HETATM   42  N13 UNL     1       4.789 -18.546  -8.725  1.00  0.00    -0.074 N 
ATOM     43 3H13 UNL     1       4.475 -19.493  -8.937  1.00  0.00     0.274 HD
ATOM     44 2H13 UNL     1       4.041 -18.220  -8.113  1.00  0.00     0.274 HD
ATOM     45 1H13 UNL     1       4.772 -17.997  -9.584  1.00  0.00     0.274 HD
ENDBRANCH  41  42
ENDBRANCH  40  41
ENDBRANCH   4  33
BRANCH   1  46
HETATM   46  N5  UNL     1       2.611 -14.476  -4.498  1.00  0.00    -0.297 N 
HETATM   47  C4  UNL     1       1.533 -13.801  -4.937  1.00  0.00     0.188 A 
HETATM   48  N4  UNL     1       0.584 -13.706  -3.995  1.00  0.00    -0.346 N 
HETATM   49  C3  UNL     1       1.080 -14.344  -2.924  1.00  0.00     0.123 A 
ATOM     50  H4  UNL     1      -0.323 -13.246  -4.075  1.00  0.00     0.167 HD
HETATM   51  C2  UNL     1       0.570 -14.577  -1.661  1.00  0.00     0.145 A 
HETATM   52  C22 UNL     1       2.345 -14.824  -3.235  1.00  0.00     0.157 A 
HETATM   53  N2  UNL     1       1.312 -15.263  -0.773  1.00  0.00    -0.175 N 
HETATM   54  N3  UNL     1      -0.604 -14.151  -1.319  1.00  0.00    -0.383 N 
HETATM   55  C1  UNL     1       2.551 -15.729  -1.091  1.00  0.00     0.679 A 
ATOM     56  H2  UNL     1       0.938 -15.437   0.160  1.00  0.00     0.186 HD
HETATM   57  N14 UNL     1       3.063 -15.513  -2.309  1.00  0.00    -0.174 N 
ATOM     58  H14 UNL     1       3.992 -15.865  -2.542  1.00  0.00     0.186 HD
ATOM     59  H32 UNL     1      -0.980 -14.323  -0.387  1.00  0.00     0.157 HD
ATOM     60  H31 UNL     1      -1.167 -13.630  -1.992  1.00  0.00     0.157 HD
BRANCH  55  61
HETATM   61  N1  UNL     1       3.274 -16.390  -0.244  1.00  0.00    -0.234 N 
ATOM     62  H12 UNL     1       2.829 -17.156   0.260  1.00  0.00     0.174 HD
ATOM     63  H11 UNL     1       4.254 -16.163  -0.078  1.00  0.00     0.174 HD
ENDBRANCH  55  61
ENDBRANCH   1  46
BRANCH   5  64
HETATM   64  O6  UNL     1       3.286 -16.516  -6.794  1.00  0.00    -0.389 OA
ATOM     65  H6  UNL     1       3.489 -15.943  -7.524  1.00  0.00     0.210 HD
ENDBRANCH   5  64
TORSDOF 18
ENDMDL
