MODEL 1
REMARK VINA RESULT: -9.061684263      0.000      0.000
REMARK  15 active torsions:
REMARK  status: ('A' for Active; 'I' for Inactive)
REMARK    1  A    between atoms: S1_2  and  N1_5 
REMARK    2  A    between atoms: N1_5  and  C2_7 
REMARK    3  A    between atoms: C2_7  and  C3_8 
REMARK    4  A    between atoms: C3_8  and  N2_9 
REMARK       I    between atoms: N2_9  and  C4_11 
REMARK    5  A    between atoms: C4_11  and  C5_13 
REMARK    6  A    between atoms: C6_16  and  S2_17 
REMARK    7  A    between atoms: S2_17  and  C7_20 
REMARK    8  A    between atoms: N6_25  and  C8_26 
REMARK    9  A    between atoms: C10_31  and  O6_32 
REMARK   10  A    between atoms: C11_34  and  O7_35 
REMARK   11  A    between atoms: C12_37  and  O8_38 
REMARK   12  A    between atoms: C14_43  and  N8_44 
REMARK   13  A    between atoms: N8_44  and  C15_46 
REMARK   14  A    between atoms: C15_46  and  C16_47 
REMARK   15  A    between atoms: C17_52  and  N11_53 
ROOT
HETATM    1  C5  UNL     1       4.992 -15.960  -1.827  1.00  0.00     0.136 A 
HETATM    2  N3  UNL     1       5.189 -15.984  -3.112  1.00  0.00    -0.334 N 
ATOM      3  H3  UNL     1       6.142 -16.027  -3.471  1.00  0.00     0.167 HD
HETATM    4  C6  UNL     1       4.186 -15.955  -3.954  1.00  0.00     0.180 A 
HETATM    5  S3  UNL     1       2.851 -15.887  -2.896  1.00  0.00    -0.040 SA
HETATM    6  C14 UNL     1       3.708 -15.902  -1.379  1.00  0.00     0.105 A 
ENDROOT
BRANCH   4   7
HETATM    7  S2  UNL     1       4.177 -15.966  -5.966  1.00  0.00     0.250 S 
HETATM    8  O4  UNL     1       4.518 -17.064  -6.943  1.00  0.00    -0.214 OA
HETATM    9  O5  UNL     1       3.227 -14.158  -6.380  1.00  0.00    -0.214 OA
BRANCH   7  10
HETATM   10  C7  UNL     1       5.792 -14.917  -6.245  1.00  0.00     0.209 A 
HETATM   11  N4  UNL     1       6.036 -13.674  -5.843  1.00  0.00    -0.271 N 
HETATM   12  N5  UNL     1       7.225 -13.309  -6.168  1.00  0.00    -0.235 N 
ATOM     13  H4  UNL     1       5.369 -13.088  -5.343  1.00  0.00     0.189 HD
HETATM   14  N6  UNL     1       7.847 -14.247  -6.794  1.00  0.00    -0.215 N 
ATOM     15  H5  UNL     1       7.623 -12.394  -5.958  1.00  0.00     0.208 HD
HETATM   16  C13 UNL     1       7.008 -15.269  -6.873  1.00  0.00     0.248 A 
HETATM   17  F1  UNL     1       7.190 -16.505  -7.446  1.00  0.00    -0.181 F 
BRANCH  14  18
HETATM   18  C8  UNL     1       9.193 -14.218  -7.316  1.00  0.00     0.341 C 
HETATM   19  N7  UNL     1       9.071 -13.685  -8.664  1.00  0.00    -0.047 N 
HETATM   20  C9  UNL     1      10.250 -13.892  -9.441  1.00  0.00     0.269 C 
ATOM     21  H72 UNL     1       8.250 -14.063  -9.135  1.00  0.00     0.279 HD
ATOM     22  H71 UNL     1       8.811 -12.699  -8.647  1.00  0.00     0.279 HD
HETATM   23  C10 UNL     1      11.487 -13.693  -8.591  1.00  0.00     0.175 C 
HETATM   24  C11 UNL     1      11.189 -12.778  -7.438  1.00  0.00     0.181 C 
HETATM   25  C12 UNL     1      10.164 -13.431  -6.498  1.00  0.00     0.201 C 
BRANCH  23  26
HETATM   26  O6  UNL     1      11.869 -14.927  -8.098  1.00  0.00    -0.391 OA
ATOM     27  H6  UNL     1      11.202 -15.219  -7.487  1.00  0.00     0.210 HD
ENDBRANCH  23  26
BRANCH  24  28
HETATM   28  O7  UNL     1      10.728 -11.531  -7.863  1.00  0.00    -0.390 OA
ATOM     29  H7  UNL     1      10.411 -11.555  -8.757  1.00  0.00     0.210 HD
ENDBRANCH  24  28
BRANCH  25  30
HETATM   30  O8  UNL     1      10.936 -14.240  -5.642  1.00  0.00    -0.389 OA
ATOM     31  H8  UNL     1      11.865 -14.041  -5.688  1.00  0.00     0.210 HD
ENDBRANCH  25  30
ENDBRANCH  14  18
ENDBRANCH   7  10
ENDBRANCH   4   7
BRANCH   1  32
HETATM   32  C4  UNL     1       6.168 -15.999  -0.899  1.00  0.00     0.271 C 
HETATM   33  N2  UNL     1       7.389 -16.535  -1.362  1.00  0.00    -0.354 N 
ATOM     34  H2  UNL     1       7.454 -16.892  -2.316  1.00  0.00     0.162 HD
HETATM   35  O3  UNL     1       6.103 -15.575   0.258  1.00  0.00    -0.266 OA
BRANCH  33  36
HETATM   36  C3  UNL     1       8.541 -16.583  -0.506  1.00  0.00     0.143 C 
BRANCH  36  37
HETATM   37  C2  UNL     1       9.457 -15.403  -0.670  1.00  0.00     0.151 C 
BRANCH  37  38
HETATM   38  N1  UNL     1       9.622 -15.104  -2.096  1.00  0.00    -0.318 N 
ATOM     39  H1  UNL     1      10.131 -15.672  -2.773  1.00  0.00     0.172 HD
BRANCH  38  40
HETATM   40  S1  UNL     1       8.797 -13.608  -2.429  1.00  0.00     0.222 S 
HETATM   41  C1  UNL     1       8.365 -12.807  -0.926  1.00  0.00     0.185 C 
HETATM   42  O1  UNL     1       9.748 -12.746  -3.223  1.00  0.00    -0.206 OA
HETATM   43  O2  UNL     1       7.602 -13.886  -3.295  1.00  0.00    -0.206 OA
ENDBRANCH  38  40
ENDBRANCH  37  38
ENDBRANCH  36  37
ENDBRANCH  33  36
ENDBRANCH   1  32
BRANCH   6  44
HETATM   44  N8  UNL     1       3.149 -15.857  -0.073  1.00  0.00    -0.375 N 
ATOM     45  H8  UNL     1       3.004 -16.723   0.447  1.00  0.00     0.160 HD
BRANCH  44  46
HETATM   46  C15 UNL     1       2.782 -14.575   0.529  1.00  0.00     0.198 C 
BRANCH  46  47
HETATM   47  C16 UNL     1       1.446 -14.133   0.099  1.00  0.00     0.130 A 
HETATM   48  N9  UNL     1       0.294 -14.455   0.701  1.00  0.00    -0.273 N 
HETATM   49  N10 UNL     1      -0.713 -13.893   0.052  1.00  0.00    -0.131 N 
ATOM     50  H9  UNL     1       0.206 -15.043   1.530  1.00  0.00     0.189 HD
HETATM   51  C17 UNL     1      -0.209 -13.206  -0.972  1.00  0.00     0.691 A 
ATOM     52  H10 UNL     1      -1.700 -13.972   0.293  1.00  0.00     0.205 HD
HETATM   53  N12 UNL     1       1.145 -13.358  -0.939  1.00  0.00    -0.177 N 
ATOM     54  H12 UNL     1       1.810 -12.951  -1.596  1.00  0.00     0.185 HD
BRANCH  51  55
HETATM   55  N11 UNL     1      -0.890 -12.530  -1.821  1.00  0.00    -0.233 N 
ATOM     56 2H11 UNL     1      -1.848 -12.707  -2.121  1.00  0.00     0.174 HD
ATOM     57 1H11 UNL     1      -0.560 -11.706  -2.324  1.00  0.00     0.174 HD
ENDBRANCH  51  55
ENDBRANCH  46  47
ENDBRANCH  44  46
ENDBRANCH   6  44
TORSDOF 15
ENDMDL
MODEL 2
REMARK VINA RESULT: -8.953313281      2.868      5.061
REMARK  15 active torsions:
REMARK  status: ('A' for Active; 'I' for Inactive)
REMARK    1  A    between atoms: S1_2  and  N1_5 
REMARK    2  A    between atoms: N1_5  and  C2_7 
REMARK    3  A    between atoms: C2_7  and  C3_8 
REMARK    4  A    between atoms: C3_8  and  N2_9 
REMARK       I    between atoms: N2_9  and  C4_11 
REMARK    5  A    between atoms: C4_11  and  C5_13 
REMARK    6  A    between atoms: C6_16  and  S2_17 
REMARK    7  A    between atoms: S2_17  and  C7_20 
REMARK    8  A    between atoms: N6_25  and  C8_26 
REMARK    9  A    between atoms: C10_31  and  O6_32 
REMARK   10  A    between atoms: C11_34  and  O7_35 
REMARK   11  A    between atoms: C12_37  and  O8_38 
REMARK   12  A    between atoms: C14_43  and  N8_44 
REMARK   13  A    between atoms: N8_44  and  C15_46 
REMARK   14  A    between atoms: C15_46  and  C16_47 
REMARK   15  A    between atoms: C17_52  and  N11_53 
ROOT
HETATM    1  C5  UNL     1       4.392 -15.831  -3.856  1.00  0.00     0.136 A 
HETATM    2  N3  UNL     1       5.648 -15.704  -3.542  1.00  0.00    -0.334 N 
ATOM      3  H3  UNL     1       5.988 -16.107  -2.669  1.00  0.00     0.167 HD
HETATM    4  C6  UNL     1       6.482 -15.067  -4.325  1.00  0.00     0.180 A 
HETATM    5  S3  UNL     1       5.462 -14.599  -5.608  1.00  0.00    -0.040 SA
HETATM    6  C14 UNL     1       3.968 -15.281  -5.027  1.00  0.00     0.105 A 
ENDROOT
BRANCH   4   7
HETATM    7  S2  UNL     1       8.449 -14.701  -4.104  1.00  0.00     0.250 S 
HETATM    8  O4  UNL     1       9.194 -13.397  -3.951  1.00  0.00    -0.214 OA
HETATM    9  O5  UNL     1       9.188 -16.622  -3.781  1.00  0.00    -0.214 OA
BRANCH   7  10
HETATM   10  C7  UNL     1       8.993 -15.048  -5.940  1.00  0.00     0.209 A 
HETATM   11  N4  UNL     1       8.783 -16.147  -6.657  1.00  0.00    -0.271 N 
HETATM   12  N5  UNL     1       9.246 -16.015  -7.848  1.00  0.00    -0.235 N 
ATOM     13  H4  UNL     1       8.317 -16.983  -6.308  1.00  0.00     0.189 HD
HETATM   14  N6  UNL     1       9.785 -14.857  -8.015  1.00  0.00    -0.215 N 
ATOM     15  H5  UNL     1       9.194 -16.734  -8.569  1.00  0.00     0.208 HD
HETATM   16  C13 UNL     1       9.659 -14.213  -6.864  1.00  0.00     0.248 A 
HETATM   17  F1  UNL     1      10.071 -12.947  -6.523  1.00  0.00    -0.181 F 
BRANCH  14  18
HETATM   18  C8  UNL     1      10.409 -14.337  -9.209  1.00  0.00     0.341 C 
HETATM   19  N7  UNL     1      11.683 -15.031  -9.310  1.00  0.00    -0.047 N 
HETATM   20  C9  UNL     1      12.571 -14.411 -10.240  1.00  0.00     0.269 C 
ATOM     21  H72 UNL     1      12.122 -15.129  -8.395  1.00  0.00     0.279 HD
ATOM     22  H71 UNL     1      11.548 -16.017  -9.533  1.00  0.00     0.279 HD
HETATM   23  C10 UNL     1      11.808 -13.918 -11.452  1.00  0.00     0.175 C 
HETATM   24  C11 UNL     1      10.549 -14.717 -11.640  1.00  0.00     0.181 C 
HETATM   25  C12 UNL     1       9.599 -14.488 -10.455  1.00  0.00     0.201 C 
BRANCH  23  26
HETATM   26  O6  UNL     1      11.472 -12.595 -11.236  1.00  0.00    -0.391 OA
ATOM     27  H6  UNL     1      11.641 -12.113 -12.038  1.00  0.00     0.210 HD
ENDBRANCH  23  26
BRANCH  24  28
HETATM   28  O7  UNL     1      10.811 -16.078 -11.793  1.00  0.00    -0.390 OA
ATOM     29  H7  UNL     1      10.451 -16.593 -11.081  1.00  0.00     0.210 HD
ENDBRANCH  24  28
BRANCH  25  30
HETATM   30  O8  UNL     1       8.893 -13.317 -10.790  1.00  0.00    -0.389 OA
ATOM     31  H8  UNL     1       8.177 -13.480 -11.394  1.00  0.00     0.210 HD
ENDBRANCH  25  30
ENDBRANCH  14  18
ENDBRANCH   7  10
ENDBRANCH   4   7
BRANCH   1  32
HETATM   32  C4  UNL     1       3.472 -16.569  -2.933  1.00  0.00     0.271 C 
HETATM   33  N2  UNL     1       3.739 -16.561  -1.547  1.00  0.00    -0.354 N 
ATOM     34  H2  UNL     1       4.554 -16.058  -1.193  1.00  0.00     0.162 HD
HETATM   35  O3  UNL     1       2.486 -17.185  -3.346  1.00  0.00    -0.266 OA
BRANCH  33  36
HETATM   36  C3  UNL     1       2.878 -17.251  -0.629  1.00  0.00     0.143 C 
BRANCH  36  37
HETATM   37  C2  UNL     1       2.750 -16.564   0.701  1.00  0.00     0.151 C 
BRANCH  37  38
HETATM   38  N1  UNL     1       1.336 -16.494   1.085  1.00  0.00    -0.318 N 
ATOM     39  H1  UNL     1       0.703 -17.287   1.188  1.00  0.00     0.172 HD
BRANCH  38  40
HETATM   40  S1  UNL     1       0.929 -14.821   1.330  1.00  0.00     0.222 S 
HETATM   41  C1  UNL     1       2.230 -13.790   0.755  1.00  0.00     0.185 C 
HETATM   42  O1  UNL     1      -0.333 -14.552   0.546  1.00  0.00    -0.206 OA
HETATM   43  O2  UNL     1       0.619 -14.596   2.782  1.00  0.00    -0.206 OA
ENDBRANCH  38  40
ENDBRANCH  37  38
ENDBRANCH  36  37
ENDBRANCH  33  36
ENDBRANCH   1  32
BRANCH   6  44
HETATM   44  N8  UNL     1       2.695 -15.231  -5.657  1.00  0.00    -0.375 N 
ATOM     45  H8  UNL     1       2.338 -16.052  -6.146  1.00  0.00     0.160 HD
BRANCH  44  46
HETATM   46  C15 UNL     1       1.895 -14.007  -5.606  1.00  0.00     0.198 C 
BRANCH  46  47
HETATM   47  C16 UNL     1       1.149 -13.894  -4.343  1.00  0.00     0.130 A 
HETATM   48  N9  UNL     1       0.511 -14.898  -3.729  1.00  0.00    -0.273 N 
HETATM   49  N10 UNL     1      -0.056 -14.446  -2.622  1.00  0.00    -0.131 N 
ATOM     50  H9  UNL     1       0.468 -15.861  -4.062  1.00  0.00     0.189 HD
HETATM   51  C17 UNL     1       0.216 -13.146  -2.522  1.00  0.00     0.691 A 
ATOM     52  H10 UNL     1      -0.606 -14.996  -1.962  1.00  0.00     0.205 HD
HETATM   53  N12 UNL     1       0.972 -12.803  -3.602  1.00  0.00    -0.177 N 
ATOM     54  H12 UNL     1       1.337 -11.873  -3.807  1.00  0.00     0.185 HD
BRANCH  51  55
HETATM   55  N11 UNL     1      -0.171 -12.376  -1.574  1.00  0.00    -0.233 N 
ATOM     56 2H11 UNL     1      -1.103 -11.986  -1.441  1.00  0.00     0.174 HD
ATOM     57 1H11 UNL     1       0.413 -12.041  -0.807  1.00  0.00     0.174 HD
ENDBRANCH  51  55
ENDBRANCH  46  47
ENDBRANCH  44  46
ENDBRANCH   6  44
TORSDOF 15
ENDMDL
MODEL 3
REMARK VINA RESULT: -8.940392680      4.575      9.700
REMARK  15 active torsions:
REMARK  status: ('A' for Active; 'I' for Inactive)
REMARK    1  A    between atoms: S1_2  and  N1_5 
REMARK    2  A    between atoms: N1_5  and  C2_7 
REMARK    3  A    between atoms: C2_7  and  C3_8 
REMARK    4  A    between atoms: C3_8  and  N2_9 
REMARK       I    between atoms: N2_9  and  C4_11 
REMARK    5  A    between atoms: C4_11  and  C5_13 
REMARK    6  A    between atoms: C6_16  and  S2_17 
REMARK    7  A    between atoms: S2_17  and  C7_20 
REMARK    8  A    between atoms: N6_25  and  C8_26 
REMARK    9  A    between atoms: C10_31  and  O6_32 
REMARK   10  A    between atoms: C11_34  and  O7_35 
REMARK   11  A    between atoms: C12_37  and  O8_38 
REMARK   12  A    between atoms: C14_43  and  N8_44 
REMARK   13  A    between atoms: N8_44  and  C15_46 
REMARK   14  A    between atoms: C15_46  and  C16_47 
REMARK   15  A    between atoms: C17_52  and  N11_53 
ROOT
HETATM    1  C5  UNL     1       8.194 -13.637  -7.141  1.00  0.00     0.136 A 
HETATM    2  N3  UNL     1       6.939 -13.814  -6.846  1.00  0.00    -0.334 N 
ATOM      3  H3  UNL     1       6.224 -13.550  -7.524  1.00  0.00     0.167 HD
HETATM    4  C6  UNL     1       6.577 -14.325  -5.696  1.00  0.00     0.180 A 
HETATM    5  S3  UNL     1       8.085 -14.587  -4.946  1.00  0.00    -0.040 SA
HETATM    6  C14 UNL     1       9.124 -13.999  -6.215  1.00  0.00     0.105 A 
ENDROOT
BRANCH   4   7
HETATM    7  S2  UNL     1       4.742 -14.700  -4.961  1.00  0.00     0.250 S 
HETATM    8  O4  UNL     1       4.311 -15.197  -3.603  1.00  0.00    -0.214 OA
HETATM    9  O5  UNL     1       3.532 -13.888  -6.450  1.00  0.00    -0.214 OA
BRANCH   7  10
HETATM   10  C7  UNL     1       4.407 -16.362  -5.917  1.00  0.00     0.209 A 
HETATM   11  N4  UNL     1       3.487 -16.596  -6.846  1.00  0.00    -0.271 N 
HETATM   12  N5  UNL     1       3.577 -17.798  -7.292  1.00  0.00    -0.235 N 
ATOM     13  H4  UNL     1       2.801 -15.912  -7.164  1.00  0.00     0.189 HD
HETATM   14  N6  UNL     1       4.530 -18.441  -6.713  1.00  0.00    -0.215 N 
ATOM     15  H5  UNL     1       2.971 -18.192  -8.011  1.00  0.00     0.208 HD
HETATM   16  C13 UNL     1       5.081 -17.602  -5.848  1.00  0.00     0.248 A 
HETATM   17  F1  UNL     1       6.131 -17.803  -4.985  1.00  0.00    -0.181 F 
BRANCH  14  18
HETATM   18  C8  UNL     1       4.941 -19.807  -6.941  1.00  0.00     0.341 C 
HETATM   19  N7  UNL     1       3.972 -20.348  -7.881  1.00  0.00    -0.047 N 
HETATM   20  C9  UNL     1       4.030 -21.771  -7.966  1.00  0.00     0.269 C 
ATOM     21  H72 UNL     1       3.028 -20.032  -7.658  1.00  0.00     0.279 HD
ATOM     22  H71 UNL     1       4.074 -19.920  -8.802  1.00  0.00     0.279 HD
HETATM   23  C10 UNL     1       5.466 -22.248  -7.906  1.00  0.00     0.175 C 
HETATM   24  C11 UNL     1       6.396 -21.171  -8.389  1.00  0.00     0.181 C 
HETATM   25  C12 UNL     1       6.340 -19.963  -7.442  1.00  0.00     0.201 C 
BRANCH  23  26
HETATM   26  O6  UNL     1       5.764 -22.540  -6.588  1.00  0.00    -0.391 OA
ATOM     27  H6  UNL     1       6.495 -23.147  -6.580  1.00  0.00     0.210 HD
ENDBRANCH  23  26
BRANCH  24  28
HETATM   28  O7  UNL     1       6.105 -20.775  -9.695  1.00  0.00    -0.390 OA
ATOM     29  H7  UNL     1       6.891 -20.660 -10.216  1.00  0.00     0.210 HD
ENDBRANCH  24  28
BRANCH  25  30
HETATM   30  O8  UNL     1       7.253 -20.276  -6.417  1.00  0.00    -0.389 OA
ATOM     31  H8  UNL     1       7.992 -19.679  -6.388  1.00  0.00     0.210 HD
ENDBRANCH  25  30
ENDBRANCH  14  18
ENDBRANCH   7  10
ENDBRANCH   4   7
BRANCH   1  32
HETATM   32  C4  UNL     1       8.564 -13.052  -8.469  1.00  0.00     0.271 C 
HETATM   33  N2  UNL     1       8.839 -13.919  -9.548  1.00  0.00    -0.354 N 
ATOM     34  H2  UNL     1       8.787 -14.929  -9.410  1.00  0.00     0.162 HD
HETATM   35  O3  UNL     1       8.635 -11.833  -8.651  1.00  0.00    -0.266 OA
BRANCH  33  36
HETATM   36  C3  UNL     1       9.191 -13.397 -10.838  1.00  0.00     0.143 C 
BRANCH  36  37
HETATM   37  C2  UNL     1      10.305 -14.154 -11.505  1.00  0.00     0.151 C 
BRANCH  37  38
HETATM   38  N1  UNL     1       9.753 -15.015 -12.556  1.00  0.00    -0.318 N 
ATOM     39  H1  UNL     1       8.782 -15.035 -12.868  1.00  0.00     0.172 HD
BRANCH  38  40
HETATM   40  S1  UNL     1      11.047 -15.998 -13.179  1.00  0.00     0.222 S 
HETATM   41  C1  UNL     1      11.276 -15.683 -14.892  1.00  0.00     0.185 C 
HETATM   42  O1  UNL     1      12.293 -15.627 -12.411  1.00  0.00    -0.206 OA
HETATM   43  O2  UNL     1      10.750 -17.442 -12.896  1.00  0.00    -0.206 OA
ENDBRANCH  38  40
ENDBRANCH  37  38
ENDBRANCH  36  37
ENDBRANCH  33  36
ENDBRANCH   1  32
BRANCH   6  44
HETATM   44  N8  UNL     1      10.543 -13.938  -6.209  1.00  0.00    -0.375 N 
ATOM     45  H8  UNL     1      11.065 -14.334  -5.426  1.00  0.00     0.160 HD
BRANCH  44  46
HETATM   46  C15 UNL     1      11.260 -13.310  -7.319  1.00  0.00     0.198 C 
BRANCH  46  47
HETATM   47  C16 UNL     1      12.081 -14.282  -8.059  1.00  0.00     0.130 A 
HETATM   48  N9  UNL     1      11.605 -15.302  -8.785  1.00  0.00    -0.273 N 
HETATM   49  N10 UNL     1      12.615 -15.977  -9.308  1.00  0.00    -0.131 N 
ATOM     50  H9  UNL     1      10.618 -15.524  -8.913  1.00  0.00     0.189 HD
HETATM   51  C17 UNL     1      13.746 -15.391  -8.919  1.00  0.00     0.691 A 
ATOM     52  H10 UNL     1      12.541 -16.800  -9.905  1.00  0.00     0.205 HD
HETATM   53  N12 UNL     1      13.408 -14.329  -8.136  1.00  0.00    -0.177 N 
ATOM     54  H12 UNL     1      14.057 -13.684  -7.687  1.00  0.00     0.185 HD
BRANCH  51  55
HETATM   55  N11 UNL     1      14.928 -15.772  -9.235  1.00  0.00    -0.233 N 
ATOM     56 2H11 UNL     1      15.320 -16.708  -9.135  1.00  0.00     0.174 HD
ATOM     57 1H11 UNL     1      15.654 -15.179  -9.638  1.00  0.00     0.174 HD
ENDBRANCH  51  55
ENDBRANCH  46  47
ENDBRANCH  44  46
ENDBRANCH   6  44
TORSDOF 15
ENDMDL
MODEL 4
REMARK VINA RESULT: -8.929333155      1.699      2.211
REMARK  15 active torsions:
REMARK  status: ('A' for Active; 'I' for Inactive)
REMARK    1  A    between atoms: S1_2  and  N1_5 
REMARK    2  A    between atoms: N1_5  and  C2_7 
REMARK    3  A    between atoms: C2_7  and  C3_8 
REMARK    4  A    between atoms: C3_8  and  N2_9 
REMARK       I    between atoms: N2_9  and  C4_11 
REMARK    5  A    between atoms: C4_11  and  C5_13 
REMARK    6  A    between atoms: C6_16  and  S2_17 
REMARK    7  A    between atoms: S2_17  and  C7_20 
REMARK    8  A    between atoms: N6_25  and  C8_26 
REMARK    9  A    between atoms: C10_31  and  O6_32 
REMARK   10  A    between atoms: C11_34  and  O7_35 
REMARK   11  A    between atoms: C12_37  and  O8_38 
REMARK   12  A    between atoms: C14_43  and  N8_44 
REMARK   13  A    between atoms: N8_44  and  C15_46 
REMARK   14  A    between atoms: C15_46  and  C16_47 
REMARK   15  A    between atoms: C17_52  and  N11_53 
ROOT
HETATM    1  C5  UNL     1       3.821 -15.418  -1.473  1.00  0.00     0.136 A 
HETATM    2  N3  UNL     1       4.168 -15.754  -2.681  1.00  0.00    -0.334 N 
ATOM      3  H3  UNL     1       5.085 -16.171  -2.841  1.00  0.00     0.167 HD
HETATM    4  C6  UNL     1       3.361 -15.567  -3.696  1.00  0.00     0.180 A 
HETATM    5  S3  UNL     1       2.006 -14.869  -2.934  1.00  0.00    -0.040 SA
HETATM    6  C14 UNL     1       2.591 -14.864  -1.293  1.00  0.00     0.105 A 
ENDROOT
BRANCH   4   7
HETATM    7  S2  UNL     1       3.619 -15.966  -5.651  1.00  0.00     0.250 S 
HETATM    8  O4  UNL     1       4.085 -17.223  -6.344  1.00  0.00    -0.214 OA
HETATM    9  O5  UNL     1       2.734 -14.296  -6.528  1.00  0.00    -0.214 OA
BRANCH   7  10
HETATM   10  C7  UNL     1       5.258 -14.951  -5.916  1.00  0.00     0.209 A 
HETATM   11  N4  UNL     1       5.553 -13.744  -5.448  1.00  0.00    -0.271 N 
HETATM   12  N5  UNL     1       6.743 -13.396  -5.787  1.00  0.00    -0.235 N 
ATOM     13  H4  UNL     1       4.919 -13.170  -4.892  1.00  0.00     0.189 HD
HETATM   14  N6  UNL     1       7.316 -14.311  -6.487  1.00  0.00    -0.215 N 
ATOM     15  H5  UNL     1       7.176 -12.508  -5.534  1.00  0.00     0.208 HD
HETATM   16  C13 UNL     1       6.443 -15.301  -6.602  1.00  0.00     0.248 A 
HETATM   17  F1  UNL     1       6.568 -16.504  -7.254  1.00  0.00    -0.181 F 
BRANCH  14  18
HETATM   18  C8  UNL     1       8.647 -14.291  -7.048  1.00  0.00     0.341 C 
HETATM   19  N7  UNL     1       8.518 -13.595  -8.318  1.00  0.00    -0.047 N 
HETATM   20  C9  UNL     1       9.661 -13.768  -9.155  1.00  0.00     0.269 C 
ATOM     21  H72 UNL     1       7.663 -13.869  -8.803  1.00  0.00     0.279 HD
ATOM     22  H71 UNL     1       8.314 -12.605  -8.176  1.00  0.00     0.279 HD
HETATM   23  C10 UNL     1      10.930 -13.739  -8.330  1.00  0.00     0.175 C 
HETATM   24  C11 UNL     1      10.717 -12.953  -7.067  1.00  0.00     0.181 C 
HETATM   25  C12 UNL     1       9.683 -13.660  -6.177  1.00  0.00     0.201 C 
BRANCH  23  26
HETATM   26  O6  UNL     1      11.255 -15.041  -7.999  1.00  0.00    -0.391 OA
ATOM     27  H6  UNL     1      12.194 -15.083  -7.856  1.00  0.00     0.210 HD
ENDBRANCH  23  26
BRANCH  24  28
HETATM   28  O7  UNL     1      10.315 -11.643  -7.326  1.00  0.00    -0.390 OA
ATOM     29  H7  UNL     1       9.807 -11.577  -8.125  1.00  0.00     0.210 HD
ENDBRANCH  24  28
BRANCH  25  30
HETATM   30  O8  UNL     1      10.432 -14.605  -5.449  1.00  0.00    -0.389 OA
ATOM     31  H8  UNL     1      10.916 -14.215  -4.730  1.00  0.00     0.210 HD
ENDBRANCH  25  30
ENDBRANCH  14  18
ENDBRANCH   7  10
ENDBRANCH   4   7
BRANCH   1  32
HETATM   32  C4  UNL     1       4.774 -15.652  -0.341  1.00  0.00     0.271 C 
HETATM   33  N2  UNL     1       6.160 -15.681  -0.605  1.00  0.00    -0.354 N 
ATOM     34  H2  UNL     1       6.494 -15.547  -1.560  1.00  0.00     0.162 HD
HETATM   35  O3  UNL     1       4.385 -15.820   0.818  1.00  0.00    -0.266 OA
BRANCH  33  36
HETATM   36  C3  UNL     1       7.105 -15.896   0.453  1.00  0.00     0.143 C 
BRANCH  36  37
HETATM   37  C2  UNL     1       8.307 -14.997   0.373  1.00  0.00     0.151 C 
BRANCH  37  38
HETATM   38  N1  UNL     1       8.856 -15.032  -0.986  1.00  0.00    -0.318 N 
ATOM     39  H1  UNL     1       9.384 -15.800  -1.400  1.00  0.00     0.172 HD
BRANCH  38  40
HETATM   40  S1  UNL     1       8.449 -13.531  -1.768  1.00  0.00     0.222 S 
HETATM   41  C1  UNL     1       9.911 -12.687  -2.257  1.00  0.00     0.185 C 
HETATM   42  O1  UNL     1       7.617 -13.874  -2.979  1.00  0.00    -0.206 OA
HETATM   43  O2  UNL     1       7.595 -12.711  -0.846  1.00  0.00    -0.206 OA
ENDBRANCH  38  40
ENDBRANCH  37  38
ENDBRANCH  36  37
ENDBRANCH  33  36
ENDBRANCH   1  32
BRANCH   6  44
HETATM   44  N8  UNL     1       1.915 -14.389  -0.137  1.00  0.00    -0.375 N 
ATOM     45  H8  UNL     1       2.017 -13.414   0.146  1.00  0.00     0.160 HD
BRANCH  44  46
HETATM   46  C15 UNL     1       1.072 -15.291   0.648  1.00  0.00     0.198 C 
BRANCH  46  47
HETATM   47  C16 UNL     1       1.333 -15.164   2.091  1.00  0.00     0.130 A 
HETATM   48  N9  UNL     1       2.027 -16.038   2.832  1.00  0.00    -0.273 N 
HETATM   49  N10 UNL     1       2.064 -15.618   4.086  1.00  0.00    -0.131 N 
ATOM     50  H9  UNL     1       2.459 -16.893   2.483  1.00  0.00     0.189 HD
HETATM   51  C17 UNL     1       1.391 -14.470   4.155  1.00  0.00     0.691 A 
ATOM     52  H10 UNL     1       2.525 -16.091   4.863  1.00  0.00     0.205 HD
HETATM   53  N12 UNL     1       0.935 -14.189   2.903  1.00  0.00    -0.177 N 
ATOM     54  H12 UNL     1       0.384 -13.373   2.636  1.00  0.00     0.185 HD
BRANCH  51  55
HETATM   55  N11 UNL     1       1.218 -13.773   5.216  1.00  0.00    -0.233 N 
ATOM     56 2H11 UNL     1       0.367 -13.703   5.774  1.00  0.00     0.174 HD
ATOM     57 1H11 UNL     1       1.921 -13.180   5.657  1.00  0.00     0.174 HD
ENDBRANCH  51  55
ENDBRANCH  46  47
ENDBRANCH  44  46
ENDBRANCH   6  44
TORSDOF 15
ENDMDL
MODEL 5
REMARK VINA RESULT: -8.803935334      2.706      9.088
REMARK  15 active torsions:
REMARK  status: ('A' for Active; 'I' for Inactive)
REMARK    1  A    between atoms: S1_2  and  N1_5 
REMARK    2  A    between atoms: N1_5  and  C2_7 
REMARK    3  A    between atoms: C2_7  and  C3_8 
REMARK    4  A    between atoms: C3_8  and  N2_9 
REMARK       I    between atoms: N2_9  and  C4_11 
REMARK    5  A    between atoms: C4_11  and  C5_13 
REMARK    6  A    between atoms: C6_16  and  S2_17 
REMARK    7  A    between atoms: S2_17  and  C7_20 
REMARK    8  A    between atoms: N6_25  and  C8_26 
REMARK    9  A    between atoms: C10_31  and  O6_32 
REMARK   10  A    between atoms: C11_34  and  O7_35 
REMARK   11  A    between atoms: C12_37  and  O8_38 
REMARK   12  A    between atoms: C14_43  and  N8_44 
REMARK   13  A    between atoms: N8_44  and  C15_46 
REMARK   14  A    between atoms: C15_46  and  C16_47 
REMARK   15  A    between atoms: C17_52  and  N11_53 
ROOT
HETATM    1  C5  UNL     1       8.028 -14.696  -4.781  1.00  0.00     0.136 A 
HETATM    2  N3  UNL     1       6.730 -14.613  -4.782  1.00  0.00    -0.334 N 
ATOM      3  H3  UNL     1       6.247 -14.323  -3.931  1.00  0.00     0.167 HD
HETATM    4  C6  UNL     1       6.032 -14.893  -5.853  1.00  0.00     0.180 A 
HETATM    5  S3  UNL     1       7.257 -15.311  -6.963  1.00  0.00    -0.040 SA
HETATM    6  C14 UNL     1       8.643 -15.086  -5.932  1.00  0.00     0.105 A 
ENDROOT
BRANCH   4   7
HETATM    7  S2  UNL     1       4.042 -14.870  -6.151  1.00  0.00     0.250 S 
HETATM    8  O4  UNL     1       3.085 -13.713  -6.305  1.00  0.00    -0.214 OA
HETATM    9  O5  UNL     1       3.665 -16.880  -6.551  1.00  0.00    -0.214 OA
BRANCH   7  10
HETATM   10  C7  UNL     1       3.497 -15.364  -4.349  1.00  0.00     0.209 A 
HETATM   11  N4  UNL     1       3.995 -16.329  -3.584  1.00  0.00    -0.271 N 
HETATM   12  N5  UNL     1       3.421 -16.348  -2.434  1.00  0.00    -0.235 N 
ATOM     13  H4  UNL     1       4.733 -16.971  -3.871  1.00  0.00     0.189 HD
HETATM   14  N6  UNL     1       2.525 -15.428  -2.343  1.00  0.00    -0.215 N 
ATOM     15  H5  UNL     1       3.647 -17.006  -1.688  1.00  0.00     0.208 HD
HETATM   16  C13 UNL     1       2.525 -14.786  -3.502  1.00  0.00     0.248 A 
HETATM   17  F1  UNL     1       1.753 -13.726  -3.913  1.00  0.00    -0.181 F 
BRANCH  14  18
HETATM   18  C8  UNL     1       1.673 -15.132  -1.215  1.00  0.00     0.341 C 
HETATM   19  N7  UNL     1       2.066 -16.074  -0.179  1.00  0.00    -0.047 N 
HETATM   20  C9  UNL     1       1.116 -16.144   0.883  1.00  0.00     0.269 C 
ATOM     21  H72 UNL     1       2.246 -16.998  -0.572  1.00  0.00     0.279 HD
ATOM     22  H71 UNL     1       2.999 -15.862   0.175  1.00  0.00     0.279 HD
HETATM   23  C10 UNL     1       0.565 -14.769   1.194  1.00  0.00     0.175 C 
HETATM   24  C11 UNL     1       1.550 -13.707   0.792  1.00  0.00     0.181 C 
HETATM   25  C12 UNL     1       1.745 -13.720  -0.732  1.00  0.00     0.201 C 
BRANCH  23  26
HETATM   26  O6  UNL     1      -0.598 -14.600   0.467  1.00  0.00    -0.391 OA
ATOM     27  H6  UNL     1      -1.164 -14.008   0.950  1.00  0.00     0.210 HD
ENDBRANCH  23  26
BRANCH  24  28
HETATM   28  O7  UNL     1       2.777 -13.859   1.437  1.00  0.00    -0.390 OA
ATOM     29  H7  UNL     1       3.478 -13.410   0.980  1.00  0.00     0.210 HD
ENDBRANCH  24  28
BRANCH  25  30
HETATM   30  O8  UNL     1       0.697 -12.921  -1.229  1.00  0.00    -0.389 OA
ATOM     31  H8  UNL     1       0.004 -12.787  -0.592  1.00  0.00     0.210 HD
ENDBRANCH  25  30
ENDBRANCH  14  18
ENDBRANCH   7  10
ENDBRANCH   4   7
BRANCH   1  32
HETATM   32  C4  UNL     1       8.788 -14.363  -3.534  1.00  0.00     0.271 C 
HETATM   33  N2  UNL     1       8.164 -13.581  -2.539  1.00  0.00    -0.354 N 
ATOM     34  H2  UNL     1       7.210 -13.249  -2.682  1.00  0.00     0.162 HD
HETATM   35  O3  UNL     1       9.944 -14.753  -3.348  1.00  0.00    -0.266 OA
BRANCH  33  36
HETATM   36  C3  UNL     1       8.856 -13.245  -1.327  1.00  0.00     0.143 C 
BRANCH  36  37
HETATM   37  C2  UNL     1       8.460 -14.101  -0.156  1.00  0.00     0.151 C 
BRANCH  37  38
HETATM   38  N1  UNL     1       7.019 -13.968   0.083  1.00  0.00    -0.318 N 
ATOM     39  H1  UNL     1       6.546 -13.146   0.456  1.00  0.00     0.172 HD
BRANCH  38  40
HETATM   40  S1  UNL     1       6.259 -15.463  -0.381  1.00  0.00     0.222 S 
HETATM   41  C1  UNL     1       7.232 -16.827   0.149  1.00  0.00     0.185 C 
HETATM   42  O1  UNL     1       4.906 -15.498   0.287  1.00  0.00    -0.206 OA
HETATM   43  O2  UNL     1       6.034 -15.462  -1.865  1.00  0.00    -0.206 OA
ENDBRANCH  38  40
ENDBRANCH  37  38
ENDBRANCH  36  37
ENDBRANCH  33  36
ENDBRANCH   1  32
BRANCH   6  44
HETATM   44  N8  UNL     1      10.009 -15.283  -6.268  1.00  0.00    -0.375 N 
ATOM     45  H8  UNL     1      10.408 -16.222  -6.244  1.00  0.00     0.160 HD
BRANCH  44  46
HETATM   46  C15 UNL     1      10.847 -14.146  -6.649  1.00  0.00     0.198 C 
BRANCH  46  47
HETATM   47  C16 UNL     1      11.182 -14.170  -8.082  1.00  0.00     0.130 A 
HETATM   48  N9  UNL     1      11.399 -15.275  -8.808  1.00  0.00    -0.273 N 
HETATM   49  N10 UNL     1      11.679 -14.933 -10.055  1.00  0.00    -0.131 N 
ATOM     50  H9  UNL     1      11.355 -16.230  -8.454  1.00  0.00     0.189 HD
HETATM   51  C17 UNL     1      11.644 -13.604 -10.134  1.00  0.00     0.691 A 
ATOM     52  H10 UNL     1      11.886 -15.574 -10.820  1.00  0.00     0.205 HD
HETATM   53  N12 UNL     1      11.332 -13.129  -8.896  1.00  0.00    -0.177 N 
ATOM     54  H12 UNL     1      11.231 -12.147  -8.639  1.00  0.00     0.185 HD
BRANCH  51  55
HETATM   55  N11 UNL     1      11.864 -12.916 -11.192  1.00  0.00    -0.233 N 
ATOM     56 2H11 UNL     1      11.343 -12.951 -12.068  1.00  0.00     0.174 HD
ATOM     57 1H11 UNL     1      12.607 -12.226 -11.306  1.00  0.00     0.174 HD
ENDBRANCH  51  55
ENDBRANCH  46  47
ENDBRANCH  44  46
ENDBRANCH   6  44
TORSDOF 15
ENDMDL
