MODEL 1
REMARK VINA RESULT: -9.018529607      0.000      0.000
REMARK  6 active torsions:
REMARK  status: ('A' for Active; 'I' for Inactive)
REMARK    1  A    between atoms: C3_3  and  C4_4 
REMARK    2  A    between atoms: C5_8  and  C6_9 
REMARK    3  A    between atoms: C8_13  and  N3_14 
REMARK    4  A    between atoms: C9_19  and  N5_20 
REMARK    5  A    between atoms: N8_29  and  C12_31 
REMARK    6  A    between atoms: C12_31  and  C13_32 
ROOT
HETATM    1  C1  UNL     1     -12.972 -10.100  -8.165  1.00  0.00     0.012 C 
HETATM    2  C2  UNL     1     -13.816  -9.473  -8.767  1.00  0.00    -0.110 C 
HETATM    3  C3  UNL     1     -14.845  -8.721  -9.483  1.00  0.00     0.171 C 
ENDROOT
BRANCH   3   4
HETATM    4  C4  UNL     1     -16.045  -8.520  -8.626  1.00  0.00     0.115 A 
HETATM    5  N1  UNL     1     -16.404  -7.368  -8.017  1.00  0.00    -0.246 N 
HETATM    6  O1  UNL     1     -17.505  -7.575  -7.357  1.00  0.00    -0.216 OA
ATOM      7  H1  UNL     1     -15.896  -6.484  -8.066  1.00  0.00     0.196 HD
HETATM    8  C5  UNL     1     -17.914  -8.809  -7.485  1.00  0.00     0.202 A 
HETATM    9  N9  UNL     1     -17.002  -9.402  -8.279  1.00  0.00    -0.321 N 
ATOM     10  H9  UNL     1     -17.031 -10.378  -8.575  1.00  0.00     0.169 HD
BRANCH   8  11
HETATM   11  C6  UNL     1     -19.097  -9.446  -6.910  1.00  0.00     0.131 A 
HETATM   12  N2  UNL     1     -19.025 -10.233  -5.822  1.00  0.00    -0.344 N 
HETATM   13  C7  UNL     1     -20.101 -10.826  -5.280  1.00  0.00     0.122 A 
ATOM     14  H2  UNL     1     -18.113 -10.386  -5.390  1.00  0.00     0.166 HD
HETATM   15  C8  UNL     1     -20.037 -11.631  -4.169  1.00  0.00     0.145 A 
HETATM   16  C10 UNL     1     -21.344 -10.637  -5.846  1.00  0.00     0.153 A 
HETATM   17  N4  UNL     1     -21.129 -12.211  -3.650  1.00  0.00    -0.175 N 
HETATM   18  C9  UNL     1     -22.331 -12.013  -4.217  1.00  0.00     0.679 A 
ATOM     19  H4  UNL     1     -21.046 -12.804  -2.823  1.00  0.00     0.186 HD
HETATM   20  N6  UNL     1     -22.410 -11.229  -5.302  1.00  0.00    -0.174 N 
ATOM     21  H6  UNL     1     -23.323 -11.079  -5.731  1.00  0.00     0.186 HD
HETATM   22  N7  UNL     1     -21.443  -9.841  -6.952  1.00  0.00    -0.324 N 
HETATM   23  C11 UNL     1     -20.338  -9.257  -7.476  1.00  0.00     0.134 A 
ATOM     24  H7  UNL     1     -22.353  -9.687  -7.385  1.00  0.00     0.169 HD
HETATM   25  N8  UNL     1     -20.486  -8.509  -8.529  1.00  0.00    -0.368 N 
ATOM     26  H8  UNL     1     -19.666  -8.061  -8.936  1.00  0.00     0.161 HD
BRANCH  15  27
HETATM   27  N3  UNL     1     -18.901 -11.841  -3.603  1.00  0.00    -0.383 N 
ATOM     28  H32 UNL     1     -18.212 -11.090  -3.600  1.00  0.00     0.157 HD
ATOM     29  H31 UNL     1     -18.713 -12.746  -3.172  1.00  0.00     0.157 HD
ENDBRANCH  15  27
BRANCH  18  30
HETATM   30  N5  UNL     1     -23.408 -12.540  -3.764  1.00  0.00    -0.234 N 
ATOM     31  H52 UNL     1     -23.464 -13.557  -3.705  1.00  0.00     0.174 HD
ATOM     32  H51 UNL     1     -24.210 -11.987  -3.462  1.00  0.00     0.174 HD
ENDBRANCH  18  30
BRANCH  25  33
HETATM   33  C12 UNL     1     -21.775  -8.295  -9.139  1.00  0.00     0.190 C 
BRANCH  33  34
HETATM   34  C13 UNL     1     -21.669  -8.392 -10.605  1.00  0.00     0.250 C 
HETATM   35  O2  UNL     1     -22.009  -9.382 -11.225  1.00  0.00    -0.305 OA
ENDBRANCH  33  34
ENDBRANCH  25  33
ENDBRANCH   8  11
ENDBRANCH   3   4
TORSDOF 6
ENDMDL
MODEL 2
REMARK VINA RESULT: -8.654706465      4.394      8.501
REMARK  6 active torsions:
REMARK  status: ('A' for Active; 'I' for Inactive)
REMARK    1  A    between atoms: C3_3  and  C4_4 
REMARK    2  A    between atoms: C5_8  and  C6_9 
REMARK    3  A    between atoms: C8_13  and  N3_14 
REMARK    4  A    between atoms: C9_19  and  N5_20 
REMARK    5  A    between atoms: N8_29  and  C12_31 
REMARK    6  A    between atoms: C12_31  and  C13_32 
ROOT
HETATM    1  C1  UNL     1     -30.327 -12.105  -3.769  1.00  0.00     0.012 C 
HETATM    2  C2  UNL     1     -29.354 -11.995  -3.055  1.00  0.00    -0.110 C 
HETATM    3  C3  UNL     1     -28.172 -11.856  -2.207  1.00  0.00     0.171 C 
ENDROOT
BRANCH   3   4
HETATM    4  C4  UNL     1     -27.225 -10.861  -2.778  1.00  0.00     0.115 A 
HETATM    5  N1  UNL     1     -27.408  -9.522  -2.823  1.00  0.00    -0.246 N 
HETATM    6  O1  UNL     1     -26.372  -8.982  -3.394  1.00  0.00    -0.216 OA
ATOM      7  H1  UNL     1     -28.223  -9.019  -2.469  1.00  0.00     0.196 HD
HETATM    8  C5  UNL     1     -25.493  -9.884  -3.740  1.00  0.00     0.202 A 
HETATM    9  N9  UNL     1     -26.025 -11.061  -3.356  1.00  0.00    -0.321 N 
ATOM     10  H9  UNL     1     -25.583 -11.971  -3.484  1.00  0.00     0.169 HD
BRANCH   8  11
HETATM   11  C6  UNL     1     -24.203  -9.699  -4.401  1.00  0.00     0.131 A 
HETATM   12  N2  UNL     1     -23.128 -10.444  -4.088  1.00  0.00    -0.344 N 
HETATM   13  C7  UNL     1     -21.935 -10.288  -4.685  1.00  0.00     0.122 A 
ATOM     14  H2  UNL     1     -23.223 -11.158  -3.365  1.00  0.00     0.166 HD
HETATM   15  C8  UNL     1     -20.832 -11.044  -4.371  1.00  0.00     0.145 A 
HETATM   16  C10 UNL     1     -21.780  -9.329  -5.664  1.00  0.00     0.153 A 
HETATM   17  N4  UNL     1     -19.652 -10.866  -4.984  1.00  0.00    -0.175 N 
HETATM   18  C9  UNL     1     -19.524  -9.926  -5.936  1.00  0.00     0.679 A 
ATOM     19  H4  UNL     1     -18.853 -11.445  -4.727  1.00  0.00     0.186 HD
HETATM   20  N6  UNL     1     -20.592  -9.180  -6.254  1.00  0.00    -0.174 N 
ATOM     21  H6  UNL     1     -20.492  -8.468  -6.977  1.00  0.00     0.186 HD
HETATM   22  N7  UNL     1     -22.857  -8.561  -6.000  1.00  0.00    -0.324 N 
HETATM   23  C11 UNL     1     -24.049  -8.742  -5.378  1.00  0.00     0.134 A 
ATOM     24  H7  UNL     1     -22.765  -7.847  -6.723  1.00  0.00     0.169 HD
HETATM   25  N8  UNL     1     -25.042  -7.984  -5.735  1.00  0.00    -0.368 N 
ATOM     26  H8  UNL     1     -25.946  -8.106  -5.279  1.00  0.00     0.161 HD
BRANCH  15  27
HETATM   27  N3  UNL     1     -20.922 -11.952  -3.464  1.00  0.00    -0.383 N 
ATOM     28  H32 UNL     1     -20.694 -11.704  -2.502  1.00  0.00     0.157 HD
ATOM     29  H31 UNL     1     -21.218 -12.893  -3.722  1.00  0.00     0.157 HD
ENDBRANCH  15  27
BRANCH  18  30
HETATM   30  N5  UNL     1     -18.422  -9.712  -6.555  1.00  0.00    -0.234 N 
ATOM     31  H52 UNL     1     -17.937  -8.829  -6.393  1.00  0.00     0.174 HD
ATOM     32  H51 UNL     1     -18.012 -10.385  -7.203  1.00  0.00     0.174 HD
ENDBRANCH  18  30
BRANCH  25  33
HETATM   33  C12 UNL     1     -24.907  -6.975  -6.756  1.00  0.00     0.190 C 
BRANCH  33  34
HETATM   34  C13 UNL     1     -25.347  -5.666  -6.243  1.00  0.00     0.250 C 
HETATM   35  O2  UNL     1     -24.931  -4.612  -6.688  1.00  0.00    -0.305 OA
ENDBRANCH  33  34
ENDBRANCH  25  33
ENDBRANCH   8  11
ENDBRANCH   3   4
TORSDOF 6
ENDMDL
MODEL 3
REMARK VINA RESULT: -8.618412804      3.401      8.450
REMARK  6 active torsions:
REMARK  status: ('A' for Active; 'I' for Inactive)
REMARK    1  A    between atoms: C3_3  and  C4_4 
REMARK    2  A    between atoms: C5_8  and  C6_9 
REMARK    3  A    between atoms: C8_13  and  N3_14 
REMARK    4  A    between atoms: C9_19  and  N5_20 
REMARK    5  A    between atoms: N8_29  and  C12_31 
REMARK    6  A    between atoms: C12_31  and  C13_32 
ROOT
HETATM    1  C1  UNL     1     -28.649 -12.060  -3.076  1.00  0.00     0.012 C 
HETATM    2  C2  UNL     1     -27.570 -12.174  -2.536  1.00  0.00    -0.110 C 
HETATM    3  C3  UNL     1     -26.262 -12.303  -1.897  1.00  0.00     0.171 C 
ENDROOT
BRANCH   3   4
HETATM    4  C4  UNL     1     -25.316 -11.281  -2.418  1.00  0.00     0.115 A 
HETATM    5  N1  UNL     1     -25.346  -9.956  -2.147  1.00  0.00    -0.246 N 
HETATM    6  O1  UNL     1     -24.365  -9.382  -2.779  1.00  0.00    -0.216 OA
ATOM      7  H1  UNL     1     -26.024  -9.486  -1.547  1.00  0.00     0.196 HD
HETATM    8  C5  UNL     1     -23.669 -10.248  -3.467  1.00  0.00     0.202 A 
HETATM    9  N9  UNL     1     -24.262 -11.436  -3.243  1.00  0.00    -0.321 N 
ATOM     10  H9  UNL     1     -23.958 -12.325  -3.640  1.00  0.00     0.169 HD
BRANCH   8  11
HETATM   11  C6  UNL     1     -22.497 -10.018  -4.309  1.00  0.00     0.131 A 
HETATM   12  N2  UNL     1     -22.601  -9.543  -5.562  1.00  0.00    -0.344 N 
HETATM   13  C7  UNL     1     -21.535  -9.325  -6.350  1.00  0.00     0.122 A 
ATOM     14  H2  UNL     1     -23.531  -9.339  -5.931  1.00  0.00     0.166 HD
HETATM   15  C8  UNL     1     -21.633  -8.841  -7.631  1.00  0.00     0.145 A 
HETATM   16  C10 UNL     1     -20.268  -9.593  -5.876  1.00  0.00     0.153 A 
HETATM   17  N4  UNL     1     -20.550  -8.633  -8.395  1.00  0.00    -0.175 N 
HETATM   18  C9  UNL     1     -19.324  -8.901  -7.913  1.00  0.00     0.679 A 
ATOM     19  H4  UNL     1     -20.657  -8.272  -9.343  1.00  0.00     0.186 HD
HETATM   20  N6  UNL     1     -19.213  -9.375  -6.663  1.00  0.00    -0.174 N 
ATOM     21  H6  UNL     1     -18.282  -9.577  -6.299  1.00  0.00     0.186 HD
HETATM   22  N7  UNL     1     -20.136 -10.076  -4.605  1.00  0.00    -0.324 N 
HETATM   23  C11 UNL     1     -21.232 -10.286  -3.835  1.00  0.00     0.134 A 
ATOM     24  H7  UNL     1     -19.208 -10.280  -4.234  1.00  0.00     0.169 HD
HETATM   25  N8  UNL     1     -21.052 -10.747  -2.633  1.00  0.00    -0.368 N 
ATOM     26  H8  UNL     1     -21.865 -10.910  -2.039  1.00  0.00     0.161 HD
BRANCH  15  27
HETATM   27  N3  UNL     1     -22.791  -8.575  -8.123  1.00  0.00    -0.383 N 
ATOM     28  H32 UNL     1     -22.986  -7.620  -8.424  1.00  0.00     0.157 HD
ATOM     29  H31 UNL     1     -23.487  -9.316  -8.202  1.00  0.00     0.157 HD
ENDBRANCH  15  27
BRANCH  18  30
HETATM   30  N5  UNL     1     -18.255  -8.722  -8.596  1.00  0.00    -0.234 N 
ATOM     31  H52 UNL     1     -17.808  -9.535  -9.022  1.00  0.00     0.174 HD
ATOM     32  H51 UNL     1     -17.833  -7.804  -8.732  1.00  0.00     0.174 HD
ENDBRANCH  18  30
BRANCH  25  33
HETATM   33  C12 UNL     1     -19.738 -11.035  -2.113  1.00  0.00     0.190 C 
BRANCH  33  34
HETATM   34  C13 UNL     1     -19.269 -12.342  -2.603  1.00  0.00     0.250 C 
HETATM   35  O2  UNL     1     -18.616 -12.466  -3.623  1.00  0.00    -0.305 OA
ENDBRANCH  33  34
ENDBRANCH  25  33
ENDBRANCH   8  11
ENDBRANCH   3   4
TORSDOF 6
ENDMDL
MODEL 4
REMARK VINA RESULT: -8.560908776      0.601      1.065
REMARK  6 active torsions:
REMARK  status: ('A' for Active; 'I' for Inactive)
REMARK    1  A    between atoms: C3_3  and  C4_4 
REMARK    2  A    between atoms: C5_8  and  C6_9 
REMARK    3  A    between atoms: C8_13  and  N3_14 
REMARK    4  A    between atoms: C9_19  and  N5_20 
REMARK    5  A    between atoms: N8_29  and  C12_31 
REMARK    6  A    between atoms: C12_31  and  C13_32 
ROOT
HETATM    1  C1  UNL     1     -14.260  -6.640 -10.904  1.00  0.00     0.012 C 
HETATM    2  C2  UNL     1     -14.487  -7.600 -10.202  1.00  0.00    -0.110 C 
HETATM    3  C3  UNL     1     -14.771  -8.750  -9.345  1.00  0.00     0.171 C 
ENDROOT
BRANCH   3   4
HETATM    4  C4  UNL     1     -16.013  -8.528  -8.557  1.00  0.00     0.115 A 
HETATM    5  N1  UNL     1     -16.435  -7.346  -8.052  1.00  0.00    -0.246 N 
HETATM    6  O1  UNL     1     -17.557  -7.542  -7.425  1.00  0.00    -0.216 OA
ATOM      7  H1  UNL     1     -15.954  -6.452  -8.148  1.00  0.00     0.196 HD
HETATM    8  C5  UNL     1     -17.921  -8.796  -7.476  1.00  0.00     0.202 A 
HETATM    9  N9  UNL     1     -16.956  -9.414  -8.184  1.00  0.00    -0.321 N 
ATOM     10  H9  UNL     1     -16.941 -10.410  -8.406  1.00  0.00     0.169 HD
BRANCH   8  11
HETATM   11  C6  UNL     1     -19.107  -9.430  -6.904  1.00  0.00     0.131 A 
HETATM   12  N2  UNL     1     -19.038 -10.223  -5.821  1.00  0.00    -0.344 N 
HETATM   13  C7  UNL     1     -20.118 -10.814  -5.282  1.00  0.00     0.122 A 
ATOM     14  H2  UNL     1     -18.128 -10.384  -5.390  1.00  0.00     0.166 HD
HETATM   15  C8  UNL     1     -20.057 -11.625  -4.175  1.00  0.00     0.145 A 
HETATM   16  C10 UNL     1     -21.361 -10.614  -5.845  1.00  0.00     0.153 A 
HETATM   17  N4  UNL     1     -21.152 -12.202  -3.658  1.00  0.00    -0.175 N 
HETATM   18  C9  UNL     1     -22.354 -11.993  -4.224  1.00  0.00     0.679 A 
ATOM     19  H4  UNL     1     -21.073 -12.800  -2.836  1.00  0.00     0.186 HD
HETATM   20  N6  UNL     1     -22.429 -11.203  -5.305  1.00  0.00    -0.174 N 
ATOM     21  H6  UNL     1     -23.342 -11.046  -5.731  1.00  0.00     0.186 HD
HETATM   22  N7  UNL     1     -21.455  -9.811  -6.946  1.00  0.00    -0.324 N 
HETATM   23  C11 UNL     1     -20.347  -9.230  -7.468  1.00  0.00     0.134 A 
ATOM     24  H7  UNL     1     -22.365  -9.649  -7.378  1.00  0.00     0.169 HD
HETATM   25  N8  UNL     1     -20.492  -8.476  -8.516  1.00  0.00    -0.368 N 
ATOM     26  H8  UNL     1     -19.669  -8.030  -8.922  1.00  0.00     0.161 HD
BRANCH  15  27
HETATM   27  N3  UNL     1     -18.923 -11.845  -3.611  1.00  0.00    -0.383 N 
ATOM     28  H32 UNL     1     -18.646 -11.256  -2.826  1.00  0.00     0.157 HD
ATOM     29  H31 UNL     1     -18.327 -12.598  -3.955  1.00  0.00     0.157 HD
ENDBRANCH  15  27
BRANCH  18  30
HETATM   30  N5  UNL     1     -23.434 -12.517  -3.773  1.00  0.00    -0.234 N 
ATOM     31  H52 UNL     1     -23.952 -12.017  -3.051  1.00  0.00     0.174 HD
ATOM     32  H51 UNL     1     -23.794 -13.411  -4.106  1.00  0.00     0.174 HD
ENDBRANCH  18  30
BRANCH  25  33
HETATM   33  C12 UNL     1     -21.779  -8.250  -9.125  1.00  0.00     0.190 C 
BRANCH  33  34
HETATM   34  C13 UNL     1     -21.686  -8.395 -10.588  1.00  0.00     0.250 C 
HETATM   35  O2  UNL     1     -22.011  -9.414 -11.169  1.00  0.00    -0.305 OA
ENDBRANCH  33  34
ENDBRANCH  25  33
ENDBRANCH   8  11
ENDBRANCH   3   4
TORSDOF 6
ENDMDL
MODEL 5
REMARK VINA RESULT: -8.542345240      4.189      7.329
REMARK  6 active torsions:
REMARK  status: ('A' for Active; 'I' for Inactive)
REMARK    1  A    between atoms: C3_3  and  C4_4 
REMARK    2  A    between atoms: C5_8  and  C6_9 
REMARK    3  A    between atoms: C8_13  and  N3_14 
REMARK    4  A    between atoms: C9_19  and  N5_20 
REMARK    5  A    between atoms: N8_29  and  C12_31 
REMARK    6  A    between atoms: C12_31  and  C13_32 
ROOT
HETATM    1  C1  UNL     1     -25.652  -3.503  -5.483  1.00  0.00     0.012 C 
HETATM    2  C2  UNL     1     -25.431  -4.231  -6.427  1.00  0.00    -0.110 C 
HETATM    3  C3  UNL     1     -25.158  -5.119  -7.555  1.00  0.00     0.171 C 
ENDROOT
BRANCH   3   4
HETATM    4  C4  UNL     1     -24.928  -6.512  -7.087  1.00  0.00     0.115 A 
HETATM    5  N1  UNL     1     -25.664  -7.596  -7.420  1.00  0.00    -0.246 N 
HETATM    6  O1  UNL     1     -25.165  -8.636  -6.821  1.00  0.00    -0.216 OA
ATOM      7  H1  UNL     1     -26.477  -7.598  -8.038  1.00  0.00     0.196 HD
HETATM    8  C5  UNL     1     -24.125  -8.316  -6.096  1.00  0.00     0.202 A 
HETATM    9  N9  UNL     1     -23.976  -6.988  -6.262  1.00  0.00    -0.321 N 
ATOM     10  H9  UNL     1     -23.247  -6.423  -5.824  1.00  0.00     0.169 HD
BRANCH   8  11
HETATM   11  C6  UNL     1     -23.283  -9.180  -5.273  1.00  0.00     0.131 A 
HETATM   12  N2  UNL     1     -22.024  -9.495  -5.626  1.00  0.00    -0.344 N 
HETATM   13  C7  UNL     1     -21.235 -10.287  -4.881  1.00  0.00     0.122 A 
ATOM     14  H2  UNL     1     -21.652  -9.116  -6.497  1.00  0.00     0.166 HD
HETATM   15  C8  UNL     1     -19.949 -10.614  -5.235  1.00  0.00     0.145 A 
HETATM   16  C10 UNL     1     -21.714 -10.813  -3.700  1.00  0.00     0.153 A 
HETATM   17  N4  UNL     1     -19.184 -11.408  -4.471  1.00  0.00    -0.175 N 
HETATM   18  C9  UNL     1     -19.670 -11.910  -3.323  1.00  0.00     0.679 A 
ATOM     19  H4  UNL     1     -18.232 -11.631  -4.762  1.00  0.00     0.186 HD
HETATM   20  N6  UNL     1     -20.925 -11.600  -2.964  1.00  0.00    -0.174 N 
ATOM     21  H6  UNL     1     -21.291 -11.981  -2.092  1.00  0.00     0.186 HD
HETATM   22  N7  UNL     1     -22.989 -10.507  -3.319  1.00  0.00    -0.324 N 
HETATM   23  C11 UNL     1     -23.761  -9.705  -4.093  1.00  0.00     0.134 A 
ATOM     24  H7  UNL     1     -23.362 -10.885  -2.448  1.00  0.00     0.169 HD
HETATM   25  N8  UNL     1     -24.968  -9.445  -3.686  1.00  0.00    -0.368 N 
ATOM     26  H8  UNL     1     -25.562  -8.843  -4.255  1.00  0.00     0.161 HD
BRANCH  15  27
HETATM   27  N3  UNL     1     -19.454 -10.150  -6.328  1.00  0.00    -0.383 N 
ATOM     28  H32 UNL     1     -20.028 -10.172  -7.170  1.00  0.00     0.157 HD
ATOM     29  H31 UNL     1     -18.506  -9.773  -6.331  1.00  0.00     0.157 HD
ENDBRANCH  15  27
BRANCH  18  30
HETATM   30  N5  UNL     1     -18.986 -12.673  -2.553  1.00  0.00    -0.234 N 
ATOM     31  H52 UNL     1     -18.390 -12.242  -1.846  1.00  0.00     0.174 HD
ATOM     32  H51 UNL     1     -19.011 -13.690  -2.620  1.00  0.00     0.174 HD
ENDBRANCH  18  30
BRANCH  25  33
HETATM   33  C12 UNL     1     -25.492  -9.982  -2.454  1.00  0.00     0.190 C 
BRANCH  33  34
HETATM   34  C13 UNL     1     -26.832  -9.432  -2.186  1.00  0.00     0.250 C 
HETATM   35  O2  UNL     1     -27.014  -8.468  -1.464  1.00  0.00    -0.305 OA
ENDBRANCH  33  34
ENDBRANCH  25  33
ENDBRANCH   8  11
ENDBRANCH   3   4
TORSDOF 6
ENDMDL
