MODEL 1
REMARK VINA RESULT: -8.141039156      0.000      0.000
REMARK  7 active torsions:
REMARK  status: ('A' for Active; 'I' for Inactive)
REMARK    1  A    between atoms: N1_1  and  C1_4 
REMARK    2  A    between atoms: C3_8  and  N3_9 
REMARK    3  A    between atoms: N3_9  and  C4_11 
REMARK    4  A    between atoms: C4_11  and  C5_12 
REMARK    5  A    between atoms: C5_12  and  C6_13 
REMARK    6  A    between atoms: C6_13  and  N4_14 
REMARK    7  A    between atoms: N8_28  and  N9_29 
ROOT
HETATM    1  C1  UNL     1     -20.138 -11.129  -2.613  1.00  0.00     0.699 A 
HETATM    2  N2  UNL     1     -21.249 -10.374  -2.858  1.00  0.00    -0.183 N 
ATOM      3  H2  UNL     1     -21.837  -9.947  -2.143  1.00  0.00     0.184 HD
HETATM    4  C2  UNL     1     -21.452 -10.278  -4.188  1.00  0.00     0.139 A 
HETATM    5  C3  UNL     1     -22.411  -9.643  -4.944  1.00  0.00     0.133 A 
HETATM    6  N6  UNL     1     -22.276  -9.781  -6.301  1.00  0.00    -0.337 N 
ATOM      7  H6  UNL     1     -22.958  -9.333  -6.914  1.00  0.00     0.168 HD
HETATM    8  C12 UNL     1     -21.280 -10.482  -6.847  1.00  0.00     0.183 A 
HETATM    9  N7  UNL     1     -20.353 -11.094  -6.096  1.00  0.00    -0.335 N 
ATOM     10  H7  UNL     1     -19.602 -11.624  -6.539  1.00  0.00     0.168 HD
HETATM   11  C13 UNL     1     -20.421 -11.003  -4.745  1.00  0.00     0.177 A 
HETATM   12  N8  UNL     1     -19.623 -11.520  -3.780  1.00  0.00    -0.074 N 
ENDROOT
BRANCH   5  13
HETATM   13  N3  UNL     1     -23.353  -8.982  -4.483  1.00  0.00    -0.374 N 
ATOM     14  H3  UNL     1     -23.067  -8.034  -4.235  1.00  0.00     0.161 HD
BRANCH  13  15
HETATM   15  C4  UNL     1     -24.705  -9.201  -4.216  1.00  0.00     0.123 C 
BRANCH  15  16
HETATM   16  C5  UNL     1     -24.924  -9.433  -2.698  1.00  0.00     0.050 C 
BRANCH  16  17
HETATM   17  C6  UNL     1     -26.382  -9.268  -2.472  1.00  0.00     0.274 C 
BRANCH  17  18
HETATM   18  N4  UNL     1     -27.237 -10.288  -2.960  1.00  0.00     0.090 N 
HETATM   19  C7  UNL     1     -28.617 -10.053  -2.577  1.00  0.00     0.274 C 
HETATM   20  C8  UNL     1     -29.488 -10.872  -3.508  1.00  0.00     0.049 C 
HETATM   21  C9  UNL     1     -29.786 -12.215  -2.911  1.00  0.00     0.115 C 
HETATM   22  N5  UNL     1     -28.720 -13.149  -3.004  1.00  0.00    -0.419 N 
HETATM   23  C10 UNL     1     -27.477 -12.671  -3.508  1.00  0.00     0.144 C 
ATOM     24  H5  UNL     1     -28.840 -14.122  -2.720  1.00  0.00     0.153 HD
HETATM   25  C11 UNL     1     -26.810 -11.612  -2.667  1.00  0.00     0.291 C 
ENDBRANCH  17  18
ENDBRANCH  16  17
ENDBRANCH  15  16
ENDBRANCH  13  15
ENDBRANCH   5  13
BRANCH   1  26
HETATM   26  N1  UNL     1     -19.667 -11.414  -1.423  1.00  0.00    -0.233 N 
ATOM     27  H12 UNL     1     -20.080 -12.058  -0.748  1.00  0.00     0.174 HD
ATOM     28  H11 UNL     1     -18.816 -11.022  -1.019  1.00  0.00     0.174 HD
ENDBRANCH   1  26
BRANCH  12  29
HETATM   29  N9  UNL     1     -18.488 -12.306  -3.964  1.00  0.00    -0.322 N 
ATOM     30  H92 UNL     1     -17.920 -12.743  -3.238  1.00  0.00     0.178 HD
ATOM     31  H91 UNL     1     -18.060 -12.556  -4.856  1.00  0.00     0.178 HD
ENDBRANCH  12  29
TORSDOF 7
ENDMDL
MODEL 2
REMARK VINA RESULT: -7.974430122      1.599      3.259
REMARK  7 active torsions:
REMARK  status: ('A' for Active; 'I' for Inactive)
REMARK    1  A    between atoms: N1_1  and  C1_4 
REMARK    2  A    between atoms: C3_8  and  N3_9 
REMARK    3  A    between atoms: N3_9  and  C4_11 
REMARK    4  A    between atoms: C4_11  and  C5_12 
REMARK    5  A    between atoms: C5_12  and  C6_13 
REMARK    6  A    between atoms: C6_13  and  N4_14 
REMARK    7  A    between atoms: N8_28  and  N9_29 
ROOT
HETATM    1  C1  UNL     1     -21.846  -9.947  -7.072  1.00  0.00     0.699 A 
HETATM    2  N2  UNL     1     -22.580 -10.641  -6.154  1.00  0.00    -0.183 N 
ATOM      3  H2  UNL     1     -23.594 -10.749  -6.175  1.00  0.00     0.184 HD
HETATM    4  C2  UNL     1     -21.763 -11.161  -5.215  1.00  0.00     0.139 A 
HETATM    5  C3  UNL     1     -21.995 -11.927  -4.096  1.00  0.00     0.133 A 
HETATM    6  N6  UNL     1     -20.879 -12.267  -3.375  1.00  0.00    -0.337 N 
ATOM      7  H6  UNL     1     -20.988 -12.834  -2.534  1.00  0.00     0.168 HD
HETATM    8  C12 UNL     1     -19.655 -11.881  -3.740  1.00  0.00     0.183 A 
HETATM    9  N7  UNL     1     -19.446 -11.134  -4.834  1.00  0.00    -0.335 N 
ATOM     10  H7  UNL     1     -18.500 -10.851  -5.090  1.00  0.00     0.168 HD
HETATM   11  C13 UNL     1     -20.502 -10.758  -5.597  1.00  0.00     0.177 A 
HETATM   12  N8  UNL     1     -20.558 -10.018  -6.731  1.00  0.00    -0.074 N 
ENDROOT
BRANCH   5  13
HETATM   13  N3  UNL     1     -23.112 -12.310  -3.718  1.00  0.00    -0.374 N 
ATOM     14  H3  UNL     1     -23.043 -13.072  -3.042  1.00  0.00     0.161 HD
BRANCH  13  15
HETATM   15  C4  UNL     1     -24.439 -11.967  -3.979  1.00  0.00     0.123 C 
BRANCH  15  16
HETATM   16  C5  UNL     1     -24.974 -11.008  -2.883  1.00  0.00     0.050 C 
BRANCH  16  17
HETATM   17  C6  UNL     1     -25.885 -11.824  -2.044  1.00  0.00     0.274 C 
BRANCH  17  18
HETATM   18  N4  UNL     1     -27.279 -11.655  -2.239  1.00  0.00     0.090 N 
HETATM   19  C7  UNL     1     -27.864 -12.801  -2.910  1.00  0.00     0.274 C 
HETATM   20  C8  UNL     1     -29.356 -12.762  -2.647  1.00  0.00     0.049 C 
HETATM   21  C9  UNL     1     -30.070 -12.037  -3.748  1.00  0.00     0.115 C 
HETATM   22  N5  UNL     1     -29.969 -10.621  -3.681  1.00  0.00    -0.419 N 
HETATM   23  C10 UNL     1     -29.107 -10.076  -2.689  1.00  0.00     0.144 C 
ATOM     24  H5  UNL     1     -30.493 -10.021  -4.319  1.00  0.00     0.153 HD
HETATM   25  C11 UNL     1     -27.648 -10.423  -2.847  1.00  0.00     0.291 C 
ENDBRANCH  17  18
ENDBRANCH  16  17
ENDBRANCH  15  16
ENDBRANCH  13  15
ENDBRANCH   5  13
BRANCH   1  26
HETATM   26  N1  UNL     1     -22.338  -9.319  -8.114  1.00  0.00    -0.233 N 
ATOM     27  H12 UNL     1     -22.954  -9.718  -8.823  1.00  0.00     0.174 HD
ATOM     28  H11 UNL     1     -22.165  -8.341  -8.346  1.00  0.00     0.174 HD
ENDBRANCH   1  26
BRANCH  12  29
HETATM   29  N9  UNL     1     -19.487  -9.442  -7.409  1.00  0.00    -0.322 N 
ATOM     30  H92 UNL     1     -19.113  -9.721  -8.316  1.00  0.00     0.178 HD
ATOM     31  H91 UNL     1     -18.920  -8.655  -7.092  1.00  0.00     0.178 HD
ENDBRANCH  12  29
TORSDOF 7
ENDMDL
MODEL 3
REMARK VINA RESULT: -7.750615115      2.540      6.410
REMARK  7 active torsions:
REMARK  status: ('A' for Active; 'I' for Inactive)
REMARK    1  A    between atoms: N1_1  and  C1_4 
REMARK    2  A    between atoms: C3_8  and  N3_9 
REMARK    3  A    between atoms: N3_9  and  C4_11 
REMARK    4  A    between atoms: C4_11  and  C5_12 
REMARK    5  A    between atoms: C5_12  and  C6_13 
REMARK    6  A    between atoms: C6_13  and  N4_14 
REMARK    7  A    between atoms: N8_28  and  N9_29 
ROOT
HETATM    1  C1  UNL     1     -23.893  -9.116  -1.913  1.00  0.00     0.699 A 
HETATM    2  N2  UNL     1     -23.076 -10.046  -2.486  1.00  0.00    -0.183 N 
ATOM      3  H2  UNL     1     -22.074 -10.134  -2.313  1.00  0.00     0.184 HD
HETATM    4  C2  UNL     1     -23.790 -10.833  -3.317  1.00  0.00     0.139 A 
HETATM    5  C3  UNL     1     -23.450 -11.897  -4.120  1.00  0.00     0.133 A 
HETATM    6  N6  UNL     1     -24.483 -12.449  -4.834  1.00  0.00    -0.337 N 
ATOM      7  H6  UNL     1     -24.291 -13.241  -5.448  1.00  0.00     0.168 HD
HETATM    8  C12 UNL     1     -25.730 -11.982  -4.751  1.00  0.00     0.183 A 
HETATM    9  N7  UNL     1     -26.045 -10.944  -3.963  1.00  0.00    -0.335 N 
ATOM     10  H7  UNL     1     -27.006 -10.606  -3.919  1.00  0.00     0.168 HD
HETATM   11  C13 UNL     1     -25.076 -10.346  -3.227  1.00  0.00     0.177 A 
HETATM   12  N8  UNL     1     -25.134  -9.299  -2.369  1.00  0.00    -0.074 N 
ENDROOT
BRANCH   5  13
HETATM   13  N3  UNL     1     -22.307 -12.365  -4.230  1.00  0.00    -0.374 N 
ATOM     14  H3  UNL     1     -22.130 -13.100  -3.544  1.00  0.00     0.161 HD
BRANCH  13  15
HETATM   15  C4  UNL     1     -21.200 -12.145  -5.050  1.00  0.00     0.123 C 
BRANCH  15  16
HETATM   16  C5  UNL     1     -20.134 -11.301  -4.302  1.00  0.00     0.050 C 
BRANCH  16  17
HETATM   17  C6  UNL     1     -20.332  -9.904  -4.761  1.00  0.00     0.274 C 
BRANCH  17  18
HETATM   18  N4  UNL     1     -21.051  -9.709  -5.967  1.00  0.00     0.090 N 
HETATM   19  C7  UNL     1     -20.182  -9.253  -7.036  1.00  0.00     0.274 C 
HETATM   20  C8  UNL     1     -20.894  -9.533  -8.345  1.00  0.00     0.049 C 
HETATM   21  C9  UNL     1     -21.687  -8.339  -8.784  1.00  0.00     0.115 C 
HETATM   22  N5  UNL     1     -22.917  -8.164  -8.094  1.00  0.00    -0.419 N 
HETATM   23  C10 UNL     1     -23.178  -9.034  -6.997  1.00  0.00     0.144 C 
ATOM     24  H5  UNL     1     -23.584  -7.444  -8.372  1.00  0.00     0.153 HD
HETATM   25  C11 UNL     1     -22.221  -8.909  -5.839  1.00  0.00     0.291 C 
ENDBRANCH  17  18
ENDBRANCH  16  17
ENDBRANCH  15  16
ENDBRANCH  13  15
ENDBRANCH   5  13
BRANCH   1  26
HETATM   26  N1  UNL     1     -23.509  -8.200  -1.055  1.00  0.00    -0.233 N 
ATOM     27  H12 UNL     1     -23.039  -8.366  -0.165  1.00  0.00     0.174 HD
ATOM     28  H11 UNL     1     -23.634  -7.195  -1.175  1.00  0.00     0.174 HD
ENDBRANCH   1  26
BRANCH  12  29
HETATM   29  N9  UNL     1     -26.261  -8.556  -2.028  1.00  0.00    -0.322 N 
ATOM     30  H92 UNL     1     -26.826  -7.977  -2.649  1.00  0.00     0.178 HD
ATOM     31  H91 UNL     1     -26.684  -8.485  -1.102  1.00  0.00     0.178 HD
ENDBRANCH  12  29
TORSDOF 7
ENDMDL
MODEL 4
REMARK VINA RESULT: -7.737484335      4.278      9.317
REMARK  7 active torsions:
REMARK  status: ('A' for Active; 'I' for Inactive)
REMARK    1  A    between atoms: N1_1  and  C1_4 
REMARK    2  A    between atoms: C3_8  and  N3_9 
REMARK    3  A    between atoms: N3_9  and  C4_11 
REMARK    4  A    between atoms: C4_11  and  C5_12 
REMARK    5  A    between atoms: C5_12  and  C6_13 
REMARK    6  A    between atoms: C6_13  and  N4_14 
REMARK    7  A    between atoms: N8_28  and  N9_29 
ROOT
HETATM    1  C1  UNL     1     -23.984 -10.974  -5.117  1.00  0.00     0.699 A 
HETATM    2  N2  UNL     1     -22.971 -10.527  -5.915  1.00  0.00    -0.183 N 
ATOM      3  H2  UNL     1     -23.095 -10.002  -6.781  1.00  0.00     0.184 HD
HETATM    4  C2  UNL     1     -21.782 -10.884  -5.388  1.00  0.00     0.139 A 
HETATM    5  C3  UNL     1     -20.482 -10.683  -5.792  1.00  0.00     0.133 A 
HETATM    6  N6  UNL     1     -19.522 -11.212  -4.968  1.00  0.00    -0.337 N 
ATOM      7  H6  UNL     1     -18.539 -11.096  -5.217  1.00  0.00     0.168 HD
HETATM    8  C12 UNL     1     -19.833 -11.873  -3.851  1.00  0.00     0.183 A 
HETATM    9  N7  UNL     1     -21.105 -12.059  -3.471  1.00  0.00    -0.335 N 
ATOM     10  H7  UNL     1     -21.314 -12.569  -2.613  1.00  0.00     0.168 HD
HETATM   11  C13 UNL     1     -22.109 -11.566  -4.236  1.00  0.00     0.177 A 
HETATM   12  N8  UNL     1     -23.454 -11.618  -4.075  1.00  0.00    -0.074 N 
ENDROOT
BRANCH   5  13
HETATM   13  N3  UNL     1     -20.146 -10.077  -6.820  1.00  0.00    -0.374 N 
ATOM     14  H3  UNL     1     -19.911 -10.717  -7.579  1.00  0.00     0.161 HD
BRANCH  13  15
HETATM   15  C4  UNL     1     -20.005  -8.743  -7.205  1.00  0.00     0.123 C 
BRANCH  15  16
HETATM   16  C5  UNL     1     -18.609  -8.207  -6.792  1.00  0.00     0.050 C 
BRANCH  16  17
HETATM   17  C6  UNL     1     -18.181  -7.308  -7.893  1.00  0.00     0.274 C 
BRANCH  17  18
HETATM   18  N4  UNL     1     -17.011  -7.665  -8.610  1.00  0.00     0.090 N 
HETATM   19  C7  UNL     1     -16.594  -9.022  -8.305  1.00  0.00     0.274 C 
HETATM   20  C8  UNL     1     -15.679  -9.473  -9.425  1.00  0.00     0.049 C 
HETATM   21  C9  UNL     1     -14.246  -9.195  -9.083  1.00  0.00     0.115 C 
HETATM   22  N5  UNL     1     -13.856  -7.839  -9.242  1.00  0.00    -0.419 N 
HETATM   23  C10 UNL     1     -14.878  -6.900  -9.559  1.00  0.00     0.144 C 
ATOM     24  H5  UNL     1     -12.884  -7.549  -9.133  1.00  0.00     0.153 HD
HETATM   25  C11 UNL     1     -15.943  -6.732  -8.505  1.00  0.00     0.291 C 
ENDBRANCH  17  18
ENDBRANCH  16  17
ENDBRANCH  15  16
ENDBRANCH  13  15
ENDBRANCH   5  13
BRANCH   1  26
HETATM   26  N1  UNL     1     -25.263 -10.793  -5.347  1.00  0.00    -0.233 N 
ATOM     27  H12 UNL     1     -25.706 -10.714  -6.263  1.00  0.00     0.174 HD
ATOM     28  H11 UNL     1     -25.982 -10.708  -4.629  1.00  0.00     0.174 HD
ENDBRANCH   1  26
BRANCH  12  29
HETATM   29  N9  UNL     1     -24.150 -12.223  -3.032  1.00  0.00    -0.322 N 
ATOM     30  H92 UNL     1     -24.467 -11.782  -2.168  1.00  0.00     0.178 HD
ATOM     31  H91 UNL     1     -24.443 -13.199  -2.982  1.00  0.00     0.178 HD
ENDBRANCH  12  29
TORSDOF 7
ENDMDL
MODEL 5
REMARK VINA RESULT: -7.658527420      4.583      9.732
REMARK  7 active torsions:
REMARK  status: ('A' for Active; 'I' for Inactive)
REMARK    1  A    between atoms: N1_1  and  C1_4 
REMARK    2  A    between atoms: C3_8  and  N3_9 
REMARK    3  A    between atoms: N3_9  and  C4_11 
REMARK    4  A    between atoms: C4_11  and  C5_12 
REMARK    5  A    between atoms: C5_12  and  C6_13 
REMARK    6  A    between atoms: C6_13  and  N4_14 
REMARK    7  A    between atoms: N8_28  and  N9_29 
ROOT
HETATM    1  C1  UNL     1     -23.494 -11.016  -5.278  1.00  0.00     0.699 A 
HETATM    2  N2  UNL     1     -22.381 -10.544  -5.911  1.00  0.00    -0.183 N 
ATOM      3  H2  UNL     1     -22.383  -9.991  -6.768  1.00  0.00     0.184 HD
HETATM    4  C2  UNL     1     -21.276 -10.919  -5.233  1.00  0.00     0.139 A 
HETATM    5  C3  UNL     1     -19.933 -10.706  -5.443  1.00  0.00     0.133 A 
HETATM    6  N6  UNL     1     -19.097 -11.261  -4.510  1.00  0.00    -0.337 N 
ATOM      7  H6  UNL     1     -18.089 -11.138  -4.613  1.00  0.00     0.168 HD
HETATM    8  C12 UNL     1     -19.559 -11.958  -3.469  1.00  0.00     0.183 A 
HETATM    9  N7  UNL     1     -20.871 -12.156  -3.279  1.00  0.00    -0.335 N 
ATOM     10  H7  UNL     1     -21.198 -12.693  -2.475  1.00  0.00     0.168 HD
HETATM   11  C13 UNL     1     -21.760 -11.637  -4.161  1.00  0.00     0.177 A 
HETATM   12  N8  UNL     1     -23.113 -11.694  -4.193  1.00  0.00    -0.074 N 
ENDROOT
BRANCH   5  13
HETATM   13  N3  UNL     1     -19.457 -10.066  -6.394  1.00  0.00    -0.374 N 
ATOM     14  H3  UNL     1     -19.026 -10.680  -7.086  1.00  0.00     0.161 HD
BRANCH  13  15
HETATM   15  C4  UNL     1     -19.360  -8.723  -6.758  1.00  0.00     0.123 C 
BRANCH  15  16
HETATM   16  C5  UNL     1     -17.871  -8.313  -6.911  1.00  0.00     0.050 C 
BRANCH  16  17
HETATM   17  C6  UNL     1     -17.415  -8.918  -8.187  1.00  0.00     0.274 C 
BRANCH  17  18
HETATM   18  N4  UNL     1     -16.032  -8.841  -8.488  1.00  0.00     0.090 N 
HETATM   19  C7  UNL     1     -15.747  -7.752  -9.404  1.00  0.00     0.274 C 
HETATM   20  C8  UNL     1     -14.268  -7.444  -9.289  1.00  0.00     0.049 C 
HETATM   21  C9  UNL     1     -13.485  -8.210 -10.312  1.00  0.00     0.115 C 
HETATM   22  N5  UNL     1     -13.276  -9.578  -9.988  1.00  0.00    -0.419 N 
HETATM   23  C10 UNL     1     -13.940 -10.082  -8.834  1.00  0.00     0.144 C 
ATOM     24  H5  UNL     1     -12.677 -10.174 -10.559  1.00  0.00     0.153 HD
HETATM   25  C11 UNL     1     -15.446 -10.068  -8.904  1.00  0.00     0.291 C 
ENDBRANCH  17  18
ENDBRANCH  16  17
ENDBRANCH  15  16
ENDBRANCH  13  15
ENDBRANCH   5  13
BRANCH   1  26
HETATM   26  N1  UNL     1     -24.728 -10.827  -5.681  1.00  0.00    -0.233 N 
ATOM     27  H12 UNL     1     -25.071 -10.033  -6.221  1.00  0.00     0.174 HD
ATOM     28  H11 UNL     1     -25.508 -11.459  -5.501  1.00  0.00     0.174 HD
ENDBRANCH   1  26
BRANCH  12  29
HETATM   29  N9  UNL     1     -23.947 -12.332  -3.278  1.00  0.00    -0.322 N 
ATOM     30  H92 UNL     1     -24.835 -11.987  -2.913  1.00  0.00     0.178 HD
ATOM     31  H91 UNL     1     -23.787 -13.239  -2.841  1.00  0.00     0.178 HD
ENDBRANCH  12  29
TORSDOF 7
ENDMDL
