MODEL 1
REMARK VINA RESULT: -9.068762975      0.000      0.000
REMARK  13 active torsions:
REMARK  status: ('A' for Active; 'I' for Inactive)
REMARK    1  A    between atoms: C2_2  and  C3_3 
REMARK    2  A    between atoms: C3_3  and  C4_4 
REMARK    3  A    between atoms: C4_4  and  C5_5 
REMARK    4  A    between atoms: C4_4  and  O8_42 
REMARK    5  A    between atoms: C5_5  and  C6_6 
REMARK    6  A    between atoms: C6_6  and  C7_7 
REMARK       I    between atoms: C7_7  and  N1_9 
REMARK    7  A    between atoms: N1_9  and  C8_11 
REMARK    8  A    between atoms: C8_11  and  C9_12 
REMARK    9  A    between atoms: C9_12  and  C10_14 
REMARK   10  A    between atoms: C17_22  and  C18_23 
REMARK   11  A    between atoms: C18_23  and  C19_24 
REMARK       I    between atoms: C19_24  and  N2_26 
REMARK   12  A    between atoms: C23_30  and  C24_31 
REMARK       I    between atoms: C24_31  and  N3_33 
REMARK   13  A    between atoms: C28_37  and  C29_38 
ROOT
HETATM    1  C10 UNL     1      17.709  23.183  18.767  1.00  0.00     0.332 C 
HETATM    2  O3  UNL     1      18.156  23.553  17.539  1.00  0.00    -0.348 OA
HETATM    3  C11 UNL     1      17.232  24.107  16.682  1.00  0.00     0.131 C 
HETATM    4  C12 UNL     1      17.560  23.800  15.244  1.00  0.00     0.032 C 
HETATM    5  C13 UNL     1      16.871  22.584  14.698  1.00  0.00     0.002 C 
HETATM    6  C14 UNL     1      15.378  22.682  14.834  1.00  0.00     0.001 C 
HETATM    7  C15 UNL     1      14.971  23.790  15.773  1.00  0.00     0.010 C 
HETATM    8  C16 UNL     1      15.801  23.814  17.037  1.00  0.00     0.044 C 
HETATM    9  C17 UNL     1      15.718  22.515  17.776  1.00  0.00     0.140 C 
HETATM   10  O7  UNL     1      16.597  22.392  18.811  1.00  0.00    -0.348 OA
ENDROOT
BRANCH   9  11
HETATM   11  C18 UNL     1      14.310  22.336  18.297  1.00  0.00     0.135 C 
BRANCH  11  12
HETATM   12  C19 UNL     1      14.358  21.166  19.211  1.00  0.00     0.223 C 
HETATM   13  O4  UNL     1      14.732  21.302  20.405  1.00  0.00    -0.273 OA
HETATM   14  N2  UNL     1      13.992  19.849  18.792  1.00  0.00    -0.333 N 
HETATM   15  C20 UNL     1      13.926  18.533  19.354  1.00  0.00     0.095 A 
HETATM   16  C23 UNL     1      13.508  19.363  17.498  1.00  0.00     0.186 A 
HETATM   17  C21 UNL     1      14.688  17.423  18.688  1.00  0.00     0.035 A 
HETATM   18  C22 UNL     1      13.470  17.971  18.084  1.00  0.00     0.043 A 
BRANCH  16  19
HETATM   19  C24 UNL     1      12.118  19.815  17.213  1.00  0.00     0.244 C 
HETATM   20  O5  UNL     1      11.311  19.914  18.174  1.00  0.00    -0.271 OA
HETATM   21  N3  UNL     1      11.753  20.114  15.893  1.00  0.00    -0.337 N 
HETATM   22  C25 UNL     1      12.605  20.051  14.732  1.00  0.00     0.127 C 
HETATM   23  C28 UNL     1      10.467  20.550  15.411  1.00  0.00     0.176 C 
HETATM   24  C26 UNL     1      12.333  21.431  14.121  1.00  0.00     0.022 C 
HETATM   25  C27 UNL     1      10.856  21.615  14.411  1.00  0.00     0.036 C 
BRANCH  23  26
HETATM   26  C29 UNL     1       9.747  19.413  14.812  1.00  0.00     0.254 C 
HETATM   27  N4  UNL     1       9.350  19.528  13.450  1.00  0.00    -0.060 NA
HETATM   28  O6  UNL     1       9.466  18.359  15.421  1.00  0.00    -0.275 OA
ENDBRANCH  23  26
ENDBRANCH  16  19
ENDBRANCH  11  12
ENDBRANCH   9  11
BRANCH   1  29
HETATM   29  C9  UNL     1      18.802  22.460  19.474  1.00  0.00     0.198 C 
HETATM   30  O2  UNL     1      18.774  21.223  19.564  1.00  0.00    -0.291 OA
BRANCH  29  31
HETATM   31  C8  UNL     1      19.954  23.149  20.092  1.00  0.00     0.206 C 
BRANCH  31  32
HETATM   32  N1  UNL     1      20.730  23.940  19.199  1.00  0.00    -0.354 N 
HETATM   33  C7  UNL     1      21.081  25.299  19.423  1.00  0.00     0.217 C 
HETATM   34  O1  UNL     1      20.664  25.824  20.477  1.00  0.00    -0.274 OA
ATOM     35  H1  UNL     1      21.059  23.501  18.339  1.00  0.00     0.162 HD
BRANCH  33  36
HETATM   36  C6  UNL     1      21.895  26.081  18.479  1.00  0.00     0.105 C 
BRANCH  36  37
HETATM   37  C5  UNL     1      21.150  27.279  17.922  1.00  0.00     0.041 C 
BRANCH  37  38
HETATM   38  C4  UNL     1      21.146  27.359  16.433  1.00  0.00     0.121 C 
BRANCH  38  39
HETATM   39  C3  UNL     1      19.859  26.847  15.865  1.00  0.00     0.031 C 
BRANCH  39  40
HETATM   40  C2  UNL     1      20.055  26.389  14.448  1.00  0.00    -0.002 C 
HETATM   41  C1  UNL     1      21.359  25.598  14.311  1.00  0.00     0.005 C 
ENDBRANCH  39  40
ENDBRANCH  38  39
BRANCH  38  42
HETATM   42  O8  UNL     1      21.247  28.694  15.993  1.00  0.00    -0.391 OA
HETATM   43  C30 UNL     1      22.467  28.999  15.441  1.00  0.00     0.202 C 
ENDBRANCH  38  42
ENDBRANCH  37  38
ENDBRANCH  36  37
ENDBRANCH  33  36
ENDBRANCH  31  32
ENDBRANCH  29  31
ENDBRANCH   1  29
TORSDOF 13
ENDMDL
MODEL 2
REMARK VINA RESULT: -9.000225685      1.963      9.450
REMARK  13 active torsions:
REMARK  status: ('A' for Active; 'I' for Inactive)
REMARK    1  A    between atoms: C2_2  and  C3_3 
REMARK    2  A    between atoms: C3_3  and  C4_4 
REMARK    3  A    between atoms: C4_4  and  C5_5 
REMARK    4  A    between atoms: C4_4  and  O8_42 
REMARK    5  A    between atoms: C5_5  and  C6_6 
REMARK    6  A    between atoms: C6_6  and  C7_7 
REMARK       I    between atoms: C7_7  and  N1_9 
REMARK    7  A    between atoms: N1_9  and  C8_11 
REMARK    8  A    between atoms: C8_11  and  C9_12 
REMARK    9  A    between atoms: C9_12  and  C10_14 
REMARK   10  A    between atoms: C17_22  and  C18_23 
REMARK   11  A    between atoms: C18_23  and  C19_24 
REMARK       I    between atoms: C19_24  and  N2_26 
REMARK   12  A    between atoms: C23_30  and  C24_31 
REMARK       I    between atoms: C24_31  and  N3_33 
REMARK   13  A    between atoms: C28_37  and  C29_38 
ROOT
HETATM    1  C10 UNL     1      15.202  20.461  18.093  1.00  0.00     0.332 C 
HETATM    2  O3  UNL     1      14.189  20.700  17.221  1.00  0.00    -0.348 OA
HETATM    3  C11 UNL     1      14.542  21.014  15.928  1.00  0.00     0.131 C 
HETATM    4  C12 UNL     1      13.535  21.932  15.288  1.00  0.00     0.032 C 
HETATM    5  C13 UNL     1      13.868  23.391  15.400  1.00  0.00     0.002 C 
HETATM    6  C14 UNL     1      15.222  23.698  14.826  1.00  0.00     0.001 C 
HETATM    7  C15 UNL     1      16.033  22.446  14.602  1.00  0.00     0.010 C 
HETATM    8  C16 UNL     1      15.960  21.489  15.770  1.00  0.00     0.044 C 
HETATM    9  C17 UNL     1      16.424  22.131  17.039  1.00  0.00     0.140 C 
HETATM   10  O7  UNL     1      16.194  21.397  18.165  1.00  0.00    -0.348 OA
ENDROOT
BRANCH   9  11
HETATM   11  C18 UNL     1      17.904  22.420  16.930  1.00  0.00     0.135 C 
BRANCH  11  12
HETATM   12  C19 UNL     1      18.468  22.186  18.285  1.00  0.00     0.223 C 
HETATM   13  O4  UNL     1      18.575  21.017  18.739  1.00  0.00    -0.273 OA
HETATM   14  N2  UNL     1      18.908  23.253  19.128  1.00  0.00    -0.333 N 
HETATM   15  C20 UNL     1      19.465  23.414  20.438  1.00  0.00     0.095 A 
HETATM   16  C23 UNL     1      18.934  24.699  18.895  1.00  0.00     0.186 A 
HETATM   17  C21 UNL     1      18.755  24.300  21.422  1.00  0.00     0.035 A 
HETATM   18  C22 UNL     1      19.492  24.869  20.290  1.00  0.00     0.043 A 
BRANCH  16  19
HETATM   19  C24 UNL     1      19.970  25.089  17.901  1.00  0.00     0.244 C 
HETATM   20  O5  UNL     1      21.169  24.787  18.133  1.00  0.00    -0.271 OA
HETATM   21  N3  UNL     1      19.581  25.776  16.742  1.00  0.00    -0.337 N 
HETATM   22  C25 UNL     1      18.238  26.150  16.376  1.00  0.00     0.127 C 
HETATM   23  C28 UNL     1      20.424  26.250  15.674  1.00  0.00     0.176 C 
HETATM   24  C26 UNL     1      18.191  25.619  14.938  1.00  0.00     0.022 C 
HETATM   25  C27 UNL     1      19.599  25.906  14.454  1.00  0.00     0.036 C 
BRANCH  23  26
HETATM   26  C29 UNL     1      20.668  27.695  15.832  1.00  0.00     0.254 C 
HETATM   27  N4  UNL     1      21.470  28.111  16.932  1.00  0.00    -0.060 NA
HETATM   28  O6  UNL     1      20.218  28.571  15.065  1.00  0.00    -0.275 OA
ENDBRANCH  23  26
ENDBRANCH  16  19
ENDBRANCH  11  12
ENDBRANCH   9  11
BRANCH   1  29
HETATM   29  C9  UNL     1      14.629  20.309  19.460  1.00  0.00     0.198 C 
HETATM   30  O2  UNL     1      14.826  21.184  20.318  1.00  0.00    -0.291 OA
BRANCH  29  31
HETATM   31  C8  UNL     1      13.815  19.145  19.865  1.00  0.00     0.206 C 
BRANCH  31  32
HETATM   32  N1  UNL     1      12.996  18.597  18.838  1.00  0.00    -0.354 N 
HETATM   33  C7  UNL     1      11.591  18.410  18.940  1.00  0.00     0.217 C 
HETATM   34  O1  UNL     1      11.053  18.747  20.016  1.00  0.00    -0.274 OA
ATOM     35  H1  UNL     1      13.450  18.320  17.967  1.00  0.00     0.162 HD
BRANCH  33  36
HETATM   36  C6  UNL     1      10.778  17.847  17.851  1.00  0.00     0.105 C 
BRANCH  36  37
HETATM   37  C5  UNL     1      11.127  18.440  16.499  1.00  0.00     0.041 C 
BRANCH  37  38
HETATM   38  C4  UNL     1      10.001  19.161  15.838  1.00  0.00     0.121 C 
BRANCH  38  39
HETATM   39  C3  UNL     1      10.498  20.320  15.030  1.00  0.00     0.031 C 
BRANCH  39  40
HETATM   40  C2  UNL     1       9.436  21.376  14.918  1.00  0.00    -0.002 C 
HETATM   41  C1  UNL     1       9.143  21.693  13.449  1.00  0.00     0.005 C 
ENDBRANCH  39  40
ENDBRANCH  38  39
BRANCH  38  42
HETATM   42  O8  UNL     1       9.326  18.327  14.924  1.00  0.00    -0.391 OA
HETATM   43  C30 UNL     1      10.153  17.750  13.993  1.00  0.00     0.202 C 
ENDBRANCH  38  42
ENDBRANCH  37  38
ENDBRANCH  36  37
ENDBRANCH  33  36
ENDBRANCH  31  32
ENDBRANCH  29  31
ENDBRANCH   1  29
TORSDOF 13
ENDMDL
MODEL 3
REMARK VINA RESULT: -8.937688768      0.817      1.213
REMARK  13 active torsions:
REMARK  status: ('A' for Active; 'I' for Inactive)
REMARK    1  A    between atoms: C2_2  and  C3_3 
REMARK    2  A    between atoms: C3_3  and  C4_4 
REMARK    3  A    between atoms: C4_4  and  C5_5 
REMARK    4  A    between atoms: C4_4  and  O8_42 
REMARK    5  A    between atoms: C5_5  and  C6_6 
REMARK    6  A    between atoms: C6_6  and  C7_7 
REMARK       I    between atoms: C7_7  and  N1_9 
REMARK    7  A    between atoms: N1_9  and  C8_11 
REMARK    8  A    between atoms: C8_11  and  C9_12 
REMARK    9  A    between atoms: C9_12  and  C10_14 
REMARK   10  A    between atoms: C17_22  and  C18_23 
REMARK   11  A    between atoms: C18_23  and  C19_24 
REMARK       I    between atoms: C19_24  and  N2_26 
REMARK   12  A    between atoms: C23_30  and  C24_31 
REMARK       I    between atoms: C24_31  and  N3_33 
REMARK   13  A    between atoms: C28_37  and  C29_38 
ROOT
HETATM    1  C10 UNL     1      17.407  23.533  18.781  1.00  0.00     0.332 C 
HETATM    2  O3  UNL     1      17.912  23.887  17.570  1.00  0.00    -0.348 OA
HETATM    3  C11 UNL     1      17.007  24.281  16.611  1.00  0.00     0.131 C 
HETATM    4  C12 UNL     1      17.488  23.939  15.225  1.00  0.00     0.032 C 
HETATM    5  C13 UNL     1      16.990  22.622  14.705  1.00  0.00     0.002 C 
HETATM    6  C14 UNL     1      15.490  22.550  14.718  1.00  0.00     0.001 C 
HETATM    7  C15 UNL     1      14.882  23.651  15.551  1.00  0.00     0.010 C 
HETATM    8  C16 UNL     1      15.593  23.841  16.872  1.00  0.00     0.044 C 
HETATM    9  C17 UNL     1      15.596  22.582  17.682  1.00  0.00     0.140 C 
HETATM   10  O7  UNL     1      16.392  22.620  18.788  1.00  0.00    -0.348 OA
ENDROOT
BRANCH   9  11
HETATM   11  C18 UNL     1      14.178  22.266  18.102  1.00  0.00     0.135 C 
BRANCH  11  12
HETATM   12  C19 UNL     1      14.280  21.150  19.077  1.00  0.00     0.223 C 
HETATM   13  O4  UNL     1      14.686  21.360  20.250  1.00  0.00    -0.273 OA
HETATM   14  N2  UNL     1      13.932  19.804  18.742  1.00  0.00    -0.333 N 
HETATM   15  C20 UNL     1      13.913  18.520  19.377  1.00  0.00     0.095 A 
HETATM   16  C23 UNL     1      13.421  19.238  17.492  1.00  0.00     0.186 A 
HETATM   17  C21 UNL     1      14.680  17.391  18.749  1.00  0.00     0.035 A 
HETATM   18  C22 UNL     1      13.432  17.879  18.154  1.00  0.00     0.043 A 
BRANCH  16  19
HETATM   19  C24 UNL     1      12.013  19.643  17.226  1.00  0.00     0.244 C 
HETATM   20  O5  UNL     1      11.194  19.628  18.181  1.00  0.00    -0.271 OA
HETATM   21  N3  UNL     1      11.646  20.028  15.929  1.00  0.00    -0.337 N 
HETATM   22  C25 UNL     1      12.510  20.098  14.778  1.00  0.00     0.127 C 
HETATM   23  C28 UNL     1      10.345  20.438  15.466  1.00  0.00     0.176 C 
HETATM   24  C26 UNL     1      12.177  21.508  14.273  1.00  0.00     0.022 C 
HETATM   25  C27 UNL     1      10.691  21.597  14.558  1.00  0.00     0.036 C 
BRANCH  23  26
HETATM   26  C29 UNL     1       9.686  19.319  14.770  1.00  0.00     0.254 C 
HETATM   27  N4  UNL     1       9.359  19.498  13.397  1.00  0.00    -0.060 NA
HETATM   28  O6  UNL     1       9.400  18.229  15.308  1.00  0.00    -0.275 OA
ENDBRANCH  23  26
ENDBRANCH  16  19
ENDBRANCH  11  12
ENDBRANCH   9  11
BRANCH   1  29
HETATM   29  C9  UNL     1      18.512  22.983  19.615  1.00  0.00     0.198 C 
HETATM   30  O2  UNL     1      18.714  21.759  19.652  1.00  0.00    -0.291 OA
BRANCH  29  31
HETATM   31  C8  UNL     1      19.408  23.834  20.425  1.00  0.00     0.206 C 
BRANCH  31  32
HETATM   32  N1  UNL     1      19.685  25.114  19.869  1.00  0.00    -0.354 N 
HETATM   33  C7  UNL     1      20.830  25.422  19.086  1.00  0.00     0.217 C 
HETATM   34  O1  UNL     1      21.646  24.497  18.888  1.00  0.00    -0.274 OA
ATOM     35  H1  UNL     1      19.015  25.863  20.045  1.00  0.00     0.162 HD
BRANCH  33  36
HETATM   36  C6  UNL     1      21.077  26.758  18.521  1.00  0.00     0.105 C 
BRANCH  36  37
HETATM   37  C5  UNL     1      20.645  26.866  17.071  1.00  0.00     0.041 C 
BRANCH  37  38
HETATM   38  C4  UNL     1      21.485  27.781  16.248  1.00  0.00     0.121 C 
BRANCH  38  39
HETATM   39  C3  UNL     1      22.296  27.020  15.245  1.00  0.00     0.031 C 
BRANCH  39  40
HETATM   40  C2  UNL     1      23.761  27.143  15.551  1.00  0.00    -0.002 C 
HETATM   41  C1  UNL     1      24.167  28.615  15.669  1.00  0.00     0.005 C 
ENDBRANCH  39  40
ENDBRANCH  38  39
BRANCH  38  42
HETATM   42  O8  UNL     1      20.690  28.667  15.494  1.00  0.00    -0.391 OA
HETATM   43  C30 UNL     1      20.317  28.166  14.271  1.00  0.00     0.202 C 
ENDBRANCH  38  42
ENDBRANCH  37  38
ENDBRANCH  36  37
ENDBRANCH  33  36
ENDBRANCH  31  32
ENDBRANCH  29  31
ENDBRANCH   1  29
TORSDOF 13
ENDMDL
MODEL 4
REMARK VINA RESULT: -8.834422557      2.019      9.247
REMARK  13 active torsions:
REMARK  status: ('A' for Active; 'I' for Inactive)
REMARK    1  A    between atoms: C2_2  and  C3_3 
REMARK    2  A    between atoms: C3_3  and  C4_4 
REMARK    3  A    between atoms: C4_4  and  C5_5 
REMARK    4  A    between atoms: C4_4  and  O8_42 
REMARK    5  A    between atoms: C5_5  and  C6_6 
REMARK    6  A    between atoms: C6_6  and  C7_7 
REMARK       I    between atoms: C7_7  and  N1_9 
REMARK    7  A    between atoms: N1_9  and  C8_11 
REMARK    8  A    between atoms: C8_11  and  C9_12 
REMARK    9  A    between atoms: C9_12  and  C10_14 
REMARK   10  A    between atoms: C17_22  and  C18_23 
REMARK   11  A    between atoms: C18_23  and  C19_24 
REMARK       I    between atoms: C19_24  and  N2_26 
REMARK   12  A    between atoms: C23_30  and  C24_31 
REMARK       I    between atoms: C24_31  and  N3_33 
REMARK   13  A    between atoms: C28_37  and  C29_38 
ROOT
HETATM    1  C10 UNL     1      15.078  20.531  18.139  1.00  0.00     0.332 C 
HETATM    2  O3  UNL     1      14.062  20.713  17.257  1.00  0.00    -0.348 OA
HETATM    3  C11 UNL     1      14.412  20.956  15.948  1.00  0.00     0.131 C 
HETATM    4  C12 UNL     1      13.397  21.829  15.258  1.00  0.00     0.032 C 
HETATM    5  C13 UNL     1      13.721  23.294  15.287  1.00  0.00     0.002 C 
HETATM    6  C14 UNL     1      15.072  23.577  14.694  1.00  0.00     0.001 C 
HETATM    7  C15 UNL     1      15.892  22.321  14.539  1.00  0.00     0.010 C 
HETATM    8  C16 UNL     1      15.826  21.431  15.760  1.00  0.00     0.044 C 
HETATM    9  C17 UNL     1      16.287  22.147  16.990  1.00  0.00     0.140 C 
HETATM   10  O7  UNL     1      16.063  21.477  18.156  1.00  0.00    -0.348 OA
ENDROOT
BRANCH   9  11
HETATM   11  C18 UNL     1      17.765  22.440  16.863  1.00  0.00     0.135 C 
BRANCH  11  12
HETATM   12  C19 UNL     1      18.357  22.143  18.193  1.00  0.00     0.223 C 
HETATM   13  O4  UNL     1      18.444  20.956  18.603  1.00  0.00    -0.273 OA
HETATM   14  N2  UNL     1      18.848  23.167  19.061  1.00  0.00    -0.333 N 
HETATM   15  C20 UNL     1      19.443  23.266  20.360  1.00  0.00     0.095 A 
HETATM   16  C23 UNL     1      18.907  24.619  18.879  1.00  0.00     0.186 A 
HETATM   17  C21 UNL     1      18.783  24.134  21.394  1.00  0.00     0.035 A 
HETATM   18  C22 UNL     1      19.505  24.724  20.263  1.00  0.00     0.043 A 
BRANCH  16  19
HETATM   19  C24 UNL     1      19.927  25.018  17.871  1.00  0.00     0.244 C 
HETATM   20  O5  UNL     1      21.124  24.680  18.062  1.00  0.00    -0.271 OA
HETATM   21  N3  UNL     1      19.526  25.752  16.746  1.00  0.00    -0.337 N 
HETATM   22  C25 UNL     1      18.184  26.170  16.428  1.00  0.00     0.127 C 
HETATM   23  C28 UNL     1      20.352  26.242  15.673  1.00  0.00     0.176 C 
HETATM   24  C26 UNL     1      18.087  25.689  14.975  1.00  0.00     0.022 C 
HETATM   25  C27 UNL     1      19.489  25.959  14.464  1.00  0.00     0.036 C 
BRANCH  23  26
HETATM   26  C29 UNL     1      20.636  27.674  15.872  1.00  0.00     0.254 C 
HETATM   27  N4  UNL     1      20.291  28.567  14.819  1.00  0.00    -0.060 NA
HETATM   28  O6  UNL     1      21.156  28.149  16.904  1.00  0.00    -0.275 OA
ENDBRANCH  23  26
ENDBRANCH  16  19
ENDBRANCH  11  12
ENDBRANCH   9  11
BRANCH   1  29
HETATM   29  C9  UNL     1      14.507  20.453  19.513  1.00  0.00     0.198 C 
HETATM   30  O2  UNL     1      14.749  21.347  20.339  1.00  0.00    -0.291 OA
BRANCH  29  31
HETATM   31  C8  UNL     1      13.644  19.342  19.963  1.00  0.00     0.206 C 
BRANCH  31  32
HETATM   32  N1  UNL     1      13.190  18.477  18.928  1.00  0.00    -0.354 N 
HETATM   33  C7  UNL     1      11.833  18.113  18.719  1.00  0.00     0.217 C 
HETATM   34  O1  UNL     1      10.992  18.586  19.512  1.00  0.00    -0.274 OA
ATOM     35  H1  UNL     1      13.889  18.091  18.292  1.00  0.00     0.162 HD
BRANCH  33  36
HETATM   36  C6  UNL     1      11.402  17.221  17.631  1.00  0.00     0.105 C 
BRANCH  36  37
HETATM   37  C5  UNL     1      10.402  17.879  16.700  1.00  0.00     0.041 C 
BRANCH  37  38
HETATM   38  C4  UNL     1      10.939  19.057  15.959  1.00  0.00     0.121 C 
BRANCH  38  39
HETATM   39  C3  UNL     1      10.605  18.981  14.502  1.00  0.00     0.031 C 
BRANCH  39  40
HETATM   40  C2  UNL     1      11.842  18.720  13.692  1.00  0.00    -0.002 C 
HETATM   41  C1  UNL     1      11.947  19.712  12.530  1.00  0.00     0.005 C 
ENDBRANCH  39  40
ENDBRANCH  38  39
BRANCH  38  42
HETATM   42  O8  UNL     1      10.359  20.257  16.417  1.00  0.00    -0.391 OA
HETATM   43  C30 UNL     1       9.492  20.826  15.517  1.00  0.00     0.202 C 
ENDBRANCH  38  42
ENDBRANCH  37  38
ENDBRANCH  36  37
ENDBRANCH  33  36
ENDBRANCH  31  32
ENDBRANCH  29  31
ENDBRANCH   1  29
TORSDOF 13
ENDMDL
MODEL 5
REMARK VINA RESULT: -8.768310669      2.172     10.504
REMARK  13 active torsions:
REMARK  status: ('A' for Active; 'I' for Inactive)
REMARK    1  A    between atoms: C2_2  and  C3_3 
REMARK    2  A    between atoms: C3_3  and  C4_4 
REMARK    3  A    between atoms: C4_4  and  C5_5 
REMARK    4  A    between atoms: C4_4  and  O8_42 
REMARK    5  A    between atoms: C5_5  and  C6_6 
REMARK    6  A    between atoms: C6_6  and  C7_7 
REMARK       I    between atoms: C7_7  and  N1_9 
REMARK    7  A    between atoms: N1_9  and  C8_11 
REMARK    8  A    between atoms: C8_11  and  C9_12 
REMARK    9  A    between atoms: C9_12  and  C10_14 
REMARK   10  A    between atoms: C17_22  and  C18_23 
REMARK   11  A    between atoms: C18_23  and  C19_24 
REMARK       I    between atoms: C19_24  and  N2_26 
REMARK   12  A    between atoms: C23_30  and  C24_31 
REMARK       I    between atoms: C24_31  and  N3_33 
REMARK   13  A    between atoms: C28_37  and  C29_38 
ROOT
HETATM    1  C10 UNL     1      15.012  23.144  16.189  1.00  0.00     0.332 C 
HETATM    2  O3  UNL     1      15.094  22.023  16.952  1.00  0.00    -0.348 OA
HETATM    3  C11 UNL     1      15.550  22.180  18.241  1.00  0.00     0.131 C 
HETATM    4  C12 UNL     1      16.283  20.955  18.721  1.00  0.00     0.032 C 
HETATM    5  C13 UNL     1      17.770  21.007  18.523  1.00  0.00     0.002 C 
HETATM    6  C14 UNL     1      18.376  22.212  19.183  1.00  0.00     0.001 C 
HETATM    7  C15 UNL     1      17.330  23.226  19.573  1.00  0.00     0.010 C 
HETATM    8  C16 UNL     1      16.309  23.455  18.481  1.00  0.00     0.044 C 
HETATM    9  C17 UNL     1      16.954  23.907  17.209  1.00  0.00     0.140 C 
HETATM   10  O7  UNL     1      16.122  23.936  16.128  1.00  0.00    -0.348 OA
ENDROOT
BRANCH   9  11
HETATM   11  C18 UNL     1      17.541  25.285  17.419  1.00  0.00     0.135 C 
BRANCH  11  12
HETATM   12  C19 UNL     1      17.991  25.746  16.080  1.00  0.00     0.223 C 
HETATM   13  O4  UNL     1      17.152  26.093  15.208  1.00  0.00    -0.273 OA
HETATM   14  N2  UNL     1      19.372  25.818  15.717  1.00  0.00    -0.333 N 
HETATM   15  C20 UNL     1      20.154  26.179  14.573  1.00  0.00     0.095 A 
HETATM   16  C23 UNL     1      20.575  25.507  16.491  1.00  0.00     0.186 A 
HETATM   17  C21 UNL     1      21.116  25.174  14.007  1.00  0.00     0.035 A 
HETATM   18  C22 UNL     1      21.397  25.859  15.272  1.00  0.00     0.043 A 
BRANCH  16  19
HETATM   19  C24 UNL     1      20.829  26.510  17.562  1.00  0.00     0.244 C 
HETATM   20  O5  UNL     1      20.704  27.731  17.281  1.00  0.00    -0.271 OA
HETATM   21  N3  UNL     1      21.196  26.068  18.840  1.00  0.00    -0.337 N 
HETATM   22  C25 UNL     1      21.347  24.699  19.264  1.00  0.00     0.127 C 
HETATM   23  C28 UNL     1      21.496  26.871  19.998  1.00  0.00     0.176 C 
HETATM   24  C26 UNL     1      20.503  24.718  20.545  1.00  0.00     0.022 C 
HETATM   25  C27 UNL     1      20.808  26.096  21.099  1.00  0.00     0.036 C 
BRANCH  23  26
HETATM   26  C29 UNL     1      22.956  26.973  20.172  1.00  0.00     0.254 C 
HETATM   27  N4  UNL     1      23.493  26.632  21.445  1.00  0.00    -0.060 NA
HETATM   28  O6  UNL     1      23.746  27.337  19.276  1.00  0.00    -0.275 OA
ENDBRANCH  23  26
ENDBRANCH  16  19
ENDBRANCH  11  12
ENDBRANCH   9  11
BRANCH   1  29
HETATM   29  C9  UNL     1      14.666  22.748  14.795  1.00  0.00     0.198 C 
HETATM   30  O2  UNL     1      15.562  22.601  13.950  1.00  0.00    -0.291 OA
BRANCH  29  31
HETATM   31  C8  UNL     1      13.278  22.511  14.348  1.00  0.00     0.206 C 
BRANCH  31  32
HETATM   32  N1  UNL     1      12.413  21.965  15.337  1.00  0.00    -0.354 N 
HETATM   33  C7  UNL     1      12.190  20.576  15.534  1.00  0.00     0.217 C 
HETATM   34  O1  UNL     1      12.797  19.792  14.774  1.00  0.00    -0.274 OA
ATOM     35  H1  UNL     1      11.918  22.616  15.946  1.00  0.00     0.162 HD
BRANCH  33  36
HETATM   36  C6  UNL     1      11.293  20.049  16.575  1.00  0.00     0.105 C 
BRANCH  36  37
HETATM   37  C5  UNL     1      12.036  19.648  17.835  1.00  0.00     0.041 C 
BRANCH  37  38
HETATM   38  C4  UNL     1      11.400  18.530  18.591  1.00  0.00     0.121 C 
BRANCH  38  39
HETATM   39  C3  UNL     1      12.207  17.274  18.483  1.00  0.00     0.031 C 
BRANCH  39  40
HETATM   40  C2  UNL     1      11.617  16.357  17.450  1.00  0.00    -0.002 C 
HETATM   41  C1  UNL     1      10.097  16.529  17.380  1.00  0.00     0.005 C 
ENDBRANCH  39  40
ENDBRANCH  38  39
BRANCH  38  42
HETATM   42  O8  UNL     1      11.332  18.818  19.969  1.00  0.00    -0.391 OA
HETATM   43  C30 UNL     1      12.464  18.462  20.660  1.00  0.00     0.202 C 
ENDBRANCH  38  42
ENDBRANCH  37  38
ENDBRANCH  36  37
ENDBRANCH  33  36
ENDBRANCH  31  32
ENDBRANCH  29  31
ENDBRANCH   1  29
TORSDOF 13
ENDMDL
