MODEL 1
REMARK VINA RESULT: -8.788350723      0.000      0.000
REMARK  16 active torsions:
REMARK  status: ('A' for Active; 'I' for Inactive)
REMARK    1  A    between atoms: N1_1  and  C1_5 
REMARK    2  A    between atoms: C1_5  and  C2_6 
REMARK    3  A    between atoms: C2_6  and  C3_7 
REMARK    4  A    between atoms: C3_7  and  C4_8 
REMARK    5  A    between atoms: C4_8  and  C5_9 
REMARK    6  A    between atoms: C5_9  and  N2_10 
REMARK    7  A    between atoms: C5_9  and  C16_26 
REMARK       I    between atoms: N2_10  and  C6_12 
REMARK    8  A    between atoms: C6_12  and  C7_14 
REMARK       I    between atoms: C7_14  and  N3_16 
REMARK    9  A    between atoms: C16_26  and  O4_27 
REMARK   10  A    between atoms: C16_26  and  N4_29 
REMARK   11  A    between atoms: N5_33  and  C20_34 
REMARK   12  A    between atoms: C20_34  and  C21_35 
REMARK   13  A    between atoms: C21_35  and  O5_36 
REMARK   14  A    between atoms: O5_36  and  C22_37 
REMARK   15  A    between atoms: C22_37  and  C23_38 
REMARK   16  A    between atoms: C23_38  and  O6_39 
ROOT
HETATM    1  C5  UNL     1      18.892  24.847  17.010  1.00  0.00     0.159 C 
ENDROOT
BRANCH   1   2
HETATM    2  C4  UNL     1      19.218  25.828  15.933  1.00  0.00     0.034 C 
BRANCH   2   3
HETATM    3  C3  UNL     1      20.639  25.575  15.393  1.00  0.00     0.004 C 
BRANCH   3   4
HETATM    4  C2  UNL     1      20.856  26.626  14.327  1.00  0.00     0.027 C 
BRANCH   4   5
HETATM    5  C1  UNL     1      20.667  28.003  14.934  1.00  0.00     0.229 C 
BRANCH   5   6
HETATM    6  N1  UNL     1      21.855  28.350  15.699  1.00  0.00    -0.079 N 
ATOM      7  H13 UNL     1      22.016  27.710  16.478  1.00  0.00     0.274 HD
ATOM      8  H12 UNL     1      22.716  28.167  15.184  1.00  0.00     0.274 HD
ATOM      9  H11 UNL     1      21.781  29.320  16.003  1.00  0.00     0.274 HD
ENDBRANCH   5   6
ENDBRANCH   4   5
ENDBRANCH   3   4
ENDBRANCH   2   3
ENDBRANCH   1   2
BRANCH   1  10
HETATM   10  N2  UNL     1      19.678  25.128  18.218  1.00  0.00    -0.341 N 
HETATM   11  C6  UNL     1      20.227  24.037  18.990  1.00  0.00     0.310 C 
HETATM   12  O1  UNL     1      19.984  22.883  18.575  1.00  0.00    -0.262 OA
ATOM     13  H2  UNL     1      19.837  26.091  18.512  1.00  0.00     0.163 HD
BRANCH  11  14
HETATM   14  C7  UNL     1      21.007  24.259  20.165  1.00  0.00     0.316 C 
HETATM   15  O2  UNL     1      21.029  23.232  20.955  1.00  0.00    -0.262 OA
HETATM   16  N3  UNL     1      21.727  25.410  20.556  1.00  0.00    -0.309 N 
HETATM   17  C8  UNL     1      22.525  25.928  21.611  1.00  0.00     0.012 C 
HETATM   18  C13 UNL     1      21.907  26.685  19.756  1.00  0.00     0.100 C 
HETATM   19  C9  UNL     1      23.809  25.920  21.916  1.00  0.00     0.006 C 
HETATM   20  C15 UNL     1      21.656  26.997  22.200  1.00  0.00     0.059 C 
HETATM   21  C10 UNL     1      24.892  25.252  21.025  1.00  0.00     0.107 C 
HETATM   22  C11 UNL     1      24.259  25.685  19.674  1.00  0.00     0.132 C 
HETATM   23  O3  UNL     1      24.591  24.966  18.765  1.00  0.00    -0.298 OA
HETATM   24  C12 UNL     1      23.348  26.812  19.382  1.00  0.00     0.104 C 
HETATM   25  C14 UNL     1      21.450  27.717  20.820  1.00  0.00     0.032 C 
ENDBRANCH  11  14
ENDBRANCH   1  10
BRANCH   1  26
HETATM   26  C16 UNL     1      17.483  24.636  17.360  1.00  0.00     0.137 C 
BRANCH  26  27
HETATM   27  O4  UNL     1      16.884  25.772  17.712  1.00  0.00    -0.348 OA
ATOM     28  H4  UNL     1      16.383  26.145  16.997  1.00  0.00     0.219 HD
ENDBRANCH  26  27
BRANCH  26  29
HETATM   29  N4  UNL     1      16.668  23.506  17.396  1.00  0.00    -0.359 N 
HETATM   30  C17 UNL     1      16.747  22.359  16.571  1.00  0.00     0.126 C 
HETATM   31  C18 UNL     1      17.491  21.220  17.242  1.00  0.00     0.040 C 
HETATM   32  C19 UNL     1      16.751  20.888  18.514  1.00  0.00     0.124 C 
HETATM   33  N5  UNL     1      15.367  21.125  18.365  1.00  0.00    -0.380 N 
HETATM   34  C29 UNL     1      14.841  22.385  18.667  1.00  0.00     0.079 C 
HETATM   35  C30 UNL     1      15.664  23.596  18.492  1.00  0.00     0.168 C 
BRANCH  33  36
HETATM   36  C20 UNL     1      14.534  19.972  18.492  1.00  0.00     0.053 C 
HETATM   37  C24 UNL     1      13.855  20.070  19.851  1.00  0.00     0.033 C 
HETATM   38  C25 UNL     1      14.023  18.854  20.693  1.00  0.00     0.002 C 
HETATM   39  C26 UNL     1      13.786  17.562  19.945  1.00  0.00     0.000 C 
HETATM   40  C27 UNL     1      14.598  17.466  18.691  1.00  0.00     0.002 C 
HETATM   41  C28 UNL     1      15.394  18.722  18.415  1.00  0.00     0.033 C 
BRANCH  36  42
HETATM   42  C21 UNL     1      13.521  19.846  17.393  1.00  0.00     0.198 C 
BRANCH  42  43
HETATM   43  O5  UNL     1      13.890  20.349  16.169  1.00  0.00    -0.387 OA
BRANCH  43  44
HETATM   44  C22 UNL     1      12.917  21.089  15.549  1.00  0.00     0.193 C 
BRANCH  44  45
HETATM   45  C23 UNL     1      13.553  22.340  14.980  1.00  0.00     0.190 C 
BRANCH  45  46
HETATM   46  O6  UNL     1      13.329  23.455  15.782  1.00  0.00    -0.399 OA
ATOM     47  H6  UNL     1      13.234  24.251  15.272  1.00  0.00     0.209 HD
ENDBRANCH  45  46
ENDBRANCH  44  45
ENDBRANCH  43  44
ENDBRANCH  42  43
ENDBRANCH  36  42
ENDBRANCH  33  36
ENDBRANCH  26  29
ENDBRANCH   1  26
TORSDOF 16
ENDMDL
MODEL 2
REMARK VINA RESULT: -8.725125656      1.033      1.232
REMARK  16 active torsions:
REMARK  status: ('A' for Active; 'I' for Inactive)
REMARK    1  A    between atoms: N1_1  and  C1_5 
REMARK    2  A    between atoms: C1_5  and  C2_6 
REMARK    3  A    between atoms: C2_6  and  C3_7 
REMARK    4  A    between atoms: C3_7  and  C4_8 
REMARK    5  A    between atoms: C4_8  and  C5_9 
REMARK    6  A    between atoms: C5_9  and  N2_10 
REMARK    7  A    between atoms: C5_9  and  C16_26 
REMARK       I    between atoms: N2_10  and  C6_12 
REMARK    8  A    between atoms: C6_12  and  C7_14 
REMARK       I    between atoms: C7_14  and  N3_16 
REMARK    9  A    between atoms: C16_26  and  O4_27 
REMARK   10  A    between atoms: C16_26  and  N4_29 
REMARK   11  A    between atoms: N5_33  and  C20_34 
REMARK   12  A    between atoms: C20_34  and  C21_35 
REMARK   13  A    between atoms: C21_35  and  O5_36 
REMARK   14  A    between atoms: O5_36  and  C22_37 
REMARK   15  A    between atoms: C22_37  and  C23_38 
REMARK   16  A    between atoms: C23_38  and  O6_39 
ROOT
HETATM    1  C5  UNL     1      18.852  24.820  17.025  1.00  0.00     0.159 C 
ENDROOT
BRANCH   1   2
HETATM    2  C4  UNL     1      19.197  25.795  15.948  1.00  0.00     0.034 C 
BRANCH   2   3
HETATM    3  C3  UNL     1      20.571  25.454  15.341  1.00  0.00     0.004 C 
BRANCH   3   4
HETATM    4  C2  UNL     1      20.897  26.606  14.414  1.00  0.00     0.027 C 
BRANCH   4   5
HETATM    5  C1  UNL     1      20.607  27.915  15.121  1.00  0.00     0.229 C 
BRANCH   5   6
HETATM    6  N1  UNL     1      21.805  28.349  15.823  1.00  0.00    -0.079 N 
ATOM      7  H13 UNL     1      21.856  27.977  16.771  1.00  0.00     0.274 HD
ATOM      8  H12 UNL     1      22.651  27.915  15.453  1.00  0.00     0.274 HD
ATOM      9  H11 UNL     1      21.850  29.368  15.804  1.00  0.00     0.274 HD
ENDBRANCH   5   6
ENDBRANCH   4   5
ENDBRANCH   3   4
ENDBRANCH   2   3
ENDBRANCH   1   2
BRANCH   1  10
HETATM   10  N2  UNL     1      19.618  25.106  18.244  1.00  0.00    -0.341 N 
HETATM   11  C6  UNL     1      20.214  24.022  18.991  1.00  0.00     0.310 C 
HETATM   12  O1  UNL     1      20.029  22.870  18.544  1.00  0.00    -0.262 OA
ATOM     13  H2  UNL     1      19.729  26.068  18.564  1.00  0.00     0.163 HD
BRANCH  11  14
HETATM   14  C7  UNL     1      20.978  24.251  20.175  1.00  0.00     0.316 C 
HETATM   15  O2  UNL     1      20.981  23.231  20.976  1.00  0.00    -0.262 OA
HETATM   16  N3  UNL     1      21.700  25.401  20.567  1.00  0.00    -0.309 N 
HETATM   17  C8  UNL     1      22.485  25.924  21.629  1.00  0.00     0.012 C 
HETATM   18  C13 UNL     1      21.901  26.667  19.757  1.00  0.00     0.100 C 
HETATM   19  C9  UNL     1      23.764  25.910  21.954  1.00  0.00     0.006 C 
HETATM   20  C15 UNL     1      21.613  27.004  22.195  1.00  0.00     0.059 C 
HETATM   21  C10 UNL     1      24.855  25.226  21.087  1.00  0.00     0.107 C 
HETATM   22  C11 UNL     1      24.246  25.650  19.722  1.00  0.00     0.132 C 
HETATM   23  O3  UNL     1      24.588  24.920  18.825  1.00  0.00    -0.298 OA
HETATM   24  C12 UNL     1      23.348  26.780  19.406  1.00  0.00     0.104 C 
HETATM   25  C14 UNL     1      21.433  27.712  20.805  1.00  0.00     0.032 C 
ENDBRANCH  11  14
ENDBRANCH   1  10
BRANCH   1  26
HETATM   26  C16 UNL     1      17.437  24.612  17.352  1.00  0.00     0.137 C 
BRANCH  26  27
HETATM   27  O4  UNL     1      16.825  25.756  17.656  1.00  0.00    -0.348 OA
ATOM     28  H4  UNL     1      16.029  25.876  17.152  1.00  0.00     0.219 HD
ENDBRANCH  26  27
BRANCH  26  29
HETATM   29  N4  UNL     1      16.627  23.480  17.406  1.00  0.00    -0.359 N 
HETATM   30  C17 UNL     1      16.736  22.302  16.630  1.00  0.00     0.126 C 
HETATM   31  C18 UNL     1      17.465  21.194  17.365  1.00  0.00     0.040 C 
HETATM   32  C19 UNL     1      16.689  20.907  18.626  1.00  0.00     0.124 C 
HETATM   33  N5  UNL     1      15.309  21.130  18.427  1.00  0.00    -0.380 N 
HETATM   34  C29 UNL     1      14.767  22.397  18.664  1.00  0.00     0.079 C 
HETATM   35  C30 UNL     1      15.589  23.606  18.468  1.00  0.00     0.168 C 
BRANCH  33  36
HETATM   36  C20 UNL     1      14.478  19.977  18.572  1.00  0.00     0.053 C 
HETATM   37  C24 UNL     1      13.864  20.053  19.963  1.00  0.00     0.033 C 
HETATM   38  C25 UNL     1      14.067  18.822  20.775  1.00  0.00     0.002 C 
HETATM   39  C26 UNL     1      13.789  17.544  20.017  1.00  0.00     0.000 C 
HETATM   40  C27 UNL     1      14.540  17.468  18.725  1.00  0.00     0.002 C 
HETATM   41  C28 UNL     1      15.328  18.726  18.433  1.00  0.00     0.033 C 
BRANCH  36  42
HETATM   42  C21 UNL     1      13.413  19.874  17.521  1.00  0.00     0.198 C 
BRANCH  42  43
HETATM   43  O5  UNL     1      12.114  19.928  17.967  1.00  0.00    -0.387 OA
BRANCH  43  44
HETATM   44  C22 UNL     1      11.259  19.081  17.312  1.00  0.00     0.193 C 
BRANCH  44  45
HETATM   45  C23 UNL     1      10.714  19.797  16.094  1.00  0.00     0.190 C 
BRANCH  45  46
HETATM   46  O6  UNL     1       9.323  19.767  16.045  1.00  0.00    -0.399 OA
ATOM     47  H6  UNL     1       8.990  18.909  15.813  1.00  0.00     0.209 HD
ENDBRANCH  45  46
ENDBRANCH  44  45
ENDBRANCH  43  44
ENDBRANCH  42  43
ENDBRANCH  36  42
ENDBRANCH  33  36
ENDBRANCH  26  29
ENDBRANCH   1  26
TORSDOF 16
ENDMDL
MODEL 3
REMARK VINA RESULT: -8.611261014      1.340      2.169
REMARK  16 active torsions:
REMARK  status: ('A' for Active; 'I' for Inactive)
REMARK    1  A    between atoms: N1_1  and  C1_5 
REMARK    2  A    between atoms: C1_5  and  C2_6 
REMARK    3  A    between atoms: C2_6  and  C3_7 
REMARK    4  A    between atoms: C3_7  and  C4_8 
REMARK    5  A    between atoms: C4_8  and  C5_9 
REMARK    6  A    between atoms: C5_9  and  N2_10 
REMARK    7  A    between atoms: C5_9  and  C16_26 
REMARK       I    between atoms: N2_10  and  C6_12 
REMARK    8  A    between atoms: C6_12  and  C7_14 
REMARK       I    between atoms: C7_14  and  N3_16 
REMARK    9  A    between atoms: C16_26  and  O4_27 
REMARK   10  A    between atoms: C16_26  and  N4_29 
REMARK   11  A    between atoms: N5_33  and  C20_34 
REMARK   12  A    between atoms: C20_34  and  C21_35 
REMARK   13  A    between atoms: C21_35  and  O5_36 
REMARK   14  A    between atoms: O5_36  and  C22_37 
REMARK   15  A    between atoms: C22_37  and  C23_38 
REMARK   16  A    between atoms: C23_38  and  O6_39 
ROOT
HETATM    1  C5  UNL     1      19.091  24.952  15.918  1.00  0.00     0.159 C 
ENDROOT
BRANCH   1   2
HETATM    2  C4  UNL     1      19.120  26.232  15.151  1.00  0.00     0.034 C 
BRANCH   2   3
HETATM    3  C3  UNL     1      20.267  26.210  14.122  1.00  0.00     0.004 C 
BRANCH   3   4
HETATM    4  C2  UNL     1      20.808  27.624  14.094  1.00  0.00     0.027 C 
BRANCH   4   5
HETATM    5  C1  UNL     1      22.232  27.625  14.615  1.00  0.00     0.229 C 
BRANCH   5   6
HETATM    6  N1  UNL     1      22.288  28.412  15.838  1.00  0.00    -0.079 N 
ATOM      7  H13 UNL     1      21.413  28.904  16.023  1.00  0.00     0.274 HD
ATOM      8  H12 UNL     1      22.304  27.830  16.675  1.00  0.00     0.274 HD
ATOM      9  H11 UNL     1      23.086  29.045  15.789  1.00  0.00     0.274 HD
ENDBRANCH   5   6
ENDBRANCH   4   5
ENDBRANCH   3   4
ENDBRANCH   2   3
ENDBRANCH   1   2
BRANCH   1  10
HETATM   10  N2  UNL     1      20.360  24.748  16.629  1.00  0.00    -0.341 N 
HETATM   11  C6  UNL     1      20.894  25.798  17.465  1.00  0.00     0.310 C 
HETATM   12  O1  UNL     1      20.227  26.853  17.528  1.00  0.00    -0.262 OA
ATOM     13  H2  UNL     1      20.863  23.866  16.532  1.00  0.00     0.163 HD
BRANCH  11  14
HETATM   14  C7  UNL     1      22.117  25.642  18.185  1.00  0.00     0.316 C 
HETATM   15  O2  UNL     1      23.074  26.378  17.714  1.00  0.00    -0.262 OA
HETATM   16  N3  UNL     1      22.401  24.822  19.300  1.00  0.00    -0.309 N 
HETATM   17  C8  UNL     1      23.457  24.439  20.170  1.00  0.00     0.012 C 
HETATM   18  C13 UNL     1      21.421  23.950  20.060  1.00  0.00     0.100 C 
HETATM   19  C9  UNL     1      23.957  24.893  21.304  1.00  0.00     0.006 C 
HETATM   20  C15 UNL     1      23.697  23.007  19.803  1.00  0.00     0.059 C 
HETATM   21  C10 UNL     1      23.386  26.126  22.055  1.00  0.00     0.107 C 
HETATM   22  C11 UNL     1      21.896  25.801  21.759  1.00  0.00     0.132 C 
HETATM   23  O3  UNL     1      21.196  26.782  21.813  1.00  0.00    -0.298 OA
HETATM   24  C12 UNL     1      21.263  24.504  21.438  1.00  0.00     0.104 C 
HETATM   25  C14 UNL     1      22.194  22.606  20.016  1.00  0.00     0.032 C 
ENDBRANCH  11  14
ENDBRANCH   1  10
BRANCH   1  26
HETATM   26  C16 UNL     1      17.960  24.703  16.819  1.00  0.00     0.137 C 
BRANCH  26  27
HETATM   27  O4  UNL     1      17.752  25.725  17.648  1.00  0.00    -0.348 OA
ATOM     28  H4  UNL     1      17.160  26.368  17.275  1.00  0.00     0.219 HD
ENDBRANCH  26  27
BRANCH  26  29
HETATM   29  N4  UNL     1      17.082  23.632  16.975  1.00  0.00    -0.359 N 
HETATM   30  C17 UNL     1      17.040  22.435  16.222  1.00  0.00     0.126 C 
HETATM   31  C18 UNL     1      17.754  21.293  16.918  1.00  0.00     0.040 C 
HETATM   32  C19 UNL     1      17.077  21.085  18.250  1.00  0.00     0.124 C 
HETATM   33  N5  UNL     1      15.704  21.401  18.169  1.00  0.00    -0.380 N 
HETATM   34  C29 UNL     1      15.275  22.709  18.420  1.00  0.00     0.079 C 
HETATM   35  C30 UNL     1      16.156  23.852  18.121  1.00  0.00     0.168 C 
BRANCH  33  36
HETATM   36  C20 UNL     1      14.812  20.314  18.417  1.00  0.00     0.053 C 
HETATM   37  C24 UNL     1      14.276  20.502  19.829  1.00  0.00     0.033 C 
HETATM   38  C25 UNL     1      14.444  19.304  20.697  1.00  0.00     0.002 C 
HETATM   39  C26 UNL     1      14.050  18.009  20.024  1.00  0.00     0.000 C 
HETATM   40  C27 UNL     1      14.728  17.817  18.704  1.00  0.00     0.002 C 
HETATM   41  C28 UNL     1      15.576  19.005  18.306  1.00  0.00     0.033 C 
BRANCH  36  42
HETATM   42  C21 UNL     1      13.691  20.224  17.424  1.00  0.00     0.198 C 
BRANCH  42  43
HETATM   43  O5  UNL     1      14.014  20.510  16.119  1.00  0.00    -0.387 OA
BRANCH  43  44
HETATM   44  C22 UNL     1      13.071  21.252  15.457  1.00  0.00     0.193 C 
BRANCH  44  45
HETATM   45  C23 UNL     1      13.703  22.559  15.027  1.00  0.00     0.190 C 
BRANCH  45  46
HETATM   46  O6  UNL     1      13.286  23.629  15.815  1.00  0.00    -0.399 OA
ATOM     47  H6  UNL     1      13.973  23.938  16.394  1.00  0.00     0.209 HD
ENDBRANCH  45  46
ENDBRANCH  44  45
ENDBRANCH  43  44
ENDBRANCH  42  43
ENDBRANCH  36  42
ENDBRANCH  33  36
ENDBRANCH  26  29
ENDBRANCH   1  26
TORSDOF 16
ENDMDL
MODEL 4
REMARK VINA RESULT: -8.550518791      2.449     10.470
REMARK  16 active torsions:
REMARK  status: ('A' for Active; 'I' for Inactive)
REMARK    1  A    between atoms: N1_1  and  C1_5 
REMARK    2  A    between atoms: C1_5  and  C2_6 
REMARK    3  A    between atoms: C2_6  and  C3_7 
REMARK    4  A    between atoms: C3_7  and  C4_8 
REMARK    5  A    between atoms: C4_8  and  C5_9 
REMARK    6  A    between atoms: C5_9  and  N2_10 
REMARK    7  A    between atoms: C5_9  and  C16_26 
REMARK       I    between atoms: N2_10  and  C6_12 
REMARK    8  A    between atoms: C6_12  and  C7_14 
REMARK       I    between atoms: C7_14  and  N3_16 
REMARK    9  A    between atoms: C16_26  and  O4_27 
REMARK   10  A    between atoms: C16_26  and  N4_29 
REMARK   11  A    between atoms: N5_33  and  C20_34 
REMARK   12  A    between atoms: C20_34  and  C21_35 
REMARK   13  A    between atoms: C21_35  and  O5_36 
REMARK   14  A    between atoms: O5_36  and  C22_37 
REMARK   15  A    between atoms: C22_37  and  C23_38 
REMARK   16  A    between atoms: C23_38  and  O6_39 
ROOT
HETATM    1  C5  UNL     1      15.644  22.087  17.445  1.00  0.00     0.159 C 
ENDROOT
BRANCH   1   2
HETATM    2  C4  UNL     1      15.880  20.828  18.212  1.00  0.00     0.034 C 
BRANCH   2   3
HETATM    3  C3  UNL     1      15.212  20.914  19.598  1.00  0.00     0.004 C 
BRANCH   3   4
HETATM    4  C2  UNL     1      14.470  19.606  19.768  1.00  0.00     0.027 C 
BRANCH   4   5
HETATM    5  C1  UNL     1      14.842  18.668  18.637  1.00  0.00     0.229 C 
BRANCH   5   6
HETATM    6  N1  UNL     1      13.943  17.524  18.656  1.00  0.00    -0.079 N 
ATOM      7  H13 UNL     1      14.234  16.812  19.325  1.00  0.00     0.274 HD
ATOM      8  H12 UNL     1      13.038  17.748  19.071  1.00  0.00     0.274 HD
ATOM      9  H11 UNL     1      13.856  17.155  17.709  1.00  0.00     0.274 HD
ENDBRANCH   5   6
ENDBRANCH   4   5
ENDBRANCH   3   4
ENDBRANCH   2   3
ENDBRANCH   1   2
BRANCH   1  10
HETATM   10  N2  UNL     1      14.298  22.089  16.860  1.00  0.00    -0.341 N 
HETATM   11  C6  UNL     1      14.097  21.605  15.513  1.00  0.00     0.310 C 
HETATM   12  O1  UNL     1      15.115  21.209  14.906  1.00  0.00    -0.262 OA
ATOM     13  H2  UNL     1      13.505  22.432  17.402  1.00  0.00     0.163 HD
BRANCH  11  14
HETATM   14  C7  UNL     1      12.806  21.576  14.905  1.00  0.00     0.316 C 
HETATM   15  O2  UNL     1      12.659  22.488  13.995  1.00  0.00    -0.262 OA
HETATM   16  N3  UNL     1      11.715  20.715  15.160  1.00  0.00    -0.309 N 
HETATM   17  C8  UNL     1      10.371  20.464  14.775  1.00  0.00     0.012 C 
HETATM   18  C13 UNL     1      11.693  19.536  16.112  1.00  0.00     0.100 C 
HETATM   19  C9  UNL     1       9.774  19.743  13.844  1.00  0.00     0.006 C 
HETATM   20  C15 UNL     1       9.592  20.843  15.997  1.00  0.00     0.059 C 
HETATM   21  C10 UNL     1      10.545  18.859  12.826  1.00  0.00     0.107 C 
HETATM   22  C11 UNL     1      11.615  18.368  13.839  1.00  0.00     0.132 C 
HETATM   23  O3  UNL     1      12.631  18.016  13.293  1.00  0.00    -0.298 OA
HETATM   24  C12 UNL     1      11.544  18.283  15.313  1.00  0.00     0.104 C 
HETATM   25  C14 UNL     1      10.428  19.900  16.933  1.00  0.00     0.032 C 
ENDBRANCH  11  14
ENDBRANCH   1  10
BRANCH   1  26
HETATM   26  C16 UNL     1      15.911  23.368  18.108  1.00  0.00     0.137 C 
BRANCH  26  27
HETATM   27  O4  UNL     1      14.811  24.114  18.208  1.00  0.00    -0.348 OA
ATOM     28  H4  UNL     1      14.690  24.449  19.088  1.00  0.00     0.219 HD
ENDBRANCH  26  27
BRANCH  26  29
HETATM   29  N4  UNL     1      17.063  23.945  18.640  1.00  0.00    -0.359 N 
HETATM   30  C17 UNL     1      17.539  23.853  19.969  1.00  0.00     0.126 C 
HETATM   31  C18 UNL     1      18.612  22.792  20.123  1.00  0.00     0.040 C 
HETATM   32  C19 UNL     1      19.744  23.161  19.196  1.00  0.00     0.124 C 
HETATM   33  N5  UNL     1      19.845  24.563  19.062  1.00  0.00    -0.380 N 
HETATM   34  C29 UNL     1      19.124  25.220  18.059  1.00  0.00     0.079 C 
HETATM   35  C30 UNL     1      17.832  24.680  17.597  1.00  0.00     0.168 C 
BRANCH  33  36
HETATM   36  C20 UNL     1      21.067  25.133  19.530  1.00  0.00     0.053 C 
HETATM   37  C24 UNL     1      22.138  24.063  19.372  1.00  0.00     0.033 C 
HETATM   38  C25 UNL     1      22.905  23.794  20.620  1.00  0.00     0.002 C 
HETATM   39  C26 UNL     1      23.347  25.047  21.341  1.00  0.00     0.000 C 
HETATM   40  C27 UNL     1      22.215  25.993  21.596  1.00  0.00     0.002 C 
HETATM   41  C28 UNL     1      20.912  25.520  20.992  1.00  0.00     0.033 C 
BRANCH  36  42
HETATM   42  C21 UNL     1      21.454  26.390  18.809  1.00  0.00     0.198 C 
BRANCH  42  43
HETATM   43  O5  UNL     1      22.533  26.295  17.963  1.00  0.00    -0.387 OA
BRANCH  43  44
HETATM   44  C22 UNL     1      22.680  27.363  17.117  1.00  0.00     0.193 C 
BRANCH  44  45
HETATM   45  C23 UNL     1      21.431  27.481  16.269  1.00  0.00     0.190 C 
BRANCH  45  46
HETATM   46  O6  UNL     1      21.304  28.741  15.691  1.00  0.00    -0.399 OA
ATOM     47  H6  UNL     1      21.604  29.433  16.268  1.00  0.00     0.209 HD
ENDBRANCH  45  46
ENDBRANCH  44  45
ENDBRANCH  43  44
ENDBRANCH  42  43
ENDBRANCH  36  42
ENDBRANCH  33  36
ENDBRANCH  26  29
ENDBRANCH   1  26
TORSDOF 16
ENDMDL
MODEL 5
REMARK VINA RESULT: -8.540114902      2.024      3.440
REMARK  16 active torsions:
REMARK  status: ('A' for Active; 'I' for Inactive)
REMARK    1  A    between atoms: N1_1  and  C1_5 
REMARK    2  A    between atoms: C1_5  and  C2_6 
REMARK    3  A    between atoms: C2_6  and  C3_7 
REMARK    4  A    between atoms: C3_7  and  C4_8 
REMARK    5  A    between atoms: C4_8  and  C5_9 
REMARK    6  A    between atoms: C5_9  and  N2_10 
REMARK    7  A    between atoms: C5_9  and  C16_26 
REMARK       I    between atoms: N2_10  and  C6_12 
REMARK    8  A    between atoms: C6_12  and  C7_14 
REMARK       I    between atoms: C7_14  and  N3_16 
REMARK    9  A    between atoms: C16_26  and  O4_27 
REMARK   10  A    between atoms: C16_26  and  N4_29 
REMARK   11  A    between atoms: N5_33  and  C20_34 
REMARK   12  A    between atoms: C20_34  and  C21_35 
REMARK   13  A    between atoms: C21_35  and  O5_36 
REMARK   14  A    between atoms: O5_36  and  C22_37 
REMARK   15  A    between atoms: C22_37  and  C23_38 
REMARK   16  A    between atoms: C23_38  and  O6_39 
ROOT
HETATM    1  C5  UNL     1      17.361  23.833  17.390  1.00  0.00     0.159 C 
ENDROOT
BRANCH   1   2
HETATM    2  C4  UNL     1      17.790  24.292  16.036  1.00  0.00     0.034 C 
BRANCH   2   3
HETATM    3  C3  UNL     1      18.755  25.486  16.159  1.00  0.00     0.004 C 
BRANCH   3   4
HETATM    4  C2  UNL     1      18.733  26.161  14.805  1.00  0.00     0.027 C 
BRANCH   4   5
HETATM    5  C1  UNL     1      20.125  26.663  14.473  1.00  0.00     0.229 C 
BRANCH   5   6
HETATM    6  N1  UNL     1      20.121  28.118  14.497  1.00  0.00    -0.079 N 
ATOM      7  H13 UNL     1      19.426  28.515  13.865  1.00  0.00     0.274 HD
ATOM      8  H12 UNL     1      19.749  28.492  15.371  1.00  0.00     0.274 HD
ATOM      9  H11 UNL     1      21.063  28.456  14.300  1.00  0.00     0.274 HD
ENDBRANCH   5   6
ENDBRANCH   4   5
ENDBRANCH   3   4
ENDBRANCH   2   3
ENDBRANCH   1   2
BRANCH   1  10
HETATM   10  N2  UNL     1      18.134  24.515  18.435  1.00  0.00    -0.341 N 
HETATM   11  C6  UNL     1      19.009  23.754  19.296  1.00  0.00     0.310 C 
HETATM   12  O1  UNL     1      19.049  22.521  19.100  1.00  0.00    -0.262 OA
ATOM     13  H2  UNL     1      18.054  25.525  18.552  1.00  0.00     0.163 HD
BRANCH  11  14
HETATM   14  C7  UNL     1      19.791  24.373  20.318  1.00  0.00     0.316 C 
HETATM   15  O2  UNL     1      19.379  24.081  21.512  1.00  0.00    -0.262 OA
HETATM   16  N3  UNL     1      20.909  25.228  20.196  1.00  0.00    -0.309 N 
HETATM   17  C8  UNL     1      21.829  25.989  20.966  1.00  0.00     0.012 C 
HETATM   18  C13 UNL     1      21.606  25.633  18.911  1.00  0.00     0.100 C 
HETATM   19  C9  UNL     1      22.993  25.759  21.544  1.00  0.00     0.006 C 
HETATM   20  C15 UNL     1      21.457  27.403  20.639  1.00  0.00     0.059 C 
HETATM   21  C10 UNL     1      23.727  24.393  21.468  1.00  0.00     0.107 C 
HETATM   22  C11 UNL     1      23.350  24.105  19.988  1.00  0.00     0.132 C 
HETATM   23  O3  UNL     1      23.378  22.927  19.733  1.00  0.00    -0.298 OA
HETATM   24  C12 UNL     1      22.980  25.049  18.913  1.00  0.00     0.104 C 
HETATM   25  C14 UNL     1      21.587  27.174  19.091  1.00  0.00     0.032 C 
ENDBRANCH  11  14
ENDBRANCH   1  10
BRANCH   1  26
HETATM   26  C16 UNL     1      15.930  23.864  17.717  1.00  0.00     0.137 C 
BRANCH  26  27
HETATM   27  O4  UNL     1      15.649  24.794  18.628  1.00  0.00    -0.348 OA
ATOM     28  H4  UNL     1      15.145  25.509  18.260  1.00  0.00     0.219 HD
ENDBRANCH  26  27
BRANCH  26  29
HETATM   29  N4  UNL     1      14.835  23.126  17.272  1.00  0.00    -0.359 N 
HETATM   30  C17 UNL     1      14.050  23.359  16.119  1.00  0.00     0.126 C 
HETATM   31  C18 UNL     1      14.468  22.483  14.953  1.00  0.00     0.040 C 
HETATM   32  C19 UNL     1      14.320  21.048  15.394  1.00  0.00     0.124 C 
HETATM   33  N5  UNL     1      13.258  20.913  16.314  1.00  0.00    -0.380 N 
HETATM   34  C29 UNL     1      13.501  21.062  17.684  1.00  0.00     0.079 C 
HETATM   35  C30 UNL     1      14.573  21.956  18.156  1.00  0.00     0.168 C 
BRANCH  33  36
HETATM   36  C20 UNL     1      12.179  20.083  15.883  1.00  0.00     0.053 C 
HETATM   37  C24 UNL     1      12.770  19.063  14.920  1.00  0.00     0.033 C 
HETATM   38  C25 UNL     1      12.073  19.004  13.606  1.00  0.00     0.002 C 
HETATM   39  C26 UNL     1      10.566  18.985  13.721  1.00  0.00     0.000 C 
HETATM   40  C27 UNL     1      10.039  20.105  14.562  1.00  0.00     0.002 C 
HETATM   41  C28 UNL     1      11.139  20.940  15.179  1.00  0.00     0.033 C 
BRANCH  36  42
HETATM   42  C21 UNL     1      11.461  19.405  17.011  1.00  0.00     0.198 C 
BRANCH  42  43
HETATM   43  O5  UNL     1      11.518  18.031  17.025  1.00  0.00    -0.387 OA
BRANCH  43  44
HETATM   44  C22 UNL     1      11.075  17.462  18.191  1.00  0.00     0.193 C 
BRANCH  44  45
HETATM   45  C23 UNL     1      11.872  18.041  19.341  1.00  0.00     0.190 C 
BRANCH  45  46
HETATM   46  O6  UNL     1      11.095  18.222  20.481  1.00  0.00    -0.399 OA
ATOM     47  H6  UNL     1      10.685  19.079  20.504  1.00  0.00     0.209 HD
ENDBRANCH  45  46
ENDBRANCH  44  45
ENDBRANCH  43  44
ENDBRANCH  42  43
ENDBRANCH  36  42
ENDBRANCH  33  36
ENDBRANCH  26  29
ENDBRANCH   1  26
TORSDOF 16
ENDMDL
