MODEL 1
REMARK VINA RESULT: -5.597212276      0.000      0.000
REMARK  4 active torsions:
REMARK  status: ('A' for Active; 'I' for Inactive)
REMARK    1  A    between atoms: C3_5  and  N2_6 
REMARK    2  A    between atoms: N5_11  and  O1_12 
REMARK    3  A    between atoms: O1_12  and  N6_13 
REMARK    4  A    between atoms: C5_19  and  S1_20 
ROOT
HETATM    1  C1  UNL     1      18.482  23.499  56.022  1.00  0.00     0.093 C 
HETATM    2  C2  UNL     1      19.632  24.374  56.361  1.00  0.00     0.138 A 
HETATM    3  N1  UNL     1      19.572  25.499  57.096  1.00  0.00    -0.175 N 
ATOM      4  H1  UNL     1      18.727  25.891  57.510  1.00  0.00     0.185 HD
HETATM    5  C3  UNL     1      20.809  26.026  57.196  1.00  0.00     0.706 A 
HETATM    6  N3  UNL     1      21.616  25.221  56.521  1.00  0.00    -0.033 N 
HETATM    7  N4  UNL     1      20.916  24.222  56.015  1.00  0.00    -0.126 N 
HETATM    8  N5  UNL     1      21.381  23.140  55.229  1.00  0.00    -0.093 N 
HETATM    9  C4  UNL     1      22.665  22.594  55.090  1.00  0.00     0.182 A 
HETATM   10  N7  UNL     1      22.904  21.562  54.259  1.00  0.00    -0.314 N 
ATOM     11  H7  UNL     1      22.211  21.095  53.674  1.00  0.00     0.170 HD
HETATM   12  C5  UNL     1      24.216  21.249  54.328  1.00  0.00     0.204 A 
HETATM   13  N8  UNL     1      24.769  22.084  55.194  1.00  0.00    -0.332 N 
ATOM     14  H8  UNL     1      25.756  22.087  55.453  1.00  0.00     0.168 HD
HETATM   15  C7  UNL     1      23.840  22.931  55.686  1.00  0.00     0.071 A 
HETATM   16  C8  UNL     1      24.193  23.959  56.668  1.00  0.00     0.161 C 
HETATM   17  S2  UNL     1      23.356  25.539  56.390  1.00  0.00    -0.004 SA
ENDROOT
BRANCH   8  18
HETATM   18  O1  UNL     1      20.390  22.568  54.509  1.00  0.00    -0.137 OA
BRANCH  18  19
HETATM   19  N6  UNL     1      20.402  23.168  53.293  1.00  0.00    -0.284 N 
ATOM     20  H62 UNL     1      19.703  23.822  52.941  1.00  0.00     0.186 HD
ATOM     21  H61 UNL     1      21.239  22.834  52.814  1.00  0.00     0.186 HD
ENDBRANCH  18  19
ENDBRANCH   8  18
BRANCH   5  22
HETATM   22  N2  UNL     1      21.058  27.123  57.852  1.00  0.00    -0.232 N 
ATOM     23  H22 UNL     1      20.703  27.458  58.748  1.00  0.00     0.174 HD
ATOM     24  H21 UNL     1      21.700  27.839  57.510  1.00  0.00     0.174 HD
ENDBRANCH   5  22
BRANCH  12  25
HETATM   25  S1  UNL     1      25.007  19.968  53.425  1.00  0.00     0.203 S 
HETATM   26  C6  UNL     1      24.287  19.893  51.796  1.00  0.00     0.170 C 
HETATM   27  O2  UNL     1      26.475  20.288  53.313  1.00  0.00    -0.220 OA
HETATM   28  O3  UNL     1      24.806  18.658  54.132  1.00  0.00    -0.220 OA
ENDBRANCH  12  25
TORSDOF 4
ENDMDL
MODEL 2
REMARK VINA RESULT: -5.547079923      6.388      9.165
REMARK  4 active torsions:
REMARK  status: ('A' for Active; 'I' for Inactive)
REMARK    1  A    between atoms: C3_5  and  N2_6 
REMARK    2  A    between atoms: N5_11  and  O1_12 
REMARK    3  A    between atoms: O1_12  and  N6_13 
REMARK    4  A    between atoms: C5_19  and  S1_20 
ROOT
HETATM    1  C1  UNL     1      23.086  19.593  49.030  1.00  0.00     0.093 C 
HETATM    2  C2  UNL     1      24.058  19.582  50.152  1.00  0.00     0.138 A 
HETATM    3  N1  UNL     1      23.819  20.018  51.402  1.00  0.00    -0.175 N 
ATOM      4  H1  UNL     1      22.938  20.412  51.733  1.00  0.00     0.185 HD
HETATM    5  C3  UNL     1      24.930  19.852  52.146  1.00  0.00     0.706 A 
HETATM    6  N3  UNL     1      25.841  19.317  51.348  1.00  0.00    -0.033 N 
HETATM    7  N4  UNL     1      25.324  19.150  50.144  1.00  0.00    -0.126 N 
HETATM    8  N5  UNL     1      25.950  18.611  48.993  1.00  0.00    -0.093 N 
HETATM    9  C4  UNL     1      27.068  17.777  48.864  1.00  0.00     0.182 A 
HETATM   10  N7  UNL     1      27.522  17.390  47.657  1.00  0.00    -0.314 N 
ATOM     11  H7  UNL     1      27.119  17.652  46.758  1.00  0.00     0.170 HD
HETATM   12  C5  UNL     1      28.602  16.599  47.836  1.00  0.00     0.204 A 
HETATM   13  N8  UNL     1      28.802  16.506  49.141  1.00  0.00    -0.332 N 
ATOM     14  H8  UNL     1      29.551  15.970  49.580  1.00  0.00     0.168 HD
HETATM   15  C7  UNL     1      27.873  17.222  49.810  1.00  0.00     0.071 A 
HETATM   16  C8  UNL     1      27.871  17.285  51.273  1.00  0.00     0.161 C 
HETATM   17  S2  UNL     1      27.472  18.926  51.923  1.00  0.00    -0.004 SA
ENDROOT
BRANCH   8  18
HETATM   18  O1  UNL     1      25.332  18.991  47.852  1.00  0.00    -0.137 OA
BRANCH  18  19
HETATM   19  N6  UNL     1      26.245  19.690  47.134  1.00  0.00    -0.284 N 
ATOM     20  H62 UNL     1      27.193  19.921  47.434  1.00  0.00     0.186 HD
ATOM     21  H61 UNL     1      25.796  19.933  46.251  1.00  0.00     0.186 HD
ENDBRANCH  18  19
ENDBRANCH   8  18
BRANCH   5  22
HETATM   22  N2  UNL     1      24.994  20.188  53.404  1.00  0.00    -0.232 N 
ATOM     23  H22 UNL     1      24.347  20.723  53.983  1.00  0.00     0.174 HD
ATOM     24  H21 UNL     1      25.775  19.928  54.007  1.00  0.00     0.174 HD
ENDBRANCH   5  22
BRANCH  12  25
HETATM   25  S1  UNL     1      29.540  15.850  46.555  1.00  0.00     0.203 S 
HETATM   26  C6  UNL     1      30.724  14.741  47.292  1.00  0.00     0.170 C 
HETATM   27  O2  UNL     1      28.609  15.073  45.662  1.00  0.00    -0.220 OA
HETATM   28  O3  UNL     1      30.257  16.912  45.771  1.00  0.00    -0.220 OA
ENDBRANCH  12  25
TORSDOF 4
ENDMDL
MODEL 3
REMARK VINA RESULT: -5.518400231      6.311      9.030
REMARK  4 active torsions:
REMARK  status: ('A' for Active; 'I' for Inactive)
REMARK    1  A    between atoms: C3_5  and  N2_6 
REMARK    2  A    between atoms: N5_11  and  O1_12 
REMARK    3  A    between atoms: O1_12  and  N6_13 
REMARK    4  A    between atoms: C5_19  and  S1_20 
ROOT
HETATM    1  C1  UNL     1      23.053  19.566  49.008  1.00  0.00     0.093 C 
HETATM    2  C2  UNL     1      23.995  19.571  50.155  1.00  0.00     0.138 A 
HETATM    3  N1  UNL     1      23.714  19.998  51.399  1.00  0.00    -0.175 N 
ATOM      4  H1  UNL     1      22.818  20.373  51.708  1.00  0.00     0.185 HD
HETATM    5  C3  UNL     1      24.809  19.852  52.172  1.00  0.00     0.706 A 
HETATM    6  N3  UNL     1      25.751  19.338  51.397  1.00  0.00    -0.033 N 
HETATM    7  N4  UNL     1      25.270  19.165  50.179  1.00  0.00    -0.126 N 
HETATM    8  N5  UNL     1      25.936  18.643  49.044  1.00  0.00    -0.093 N 
HETATM    9  C4  UNL     1      27.074  17.832  48.941  1.00  0.00     0.182 A 
HETATM   10  N7  UNL     1      27.567  17.459  47.746  1.00  0.00    -0.314 N 
ATOM     11  H7  UNL     1      27.182  17.715  46.837  1.00  0.00     0.170 HD
HETATM   12  C5  UNL     1      28.658  16.688  47.951  1.00  0.00     0.204 A 
HETATM   13  N8  UNL     1      28.825  16.595  49.261  1.00  0.00    -0.332 N 
ATOM     14  H8  UNL     1      29.573  16.072  49.717  1.00  0.00     0.168 HD
HETATM   15  C7  UNL     1      27.865  17.289  49.907  1.00  0.00     0.071 A 
HETATM   16  C8  UNL     1      27.823  17.347  51.370  1.00  0.00     0.161 C 
HETATM   17  S2  UNL     1      27.374  18.978  52.013  1.00  0.00    -0.004 SA
ENDROOT
BRANCH   8  18
HETATM   18  O1  UNL     1      25.341  19.014  47.888  1.00  0.00    -0.137 OA
BRANCH  18  19
HETATM   19  N6  UNL     1      26.258  19.736  47.198  1.00  0.00    -0.284 N 
ATOM     20  H62 UNL     1      26.058  20.517  46.572  1.00  0.00     0.186 HD
ATOM     21  H61 UNL     1      27.171  19.344  47.430  1.00  0.00     0.186 HD
ENDBRANCH  18  19
ENDBRANCH   8  18
BRANCH   5  22
HETATM   22  N2  UNL     1      24.833  20.185  53.432  1.00  0.00    -0.232 N 
ATOM     23  H22 UNL     1      24.155  20.694  53.998  1.00  0.00     0.174 HD
ATOM     24  H21 UNL     1      25.609  19.949  54.052  1.00  0.00     0.174 HD
ENDBRANCH   5  22
BRANCH  12  25
HETATM   25  S1  UNL     1      29.644  15.963  46.693  1.00  0.00     0.203 S 
HETATM   26  C6  UNL     1      28.572  15.119  45.546  1.00  0.00     0.170 C 
HETATM   27  O2  UNL     1      30.393  17.054  45.974  1.00  0.00    -0.220 OA
HETATM   28  O3  UNL     1      30.603  14.984  47.309  1.00  0.00    -0.220 OA
ENDBRANCH  12  25
TORSDOF 4
ENDMDL
MODEL 4
REMARK VINA RESULT: -5.363429447      4.451      6.205
REMARK  4 active torsions:
REMARK  status: ('A' for Active; 'I' for Inactive)
REMARK    1  A    between atoms: C3_5  and  N2_6 
REMARK    2  A    between atoms: N5_11  and  O1_12 
REMARK    3  A    between atoms: O1_12  and  N6_13 
REMARK    4  A    between atoms: C5_19  and  S1_20 
ROOT
HETATM    1  C1  UNL     1      21.637  20.593  53.744  1.00  0.00     0.093 C 
HETATM    2  C2  UNL     1      22.985  20.345  54.315  1.00  0.00     0.138 A 
HETATM    3  N1  UNL     1      23.296  20.350  55.623  1.00  0.00    -0.175 N 
ATOM      4  H1  UNL     1      22.643  20.526  56.386  1.00  0.00     0.185 HD
HETATM    5  C3  UNL     1      24.610  20.086  55.765  1.00  0.00     0.706 A 
HETATM    6  N3  UNL     1      25.094  19.921  54.543  1.00  0.00    -0.033 N 
HETATM    7  N4  UNL     1      24.122  20.075  53.663  1.00  0.00    -0.126 N 
HETATM    8  N5  UNL     1      24.200  19.985  52.251  1.00  0.00    -0.093 N 
HETATM    9  C4  UNL     1      25.141  19.356  51.424  1.00  0.00     0.182 A 
HETATM   10  N7  UNL     1      25.044  19.408  50.082  1.00  0.00    -0.314 N 
ATOM     11  H7  UNL     1      24.313  19.886  49.557  1.00  0.00     0.170 HD
HETATM   12  C5  UNL     1      26.078  18.721  49.549  1.00  0.00     0.204 A 
HETATM   13  N8  UNL     1      26.796  18.256  50.560  1.00  0.00    -0.332 N 
ATOM     14  H8  UNL     1      27.643  17.695  50.464  1.00  0.00     0.168 HD
HETATM   15  C7  UNL     1      26.248  18.628  51.736  1.00  0.00     0.071 A 
HETATM   16  C8  UNL     1      26.851  18.241  53.013  1.00  0.00     0.161 C 
HETATM   17  S2  UNL     1      26.805  19.552  54.258  1.00  0.00    -0.004 SA
ENDROOT
BRANCH   8  18
HETATM   18  O1  UNL     1      23.178  20.626  51.641  1.00  0.00    -0.137 OA
BRANCH  18  19
HETATM   19  N6  UNL     1      22.906  19.928  50.512  1.00  0.00    -0.284 N 
ATOM     20  H62 UNL     1      22.421  19.031  50.463  1.00  0.00     0.186 HD
ATOM     21  H61 UNL     1      23.279  20.475  49.736  1.00  0.00     0.186 HD
ENDBRANCH  18  19
ENDBRANCH   8  18
BRANCH   5  22
HETATM   22  N2  UNL     1      25.198  20.026  56.926  1.00  0.00    -0.232 N 
ATOM     23  H22 UNL     1      24.811  20.055  57.870  1.00  0.00     0.174 HD
ATOM     24  H21 UNL     1      26.208  19.934  57.031  1.00  0.00     0.174 HD
ENDBRANCH   5  22
BRANCH  12  25
HETATM   25  S1  UNL     1      26.381  18.505  47.834  1.00  0.00     0.203 S 
HETATM   26  C6  UNL     1      28.134  18.291  47.589  1.00  0.00     0.170 C 
HETATM   27  O2  UNL     1      25.653  17.274  47.363  1.00  0.00    -0.220 OA
HETATM   28  O3  UNL     1      25.906  19.716  47.084  1.00  0.00    -0.220 OA
ENDBRANCH  12  25
TORSDOF 4
ENDMDL
MODEL 5
REMARK VINA RESULT: -5.140041063      8.177     10.924
REMARK  4 active torsions:
REMARK  status: ('A' for Active; 'I' for Inactive)
REMARK    1  A    between atoms: C3_5  and  N2_6 
REMARK    2  A    between atoms: N5_11  and  O1_12 
REMARK    3  A    between atoms: O1_12  and  N6_13 
REMARK    4  A    between atoms: C5_19  and  S1_20 
ROOT
HETATM    1  C1  UNL     1      24.830  19.345  50.349  1.00  0.00     0.093 C 
HETATM    2  C2  UNL     1      26.232  18.920  50.591  1.00  0.00     0.138 A 
HETATM    3  N1  UNL     1      26.940  19.152  51.711  1.00  0.00    -0.175 N 
ATOM      4  H1  UNL     1      26.600  19.650  52.533  1.00  0.00     0.185 HD
HETATM    5  C3  UNL     1      28.170  18.621  51.572  1.00  0.00     0.706 A 
HETATM    6  N3  UNL     1      28.208  18.068  50.369  1.00  0.00    -0.033 N 
HETATM    7  N4  UNL     1      27.044  18.244  49.770  1.00  0.00    -0.126 N 
HETATM    8  N5  UNL     1      26.654  17.814  48.478  1.00  0.00    -0.093 N 
HETATM    9  C4  UNL     1      27.169  16.806  47.653  1.00  0.00     0.182 A 
HETATM   10  N7  UNL     1      26.660  16.569  46.429  1.00  0.00    -0.314 N 
ATOM     11  H7  UNL     1      25.886  17.074  45.999  1.00  0.00     0.170 HD
HETATM   12  C5  UNL     1      27.347  15.551  45.867  1.00  0.00     0.204 A 
HETATM   13  N8  UNL     1      28.266  15.173  46.742  1.00  0.00    -0.332 N 
ATOM     14  H8  UNL     1      28.937  14.419  46.594  1.00  0.00     0.168 HD
HETATM   15  C7  UNL     1      28.187  15.926  47.860  1.00  0.00     0.071 A 
HETATM   16  C8  UNL     1      29.095  15.711  48.988  1.00  0.00     0.161 C 
HETATM   17  S2  UNL     1      29.657  17.245  49.764  1.00  0.00    -0.004 SA
ENDROOT
BRANCH   8  18
HETATM   18  O1  UNL     1      25.606  18.523  48.000  1.00  0.00    -0.137 OA
BRANCH  18  19
HETATM   19  N6  UNL     1      26.130  19.534  47.263  1.00  0.00    -0.284 N 
ATOM     20  H62 UNL     1      26.583  20.371  47.631  1.00  0.00     0.186 HD
ATOM     21  H61 UNL     1      25.980  19.287  46.284  1.00  0.00     0.186 HD
ENDBRANCH  18  19
ENDBRANCH   8  18
BRANCH   5  22
HETATM   22  N2  UNL     1      29.080  18.692  52.503  1.00  0.00    -0.232 N 
ATOM     23  H22 UNL     1      29.388  17.999  53.185  1.00  0.00     0.174 HD
ATOM     24  H21 UNL     1      29.640  19.529  52.667  1.00  0.00     0.174 HD
ENDBRANCH   5  22
BRANCH  12  25
HETATM   25  S1  UNL     1      27.050  14.880  44.273  1.00  0.00     0.203 S 
HETATM   26  C6  UNL     1      27.560  13.172  44.271  1.00  0.00     0.170 C 
HETATM   27  O2  UNL     1      25.576  14.966  43.976  1.00  0.00    -0.220 OA
HETATM   28  O3  UNL     1      27.838  15.647  43.250  1.00  0.00    -0.220 OA
ENDBRANCH  12  25
TORSDOF 4
ENDMDL
