MODEL 1
REMARK VINA RESULT: -5.452514573      0.000      0.000
REMARK  2 active torsions:
REMARK  status: ('A' for Active; 'I' for Inactive)
REMARK    1  A    between atoms: C4_19  and  O4_20 
REMARK    2  A    between atoms: O4_20  and  S3_21 
ROOT
HETATM    1  C1  UNL     1      26.454  18.474  48.461  1.00  0.00     0.182 C 
HETATM    2  N1  UNL     1      26.388  18.884  49.859  1.00  0.00    -0.245 N 
HETATM    3  N2  UNL     1      25.077  19.123  50.290  1.00  0.00    -0.123 N 
ATOM      4  H2  UNL     1      24.380  18.773  49.633  1.00  0.00     0.206 HD
HETATM    5  C2  UNL     1      24.491  19.739  51.431  1.00  0.00     0.741 A 
HETATM    6  N3  UNL     1      23.219  20.170  51.382  1.00  0.00    -0.126 N 
ATOM      7  H3  UNL     1      22.615  20.089  50.564  1.00  0.00     0.206 HD
HETATM    8  N4  UNL     1      22.851  20.712  52.531  1.00  0.00    -0.259 N 
ATOM      9  H4  UNL     1      21.941  21.114  52.759  1.00  0.00     0.190 HD
HETATM   10  C3  UNL     1      23.922  20.623  53.337  1.00  0.00     0.237 A 
HETATM   11  S1  UNL     1      24.013  21.147  54.890  1.00  0.00    -0.036 SA
HETATM   12  N5  UNL     1      24.929  20.027  52.664  1.00  0.00    -0.001 N 
HETATM   13  O1  UNL     1      26.118  19.844  53.326  1.00  0.00    -0.109 OA
HETATM   14  S2  UNL     1      27.474  18.844  53.183  1.00  0.00     0.386 S 
HETATM   15  O2  UNL     1      27.116  17.400  53.452  1.00  0.00    -0.173 OA
HETATM   16  O3  UNL     1      28.487  19.278  54.202  1.00  0.00    -0.173 OA
HETATM   17  N6  UNL     1      28.161  18.916  51.602  1.00  0.00    -0.223 N 
ATOM     18  H6  UNL     1      29.179  18.960  51.627  1.00  0.00     0.184 HD
HETATM   19  C4  UNL     1      27.706  18.927  50.405  1.00  0.00     0.268 C 
ENDROOT
BRANCH  19  20
HETATM   20  O4  UNL     1      28.732  18.996  49.491  1.00  0.00    -0.182 OA
BRANCH  20  21
HETATM   21  S3  UNL     1      30.255  19.698  49.877  1.00  0.00     0.408 S 
HETATM   22  O5  UNL     1      30.117  21.097  50.345  1.00  0.00    -0.179 OA
HETATM   23  O6  UNL     1      30.960  18.911  50.929  1.00  0.00    -0.179 OA
ENDBRANCH  20  21
ENDBRANCH  19  20
TORSDOF 2
ENDMDL
MODEL 2
REMARK VINA RESULT: -5.436536554      4.188      6.172
REMARK  2 active torsions:
REMARK  status: ('A' for Active; 'I' for Inactive)
REMARK    1  A    between atoms: C4_19  and  O4_20 
REMARK    2  A    between atoms: O4_20  and  S3_21 
ROOT
HETATM    1  C1  UNL     1      27.014  20.664  55.638  1.00  0.00     0.182 C 
HETATM    2  N1  UNL     1      25.928  20.677  54.664  1.00  0.00    -0.245 N 
HETATM    3  N2  UNL     1      26.164  19.823  53.581  1.00  0.00    -0.123 N 
ATOM      4  H2  UNL     1      26.941  19.184  53.748  1.00  0.00     0.206 HD
HETATM    5  C2  UNL     1      25.572  19.638  52.300  1.00  0.00     0.741 A 
HETATM    6  N3  UNL     1      26.259  19.015  51.327  1.00  0.00    -0.126 N 
ATOM      7  H3  UNL     1      27.205  18.649  51.434  1.00  0.00     0.206 HD
HETATM    8  N4  UNL     1      25.549  18.936  50.213  1.00  0.00    -0.259 N 
ATOM      9  H4  UNL     1      25.835  18.514  49.329  1.00  0.00     0.190 HD
HETATM   10  C3  UNL     1      24.374  19.529  50.485  1.00  0.00     0.237 A 
HETATM   11  S1  UNL     1      23.116  19.709  49.447  1.00  0.00    -0.036 SA
HETATM   12  N5  UNL     1      24.387  19.960  51.764  1.00  0.00    -0.001 N 
HETATM   13  O1  UNL     1      23.263  20.596  52.233  1.00  0.00    -0.109 OA
HETATM   14  S2  UNL     1      22.565  20.926  53.737  1.00  0.00     0.386 S 
HETATM   15  O2  UNL     1      22.115  19.655  54.420  1.00  0.00    -0.173 OA
HETATM   16  O3  UNL     1      21.361  21.795  53.515  1.00  0.00    -0.173 OA
HETATM   17  N6  UNL     1      23.672  21.714  54.800  1.00  0.00    -0.223 N 
ATOM     18  H6  UNL     1      23.234  22.478  55.316  1.00  0.00     0.184 HD
HETATM   19  C4  UNL     1      24.909  21.577  55.101  1.00  0.00     0.268 C 
ENDROOT
BRANCH  19  20
HETATM   20  O4  UNL     1      25.292  22.506  56.041  1.00  0.00    -0.182 OA
BRANCH  20  21
HETATM   21  S3  UNL     1      24.391  23.944  56.325  1.00  0.00     0.408 S 
HETATM   22  O5  UNL     1      24.028  24.628  55.062  1.00  0.00    -0.179 OA
HETATM   23  O6  UNL     1      23.142  23.657  57.087  1.00  0.00    -0.179 OA
ENDBRANCH  20  21
ENDBRANCH  19  20
TORSDOF 2
ENDMDL
MODEL 3
REMARK VINA RESULT: -5.356385478      3.747      4.964
REMARK  2 active torsions:
REMARK  status: ('A' for Active; 'I' for Inactive)
REMARK    1  A    between atoms: C4_19  and  O4_20 
REMARK    2  A    between atoms: O4_20  and  S3_21 
ROOT
HETATM    1  C1  UNL     1      29.854  17.177  50.882  1.00  0.00     0.182 C 
HETATM    2  N1  UNL     1      28.654  17.544  50.138  1.00  0.00    -0.245 N 
HETATM    3  N2  UNL     1      27.817  18.407  50.856  1.00  0.00    -0.123 N 
ATOM      4  H2  UNL     1      28.274  18.800  51.679  1.00  0.00     0.206 HD
HETATM    5  C2  UNL     1      26.478  18.863  50.705  1.00  0.00     0.741 A 
HETATM    6  N3  UNL     1      25.820  19.376  51.759  1.00  0.00    -0.126 N 
ATOM      7  H3  UNL     1      26.216  19.469  52.695  1.00  0.00     0.206 HD
HETATM    8  N4  UNL     1      24.594  19.744  51.427  1.00  0.00    -0.259 N 
ATOM      9  H4  UNL     1      23.889  20.161  52.037  1.00  0.00     0.190 HD
HETATM   10  C3  UNL     1      24.466  19.457  50.121  1.00  0.00     0.237 A 
HETATM   11  S1  UNL     1      23.134  19.715  49.197  1.00  0.00    -0.036 SA
HETATM   12  N5  UNL     1      25.620  18.917  49.677  1.00  0.00    -0.001 N 
HETATM   13  O1  UNL     1      25.687  18.555  48.353  1.00  0.00    -0.109 OA
HETATM   14  S2  UNL     1      26.896  18.275  47.206  1.00  0.00     0.386 S 
HETATM   15  O2  UNL     1      27.645  19.548  46.882  1.00  0.00    -0.173 OA
HETATM   16  O3  UNL     1      26.244  17.778  45.948  1.00  0.00    -0.173 OA
HETATM   17  N6  UNL     1      28.056  17.126  47.762  1.00  0.00    -0.223 N 
ATOM     18  H6  UNL     1      28.315  16.458  47.036  1.00  0.00     0.184 HD
HETATM   19  C4  UNL     1      28.672  16.905  48.862  1.00  0.00     0.268 C 
ENDROOT
BRANCH  19  20
HETATM   20  O4  UNL     1      29.512  15.822  48.745  1.00  0.00    -0.182 OA
BRANCH  20  21
HETATM   21  S3  UNL     1      29.168  14.507  47.690  1.00  0.00     0.408 S 
HETATM   22  O5  UNL     1      27.766  14.047  47.817  1.00  0.00    -0.179 OA
HETATM   23  O6  UNL     1      29.420  14.878  46.268  1.00  0.00    -0.179 OA
ENDBRANCH  20  21
ENDBRANCH  19  20
TORSDOF 2
ENDMDL
MODEL 4
REMARK VINA RESULT: -5.294353285      6.245      8.938
REMARK  2 active torsions:
REMARK  status: ('A' for Active; 'I' for Inactive)
REMARK    1  A    between atoms: C4_19  and  O4_20 
REMARK    2  A    between atoms: O4_20  and  S3_21 
ROOT
HETATM    1  C1  UNL     1      29.135  16.241  48.335  1.00  0.00     0.182 C 
HETATM    2  N1  UNL     1      28.385  16.042  47.100  1.00  0.00    -0.245 N 
HETATM    3  N2  UNL     1      29.182  15.558  46.056  1.00  0.00    -0.123 N 
ATOM      4  H2  UNL     1      30.091  15.227  46.379  1.00  0.00     0.206 HD
HETATM    5  C2  UNL     1      29.019  15.419  44.649  1.00  0.00     0.741 A 
HETATM    6  N3  UNL     1      30.098  15.287  43.858  1.00  0.00    -0.126 N 
ATOM      7  H3  UNL     1      31.061  15.279  44.195  1.00  0.00     0.206 HD
HETATM    8  N4  UNL     1      29.750  15.171  42.587  1.00  0.00    -0.259 N 
ATOM      9  H4  UNL     1      30.372  15.059  41.786  1.00  0.00     0.190 HD
HETATM   10  C3  UNL     1      28.408  15.230  42.568  1.00  0.00     0.237 A 
HETATM   11  S1  UNL     1      27.452  15.134  41.237  1.00  0.00    -0.036 SA
HETATM   12  N5  UNL     1      27.958  15.382  43.831  1.00  0.00    -0.001 N 
HETATM   13  O1  UNL     1      26.600  15.462  44.019  1.00  0.00    -0.109 OA
HETATM   14  S2  UNL     1      25.509  15.220  45.288  1.00  0.00     0.386 S 
HETATM   15  O2  UNL     1      25.468  13.767  45.702  1.00  0.00    -0.173 OA
HETATM   16  O3  UNL     1      24.141  15.615  44.813  1.00  0.00    -0.173 OA
HETATM   17  N6  UNL     1      25.935  16.139  46.685  1.00  0.00    -0.223 N 
ATOM     18  H6  UNL     1      25.123  16.575  47.121  1.00  0.00     0.184 HD
HETATM   19  C4  UNL     1      27.020  16.407  47.309  1.00  0.00     0.268 C 
ENDROOT
BRANCH  19  20
HETATM   20  O4  UNL     1      26.775  17.213  48.397  1.00  0.00    -0.182 OA
BRANCH  20  21
HETATM   21  S3  UNL     1      26.056  18.768  48.238  1.00  0.00     0.408 S 
HETATM   22  O5  UNL     1      26.443  19.430  46.971  1.00  0.00    -0.179 OA
HETATM   23  O6  UNL     1      24.569  18.683  48.296  1.00  0.00    -0.179 OA
ENDBRANCH  20  21
ENDBRANCH  19  20
TORSDOF 2
ENDMDL
MODEL 5
REMARK VINA RESULT: -5.251206932      1.201      1.260
REMARK  2 active torsions:
REMARK  status: ('A' for Active; 'I' for Inactive)
REMARK    1  A    between atoms: C4_19  and  O4_20 
REMARK    2  A    between atoms: O4_20  and  S3_21 
ROOT
HETATM    1  C1  UNL     1      26.912  18.369  47.246  1.00  0.00     0.182 C 
HETATM    2  N1  UNL     1      26.801  18.694  48.664  1.00  0.00    -0.245 N 
HETATM    3  N2  UNL     1      25.473  18.843  49.081  1.00  0.00    -0.123 N 
ATOM      4  H2  UNL     1      24.805  18.499  48.392  1.00  0.00     0.206 HD
HETATM    5  C2  UNL     1      24.837  19.364  50.243  1.00  0.00     0.741 A 
HETATM    6  N3  UNL     1      23.547  19.734  50.193  1.00  0.00    -0.126 N 
ATOM      7  H3  UNL     1      22.962  19.672  49.360  1.00  0.00     0.206 HD
HETATM    8  N4  UNL     1      23.133  20.191  51.364  1.00  0.00    -0.259 N 
ATOM      9  H4  UNL     1      22.200  20.535  51.596  1.00  0.00     0.190 HD
HETATM   10  C3  UNL     1      24.193  20.108  52.185  1.00  0.00     0.237 A 
HETATM   11  S1  UNL     1      24.232  20.546  53.766  1.00  0.00    -0.036 SA
HETATM   12  N5  UNL     1      25.239  19.601  51.499  1.00  0.00    -0.001 N 
HETATM   13  O1  UNL     1      26.425  19.439  52.174  1.00  0.00    -0.109 OA
HETATM   14  S2  UNL     1      27.831  18.515  52.001  1.00  0.00     0.386 S 
HETATM   15  O2  UNL     1      27.541  17.043  52.181  1.00  0.00    -0.173 OA
HETATM   16  O3  UNL     1      28.803  18.939  53.063  1.00  0.00    -0.173 OA
HETATM   17  N6  UNL     1      28.540  18.711  50.441  1.00  0.00    -0.223 N 
ATOM     18  H6  UNL     1      29.555  18.803  50.488  1.00  0.00     0.184 HD
HETATM   19  C4  UNL     1      28.106  18.769  49.238  1.00  0.00     0.268 C 
ENDROOT
BRANCH  19  20
HETATM   20  O4  UNL     1      29.143  18.940  48.350  1.00  0.00    -0.182 OA
BRANCH  20  21
HETATM   21  S3  UNL     1      30.628  19.679  48.808  1.00  0.00     0.408 S 
HETATM   22  O5  UNL     1      30.412  20.954  49.530  1.00  0.00    -0.179 OA
HETATM   23  O6  UNL     1      31.435  18.773  49.674  1.00  0.00    -0.179 OA
ENDBRANCH  20  21
ENDBRANCH  19  20
TORSDOF 2
ENDMDL
