MODEL 1
REMARK VINA RESULT: -8.337142118      0.000      0.000
REMARK  7 active torsions:
REMARK  status: ('A' for Active; 'I' for Inactive)
REMARK    1  A    between atoms: C2_2  and  N1_3 
REMARK    2  A    between atoms: N1_3  and  C3_5 
REMARK    3  A    between atoms: C5_7  and  C6_8 
REMARK    4  A    between atoms: C7_9  and  C8_10 
REMARK    5  A    between atoms: C9_11  and  C10_12 
REMARK    6  A    between atoms: C16_24  and  N6_25 
REMARK    7  A    between atoms: N6_25  and  C17_27 
ROOT
HETATM    1  C8  UNL     1      -3.017   7.280 -10.732  1.00  0.00     0.072 A 
HETATM    2  C9  UNL     1      -4.192   6.587 -10.794  1.00  0.00     0.067 A 
HETATM    3  N4  UNL     1      -4.532   6.137 -12.045  1.00  0.00    -0.343 N 
ATOM      4  H4  UNL     1      -5.405   5.617 -12.129  1.00  0.00     0.167 HD
HETATM    5  C14 UNL     1      -3.832   6.316 -13.145  1.00  0.00     0.118 A 
HETATM    6  N5  UNL     1      -4.254   5.810 -14.424  1.00  0.00    -0.083 NA
HETATM    7  C15 UNL     1      -2.645   7.014 -13.071  1.00  0.00     0.076 A 
HETATM    8  C16 UNL     1      -2.209   7.512 -11.864  1.00  0.00     0.053 A 
ENDROOT
BRANCH   1   9
HETATM    9  C7  UNL     1      -2.534   7.893  -9.530  1.00  0.00    -0.057 C 
HETATM   10  C6  UNL     1      -2.105   8.378  -8.493  1.00  0.00    -0.061 C 
BRANCH  10  11
HETATM   11  C5  UNL     1      -1.579   8.942  -7.281  1.00  0.00     0.022 A 
HETATM   12  C4  UNL     1      -2.160  10.075  -6.733  1.00  0.00     0.068 A 
HETATM   13  C3  UNL     1      -1.705  10.664  -5.574  1.00  0.00     0.102 A 
HETATM   14  N7  UNL     1      -0.638  10.079  -4.974  1.00  0.00    -0.352 N 
HETATM   15  C22 UNL     1      -0.040   8.982  -5.464  1.00  0.00     0.091 A 
ATOM     16  H7  UNL     1      -0.275  10.491  -4.114  1.00  0.00     0.166 HD
HETATM   17  C21 UNL     1      -0.498   8.395  -6.625  1.00  0.00     0.038 A 
BRANCH  13  18
HETATM   18  N1  UNL     1      -2.257  11.718  -5.077  1.00  0.00    -0.377 N 
ATOM     19  H1  UNL     1      -2.861  12.313  -5.645  1.00  0.00     0.161 HD
BRANCH  18  20
HETATM   20  C2  UNL     1      -1.996  12.030  -3.697  1.00  0.00     0.116 C 
HETATM   21  C1  UNL     1      -3.166  11.644  -2.818  1.00  0.00     0.026 C 
ENDBRANCH  18  20
ENDBRANCH  13  18
ENDBRANCH  10  11
ENDBRANCH   1   9
BRANCH   2  22
HETATM   22  C10 UNL     1      -5.083   6.347  -9.686  1.00  0.00     0.026 A 
HETATM   23  C11 UNL     1      -5.032   6.698  -8.383  1.00  0.00     0.122 A 
HETATM   24  N2  UNL     1      -6.170   6.281  -7.767  1.00  0.00    -0.310 N 
HETATM   25  N3  UNL     1      -6.957   5.669  -8.626  1.00  0.00    -0.307 N 
ATOM     26  H2  UNL     1      -6.382   6.422  -6.780  1.00  0.00     0.186 HD
HETATM   27  C12 UNL     1      -8.261   5.071  -8.399  1.00  0.00     0.177 C 
HETATM   28  C13 UNL     1      -6.313   5.696  -9.814  1.00  0.00     0.124 A 
ENDBRANCH   2  22
BRANCH   8  29
HETATM   29  N6  UNL     1      -1.127   8.157 -11.755  1.00  0.00    -0.380 N 
ATOM     30  H6  UNL     1      -1.228   9.117 -11.426  1.00  0.00     0.160 HD
BRANCH  29  31
HETATM   31  C17 UNL     1       0.208   7.747 -12.021  1.00  0.00     0.019 C 
HETATM   32  C18 UNL     1       1.124   8.069 -10.877  1.00  0.00     0.037 C 
HETATM   33  C19 UNL     1       0.237   6.215 -12.189  1.00  0.00     0.037 C 
HETATM   34  C20 UNL     1       0.754   8.303 -13.316  1.00  0.00     0.037 C 
ENDBRANCH  29  31
ENDBRANCH   8  29
TORSDOF 7
ENDMDL
MODEL 2
REMARK VINA RESULT: -7.579470108      1.267      2.157
REMARK  7 active torsions:
REMARK  status: ('A' for Active; 'I' for Inactive)
REMARK    1  A    between atoms: C2_2  and  N1_3 
REMARK    2  A    between atoms: N1_3  and  C3_5 
REMARK    3  A    between atoms: C5_7  and  C6_8 
REMARK    4  A    between atoms: C7_9  and  C8_10 
REMARK    5  A    between atoms: C9_11  and  C10_12 
REMARK    6  A    between atoms: C16_24  and  N6_25 
REMARK    7  A    between atoms: N6_25  and  C17_27 
ROOT
HETATM    1  C8  UNL     1      -3.814   7.348 -10.997  1.00  0.00     0.072 A 
HETATM    2  C9  UNL     1      -4.709   6.329 -10.840  1.00  0.00     0.067 A 
HETATM    3  N4  UNL     1      -4.843   5.506 -11.929  1.00  0.00    -0.343 N 
ATOM      4  H4  UNL     1      -5.506   4.734 -11.849  1.00  0.00     0.167 HD
HETATM    5  C14 UNL     1      -4.193   5.621 -13.069  1.00  0.00     0.118 A 
HETATM    6  N5  UNL     1      -4.387   4.714 -14.168  1.00  0.00    -0.083 NA
HETATM    7  C15 UNL     1      -3.289   6.652 -13.216  1.00  0.00     0.076 A 
HETATM    8  C16 UNL     1      -3.078   7.539 -12.185  1.00  0.00     0.053 A 
ENDROOT
BRANCH   1   9
HETATM    9  C7  UNL     1      -3.593   8.355 -10.001  1.00  0.00    -0.057 C 
HETATM   10  C6  UNL     1      -3.364   9.199  -9.148  1.00  0.00    -0.061 C 
BRANCH  10  11
HETATM   11  C5  UNL     1      -3.078  10.201  -8.158  1.00  0.00     0.022 A 
HETATM   12  C4  UNL     1      -2.655   9.825  -6.893  1.00  0.00     0.068 A 
HETATM   13  C3  UNL     1      -2.365  10.736  -5.900  1.00  0.00     0.102 A 
HETATM   14  N7  UNL     1      -2.512  12.046  -6.215  1.00  0.00    -0.352 N 
HETATM   15  C22 UNL     1      -2.919  12.461  -7.425  1.00  0.00     0.091 A 
ATOM     16  H7  UNL     1      -2.306  12.746  -5.503  1.00  0.00     0.166 HD
HETATM   17  C21 UNL     1      -3.209  11.548  -8.417  1.00  0.00     0.038 A 
BRANCH  13  18
HETATM   18  N1  UNL     1      -1.972  10.370  -4.727  1.00  0.00    -0.377 N 
ATOM     19  H1  UNL     1      -2.191  10.928  -3.902  1.00  0.00     0.161 HD
BRANCH  18  20
HETATM   20  C2  UNL     1      -1.215   9.151  -4.618  1.00  0.00     0.116 C 
HETATM   21  C1  UNL     1       0.175   9.317  -5.195  1.00  0.00     0.026 C 
ENDBRANCH  18  20
ENDBRANCH  13  18
ENDBRANCH  10  11
ENDBRANCH   1   9
BRANCH   2  22
HETATM   22  C10 UNL     1      -5.521   6.099  -9.671  1.00  0.00     0.026 A 
HETATM   23  C11 UNL     1      -5.381   6.463  -8.379  1.00  0.00     0.122 A 
HETATM   24  N2  UNL     1      -6.473   6.050  -7.682  1.00  0.00    -0.310 N 
HETATM   25  N3  UNL     1      -7.317   5.430  -8.478  1.00  0.00    -0.307 N 
ATOM     26  H2  UNL     1      -6.617   6.201  -6.683  1.00  0.00     0.186 HD
HETATM   27  C12 UNL     1      -8.601   4.832  -8.157  1.00  0.00     0.177 C 
HETATM   28  C13 UNL     1      -6.756   5.445  -9.708  1.00  0.00     0.124 A 
ENDBRANCH   2  22
BRANCH   8  29
HETATM   29  N6  UNL     1      -2.257   8.497 -12.280  1.00  0.00    -0.380 N 
ATOM     30  H6  UNL     1      -2.665   9.388 -12.563  1.00  0.00     0.160 HD
BRANCH  29  31
HETATM   31  C17 UNL     1      -0.854   8.519 -12.053  1.00  0.00     0.019 C 
HETATM   32  C18 UNL     1      -0.091   8.736 -13.327  1.00  0.00     0.037 C 
HETATM   33  C19 UNL     1      -0.515   9.708 -11.131  1.00  0.00     0.037 C 
HETATM   34  C20 UNL     1      -0.349   7.293 -11.329  1.00  0.00     0.037 C 
ENDBRANCH  29  31
ENDBRANCH   8  29
TORSDOF 7
ENDMDL
MODEL 3
REMARK VINA RESULT: -7.169222364      2.680      7.267
REMARK  7 active torsions:
REMARK  status: ('A' for Active; 'I' for Inactive)
REMARK    1  A    between atoms: C2_2  and  N1_3 
REMARK    2  A    between atoms: N1_3  and  C3_5 
REMARK    3  A    between atoms: C5_7  and  C6_8 
REMARK    4  A    between atoms: C7_9  and  C8_10 
REMARK    5  A    between atoms: C9_11  and  C10_12 
REMARK    6  A    between atoms: C16_24  and  N6_25 
REMARK    7  A    between atoms: N6_25  and  C17_27 
ROOT
HETATM    1  C8  UNL     1      -2.481   7.568 -10.713  1.00  0.00     0.072 A 
HETATM    2  C9  UNL     1      -3.364   7.180  -9.747  1.00  0.00     0.067 A 
HETATM    3  N4  UNL     1      -2.900   7.293  -8.461  1.00  0.00    -0.343 N 
ATOM      4  H4  UNL     1      -3.533   7.009  -7.713  1.00  0.00     0.167 HD
HETATM    5  C14 UNL     1      -1.712   7.735  -8.106  1.00  0.00     0.118 A 
HETATM    6  N5  UNL     1      -1.297   7.826  -6.731  1.00  0.00    -0.083 NA
HETATM    7  C15 UNL     1      -0.828   8.127  -9.088  1.00  0.00     0.076 A 
HETATM    8  C16 UNL     1      -1.191   8.054 -10.414  1.00  0.00     0.053 A 
ENDROOT
BRANCH   1   9
HETATM    9  C7  UNL     1      -2.754   7.452 -12.115  1.00  0.00    -0.057 C 
HETATM   10  C6  UNL     1      -2.959   7.385 -13.318  1.00  0.00    -0.061 C 
BRANCH  10  11
HETATM   11  C5  UNL     1      -3.177   7.300 -14.735  1.00  0.00     0.022 A 
HETATM   12  C4  UNL     1      -3.535   8.432 -15.451  1.00  0.00     0.068 A 
HETATM   13  C3  UNL     1      -3.758   8.418 -16.811  1.00  0.00     0.102 A 
HETATM   14  N7  UNL     1      -3.612   7.225 -17.439  1.00  0.00    -0.352 N 
HETATM   15  C22 UNL     1      -3.268   6.101 -16.791  1.00  0.00     0.091 A 
ATOM     16  H7  UNL     1      -3.771   7.180 -18.445  1.00  0.00     0.166 HD
HETATM   17  C21 UNL     1      -3.045   6.118 -15.430  1.00  0.00     0.038 A 
BRANCH  13  18
HETATM   18  N1  UNL     1      -4.090   9.481 -17.462  1.00  0.00    -0.377 N 
ATOM     19  H1  UNL     1      -5.069   9.696 -17.653  1.00  0.00     0.161 HD
BRANCH  18  20
HETATM   20  C2  UNL     1      -3.038  10.353 -17.913  1.00  0.00     0.116 C 
HETATM   21  C1  UNL     1      -3.022  10.455 -19.423  1.00  0.00     0.026 C 
ENDBRANCH  18  20
ENDBRANCH  13  18
ENDBRANCH  10  11
ENDBRANCH   1   9
BRANCH   2  22
HETATM   22  C10 UNL     1      -4.680   6.639  -9.983  1.00  0.00     0.026 A 
HETATM   23  C11 UNL     1      -5.298   6.203 -11.101  1.00  0.00     0.122 A 
HETATM   24  N2  UNL     1      -6.525   5.720 -10.769  1.00  0.00    -0.310 N 
HETATM   25  N3  UNL     1      -6.724   5.829  -9.473  1.00  0.00    -0.307 N 
ATOM     26  H2  UNL     1      -7.195   5.328 -11.431  1.00  0.00     0.186 HD
HETATM   27  C12 UNL     1      -7.887   5.441  -8.694  1.00  0.00     0.177 C 
HETATM   28  C13 UNL     1      -5.605   6.391  -8.965  1.00  0.00     0.124 A 
ENDBRANCH   2  22
BRANCH   8  29
HETATM   29  N6  UNL     1      -0.410   8.405 -11.345  1.00  0.00    -0.380 N 
ATOM     30  H6  UNL     1      -0.546   9.356 -11.688  1.00  0.00     0.160 HD
BRANCH  29  31
HETATM   31  C17 UNL     1       0.629   7.675 -11.984  1.00  0.00     0.019 C 
HETATM   32  C18 UNL     1       1.872   7.629 -11.143  1.00  0.00     0.037 C 
HETATM   33  C19 UNL     1       0.173   6.215 -12.172  1.00  0.00     0.037 C 
HETATM   34  C20 UNL     1       0.943   8.179 -13.374  1.00  0.00     0.037 C 
ENDBRANCH  29  31
ENDBRANCH   8  29
TORSDOF 7
ENDMDL
MODEL 4
REMARK VINA RESULT: -7.025077576      6.258     11.287
REMARK  7 active torsions:
REMARK  status: ('A' for Active; 'I' for Inactive)
REMARK    1  A    between atoms: C2_2  and  N1_3 
REMARK    2  A    between atoms: N1_3  and  C3_5 
REMARK    3  A    between atoms: C5_7  and  C6_8 
REMARK    4  A    between atoms: C7_9  and  C8_10 
REMARK    5  A    between atoms: C9_11  and  C10_12 
REMARK    6  A    between atoms: C16_24  and  N6_25 
REMARK    7  A    between atoms: N6_25  and  C17_27 
ROOT
HETATM    1  C8  UNL     1      -2.823   7.400 -16.448  1.00  0.00     0.072 A 
HETATM    2  C9  UNL     1      -3.663   8.472 -16.537  1.00  0.00     0.067 A 
HETATM    3  N4  UNL     1      -4.280   8.821 -15.363  1.00  0.00    -0.343 N 
ATOM      4  H4  UNL     1      -4.918   9.617 -15.392  1.00  0.00     0.167 HD
HETATM    5  C14 UNL     1      -4.123   8.222 -14.201  1.00  0.00     0.118 A 
HETATM    6  N5  UNL     1      -4.806   8.650 -13.009  1.00  0.00    -0.083 NA
HETATM    7  C15 UNL     1      -3.269   7.142 -14.120  1.00  0.00     0.076 A 
HETATM    8  C16 UNL     1      -2.599   6.706 -15.240  1.00  0.00     0.053 A 
ENDROOT
BRANCH   1   9
HETATM    9  C7  UNL     1      -2.148   6.839 -17.581  1.00  0.00    -0.057 C 
HETATM   10  C6  UNL     1      -1.583   6.396 -18.570  1.00  0.00    -0.061 C 
BRANCH  10  11
HETATM   11  C5  UNL     1      -0.906   5.894 -19.733  1.00  0.00     0.022 A 
HETATM   12  C4  UNL     1       0.426   6.207 -19.951  1.00  0.00     0.068 A 
HETATM   13  C3  UNL     1       1.132   5.758 -21.046  1.00  0.00     0.102 A 
HETATM   14  N7  UNL     1       0.457   4.978 -21.926  1.00  0.00    -0.352 N 
HETATM   15  C22 UNL     1      -0.833   4.646 -21.761  1.00  0.00     0.091 A 
ATOM     16  H7  UNL     1       0.950   4.629 -22.747  1.00  0.00     0.166 HD
HETATM   17  C21 UNL     1      -1.537   5.098 -20.664  1.00  0.00     0.038 A 
BRANCH  13  18
HETATM   18  N1  UNL     1       2.372   6.058 -21.233  1.00  0.00    -0.377 N 
ATOM     19  H1  UNL     1       3.017   5.390 -21.655  1.00  0.00     0.161 HD
BRANCH  18  20
HETATM   20  C2  UNL     1       2.819   7.365 -20.828  1.00  0.00     0.116 C 
HETATM   21  C1  UNL     1       3.082   8.249 -22.029  1.00  0.00     0.026 C 
ENDBRANCH  18  20
ENDBRANCH  13  18
ENDBRANCH  10  11
ENDBRANCH   1   9
BRANCH   2  22
HETATM   22  C10 UNL     1      -3.967   9.200 -17.744  1.00  0.00     0.026 A 
HETATM   23  C11 UNL     1      -5.094   9.795 -18.189  1.00  0.00     0.122 A 
HETATM   24  N2  UNL     1      -4.830  10.414 -19.371  1.00  0.00    -0.310 N 
HETATM   25  N3  UNL     1      -3.571  10.239 -19.709  1.00  0.00    -0.307 N 
ATOM     26  H2  UNL     1      -5.513  10.938 -19.918  1.00  0.00     0.186 HD
HETATM   27  C12 UNL     1      -2.867  10.722 -20.884  1.00  0.00     0.177 C 
HETATM   28  C13 UNL     1      -3.016   9.496 -18.725  1.00  0.00     0.124 A 
ENDBRANCH   2  22
BRANCH   8  29
HETATM   29  N6  UNL     1      -1.807   5.720 -15.208  1.00  0.00    -0.380 N 
ATOM     30  H6  UNL     1      -2.188   4.848 -15.574  1.00  0.00     0.160 HD
BRANCH  29  31
HETATM   31  C17 UNL     1      -0.468   5.643 -14.738  1.00  0.00     0.019 C 
HETATM   32  C18 UNL     1       0.500   5.414 -15.862  1.00  0.00     0.037 C 
HETATM   33  C19 UNL     1      -0.084   6.992 -14.097  1.00  0.00     0.037 C 
HETATM   34  C20 UNL     1      -0.277   4.613 -13.650  1.00  0.00     0.037 C 
ENDBRANCH  29  31
ENDBRANCH   8  29
TORSDOF 7
ENDMDL
MODEL 5
REMARK VINA RESULT: -7.024853574      1.729      6.322
REMARK  7 active torsions:
REMARK  status: ('A' for Active; 'I' for Inactive)
REMARK    1  A    between atoms: C2_2  and  N1_3 
REMARK    2  A    between atoms: N1_3  and  C3_5 
REMARK    3  A    between atoms: C5_7  and  C6_8 
REMARK    4  A    between atoms: C7_9  and  C8_10 
REMARK    5  A    between atoms: C9_11  and  C10_12 
REMARK    6  A    between atoms: C16_24  and  N6_25 
REMARK    7  A    between atoms: N6_25  and  C17_27 
ROOT
HETATM    1  C8  UNL     1      -1.464   7.270 -10.563  1.00  0.00     0.072 A 
HETATM    2  C9  UNL     1      -0.678   7.859  -9.615  1.00  0.00     0.067 A 
HETATM    3  N4  UNL     1       0.654   7.929  -9.932  1.00  0.00    -0.343 N 
ATOM      4  H4  UNL     1       1.273   8.361  -9.245  1.00  0.00     0.167 HD
HETATM    5  C14 UNL     1       1.207   7.490 -11.044  1.00  0.00     0.118 A 
HETATM    6  N5  UNL     1       2.617   7.602 -11.306  1.00  0.00    -0.083 NA
HETATM    7  C15 UNL     1       0.404   6.899 -11.996  1.00  0.00     0.076 A 
HETATM    8  C16 UNL     1      -0.950   6.776 -11.780  1.00  0.00     0.053 A 
ENDROOT
BRANCH   1   9
HETATM    9  C7  UNL     1      -2.867   7.036 -10.381  1.00  0.00    -0.057 C 
HETATM   10  C6  UNL     1      -4.055   6.795 -10.231  1.00  0.00    -0.061 C 
BRANCH  10  11
HETATM   11  C5  UNL     1      -5.447   6.498 -10.035  1.00  0.00     0.022 A 
HETATM   12  C4  UNL     1      -5.889   6.014  -8.814  1.00  0.00     0.068 A 
HETATM   13  C3  UNL     1      -7.210   5.710  -8.563  1.00  0.00     0.102 A 
HETATM   14  N7  UNL     1      -8.083   5.906  -9.582  1.00  0.00    -0.352 N 
HETATM   15  C22 UNL     1      -7.705   6.372 -10.782  1.00  0.00     0.091 A 
ATOM     16  H7  UNL     1      -9.068   5.690  -9.430  1.00  0.00     0.166 HD
HETATM   17  C21 UNL     1      -6.383   6.675 -11.031  1.00  0.00     0.038 A 
BRANCH  13  18
HETATM   18  N1  UNL     1      -7.605   5.261  -7.420  1.00  0.00    -0.377 N 
ATOM     19  H1  UNL     1      -7.248   5.654  -6.549  1.00  0.00     0.161 HD
BRANCH  18  20
HETATM   20  C2  UNL     1      -8.565   4.188  -7.411  1.00  0.00     0.116 C 
HETATM   21  C1  UNL     1      -7.920   2.875  -7.802  1.00  0.00     0.026 C 
ENDBRANCH  18  20
ENDBRANCH  13  18
ENDBRANCH  10  11
ENDBRANCH   1   9
BRANCH   2  22
HETATM   22  C10 UNL     1      -1.132   8.349  -8.337  1.00  0.00     0.026 A 
HETATM   23  C11 UNL     1      -1.190   7.782  -7.113  1.00  0.00     0.122 A 
HETATM   24  N2  UNL     1      -1.638   8.704  -6.219  1.00  0.00    -0.310 N 
HETATM   25  N3  UNL     1      -1.875   9.849  -6.823  1.00  0.00    -0.307 N 
ATOM     26  H2  UNL     1      -1.773   8.532  -5.223  1.00  0.00     0.186 HD
HETATM   27  C12 UNL     1      -2.361  11.095  -6.255  1.00  0.00     0.177 C 
HETATM   28  C13 UNL     1      -1.572   9.659  -8.126  1.00  0.00     0.124 A 
ENDBRANCH   2  22
BRANCH   8  29
HETATM   29  N6  UNL     1      -1.720   6.241 -12.628  1.00  0.00    -0.380 N 
ATOM     30  H6  UNL     1      -2.037   5.301 -12.392  1.00  0.00     0.160 HD
BRANCH  29  31
HETATM   31  C17 UNL     1      -2.210   6.751 -13.861  1.00  0.00     0.019 C 
HETATM   32  C18 UNL     1      -1.451   6.197 -15.031  1.00  0.00     0.037 C 
HETATM   33  C19 UNL     1      -3.676   6.307 -14.039  1.00  0.00     0.037 C 
HETATM   34  C20 UNL     1      -2.240   8.261 -13.910  1.00  0.00     0.037 C 
ENDBRANCH  29  31
ENDBRANCH   8  29
TORSDOF 7
ENDMDL
