MODEL 1
REMARK VINA RESULT: -9.561109022      0.000      0.000
REMARK  6 active torsions:
REMARK  status: ('A' for Active; 'I' for Inactive)
REMARK    1  A    between atoms: C1_2  and  C2_3 
REMARK       I    between atoms: C1_2  and  N2_12 
REMARK    2  A    between atoms: C3_4  and  C4_5 
REMARK    3  A    between atoms: N2_12  and  N3_14 
REMARK    4  A    between atoms: N3_14  and  C9_15 
REMARK    5  A    between atoms: C9_15  and  O2_16 
REMARK    6  A    between atoms: C9_15  and  C10_18 
ROOT
HETATM    1  C9  UNL     1       0.291   7.191 -11.358  1.00  0.00     0.248 C 
ENDROOT
BRANCH   1   2
HETATM    2  N3  UNL     1      -0.044   7.563 -10.126  1.00  0.00    -0.296 NA
BRANCH   2   3
HETATM    3  N2  UNL     1      -0.369   7.949  -8.906  1.00  0.00    -0.189 N 
HETATM    4  C1  UNL     1      -0.768   9.345  -8.751  1.00  0.00     0.325 C 
HETATM    5  O1  UNL     1      -0.777  10.068  -9.804  1.00  0.00    -0.255 OA
ATOM      6  H2  UNL     1      -0.344   7.306  -8.115  1.00  0.00     0.206 HD
BRANCH   4   7
HETATM    7  C2  UNL     1      -1.142   9.981  -7.551  1.00  0.00     0.003 C 
HETATM    8  C3  UNL     1      -1.451  10.457  -6.486  1.00  0.00    -0.055 C 
BRANCH   8   9
HETATM    9  C4  UNL     1      -1.793  10.948  -5.194  1.00  0.00     0.033 A 
HETATM   10  C5  UNL     1      -2.975  10.775  -4.519  1.00  0.00     0.023 A 
HETATM   11  C6  UNL     1      -3.263  11.328  -3.288  1.00  0.00     0.019 A 
HETATM   12  C7  UNL     1      -2.291  12.106  -2.705  1.00  0.00     0.087 A 
HETATM   13  N1  UNL     1      -1.135  12.283  -3.348  1.00  0.00    -0.374 N 
HETATM   14  C8  UNL     1      -0.848  11.755  -4.532  1.00  0.00     0.108 A 
ATOM     15  H1  UNL     1      -0.425  12.862  -2.900  1.00  0.00     0.164 HD
ENDBRANCH   8   9
ENDBRANCH   4   7
ENDBRANCH   2   3
ENDBRANCH   1   2
BRANCH   1  16
HETATM   16  O2  UNL     1       1.682   7.144 -11.606  1.00  0.00    -0.333 OA
ATOM     17  H2  UNL     1       1.926   7.205 -12.523  1.00  0.00     0.220 HD
ENDBRANCH   1  16
BRANCH   1  18
HETATM   18  C10 UNL     1      -0.324   6.789 -12.583  1.00  0.00     0.034 A 
HETATM   19  C11 UNL     1       0.131   5.605 -13.194  1.00  0.00     0.018 A 
HETATM   20  C12 UNL     1      -0.386   5.304 -14.464  1.00  0.00     0.022 A 
HETATM   21  C13 UNL     1      -1.260   6.089 -15.084  1.00  0.00     0.032 A 
HETATM   22  C14 UNL     1      -1.736   7.252 -14.534  1.00  0.00     0.051 A 
HETATM   23  S1  UNL     1      -1.850   5.627 -16.715  1.00  0.00    -0.086 SA
HETATM   24  C15 UNL     1      -1.236   7.566 -13.261  1.00  0.00     0.048 A 
HETATM   25  N4  UNL     1      -2.578   8.147 -15.221  1.00  0.00    -0.354 N 
HETATM   26  C16 UNL     1      -3.080   8.053 -16.533  1.00  0.00     0.050 A 
ATOM     27  H4  UNL     1      -2.863   8.974 -14.697  1.00  0.00     0.166 HD
HETATM   28  C17 UNL     1      -3.830   9.086 -17.075  1.00  0.00     0.031 A 
HETATM   29  C21 UNL     1      -2.790   6.998 -17.357  1.00  0.00     0.032 A 
HETATM   30  C18 UNL     1      -4.279   9.080 -18.403  1.00  0.00     0.002 A 
HETATM   31  C19 UNL     1      -3.979   8.011 -19.235  1.00  0.00     0.002 A 
HETATM   32  C20 UNL     1      -3.232   6.999 -18.651  1.00  0.00     0.021 A 
ENDBRANCH   1  18
TORSDOF 6
ENDMDL
MODEL 2
REMARK VINA RESULT: -9.542186116      2.430      2.588
REMARK  6 active torsions:
REMARK  status: ('A' for Active; 'I' for Inactive)
REMARK    1  A    between atoms: C1_2  and  C2_3 
REMARK       I    between atoms: C1_2  and  N2_12 
REMARK    2  A    between atoms: C3_4  and  C4_5 
REMARK    3  A    between atoms: N2_12  and  N3_14 
REMARK    4  A    between atoms: N3_14  and  C9_15 
REMARK    5  A    between atoms: C9_15  and  O2_16 
REMARK    6  A    between atoms: C9_15  and  C10_18 
ROOT
HETATM    1  C9  UNL     1      -3.775   7.264 -11.872  1.00  0.00     0.248 C 
ENDROOT
BRANCH   1   2
HETATM    2  N3  UNL     1      -3.563   8.212 -10.964  1.00  0.00    -0.296 NA
BRANCH   2   3
HETATM    3  N2  UNL     1      -3.338   9.143 -10.057  1.00  0.00    -0.189 N 
HETATM    4  C1  UNL     1      -3.084   8.677  -8.695  1.00  0.00     0.325 C 
HETATM    5  O1  UNL     1      -3.092   7.415  -8.503  1.00  0.00    -0.255 OA
ATOM      6  H2  UNL     1      -3.341  10.136 -10.293  1.00  0.00     0.206 HD
BRANCH   4   7
HETATM    7  C2  UNL     1      -2.836   9.482  -7.567  1.00  0.00     0.003 C 
HETATM    8  C3  UNL     1      -2.627  10.106  -6.556  1.00  0.00    -0.055 C 
BRANCH   8   9
HETATM    9  C4  UNL     1      -2.373  10.771  -5.322  1.00  0.00     0.033 A 
HETATM   10  C5  UNL     1      -3.232  10.929  -4.265  1.00  0.00     0.023 A 
HETATM   11  C6  UNL     1      -2.941  11.638  -3.117  1.00  0.00     0.019 A 
HETATM   12  C7  UNL     1      -1.700  12.222  -3.036  1.00  0.00     0.087 A 
HETATM   13  N1  UNL     1      -0.851  12.076  -4.055  1.00  0.00    -0.374 N 
HETATM   14  C8  UNL     1      -1.122  11.397  -5.164  1.00  0.00     0.108 A 
ATOM     15  H1  UNL     1       0.066  12.516  -3.978  1.00  0.00     0.164 HD
ENDBRANCH   8   9
ENDBRANCH   4   7
ENDBRANCH   2   3
ENDBRANCH   1   2
BRANCH   1  16
HETATM   16  O2  UNL     1      -4.188   6.019 -11.346  1.00  0.00    -0.333 OA
ATOM     17  H2  UNL     1      -3.626   5.285 -11.568  1.00  0.00     0.220 HD
ENDBRANCH   1  16
BRANCH   1  18
HETATM   18  C10 UNL     1      -3.731   7.078 -13.289  1.00  0.00     0.034 A 
HETATM   19  C11 UNL     1      -3.425   5.794 -13.777  1.00  0.00     0.018 A 
HETATM   20  C12 UNL     1      -3.249   5.666 -15.165  1.00  0.00     0.022 A 
HETATM   21  C13 UNL     1      -3.356   6.697 -15.996  1.00  0.00     0.032 A 
HETATM   22  C14 UNL     1      -3.653   7.967 -15.573  1.00  0.00     0.051 A 
HETATM   23  S1  UNL     1      -3.096   6.435 -17.753  1.00  0.00    -0.086 SA
HETATM   24  C15 UNL     1      -3.840   8.113 -14.190  1.00  0.00     0.048 A 
HETATM   25  N4  UNL     1      -3.664   9.086 -16.427  1.00  0.00    -0.354 N 
HETATM   26  C16 UNL     1      -3.389   9.145 -17.806  1.00  0.00     0.050 A 
ATOM     27  H4  UNL     1      -3.905   9.974 -15.986  1.00  0.00     0.166 HD
HETATM   28  C17 UNL     1      -3.361  10.364 -18.467  1.00  0.00     0.031 A 
HETATM   29  C21 UNL     1      -3.057   8.035 -18.536  1.00  0.00     0.032 A 
HETATM   30  C18 UNL     1      -3.007  10.486 -19.817  1.00  0.00     0.002 A 
HETATM   31  C19 UNL     1      -2.668   9.359 -20.553  1.00  0.00     0.002 A 
HETATM   32  C20 UNL     1      -2.714   8.162 -19.854  1.00  0.00     0.021 A 
ENDBRANCH   1  18
TORSDOF 6
ENDMDL
MODEL 3
REMARK VINA RESULT: -9.349668987      1.849      2.217
REMARK  6 active torsions:
REMARK  status: ('A' for Active; 'I' for Inactive)
REMARK    1  A    between atoms: C1_2  and  C2_3 
REMARK       I    between atoms: C1_2  and  N2_12 
REMARK    2  A    between atoms: C3_4  and  C4_5 
REMARK    3  A    between atoms: N2_12  and  N3_14 
REMARK    4  A    between atoms: N3_14  and  C9_15 
REMARK    5  A    between atoms: C9_15  and  O2_16 
REMARK    6  A    between atoms: C9_15  and  C10_18 
ROOT
HETATM    1  C9  UNL     1      -2.065   8.930 -12.682  1.00  0.00     0.248 C 
ENDROOT
BRANCH   1   2
HETATM    2  N3  UNL     1      -2.473   9.163 -11.438  1.00  0.00    -0.296 NA
BRANCH   2   3
HETATM    3  N2  UNL     1      -2.866   9.407 -10.202  1.00  0.00    -0.189 N 
HETATM    4  C1  UNL     1      -1.856   9.939  -9.291  1.00  0.00     0.325 C 
HETATM    5  O1  UNL     1      -0.686  10.131  -9.769  1.00  0.00    -0.255 OA
ATOM      6  H2  UNL     1      -3.825   9.233  -9.899  1.00  0.00     0.206 HD
BRANCH   4   7
HETATM    7  C2  UNL     1      -2.038  10.260  -7.933  1.00  0.00     0.003 C 
HETATM    8  C3  UNL     1      -2.126  10.575  -6.771  1.00  0.00    -0.055 C 
BRANCH   8   9
HETATM    9  C4  UNL     1      -2.166  10.998  -5.412  1.00  0.00     0.033 A 
HETATM   10  C5  UNL     1      -3.210  10.881  -4.530  1.00  0.00     0.023 A 
HETATM   11  C6  UNL     1      -3.203  11.366  -3.237  1.00  0.00     0.019 A 
HETATM   12  C7  UNL     1      -2.065  12.009  -2.813  1.00  0.00     0.087 A 
HETATM   13  N1  UNL     1      -1.039  12.130  -3.659  1.00  0.00    -0.374 N 
HETATM   14  C8  UNL     1      -1.036  11.667  -4.904  1.00  0.00     0.108 A 
ATOM     15  H1  UNL     1      -0.202  12.609  -3.327  1.00  0.00     0.164 HD
ENDBRANCH   8   9
ENDBRANCH   4   7
ENDBRANCH   2   3
ENDBRANCH   1   2
BRANCH   1  16
HETATM   16  O2  UNL     1      -0.784   9.441 -12.992  1.00  0.00    -0.333 OA
ATOM     17  H2  UNL     1      -0.138   8.784 -13.225  1.00  0.00     0.220 HD
ENDBRANCH   1  16
BRANCH   1  18
HETATM   18  C10 UNL     1      -2.513   8.288 -13.877  1.00  0.00     0.034 A 
HETATM   19  C11 UNL     1      -2.644   6.886 -13.865  1.00  0.00     0.018 A 
HETATM   20  C12 UNL     1      -2.949   6.264 -15.087  1.00  0.00     0.022 A 
HETATM   21  C13 UNL     1      -3.103   6.947 -16.216  1.00  0.00     0.032 A 
HETATM   22  C14 UNL     1      -2.987   8.311 -16.283  1.00  0.00     0.051 A 
HETATM   23  S1  UNL     1      -3.475   6.059 -17.732  1.00  0.00    -0.086 SA
HETATM   24  C15 UNL     1      -2.691   8.952 -15.070  1.00  0.00     0.048 A 
HETATM   25  N4  UNL     1      -3.043   9.036 -17.488  1.00  0.00    -0.354 N 
HETATM   26  C16 UNL     1      -3.215   8.553 -18.800  1.00  0.00     0.050 A 
ATOM     27  H4  UNL     1      -2.946  10.048 -17.400  1.00  0.00     0.166 HD
HETATM   28  C17 UNL     1      -3.152   9.419 -19.882  1.00  0.00     0.031 A 
HETATM   29  C21 UNL     1      -3.364   7.222 -19.078  1.00  0.00     0.032 A 
HETATM   30  C18 UNL     1      -3.230   8.978 -21.210  1.00  0.00     0.002 A 
HETATM   31  C19 UNL     1      -3.378   7.626 -21.487  1.00  0.00     0.002 A 
HETATM   32  C20 UNL     1      -3.440   6.798 -20.376  1.00  0.00     0.021 A 
ENDBRANCH   1  18
TORSDOF 6
ENDMDL
MODEL 4
REMARK VINA RESULT: -9.302949126      2.576      3.465
REMARK  6 active torsions:
REMARK  status: ('A' for Active; 'I' for Inactive)
REMARK    1  A    between atoms: C1_2  and  C2_3 
REMARK       I    between atoms: C1_2  and  N2_12 
REMARK    2  A    between atoms: C3_4  and  C4_5 
REMARK    3  A    between atoms: N2_12  and  N3_14 
REMARK    4  A    between atoms: N3_14  and  C9_15 
REMARK    5  A    between atoms: C9_15  and  O2_16 
REMARK    6  A    between atoms: C9_15  and  C10_18 
ROOT
HETATM    1  C9  UNL     1      -2.771   6.438 -13.878  1.00  0.00     0.248 C 
ENDROOT
BRANCH   1   2
HETATM    2  N3  UNL     1      -2.318   6.803 -12.683  1.00  0.00    -0.296 NA
BRANCH   2   3
HETATM    3  N2  UNL     1      -1.885   7.171 -11.492  1.00  0.00    -0.189 N 
HETATM    4  C1  UNL     1      -2.440   8.410 -10.952  1.00  0.00     0.325 C 
HETATM    5  O1  UNL     1      -3.300   9.023 -11.671  1.00  0.00    -0.255 OA
ATOM      6  H2  UNL     1      -1.198   6.621 -10.976  1.00  0.00     0.206 HD
BRANCH   4   7
HETATM    7  C2  UNL     1      -2.119   9.004  -9.717  1.00  0.00     0.003 C 
HETATM    8  C3  UNL     1      -1.873   9.448  -8.622  1.00  0.00    -0.055 C 
BRANCH   8   9
HETATM    9  C4  UNL     1      -1.604   9.899  -7.298  1.00  0.00     0.033 A 
HETATM   10  C5  UNL     1      -0.646   9.432  -6.435  1.00  0.00     0.023 A 
HETATM   11  C6  UNL     1      -0.475   9.876  -5.139  1.00  0.00     0.019 A 
HETATM   12  C7  UNL     1      -1.329  10.856  -4.692  1.00  0.00     0.087 A 
HETATM   13  N1  UNL     1      -2.266  11.322  -5.520  1.00  0.00    -0.374 N 
HETATM   14  C8  UNL     1      -2.439  10.901  -6.768  1.00  0.00     0.108 A 
ATOM     15  H1  UNL     1      -2.891  12.049  -5.172  1.00  0.00     0.164 HD
ENDBRANCH   8   9
ENDBRANCH   4   7
ENDBRANCH   2   3
ENDBRANCH   1   2
BRANCH   1  16
HETATM   16  O2  UNL     1      -4.176   6.306 -13.966  1.00  0.00    -0.333 OA
ATOM     17  H2  UNL     1      -4.542   6.496 -14.822  1.00  0.00     0.220 HD
ENDBRANCH   1  16
BRANCH   1  18
HETATM   18  C10 UNL     1      -2.283   6.125 -15.184  1.00  0.00     0.034 A 
HETATM   19  C11 UNL     1      -1.020   5.511 -15.288  1.00  0.00     0.018 A 
HETATM   20  C12 UNL     1      -0.498   5.342 -16.581  1.00  0.00     0.022 A 
HETATM   21  C13 UNL     1      -1.146   5.742 -17.670  1.00  0.00     0.032 A 
HETATM   22  C14 UNL     1      -2.377   6.344 -17.625  1.00  0.00     0.051 A 
HETATM   23  S1  UNL     1      -0.387   5.497 -19.278  1.00  0.00    -0.086 SA
HETATM   24  C15 UNL     1      -2.918   6.515 -16.342  1.00  0.00     0.048 A 
HETATM   25  N4  UNL     1      -3.026   6.868 -18.759  1.00  0.00    -0.354 N 
HETATM   26  C16 UNL     1      -2.583   6.891 -20.095  1.00  0.00     0.050 A 
ATOM     27  H4  UNL     1      -3.940   7.287 -18.590  1.00  0.00     0.166 HD
HETATM   28  C17 UNL     1      -3.326   7.537 -21.072  1.00  0.00     0.031 A 
HETATM   29  C21 UNL     1      -1.380   6.362 -20.479  1.00  0.00     0.032 A 
HETATM   30  C18 UNL     1      -2.888   7.663 -22.397  1.00  0.00     0.002 A 
HETATM   31  C19 UNL     1      -1.667   7.128 -22.781  1.00  0.00     0.002 A 
HETATM   32  C20 UNL     1      -0.960   6.487 -21.775  1.00  0.00     0.021 A 
ENDBRANCH   1  18
TORSDOF 6
ENDMDL
MODEL 5
REMARK VINA RESULT: -9.279919868      2.739      4.037
REMARK  6 active torsions:
REMARK  status: ('A' for Active; 'I' for Inactive)
REMARK    1  A    between atoms: C1_2  and  C2_3 
REMARK       I    between atoms: C1_2  and  N2_12 
REMARK    2  A    between atoms: C3_4  and  C4_5 
REMARK    3  A    between atoms: N2_12  and  N3_14 
REMARK    4  A    between atoms: N3_14  and  C9_15 
REMARK    5  A    between atoms: C9_15  and  O2_16 
REMARK    6  A    between atoms: C9_15  and  C10_18 
ROOT
HETATM    1  C9  UNL     1      -3.429   6.620 -13.965  1.00  0.00     0.248 C 
ENDROOT
BRANCH   1   2
HETATM    2  N3  UNL     1      -3.149   6.868 -12.689  1.00  0.00    -0.296 NA
BRANCH   2   3
HETATM    3  N2  UNL     1      -2.864   7.129 -11.427  1.00  0.00    -0.189 N 
HETATM    4  C1  UNL     1      -2.350   8.466 -11.140  1.00  0.00     0.325 C 
HETATM    5  O1  UNL     1      -2.230   9.267 -12.128  1.00  0.00    -0.255 OA
ATOM      6  H2  UNL     1      -2.996   6.434 -10.692  1.00  0.00     0.206 HD
BRANCH   4   7
HETATM    7  C2  UNL     1      -1.967   8.963  -9.880  1.00  0.00     0.003 C 
HETATM    8  C3  UNL     1      -1.705   9.359  -8.770  1.00  0.00    -0.055 C 
BRANCH   8   9
HETATM    9  C4  UNL     1      -1.460   9.782  -7.433  1.00  0.00     0.033 A 
HETATM   10  C5  UNL     1      -0.599   9.222  -6.523  1.00  0.00     0.023 A 
HETATM   11  C6  UNL     1      -0.452   9.648  -5.218  1.00  0.00     0.019 A 
HETATM   12  C7  UNL     1      -1.225  10.709  -4.812  1.00  0.00     0.087 A 
HETATM   13  N1  UNL     1      -2.067  11.265  -5.685  1.00  0.00    -0.374 N 
HETATM   14  C8  UNL     1      -2.216  10.863  -6.942  1.00  0.00     0.108 A 
ATOM     15  H1  UNL     1      -2.633  12.052  -5.366  1.00  0.00     0.164 HD
ENDBRANCH   8   9
ENDBRANCH   4   7
ENDBRANCH   2   3
ENDBRANCH   1   2
BRANCH   1  16
HETATM   16  O2  UNL     1      -4.203   5.459 -14.189  1.00  0.00    -0.333 OA
ATOM     17  H2  UNL     1      -4.440   5.306 -15.096  1.00  0.00     0.220 HD
ENDBRANCH   1  16
BRANCH   1  18
HETATM   18  C10 UNL     1      -3.202   7.176 -15.262  1.00  0.00     0.034 A 
HETATM   19  C11 UNL     1      -3.826   8.398 -15.575  1.00  0.00     0.018 A 
HETATM   20  C12 UNL     1      -3.705   8.855 -16.898  1.00  0.00     0.022 A 
HETATM   21  C13 UNL     1      -3.042   8.178 -17.829  1.00  0.00     0.032 A 
HETATM   22  C14 UNL     1      -2.416   6.984 -17.577  1.00  0.00     0.051 A 
HETATM   23  S1  UNL     1      -2.958   8.836 -19.497  1.00  0.00    -0.086 SA
HETATM   24  C15 UNL     1      -2.519   6.516 -16.259  1.00  0.00     0.048 A 
HETATM   25  N4  UNL     1      -1.801   6.205 -18.575  1.00  0.00    -0.354 N 
HETATM   26  C16 UNL     1      -1.705   6.459 -19.957  1.00  0.00     0.050 A 
ATOM     27  H4  UNL     1      -1.368   5.339 -18.254  1.00  0.00     0.166 HD
HETATM   28  C17 UNL     1      -1.136   5.522 -20.806  1.00  0.00     0.031 A 
HETATM   29  C21 UNL     1      -2.233   7.582 -20.535  1.00  0.00     0.032 A 
HETATM   30  C18 UNL     1      -1.093   5.688 -22.197  1.00  0.00     0.002 A 
HETATM   31  C19 UNL     1      -1.633   6.826 -22.779  1.00  0.00     0.002 A 
HETATM   32  C20 UNL     1      -2.187   7.738 -21.893  1.00  0.00     0.021 A 
ENDBRANCH   1  18
TORSDOF 6
ENDMDL
