MODEL 1
REMARK VINA RESULT: -6.157460027      0.000      0.000
REMARK  4 active torsions:
REMARK  status: ('A' for Active; 'I' for Inactive)
REMARK    1  A    between atoms: N1_1  and  C1_4 
REMARK    2  A    between atoms: C3_8  and  C4_9 
REMARK       I    between atoms: C4_9  and  N3_11 
REMARK    3  A    between atoms: N3_11  and  N4_13 
REMARK    4  A    between atoms: N4_13  and  N5_15 
ROOT
HETATM    1  C1  UNL     1      55.764  70.099  63.330  1.00  0.00     0.675 A 
HETATM    2  N2  UNL     1      55.225  68.940  62.869  1.00  0.00    -0.201 N 
ATOM      3  H2  UNL     1      54.266  68.667  63.081  1.00  0.00     0.183 HD
HETATM    4  C2  UNL     1      56.037  68.177  62.118  1.00  0.00     0.124 A 
HETATM    5  C3  UNL     1      57.341  68.512  61.811  1.00  0.00     0.065 A 
HETATM    6  C5  UNL     1      57.830  69.697  62.306  1.00  0.00     0.124 A 
HETATM    7  N6  UNL     1      57.020  70.467  63.060  1.00  0.00    -0.201 N 
ATOM      8  H6  UNL     1      57.374  71.349  63.432  1.00  0.00     0.183 HD
ENDROOT
BRANCH   5   9
HETATM    9  C4  UNL     1      58.186  67.646  60.989  1.00  0.00     0.273 C 
HETATM   10  O1  UNL     1      59.430  67.609  61.255  1.00  0.00    -0.266 OA
HETATM   11  N3  UNL     1      57.646  66.878  59.934  1.00  0.00    -0.252 N 
ATOM     12  H3  UNL     1      56.642  66.944  59.766  1.00  0.00     0.191 HD
BRANCH  11  13
HETATM   13  N4  UNL     1      58.379  66.044  59.113  1.00  0.00    -0.246 N 
ATOM     14  H4  UNL     1      58.276  65.029  59.129  1.00  0.00     0.207 HD
BRANCH  13  15
HETATM   15  N5  UNL     1      59.268  66.695  58.262  1.00  0.00    -0.331 N 
ATOM     16  H52 UNL     1      59.545  67.664  58.417  1.00  0.00     0.178 HD
ATOM     17  H51 UNL     1      59.612  66.128  57.487  1.00  0.00     0.178 HD
ENDBRANCH  13  15
ENDBRANCH  11  13
ENDBRANCH   5   9
BRANCH   1  18
HETATM   18  N1  UNL     1      54.986  70.846  64.065  1.00  0.00    -0.234 N 
ATOM     19  H12 UNL     1      55.365  71.424  64.815  1.00  0.00     0.174 HD
ATOM     20  H11 UNL     1      53.990  70.812  63.847  1.00  0.00     0.174 HD
ENDBRANCH   1  18
TORSDOF 4
ENDMDL
MODEL 2
REMARK VINA RESULT: -6.131894002      0.080      1.365
REMARK  4 active torsions:
REMARK  status: ('A' for Active; 'I' for Inactive)
REMARK    1  A    between atoms: N1_1  and  C1_4 
REMARK    2  A    between atoms: C3_8  and  C4_9 
REMARK       I    between atoms: C4_9  and  N3_11 
REMARK    3  A    between atoms: N3_11  and  N4_13 
REMARK    4  A    between atoms: N4_13  and  N5_15 
ROOT
HETATM    1  C1  UNL     1      55.754  70.104  63.280  1.00  0.00     0.675 A 
HETATM    2  N2  UNL     1      57.021  70.524  63.027  1.00  0.00    -0.201 N 
ATOM      3  H2  UNL     1      57.377  71.414  63.375  1.00  0.00     0.183 HD
HETATM    4  C2  UNL     1      57.776  69.693  62.287  1.00  0.00     0.124 A 
HETATM    5  C3  UNL     1      57.330  68.481  61.797  1.00  0.00     0.065 A 
HETATM    6  C5  UNL     1      56.039  68.110  62.087  1.00  0.00     0.124 A 
HETATM    7  N6  UNL     1      55.277  68.940  62.828  1.00  0.00    -0.201 N 
ATOM      8  H6  UNL     1      54.317  68.673  63.048  1.00  0.00     0.183 HD
ENDROOT
BRANCH   5   9
HETATM    9  C4  UNL     1      58.189  67.611  60.995  1.00  0.00     0.273 C 
HETATM   10  O1  UNL     1      59.416  67.525  61.324  1.00  0.00    -0.266 OA
HETATM   11  N3  UNL     1      57.681  66.889  59.892  1.00  0.00    -0.252 N 
ATOM     12  H3  UNL     1      56.689  66.993  59.675  1.00  0.00     0.191 HD
BRANCH  11  13
HETATM   13  N4  UNL     1      58.429  66.053  59.087  1.00  0.00    -0.246 N 
ATOM     14  H4  UNL     1      58.272  65.046  59.045  1.00  0.00     0.207 HD
BRANCH  13  15
HETATM   15  N5  UNL     1      59.413  66.691  58.337  1.00  0.00    -0.331 N 
ATOM     16  H52 UNL     1      60.396  66.668  58.612  1.00  0.00     0.178 HD
ATOM     17  H51 UNL     1      59.072  67.174  57.506  1.00  0.00     0.178 HD
ENDBRANCH  13  15
ENDBRANCH  11  13
ENDBRANCH   5   9
BRANCH   1  18
HETATM   18  N1  UNL     1      55.012  70.905  63.993  1.00  0.00    -0.234 N 
ATOM     19  H12 UNL     1      54.465  71.647  63.555  1.00  0.00     0.174 HD
ATOM     20  H11 UNL     1      55.015  70.747  65.001  1.00  0.00     0.174 HD
ENDBRANCH   1  18
TORSDOF 4
ENDMDL
MODEL 3
REMARK VINA RESULT: -6.109843326      2.489      5.016
REMARK  4 active torsions:
REMARK  status: ('A' for Active; 'I' for Inactive)
REMARK    1  A    between atoms: N1_1  and  C1_4 
REMARK    2  A    between atoms: C3_8  and  C4_9 
REMARK       I    between atoms: C4_9  and  N3_11 
REMARK    3  A    between atoms: N3_11  and  N4_13 
REMARK    4  A    between atoms: N4_13  and  N5_15 
ROOT
HETATM    1  C1  UNL     1      58.523  68.163  61.404  1.00  0.00     0.675 A 
HETATM    2  N2  UNL     1      57.514  67.259  61.307  1.00  0.00    -0.201 N 
ATOM      3  H2  UNL     1      57.652  66.335  60.899  1.00  0.00     0.183 HD
HETATM    4  C2  UNL     1      56.322  67.659  61.781  1.00  0.00     0.124 A 
HETATM    5  C3  UNL     1      56.095  68.902  62.340  1.00  0.00     0.065 A 
HETATM    6  C5  UNL     1      57.155  69.774  62.411  1.00  0.00     0.124 A 
HETATM    7  N6  UNL     1      58.353  69.378  61.937  1.00  0.00    -0.201 N 
ATOM      8  H6  UNL     1      59.146  70.018  61.986  1.00  0.00     0.183 HD
ENDROOT
BRANCH   5   9
HETATM    9  C4  UNL     1      54.778  69.292  62.843  1.00  0.00     0.273 C 
HETATM   10  O1  UNL     1      54.474  70.527  62.807  1.00  0.00    -0.266 OA
HETATM   11  N3  UNL     1      53.873  68.335  63.354  1.00  0.00    -0.252 N 
ATOM     12  H3  UNL     1      54.168  67.359  63.357  1.00  0.00     0.191 HD
BRANCH  11  13
HETATM   13  N4  UNL     1      52.617  68.627  63.849  1.00  0.00    -0.246 N 
ATOM     14  H4  UNL     1      52.376  68.515  64.834  1.00  0.00     0.207 HD
BRANCH  13  15
HETATM   15  N5  UNL     1      51.707  69.087  62.901  1.00  0.00    -0.331 N 
ATOM     16  H52 UNL     1      51.690  68.716  61.951  1.00  0.00     0.178 HD
ATOM     17  H51 UNL     1      51.072  69.813  63.234  1.00  0.00     0.178 HD
ENDBRANCH  13  15
ENDBRANCH  11  13
ENDBRANCH   5   9
BRANCH   1  18
HETATM   18  N1  UNL     1      59.683  67.787  60.942  1.00  0.00    -0.234 N 
ATOM     19  H12 UNL     1      60.541  67.957  61.468  1.00  0.00     0.174 HD
ATOM     20  H11 UNL     1      59.678  67.322  60.034  1.00  0.00     0.174 HD
ENDBRANCH   1  18
TORSDOF 4
ENDMDL
MODEL 4
REMARK VINA RESULT: -6.092754481      2.495      5.172
REMARK  4 active torsions:
REMARK  status: ('A' for Active; 'I' for Inactive)
REMARK    1  A    between atoms: N1_1  and  C1_4 
REMARK    2  A    between atoms: C3_8  and  C4_9 
REMARK       I    between atoms: C4_9  and  N3_11 
REMARK    3  A    between atoms: N3_11  and  N4_13 
REMARK    4  A    between atoms: N4_13  and  N5_15 
ROOT
HETATM    1  C1  UNL     1      58.523  68.145  61.396  1.00  0.00     0.675 A 
HETATM    2  N2  UNL     1      58.396  69.392  61.920  1.00  0.00    -0.201 N 
ATOM      3  H2  UNL     1      59.181  70.041  61.969  1.00  0.00     0.183 HD
HETATM    4  C2  UNL     1      57.172  69.716  62.371  1.00  0.00     0.124 A 
HETATM    5  C3  UNL     1      56.085  68.865  62.323  1.00  0.00     0.065 A 
HETATM    6  C5  UNL     1      56.275  67.616  61.782  1.00  0.00     0.124 A 
HETATM    7  N6  UNL     1      57.500  67.286  61.328  1.00  0.00    -0.201 N 
ATOM      8  H6  UNL     1      57.651  66.361  60.925  1.00  0.00     0.183 HD
ENDROOT
BRANCH   5   9
HETATM    9  C4  UNL     1      54.772  69.264  62.827  1.00  0.00     0.273 C 
HETATM   10  O1  UNL     1      54.472  70.500  62.785  1.00  0.00    -0.266 OA
HETATM   11  N3  UNL     1      53.864  68.313  63.346  1.00  0.00    -0.252 N 
ATOM     12  H3  UNL     1      54.155  67.336  63.354  1.00  0.00     0.191 HD
BRANCH  11  13
HETATM   13  N4  UNL     1      52.611  68.612  63.843  1.00  0.00    -0.246 N 
ATOM     14  H4  UNL     1      52.372  68.507  64.829  1.00  0.00     0.207 HD
BRANCH  13  15
HETATM   15  N5  UNL     1      51.699  69.069  62.895  1.00  0.00    -0.331 N 
ATOM     16  H52 UNL     1      51.108  68.427  62.367  1.00  0.00     0.178 HD
ATOM     17  H51 UNL     1      51.675  70.082  62.777  1.00  0.00     0.178 HD
ENDBRANCH  13  15
ENDBRANCH  11  13
ENDBRANCH   5   9
BRANCH   1  18
HETATM   18  N1  UNL     1      59.708  67.818  60.961  1.00  0.00    -0.234 N 
ATOM     19  H12 UNL     1      60.008  68.062  60.016  1.00  0.00     0.174 HD
ATOM     20  H11 UNL     1      60.304  67.310  61.614  1.00  0.00     0.174 HD
ENDBRANCH   1  18
TORSDOF 4
ENDMDL
MODEL 5
REMARK VINA RESULT: -6.030792893      1.784      2.340
REMARK  4 active torsions:
REMARK  status: ('A' for Active; 'I' for Inactive)
REMARK    1  A    between atoms: N1_1  and  C1_4 
REMARK    2  A    between atoms: C3_8  and  C4_9 
REMARK       I    between atoms: C4_9  and  N3_11 
REMARK    3  A    between atoms: N3_11  and  N4_13 
REMARK    4  A    between atoms: N4_13  and  N5_15 
ROOT
HETATM    1  C1  UNL     1      54.202  68.622  63.072  1.00  0.00     0.675 A 
HETATM    2  N2  UNL     1      54.942  69.732  63.329  1.00  0.00    -0.201 N 
ATOM      3  H2  UNL     1      54.555  70.540  63.817  1.00  0.00     0.183 HD
HETATM    4  C2  UNL     1      56.215  69.699  62.899  1.00  0.00     0.124 A 
HETATM    5  C3  UNL     1      56.774  68.625  62.234  1.00  0.00     0.065 A 
HETATM    6  C5  UNL     1      55.976  67.531  62.004  1.00  0.00     0.124 A 
HETATM    7  N6  UNL     1      54.699  67.558  62.433  1.00  0.00    -0.201 N 
ATOM      8  H6  UNL     1      54.099  66.750  62.266  1.00  0.00     0.183 HD
ENDROOT
BRANCH   5   9
HETATM    9  C4  UNL     1      58.166  68.637  61.785  1.00  0.00     0.273 C 
HETATM   10  O1  UNL     1      58.833  69.707  61.954  1.00  0.00    -0.266 OA
HETATM   11  N3  UNL     1      58.753  67.502  61.181  1.00  0.00    -0.252 N 
ATOM     12  H3  UNL     1      58.173  66.671  61.072  1.00  0.00     0.191 HD
BRANCH  11  13
HETATM   13  N4  UNL     1      60.056  67.439  60.728  1.00  0.00    -0.246 N 
ATOM     14  H4  UNL     1      60.680  66.666  60.958  1.00  0.00     0.207 HD
BRANCH  13  15
HETATM   15  N5  UNL     1      60.451  68.511  59.932  1.00  0.00    -0.331 N 
ATOM     16  H52 UNL     1      60.795  69.381  60.338  1.00  0.00     0.178 HD
ATOM     17  H51 UNL     1      60.367  68.352  58.928  1.00  0.00     0.178 HD
ENDBRANCH  13  15
ENDBRANCH  11  13
ENDBRANCH   5   9
BRANCH   1  18
HETATM   18  N1  UNL     1      52.964  68.645  63.481  1.00  0.00    -0.234 N 
ATOM     19  H12 UNL     1      52.568  67.867  64.009  1.00  0.00     0.174 HD
ATOM     20  H11 UNL     1      52.424  69.477  63.239  1.00  0.00     0.174 HD
ENDBRANCH   1  18
TORSDOF 4
ENDMDL
