MODEL 1
REMARK VINA RESULT: -6.578539962      0.000      0.000
REMARK  3 active torsions:
REMARK  status: ('A' for Active; 'I' for Inactive)
REMARK    1  A    between atoms: N1_1  and  C1_4 
REMARK    2  A    between atoms: C2_9  and  C3_10 
REMARK       I    between atoms: C3_10  and  N4_12 
REMARK    3  A    between atoms: N4_12  and  N5_14 
ROOT
HETATM    1  C1  UNL     1      56.136  69.645  62.868  1.00  0.00     0.693 A 
HETATM    2  N2  UNL     1      57.379  70.108  62.641  1.00  0.00    -0.132 N 
ATOM      3  H2  UNL     1      57.680  70.967  63.102  1.00  0.00     0.205 HD
HETATM    4  N3  UNL     1      58.231  69.474  61.829  1.00  0.00    -0.277 N 
ATOM      5  H3  UNL     1      59.163  69.861  61.687  1.00  0.00     0.188 HD
HETATM    6  C2  UNL     1      57.889  68.337  61.193  1.00  0.00     0.187 A 
HETATM    7  C4  UNL     1      56.617  67.858  61.423  1.00  0.00     0.293 A 
HETATM    8  O2  UNL     1      56.282  66.809  60.845  1.00  0.00    -0.265 OA
HETATM    9  N6  UNL     1      55.762  68.512  62.250  1.00  0.00    -0.153 N 
ATOM     10  H6  UNL     1      54.825  68.139  62.404  1.00  0.00     0.187 HD
ENDROOT
BRANCH   6  11
HETATM   11  C3  UNL     1      58.827  67.644  60.303  1.00  0.00     0.293 C 
HETATM   12  O1  UNL     1      59.878  67.166  60.753  1.00  0.00    -0.264 OA
HETATM   13  N4  UNL     1      58.567  67.496  58.919  1.00  0.00    -0.271 N 
ATOM     14  H4  UNL     1      57.706  67.883  58.534  1.00  0.00     0.189 HD
BRANCH  13  15
HETATM   15  N5  UNL     1      59.437  66.850  58.081  1.00  0.00    -0.342 N 
ATOM     16  H52 UNL     1      60.431  66.887  58.304  1.00  0.00     0.176 HD
ATOM     17  H51 UNL     1      59.117  66.343  57.256  1.00  0.00     0.176 HD
ENDBRANCH  13  15
ENDBRANCH   6  11
BRANCH   1  18
HETATM   18  N1  UNL     1      55.326  70.277  63.661  1.00  0.00    -0.233 N 
ATOM     19  H12 UNL     1      55.425  70.217  64.675  1.00  0.00     0.174 HD
ATOM     20  H11 UNL     1      54.569  70.850  63.286  1.00  0.00     0.174 HD
ENDBRANCH   1  18
TORSDOF 3
ENDMDL
MODEL 2
REMARK VINA RESULT: -6.339933158      2.000      4.534
REMARK  3 active torsions:
REMARK  status: ('A' for Active; 'I' for Inactive)
REMARK    1  A    between atoms: N1_1  and  C1_4 
REMARK    2  A    between atoms: C2_9  and  C3_10 
REMARK       I    between atoms: C3_10  and  N4_12 
REMARK    3  A    between atoms: N4_12  and  N5_14 
ROOT
HETATM    1  C1  UNL     1      58.784  68.172  61.257  1.00  0.00     0.693 A 
HETATM    2  N2  UNL     1      58.520  69.409  61.719  1.00  0.00    -0.132 N 
ATOM      3  H2  UNL     1      59.267  70.103  61.735  1.00  0.00     0.205 HD
HETATM    4  N3  UNL     1      57.304  69.751  62.159  1.00  0.00    -0.277 N 
ATOM      5  H3  UNL     1      57.149  70.699  62.501  1.00  0.00     0.188 HD
HETATM    6  C2  UNL     1      56.280  68.877  62.163  1.00  0.00     0.187 A 
HETATM    7  C4  UNL     1      56.547  67.610  61.690  1.00  0.00     0.293 A 
HETATM    8  O2  UNL     1      55.613  66.787  61.685  1.00  0.00    -0.265 OA
HETATM    9  N6  UNL     1      57.785  67.274  61.246  1.00  0.00    -0.153 N 
ATOM     10  H6  UNL     1      57.958  66.330  60.900  1.00  0.00     0.187 HD
ENDROOT
BRANCH   6  11
HETATM   11  C3  UNL     1      54.949  69.257  62.646  1.00  0.00     0.293 C 
HETATM   12  O1  UNL     1      54.528  70.411  62.476  1.00  0.00    -0.264 OA
HETATM   13  N4  UNL     1      54.107  68.334  63.313  1.00  0.00    -0.271 N 
ATOM     14  H4  UNL     1      54.439  67.381  63.460  1.00  0.00     0.189 HD
BRANCH  13  15
HETATM   15  N5  UNL     1      52.862  68.680  63.766  1.00  0.00    -0.342 N 
ATOM     16  H52 UNL     1      52.795  69.135  64.677  1.00  0.00     0.176 HD
ATOM     17  H51 UNL     1      52.018  68.497  63.224  1.00  0.00     0.176 HD
ENDBRANCH  13  15
ENDBRANCH   6  11
BRANCH   1  18
HETATM   18  N1  UNL     1      59.971  67.862  60.833  1.00  0.00    -0.233 N 
ATOM     19  H12 UNL     1      60.768  68.478  60.994  1.00  0.00     0.174 HD
ATOM     20  H11 UNL     1      60.134  66.989  60.329  1.00  0.00     0.174 HD
ENDBRANCH   1  18
TORSDOF 3
ENDMDL
MODEL 3
REMARK VINA RESULT: -6.319978306      1.129      1.129
REMARK  3 active torsions:
REMARK  status: ('A' for Active; 'I' for Inactive)
REMARK    1  A    between atoms: N1_1  and  C1_4 
REMARK    2  A    between atoms: C2_9  and  C3_10 
REMARK       I    between atoms: C3_10  and  N4_12 
REMARK    3  A    between atoms: N4_12  and  N5_14 
ROOT
HETATM    1  C1  UNL     1      57.001  70.406  62.856  1.00  0.00     0.693 A 
HETATM    2  N2  UNL     1      58.184  70.492  62.221  1.00  0.00    -0.132 N 
ATOM      3  H2  UNL     1      58.747  71.335  62.334  1.00  0.00     0.205 HD
HETATM    4  N3  UNL     1      58.643  69.503  61.447  1.00  0.00    -0.277 N 
ATOM      5  H3  UNL     1      59.545  69.611  60.985  1.00  0.00     0.188 HD
HETATM    6  C2  UNL     1      57.943  68.367  61.261  1.00  0.00     0.187 A 
HETATM    7  C4  UNL     1      56.730  68.275  61.910  1.00  0.00     0.293 A 
HETATM    8  O2  UNL     1      56.068  67.233  61.750  1.00  0.00    -0.265 OA
HETATM    9  N6  UNL     1      56.276  69.286  62.693  1.00  0.00    -0.153 N 
ATOM     10  H6  UNL     1      55.375  69.195  63.163  1.00  0.00     0.187 HD
ENDROOT
BRANCH   6  11
HETATM   11  C3  UNL     1      58.450  67.285  60.411  1.00  0.00     0.293 C 
HETATM   12  O1  UNL     1      59.665  67.042  60.366  1.00  0.00    -0.264 OA
HETATM   13  N4  UNL     1      57.583  66.488  59.626  1.00  0.00    -0.271 N 
ATOM     14  H4  UNL     1      56.580  66.674  59.652  1.00  0.00     0.189 HD
BRANCH  13  15
HETATM   15  N5  UNL     1      58.047  65.474  58.830  1.00  0.00    -0.342 N 
ATOM     16  H52 UNL     1      57.567  65.303  57.947  1.00  0.00     0.176 HD
ATOM     17  H51 UNL     1      58.846  64.899  59.096  1.00  0.00     0.176 HD
ENDBRANCH  13  15
ENDBRANCH   6  11
BRANCH   1  18
HETATM   18  N1  UNL     1      56.575  71.379  63.603  1.00  0.00    -0.233 N 
ATOM     19  H12 UNL     1      56.949  72.323  63.505  1.00  0.00     0.174 HD
ATOM     20  H11 UNL     1      55.855  71.219  64.308  1.00  0.00     0.174 HD
ENDBRANCH   1  18
TORSDOF 3
ENDMDL
MODEL 4
REMARK VINA RESULT: -6.281634672      2.599      4.352
REMARK  3 active torsions:
REMARK  status: ('A' for Active; 'I' for Inactive)
REMARK    1  A    between atoms: N1_1  and  C1_4 
REMARK    2  A    between atoms: C2_9  and  C3_10 
REMARK       I    between atoms: C3_10  and  N4_12 
REMARK    3  A    between atoms: N4_12  and  N5_14 
ROOT
HETATM    1  C1  UNL     1      56.494  67.637  61.536  1.00  0.00     0.693 A 
HETATM    2  N2  UNL     1      55.681  68.519  62.148  1.00  0.00    -0.132 N 
ATOM      3  H2  UNL     1      54.692  68.294  62.250  1.00  0.00     0.205 HD
HETATM    4  N3  UNL     1      56.136  69.682  62.626  1.00  0.00    -0.277 N 
ATOM      5  H3  UNL     1      55.485  70.320  63.083  1.00  0.00     0.188 HD
HETATM    6  C2  UNL     1      57.432  70.033  62.520  1.00  0.00     0.187 A 
HETATM    7  C4  UNL     1      58.267  69.133  61.894  1.00  0.00     0.293 A 
HETATM    8  O2  UNL     1      59.469  69.439  61.786  1.00  0.00    -0.265 OA
HETATM    9  N6  UNL     1      57.793  67.955  61.413  1.00  0.00    -0.153 N 
ATOM     10  H6  UNL     1      58.431  67.305  60.953  1.00  0.00     0.187 HD
ENDROOT
BRANCH   6  11
HETATM   11  C3  UNL     1      57.927  71.309  63.046  1.00  0.00     0.293 C 
HETATM   12  O1  UNL     1      57.886  71.542  64.263  1.00  0.00    -0.264 OA
HETATM   13  N4  UNL     1      58.463  72.307  62.197  1.00  0.00    -0.271 N 
ATOM     14  H4  UNL     1      58.504  72.131  61.193  1.00  0.00     0.189 HD
BRANCH  13  15
HETATM   15  N5  UNL     1      58.928  73.501  62.679  1.00  0.00    -0.342 N 
ATOM     16  H52 UNL     1      59.814  73.851  62.316  1.00  0.00     0.176 HD
ATOM     17  H51 UNL     1      58.417  74.038  63.380  1.00  0.00     0.176 HD
ENDBRANCH  13  15
ENDBRANCH   6  11
BRANCH   1  18
HETATM   18  N1  UNL     1      56.031  66.514  61.080  1.00  0.00    -0.233 N 
ATOM     19  H12 UNL     1      56.653  65.805  60.690  1.00  0.00     0.174 HD
ATOM     20  H11 UNL     1      55.030  66.314  61.101  1.00  0.00     0.174 HD
ENDBRANCH   1  18
TORSDOF 3
ENDMDL
MODEL 5
REMARK VINA RESULT: -6.177212160      1.904      2.306
REMARK  3 active torsions:
REMARK  status: ('A' for Active; 'I' for Inactive)
REMARK    1  A    between atoms: N1_1  and  C1_4 
REMARK    2  A    between atoms: C2_9  and  C3_10 
REMARK       I    between atoms: C3_10  and  N4_12 
REMARK    3  A    between atoms: N4_12  and  N5_14 
ROOT
HETATM    1  C1  UNL     1      54.965  68.494  62.764  1.00  0.00     0.693 A 
HETATM    2  N2  UNL     1      55.376  67.400  62.097  1.00  0.00    -0.132 N 
ATOM      3  H2  UNL     1      54.718  66.635  61.946  1.00  0.00     0.205 HD
HETATM    4  N3  UNL     1      56.622  67.289  61.625  1.00  0.00    -0.277 N 
ATOM      5  H3  UNL     1      56.890  66.442  61.124  1.00  0.00     0.188 HD
HETATM    6  C2  UNL     1      57.533  68.266  61.793  1.00  0.00     0.187 A 
HETATM    7  C4  UNL     1      57.116  69.389  62.476  1.00  0.00     0.293 A 
HETATM    8  O2  UNL     1      57.943  70.303  62.643  1.00  0.00    -0.265 OA
HETATM    9  N6  UNL     1      55.848  69.489  62.950  1.00  0.00    -0.153 N 
ATOM     10  H6  UNL     1      55.563  70.330  63.453  1.00  0.00     0.187 HD
ENDROOT
BRANCH   6  11
HETATM   11  C3  UNL     1      58.898  68.140  61.274  1.00  0.00     0.293 C 
HETATM   12  O1  UNL     1      59.748  67.489  61.899  1.00  0.00    -0.264 OA
HETATM   13  N4  UNL     1      59.290  68.746  60.056  1.00  0.00    -0.271 N 
ATOM     14  H4  UNL     1      58.603  69.285  59.529  1.00  0.00     0.189 HD
BRANCH  13  15
HETATM   15  N5  UNL     1      60.562  68.633  59.563  1.00  0.00    -0.342 N 
ATOM     16  H52 UNL     1      60.673  68.369  58.584  1.00  0.00     0.176 HD
ATOM     17  H51 UNL     1      61.385  68.804  60.141  1.00  0.00     0.176 HD
ENDBRANCH  13  15
ENDBRANCH   6  11
BRANCH   1  18
HETATM   18  N1  UNL     1      53.750  68.581  63.213  1.00  0.00    -0.233 N 
ATOM     19  H12 UNL     1      53.501  68.226  64.136  1.00  0.00     0.174 HD
ATOM     20  H11 UNL     1      53.015  69.009  62.649  1.00  0.00     0.174 HD
ENDBRANCH   1  18
TORSDOF 3
ENDMDL
