MODEL 1
REMARK VINA RESULT: -6.560540625      0.000      0.000
REMARK  5 active torsions:
REMARK  status: ('A' for Active; 'I' for Inactive)
REMARK       I    between atoms: C2_2  and  N1_4 
REMARK    1  A    between atoms: N1_4  and  C3_6 
REMARK    2  A    between atoms: C3_6  and  C5_8 
REMARK    3  A    between atoms: C5_8  and  C6_9 
REMARK    4  A    between atoms: C6_9  and  C7_10 
REMARK    5  A    between atoms: C13_19  and  C14_20 
ROOT
HETATM    1  C7  UNL     1       0.083  16.407 -56.379  1.00  0.00     0.089 A 
HETATM    2  C8  UNL     1      -0.418  17.351 -57.243  1.00  0.00     0.040 A 
HETATM    3  C9  UNL     1      -0.650  16.960 -58.544  1.00  0.00     0.021 A 
HETATM    4  C10 UNL     1      -0.380  15.651 -58.944  1.00  0.00     0.043 A 
HETATM    5  C11 UNL     1      -0.669  15.432 -60.277  1.00  0.00     0.211 C 
HETATM    6  O2  UNL     1      -1.439  16.262 -60.810  1.00  0.00    -0.285 OA
HETATM    7  C12 UNL     1      -0.200  14.400 -61.065  1.00  0.00     0.095 A 
HETATM    8  N2  UNL     1      -0.280  14.412 -62.408  1.00  0.00    -0.350 N 
ATOM      9  H2  UNL     1      -0.690  15.179 -62.940  1.00  0.00     0.166 HD
HETATM   10  C13 UNL     1       0.235  13.313 -62.973  1.00  0.00     0.062 A 
HETATM   11  C19 UNL     1       0.679  12.541 -61.902  1.00  0.00     0.046 A 
HETATM   12  C20 UNL     1       0.411  13.208 -60.734  1.00  0.00     0.003 A 
HETATM   13  C21 UNL     1       0.704  12.761 -59.463  1.00  0.00    -0.047 C 
HETATM   14  C22 UNL     1       1.365  11.461 -59.365  1.00  0.00     0.049 C 
HETATM   15  C23 UNL     1       0.445  13.398 -58.277  1.00  0.00     0.038 C 
HETATM   16  C24 UNL     1       0.125  14.737 -58.031  1.00  0.00     0.049 A 
HETATM   17  N5  UNL     1       0.347  15.128 -56.770  1.00  0.00    -0.344 N 
HETATM   18  C25 UNL     1       0.878  14.151 -55.837  1.00  0.00     0.157 C 
ENDROOT
BRANCH   1  19
HETATM   19  C6  UNL     1       0.338  16.783 -55.012  1.00  0.00    -0.046 C 
BRANCH  19  20
HETATM   20  C5  UNL     1       0.561  17.082 -53.851  1.00  0.00    -0.074 C 
BRANCH  20  21
HETATM   21  C3  UNL     1       0.834  17.419 -52.448  1.00  0.00     0.160 C 
HETATM   22  C4  UNL     1       2.139  18.170 -52.311  1.00  0.00     0.046 C 
BRANCH  21  23
HETATM   23  N1  UNL     1      -0.288  18.229 -51.990  1.00  0.00    -0.347 N 
HETATM   24  C2  UNL     1      -0.664  18.274 -50.627  1.00  0.00     0.214 C 
HETATM   25  C1  UNL     1      -1.803  19.106 -50.208  1.00  0.00     0.117 C 
HETATM   26  O1  UNL     1      -0.010  17.597 -49.800  1.00  0.00    -0.274 OA
ATOM     27  H1  UNL     1      -0.815  18.777 -52.669  1.00  0.00     0.163 HD
ENDBRANCH  21  23
ENDBRANCH  20  21
ENDBRANCH  19  20
ENDBRANCH   1  19
BRANCH  10  28
HETATM   28  C14 UNL     1       0.333  12.959 -64.383  1.00  0.00     0.082 A 
HETATM   29  N3  UNL     1       1.532  12.873 -65.033  1.00  0.00    -0.349 N 
HETATM   30  C15 UNL     1       1.309  12.530 -66.310  1.00  0.00     0.183 A 
ATOM     31  H3  UNL     1       2.446  13.042 -64.614  1.00  0.00     0.167 HD
HETATM   32  N4  UNL     1      -0.008  12.390 -66.514  1.00  0.00    -0.349 N 
HETATM   33  C16 UNL     1      -0.649  12.029 -67.756  1.00  0.00     0.156 C 
HETATM   34  C17 UNL     1      -0.599  12.655 -65.324  1.00  0.00     0.037 A 
HETATM   35  C18 UNL     1      -2.059  12.614 -65.103  1.00  0.00     0.071 C 
ENDBRANCH  10  28
TORSDOF 5
ENDMDL
MODEL 2
REMARK VINA RESULT: -6.483055311      2.259     10.743
REMARK  5 active torsions:
REMARK  status: ('A' for Active; 'I' for Inactive)
REMARK       I    between atoms: C2_2  and  N1_4 
REMARK    1  A    between atoms: N1_4  and  C3_6 
REMARK    2  A    between atoms: C3_6  and  C5_8 
REMARK    3  A    between atoms: C5_8  and  C6_9 
REMARK    4  A    between atoms: C6_9  and  C7_10 
REMARK    5  A    between atoms: C13_19  and  C14_20 
ROOT
HETATM    1  C7  UNL     1       0.723  12.947 -61.736  1.00  0.00     0.089 A 
HETATM    2  C8  UNL     1       0.918  12.015 -60.745  1.00  0.00     0.040 A 
HETATM    3  C9  UNL     1       0.701  12.417 -59.445  1.00  0.00     0.021 A 
HETATM    4  C10 UNL     1       0.298  13.723 -59.171  1.00  0.00     0.043 A 
HETATM    5  C11 UNL     1       0.126  13.955 -57.820  1.00  0.00     0.211 C 
HETATM    6  O2  UNL     1      -0.009  12.936 -57.107  1.00  0.00    -0.285 OA
HETATM    7  C12 UNL     1       0.090  15.184 -57.191  1.00  0.00     0.095 A 
HETATM    8  N2  UNL     1       0.218  15.327 -55.859  1.00  0.00    -0.350 N 
ATOM      9  H2  UNL     1       0.350  14.543 -55.220  1.00  0.00     0.166 HD
HETATM   10  C13 UNL     1       0.153  16.602 -55.460  1.00  0.00     0.062 A 
HETATM   11  C19 UNL     1      -0.029  17.329 -56.634  1.00  0.00     0.046 A 
HETATM   12  C20 UNL     1      -0.068  16.459 -57.693  1.00  0.00     0.003 A 
HETATM   13  C21 UNL     1      -0.235  16.804 -59.017  1.00  0.00    -0.047 C 
HETATM   14  C22 UNL     1      -0.375  18.230 -59.307  1.00  0.00     0.049 C 
HETATM   15  C23 UNL     1      -0.285  15.961 -60.097  1.00  0.00     0.038 C 
HETATM   16  C24 UNL     1       0.115  14.625 -60.210  1.00  0.00     0.049 A 
HETATM   17  N5  UNL     1       0.329  14.224 -61.468  1.00  0.00    -0.344 N 
HETATM   18  C25 UNL     1       0.132  15.189 -62.534  1.00  0.00     0.157 C 
ENDROOT
BRANCH   1  19
HETATM   19  C6  UNL     1       0.943  12.560 -63.106  1.00  0.00    -0.046 C 
BRANCH  19  20
HETATM   20  C5  UNL     1       1.149  12.232 -64.263  1.00  0.00    -0.074 C 
BRANCH  20  21
HETATM   21  C3  UNL     1       1.420  11.850 -65.654  1.00  0.00     0.160 C 
HETATM   22  C4  UNL     1       0.548  12.628 -66.614  1.00  0.00     0.046 C 
BRANCH  21  23
HETATM   23  N1  UNL     1       2.832  12.121 -65.892  1.00  0.00    -0.347 N 
HETATM   24  C2  UNL     1       3.849  11.386 -65.238  1.00  0.00     0.214 C 
HETATM   25  C1  UNL     1       5.264  11.692 -65.508  1.00  0.00     0.117 C 
HETATM   26  O1  UNL     1       3.518  10.481 -64.438  1.00  0.00    -0.274 OA
ATOM     27  H1  UNL     1       3.094  12.859 -66.545  1.00  0.00     0.163 HD
ENDBRANCH  21  23
ENDBRANCH  20  21
ENDBRANCH  19  20
ENDBRANCH   1  19
BRANCH  10  28
HETATM   28  C14 UNL     1       0.248  17.157 -54.116  1.00  0.00     0.082 A 
HETATM   29  N3  UNL     1       1.396  17.096 -53.380  1.00  0.00    -0.349 N 
HETATM   30  C15 UNL     1       1.183  17.684 -52.193  1.00  0.00     0.183 A 
ATOM     31  H3  UNL     1       2.274  16.673 -53.683  1.00  0.00     0.167 HD
HETATM   32  N4  UNL     1      -0.080  18.128 -52.133  1.00  0.00    -0.349 N 
HETATM   33  C16 UNL     1      -0.695  18.815 -51.023  1.00  0.00     0.156 C 
HETATM   34  C17 UNL     1      -0.646  17.800 -53.320  1.00  0.00     0.037 A 
HETATM   35  C18 UNL     1      -2.046  18.107 -53.676  1.00  0.00     0.071 C 
ENDBRANCH  10  28
TORSDOF 5
ENDMDL
MODEL 3
REMARK VINA RESULT: -6.284147913      2.119     10.868
REMARK  5 active torsions:
REMARK  status: ('A' for Active; 'I' for Inactive)
REMARK       I    between atoms: C2_2  and  N1_4 
REMARK    1  A    between atoms: N1_4  and  C3_6 
REMARK    2  A    between atoms: C3_6  and  C5_8 
REMARK    3  A    between atoms: C5_8  and  C6_9 
REMARK    4  A    between atoms: C6_9  and  C7_10 
REMARK    5  A    between atoms: C13_19  and  C14_20 
ROOT
HETATM    1  C7  UNL     1       0.089  14.587 -62.084  1.00  0.00     0.089 A 
HETATM    2  C8  UNL     1      -0.226  15.925 -62.081  1.00  0.00     0.040 A 
HETATM    3  C9  UNL     1      -0.044  16.617 -60.904  1.00  0.00     0.021 A 
HETATM    4  C10 UNL     1       0.442  15.963 -59.772  1.00  0.00     0.043 A 
HETATM    5  C11 UNL     1       0.563  16.804 -58.683  1.00  0.00     0.211 C 
HETATM    6  O2  UNL     1       0.585  18.028 -58.940  1.00  0.00    -0.285 OA
HETATM    7  C12 UNL     1       0.661  16.429 -57.357  1.00  0.00     0.095 A 
HETATM    8  N2  UNL     1       0.478  17.290 -56.339  1.00  0.00    -0.350 N 
ATOM      9  H2  UNL     1       0.255  18.276 -56.470  1.00  0.00     0.166 HD
HETATM   10  C13 UNL     1       0.619  16.718 -55.138  1.00  0.00     0.062 A 
HETATM   11  C19 UNL     1       0.915  15.386 -55.415  1.00  0.00     0.046 A 
HETATM   12  C20 UNL     1       0.940  15.210 -56.774  1.00  0.00     0.003 A 
HETATM   13  C21 UNL     1       1.199  14.027 -57.432  1.00  0.00    -0.047 C 
HETATM   14  C22 UNL     1       1.462  12.858 -56.594  1.00  0.00     0.049 C 
HETATM   15  C23 UNL     1       1.239  13.819 -58.787  1.00  0.00     0.038 C 
HETATM   16  C24 UNL     1       0.745  14.610 -59.829  1.00  0.00     0.049 A 
HETATM   17  N5  UNL     1       0.564  13.948 -60.978  1.00  0.00    -0.344 N 
HETATM   18  C25 UNL     1       0.888  12.534 -61.008  1.00  0.00     0.157 C 
ENDROOT
BRANCH   1  19
HETATM   19  C6  UNL     1      -0.091  13.834 -63.299  1.00  0.00    -0.046 C 
BRANCH  19  20
HETATM   20  C5  UNL     1      -0.239  13.179 -64.318  1.00  0.00    -0.074 C 
BRANCH  20  21
HETATM   21  C3  UNL     1      -0.430  12.374 -65.530  1.00  0.00     0.160 C 
HETATM   22  C4  UNL     1      -1.768  11.670 -65.512  1.00  0.00     0.046 C 
BRANCH  21  23
HETATM   23  N1  UNL     1      -0.337  13.294 -66.657  1.00  0.00    -0.347 N 
HETATM   24  C2  UNL     1      -0.424  12.841 -67.994  1.00  0.00     0.214 C 
HETATM   25  C1  UNL     1      -0.325  13.804 -69.103  1.00  0.00     0.117 C 
HETATM   26  O1  UNL     1      -0.584  11.616 -68.205  1.00  0.00    -0.274 OA
ATOM     27  H1  UNL     1      -0.207  14.289 -66.477  1.00  0.00     0.163 HD
ENDBRANCH  21  23
ENDBRANCH  20  21
ENDBRANCH  19  20
ENDBRANCH   1  19
BRANCH  10  28
HETATM   28  C14 UNL     1       0.500  17.311 -53.812  1.00  0.00     0.082 A 
HETATM   29  N3  UNL     1       1.557  17.395 -52.952  1.00  0.00    -0.349 N 
HETATM   30  C15 UNL     1       1.148  17.984 -51.818  1.00  0.00     0.183 A 
ATOM     31  H3  UNL     1       2.503  17.065 -53.141  1.00  0.00     0.167 HD
HETATM   32  N4  UNL     1      -0.154  18.287 -51.914  1.00  0.00    -0.349 N 
HETATM   33  C16 UNL     1      -0.961  18.927 -50.903  1.00  0.00     0.156 C 
HETATM   34  C17 UNL     1      -0.542  17.870 -53.143  1.00  0.00     0.037 A 
HETATM   35  C18 UNL     1      -1.918  18.012 -53.663  1.00  0.00     0.071 C 
ENDBRANCH  10  28
TORSDOF 5
ENDMDL
MODEL 4
REMARK VINA RESULT: -5.517411524      2.175     10.507
REMARK  5 active torsions:
REMARK  status: ('A' for Active; 'I' for Inactive)
REMARK       I    between atoms: C2_2  and  N1_4 
REMARK    1  A    between atoms: N1_4  and  C3_6 
REMARK    2  A    between atoms: C3_6  and  C5_8 
REMARK    3  A    between atoms: C5_8  and  C6_9 
REMARK    4  A    between atoms: C6_9  and  C7_10 
REMARK    5  A    between atoms: C13_19  and  C14_20 
ROOT
HETATM    1  C7  UNL     1       0.482  14.837 -62.114  1.00  0.00     0.089 A 
HETATM    2  C8  UNL     1       0.222  16.186 -62.092  1.00  0.00     0.040 A 
HETATM    3  C9  UNL     1       0.354  16.838 -60.885  1.00  0.00     0.021 A 
HETATM    4  C10 UNL     1       0.738  16.135 -59.744  1.00  0.00     0.043 A 
HETATM    5  C11 UNL     1       0.821  16.940 -58.625  1.00  0.00     0.211 C 
HETATM    6  O2  UNL     1       0.909  18.168 -58.845  1.00  0.00    -0.285 OA
HETATM    7  C12 UNL     1       0.816  16.527 -57.308  1.00  0.00     0.095 A 
HETATM    8  N2  UNL     1       0.601  17.366 -56.279  1.00  0.00    -0.350 N 
ATOM      9  H2  UNL     1       0.427  18.365 -56.395  1.00  0.00     0.166 HD
HETATM   10  C13 UNL     1       0.640  16.758 -55.088  1.00  0.00     0.062 A 
HETATM   11  C19 UNL     1       0.899  15.422 -55.384  1.00  0.00     0.046 A 
HETATM   12  C20 UNL     1       1.007  15.281 -56.744  1.00  0.00     0.003 A 
HETATM   13  C21 UNL     1       1.261  14.107 -57.418  1.00  0.00    -0.047 C 
HETATM   14  C22 UNL     1       1.420  12.906 -56.599  1.00  0.00     0.049 C 
HETATM   15  C23 UNL     1       1.382  13.933 -58.773  1.00  0.00     0.038 C 
HETATM   16  C24 UNL     1       0.990  14.772 -59.822  1.00  0.00     0.049 A 
HETATM   17  N5  UNL     1       0.858  14.149 -60.999  1.00  0.00    -0.344 N 
HETATM   18  C25 UNL     1       1.125  12.724 -61.049  1.00  0.00     0.157 C 
ENDROOT
BRANCH   1  19
HETATM   19  C6  UNL     1       0.353  14.125 -63.359  1.00  0.00    -0.046 C 
BRANCH  19  20
HETATM   20  C5  UNL     1       0.254  13.506 -64.406  1.00  0.00    -0.074 C 
BRANCH  20  21
HETATM   21  C3  UNL     1       0.160  12.757 -65.665  1.00  0.00     0.160 C 
HETATM   22  C4  UNL     1      -0.581  13.549 -66.718  1.00  0.00     0.046 C 
BRANCH  21  23
HETATM   23  N1  UNL     1       1.528  12.478 -66.085  1.00  0.00    -0.347 N 
HETATM   24  C2  UNL     1       2.470  11.896 -65.206  1.00  0.00     0.214 C 
HETATM   25  C1  UNL     1       3.841  11.630 -65.671  1.00  0.00     0.117 C 
HETATM   26  O1  UNL     1       2.111  11.616 -64.039  1.00  0.00    -0.274 OA
ATOM     27  H1  UNL     1       1.812  12.709 -67.037  1.00  0.00     0.163 HD
ENDBRANCH  21  23
ENDBRANCH  20  21
ENDBRANCH  19  20
ENDBRANCH   1  19
BRANCH  10  28
HETATM   28  C14 UNL     1       0.457  17.319 -53.756  1.00  0.00     0.082 A 
HETATM   29  N3  UNL     1       1.471  17.375 -52.842  1.00  0.00    -0.349 N 
HETATM   30  C15 UNL     1       1.008  17.939 -51.716  1.00  0.00     0.183 A 
ATOM     31  H3  UNL     1       2.423  17.043 -52.992  1.00  0.00     0.167 HD
HETATM   32  N4  UNL     1      -0.285  18.254 -51.870  1.00  0.00    -0.349 N 
HETATM   33  C16 UNL     1      -1.138  18.876 -50.886  1.00  0.00     0.156 C 
HETATM   34  C17 UNL     1      -0.614  17.869 -53.127  1.00  0.00     0.037 A 
HETATM   35  C18 UNL     1      -1.960  18.034 -53.712  1.00  0.00     0.071 C 
ENDBRANCH  10  28
TORSDOF 5
ENDMDL
MODEL 5
REMARK VINA RESULT: -5.507244574      2.189     11.110
REMARK  5 active torsions:
REMARK  status: ('A' for Active; 'I' for Inactive)
REMARK       I    between atoms: C2_2  and  N1_4 
REMARK    1  A    between atoms: N1_4  and  C3_6 
REMARK    2  A    between atoms: C3_6  and  C5_8 
REMARK    3  A    between atoms: C5_8  and  C6_9 
REMARK    4  A    between atoms: C6_9  and  C7_10 
REMARK    5  A    between atoms: C13_19  and  C14_20 
ROOT
HETATM    1  C7  UNL     1       0.492  13.534 -62.401  1.00  0.00     0.089 A 
HETATM    2  C8  UNL     1       0.563  12.507 -61.489  1.00  0.00     0.040 A 
HETATM    3  C9  UNL     1       0.355  12.822 -60.164  1.00  0.00     0.021 A 
HETATM    4  C10 UNL     1       0.084  14.137 -59.787  1.00  0.00     0.043 A 
HETATM    5  C11 UNL     1      -0.098  14.273 -58.425  1.00  0.00     0.211 C 
HETATM    6  O2  UNL     1      -0.358  13.219 -57.803  1.00  0.00    -0.285 OA
HETATM    7  C12 UNL     1      -0.022  15.442 -57.694  1.00  0.00     0.095 A 
HETATM    8  N2  UNL     1       0.085  15.461 -56.353  1.00  0.00    -0.350 N 
ATOM      9  H2  UNL     1       0.118  14.617 -55.780  1.00  0.00     0.166 HD
HETATM   10  C13 UNL     1       0.144  16.698 -55.849  1.00  0.00     0.062 A 
HETATM   11  C19 UNL     1       0.069  17.535 -56.960  1.00  0.00     0.046 A 
HETATM   12  C20 UNL     1      -0.033  16.765 -58.089  1.00  0.00     0.003 A 
HETATM   13  C21 UNL     1      -0.128  17.233 -59.382  1.00  0.00    -0.047 C 
HETATM   14  C22 UNL     1      -0.111  18.685 -59.552  1.00  0.00     0.049 C 
HETATM   15  C23 UNL     1      -0.238  16.492 -60.530  1.00  0.00     0.038 C 
HETATM   16  C24 UNL     1       0.023  15.135 -60.749  1.00  0.00     0.049 A 
HETATM   17  N5  UNL     1       0.227  14.819 -62.033  1.00  0.00    -0.344 N 
HETATM   18  C25 UNL     1       0.160  15.884 -63.016  1.00  0.00     0.157 C 
ENDROOT
BRANCH   1  19
HETATM   19  C6  UNL     1       0.706  13.240 -63.795  1.00  0.00    -0.046 C 
BRANCH  19  20
HETATM   20  C5  UNL     1       0.907  12.990 -64.972  1.00  0.00    -0.074 C 
BRANCH  20  21
HETATM   21  C3  UNL     1       1.174  12.690 -66.384  1.00  0.00     0.160 C 
HETATM   22  C4  UNL     1       2.299  11.689 -66.526  1.00  0.00     0.046 C 
BRANCH  21  23
HETATM   23  N1  UNL     1      -0.068  12.165 -66.938  1.00  0.00    -0.347 N 
HETATM   24  C2  UNL     1      -0.224  11.940 -68.326  1.00  0.00     0.214 C 
HETATM   25  C1  UNL     1      -1.496  11.407 -68.843  1.00  0.00     0.117 C 
HETATM   26  O1  UNL     1       0.733  12.201 -69.090  1.00  0.00    -0.274 OA
ATOM     27  H1  UNL     1      -0.842  11.954 -66.310  1.00  0.00     0.163 HD
ENDBRANCH  21  23
ENDBRANCH  20  21
ENDBRANCH  19  20
ENDBRANCH   1  19
BRANCH  10  28
HETATM   28  C14 UNL     1       0.260  17.127 -54.461  1.00  0.00     0.082 A 
HETATM   29  N3  UNL     1       1.420  16.997 -53.752  1.00  0.00    -0.349 N 
HETATM   30  C15 UNL     1       1.226  17.474 -52.513  1.00  0.00     0.183 A 
ATOM     31  H3  UNL     1       2.291  16.603 -54.106  1.00  0.00     0.167 HD
HETATM   32  N4  UNL     1      -0.034  17.913 -52.392  1.00  0.00    -0.349 N 
HETATM   33  C16 UNL     1      -0.630  18.495 -51.214  1.00  0.00     0.156 C 
HETATM   34  C17 UNL     1      -0.619  17.695 -53.595  1.00  0.00     0.037 A 
HETATM   35  C18 UNL     1      -2.024  18.036 -53.900  1.00  0.00     0.071 C 
ENDBRANCH  10  28
TORSDOF 5
ENDMDL
