MODEL 1
REMARK VINA RESULT: -7.780374293      0.000      0.000
REMARK  7 active torsions:
REMARK  status: ('A' for Active; 'I' for Inactive)
REMARK    1  A    between atoms: C8_8  and  C9_9 
REMARK    2  A    between atoms: C10_10  and  O1_11 
REMARK    3  A    between atoms: C13_15  and  N3_32 
REMARK    4  A    between atoms: C18_20  and  C19_21 
REMARK    5  A    between atoms: C20_22  and  C21_23 
REMARK    6  A    between atoms: C22_24  and  C23_25 
REMARK    7  A    between atoms: C23_25  and  N1_27 
REMARK       I    between atoms: N1_27  and  C25_29 
ROOT
HETATM    1  C1  UNL     1      -0.974  17.294 -56.274  1.00  0.00     0.014 C 
HETATM    2  C2  UNL     1      -1.218  16.331 -56.966  1.00  0.00    -0.092 C 
HETATM    3  C3  UNL     1      -1.525  15.168 -57.825  1.00  0.00     0.168 C 
HETATM    4  C4  UNL     1      -1.146  13.857 -57.092  1.00  0.00     0.058 C 
HETATM    5  C5  UNL     1       0.115  13.349 -57.771  1.00  0.00     0.048 C 
HETATM    6  C6  UNL     1       1.063  12.532 -56.957  1.00  0.00     0.020 C 
HETATM    7  C7  UNL     1       1.419  11.852 -58.301  1.00  0.00     0.008 C 
HETATM    8  C8  UNL     1       0.030  12.246 -58.700  1.00  0.00     0.016 C 
HETATM    9  N3  UNL     1      -0.536  15.053 -58.919  1.00  0.00    -0.328 N 
HETATM   10  C26 UNL     1       0.656  14.658 -58.279  1.00  0.00     0.230 C 
HETATM   11  O3  UNL     1       1.826  15.021 -58.051  1.00  0.00    -0.272 OA
ENDROOT
BRANCH   9  12
HETATM   12  C13 UNL     1      -1.084  15.276 -60.240  1.00  0.00     0.119 C 
HETATM   13  C11 UNL     1      -1.167  16.769 -60.490  1.00  0.00    -0.037 C 
HETATM   14  C10 UNL     1      -0.202  17.821 -60.075  1.00  0.00     0.159 C 
HETATM   15  C12 UNL     1      -2.237  17.109 -61.095  1.00  0.00     0.019 C 
HETATM   16  C9  UNL     1       1.179  17.321 -59.877  1.00  0.00     0.014 A 
HETATM   17  C17 UNL     1       1.731  16.718 -61.105  1.00  0.00     0.015 A 
HETATM   18  C18 UNL     1       2.283  18.048 -60.721  1.00  0.00     0.083 A 
HETATM   19  C16 UNL     1       0.902  16.752 -62.345  1.00  0.00     0.007 C 
HETATM   20  C15 UNL     1      -0.041  15.590 -62.522  1.00  0.00     0.003 C 
HETATM   21  C14 UNL     1      -0.172  14.746 -61.302  1.00  0.00     0.030 C 
BRANCH  14  22
HETATM   22  O1  UNL     1      -0.696  18.578 -59.009  1.00  0.00    -0.390 OA
ATOM     23  H1  UNL     1      -1.627  18.764 -59.061  1.00  0.00     0.210 HD
ENDBRANCH  14  22
BRANCH  18  24
HETATM   24  C19 UNL     1       1.842  19.233 -61.404  1.00  0.00    -0.086 C 
HETATM   25  C20 UNL     1       1.462  20.232 -62.009  1.00  0.00    -0.015 C 
BRANCH  25  26
HETATM   26  C21 UNL     1       1.002  21.381 -62.699  1.00  0.00    -0.013 C 
HETATM   27  C22 UNL     1       0.592  22.360 -63.278  1.00  0.00    -0.067 C 
BRANCH  27  28
HETATM   28  C23 UNL     1       0.072  23.538 -63.991  1.00  0.00     0.162 C 
HETATM   29  C24 UNL     1      -0.088  24.653 -62.980  1.00  0.00     0.046 C 
BRANCH  28  30
HETATM   30  N1  UNL     1       0.897  23.910 -65.097  1.00  0.00    -0.331 N 
HETATM   31  C25 UNL     1       0.363  24.157 -66.386  1.00  0.00     0.329 C 
HETATM   32  N2  UNL     1       1.189  24.524 -67.473  1.00  0.00    -0.040 NA
HETATM   33  O2  UNL     1      -0.889  24.051 -66.596  1.00  0.00    -0.251 OA
ATOM     34  H1  UNL     1       1.903  24.001 -64.954  1.00  0.00     0.165 HD
ENDBRANCH  28  30
ENDBRANCH  27  28
ENDBRANCH  25  26
ENDBRANCH  18  24
ENDBRANCH   9  12
TORSDOF 7
ENDMDL
MODEL 2
REMARK VINA RESULT: -7.445474635      3.478      4.919
REMARK  7 active torsions:
REMARK  status: ('A' for Active; 'I' for Inactive)
REMARK    1  A    between atoms: C8_8  and  C9_9 
REMARK    2  A    between atoms: C10_10  and  O1_11 
REMARK    3  A    between atoms: C13_15  and  N3_32 
REMARK    4  A    between atoms: C18_20  and  C19_21 
REMARK    5  A    between atoms: C20_22  and  C21_23 
REMARK    6  A    between atoms: C22_24  and  C23_25 
REMARK    7  A    between atoms: C23_25  and  N1_27 
REMARK       I    between atoms: N1_27  and  C25_29 
ROOT
HETATM    1  C1  UNL     1       1.083  12.476 -61.672  1.00  0.00     0.014 C 
HETATM    2  C2  UNL     1       0.907  12.525 -60.475  1.00  0.00    -0.092 C 
HETATM    3  C3  UNL     1       0.709  12.596 -59.012  1.00  0.00     0.168 C 
HETATM    4  C4  UNL     1      -0.504  11.723 -58.601  1.00  0.00     0.058 C 
HETATM    5  C5  UNL     1      -1.622  12.696 -58.262  1.00  0.00     0.048 C 
HETATM    6  C6  UNL     1      -3.027  12.235 -58.457  1.00  0.00     0.020 C 
HETATM    7  C7  UNL     1      -3.363  13.200 -57.294  1.00  0.00     0.008 C 
HETATM    8  C8  UNL     1      -1.944  12.956 -56.878  1.00  0.00     0.016 C 
HETATM    9  N3  UNL     1       0.128  13.900 -58.628  1.00  0.00    -0.328 N 
HETATM   10  C26 UNL     1      -1.193  13.858 -59.117  1.00  0.00     0.230 C 
HETATM   11  O3  UNL     1      -1.973  14.410 -59.917  1.00  0.00    -0.272 OA
ENDROOT
BRANCH   9  12
HETATM   12  C13 UNL     1       1.009  14.733 -57.836  1.00  0.00     0.119 C 
HETATM   13  C11 UNL     1       1.816  15.617 -58.766  1.00  0.00    -0.037 C 
HETATM   14  C10 UNL     1       1.365  16.276 -60.021  1.00  0.00     0.159 C 
HETATM   15  C12 UNL     1       3.031  15.738 -58.401  1.00  0.00     0.019 C 
HETATM   16  C9  UNL     1      -0.096  16.519 -60.077  1.00  0.00     0.014 A 
HETATM   17  C17 UNL     1      -0.557  17.380 -58.972  1.00  0.00     0.015 A 
HETATM   18  C18 UNL     1      -0.519  18.009 -60.321  1.00  0.00     0.083 A 
HETATM   19  C16 UNL     1       0.461  17.929 -58.028  1.00  0.00     0.007 C 
HETATM   20  C15 UNL     1       0.787  17.050 -56.849  1.00  0.00     0.003 C 
HETATM   21  C14 UNL     1       0.232  15.672 -56.968  1.00  0.00     0.030 C 
BRANCH  14  22
HETATM   22  O1  UNL     1       1.884  15.636 -61.150  1.00  0.00    -0.390 OA
ATOM     23  H1  UNL     1       2.810  15.794 -61.296  1.00  0.00     0.210 HD
ENDBRANCH  14  22
BRANCH  18  24
HETATM   24  C19 UNL     1       0.556  18.895 -60.671  1.00  0.00    -0.086 C 
HETATM   25  C20 UNL     1       1.484  19.652 -60.945  1.00  0.00    -0.015 C 
BRANCH  25  26
HETATM   26  C21 UNL     1       2.567  20.507 -61.269  1.00  0.00    -0.013 C 
HETATM   27  C22 UNL     1       3.502  21.224 -61.536  1.00  0.00    -0.067 C 
BRANCH  27  28
HETATM   28  C23 UNL     1       4.648  22.099 -61.835  1.00  0.00     0.162 C 
HETATM   29  C24 UNL     1       4.118  23.504 -62.025  1.00  0.00     0.046 C 
BRANCH  28  30
HETATM   30  N1  UNL     1       5.664  22.024 -60.833  1.00  0.00    -0.331 N 
HETATM   31  C25 UNL     1       6.559  20.928 -60.748  1.00  0.00     0.329 C 
HETATM   32  N2  UNL     1       7.560  20.865 -59.752  1.00  0.00    -0.040 NA
HETATM   33  O2  UNL     1       6.480  19.965 -61.576  1.00  0.00    -0.251 OA
ATOM     34  H1  UNL     1       5.748  22.783 -60.157  1.00  0.00     0.165 HD
ENDBRANCH  28  30
ENDBRANCH  27  28
ENDBRANCH  25  26
ENDBRANCH  18  24
ENDBRANCH   9  12
TORSDOF 7
ENDMDL
MODEL 3
REMARK VINA RESULT: -7.037220504      1.465      2.343
REMARK  7 active torsions:
REMARK  status: ('A' for Active; 'I' for Inactive)
REMARK    1  A    between atoms: C8_8  and  C9_9 
REMARK    2  A    between atoms: C10_10  and  O1_11 
REMARK    3  A    between atoms: C13_15  and  N3_32 
REMARK    4  A    between atoms: C18_20  and  C19_21 
REMARK    5  A    between atoms: C20_22  and  C21_23 
REMARK    6  A    between atoms: C22_24  and  C23_25 
REMARK    7  A    between atoms: C23_25  and  N1_27 
REMARK       I    between atoms: N1_27  and  C25_29 
ROOT
HETATM    1  C1  UNL     1       4.100  16.273 -58.364  1.00  0.00     0.014 C 
HETATM    2  C2  UNL     1       3.033  15.895 -57.936  1.00  0.00    -0.092 C 
HETATM    3  C3  UNL     1       1.722  15.452 -57.413  1.00  0.00     0.168 C 
HETATM    4  C4  UNL     1       1.773  13.940 -57.076  1.00  0.00     0.058 C 
HETATM    5  C5  UNL     1       0.973  13.244 -58.164  1.00  0.00     0.048 C 
HETATM    6  C6  UNL     1       1.342  11.839 -58.507  1.00  0.00     0.020 C 
HETATM    7  C7  UNL     1      -0.153  11.679 -58.875  1.00  0.00     0.008 C 
HETATM    8  C8  UNL     1      -0.364  12.778 -57.879  1.00  0.00     0.016 C 
HETATM    9  N3  UNL     1       0.730  15.358 -58.506  1.00  0.00    -0.328 N 
HETATM   10  C26 UNL     1       1.148  14.250 -59.270  1.00  0.00     0.230 C 
HETATM   11  O3  UNL     1       1.553  13.921 -60.402  1.00  0.00    -0.272 OA
ENDROOT
BRANCH   9  12
HETATM   12  C13 UNL     1      -0.351  16.316 -58.409  1.00  0.00     0.119 C 
HETATM   13  C11 UNL     1       0.094  17.623 -59.035  1.00  0.00    -0.037 C 
HETATM   14  C10 UNL     1       0.937  17.817 -60.244  1.00  0.00     0.159 C 
HETATM   15  C12 UNL     1      -0.295  18.643 -58.377  1.00  0.00     0.019 C 
HETATM   16  C9  UNL     1       0.891  16.680 -61.195  1.00  0.00     0.014 A 
HETATM   17  C17 UNL     1      -0.477  16.423 -61.684  1.00  0.00     0.015 A 
HETATM   18  C18 UNL     1       0.462  17.046 -62.658  1.00  0.00     0.083 A 
HETATM   19  C16 UNL     1      -1.571  17.336 -61.242  1.00  0.00     0.007 C 
HETATM   20  C15 UNL     1      -2.250  16.951 -59.953  1.00  0.00     0.003 C 
HETATM   21  C14 UNL     1      -1.537  15.876 -59.208  1.00  0.00     0.030 C 
BRANCH  14  22
HETATM   22  O1  UNL     1       2.229  18.230 -59.907  1.00  0.00    -0.390 OA
ATOM     23  H1  UNL     1       2.718  17.598 -59.392  1.00  0.00     0.210 HD
ENDBRANCH  14  22
BRANCH  18  24
HETATM   24  C19 UNL     1       0.383  18.455 -62.932  1.00  0.00    -0.086 C 
HETATM   25  C20 UNL     1       0.299  19.653 -63.189  1.00  0.00    -0.015 C 
BRANCH  25  26
HETATM   26  C21 UNL     1       0.186  21.038 -63.468  1.00  0.00    -0.013 C 
HETATM   27  C22 UNL     1       0.072  22.215 -63.714  1.00  0.00    -0.067 C 
BRANCH  27  28
HETATM   28  C23 UNL     1      -0.073  23.644 -64.039  1.00  0.00     0.162 C 
HETATM   29  C24 UNL     1       0.203  24.433 -62.777  1.00  0.00     0.046 C 
BRANCH  28  30
HETATM   30  N1  UNL     1       0.761  24.039 -65.130  1.00  0.00    -0.331 N 
HETATM   31  C25 UNL     1       0.262  24.176 -66.449  1.00  0.00     0.329 C 
HETATM   32  N2  UNL     1       1.097  24.568 -67.520  1.00  0.00    -0.040 NA
HETATM   33  O2  UNL     1      -0.964  23.946 -66.701  1.00  0.00    -0.251 OA
ATOM     34  H1  UNL     1       1.748  24.229 -64.953  1.00  0.00     0.165 HD
ENDBRANCH  28  30
ENDBRANCH  27  28
ENDBRANCH  25  26
ENDBRANCH  18  24
ENDBRANCH   9  12
TORSDOF 7
ENDMDL
MODEL 4
REMARK VINA RESULT: -6.937440795      1.471      2.241
REMARK  7 active torsions:
REMARK  status: ('A' for Active; 'I' for Inactive)
REMARK    1  A    between atoms: C8_8  and  C9_9 
REMARK    2  A    between atoms: C10_10  and  O1_11 
REMARK    3  A    between atoms: C13_15  and  N3_32 
REMARK    4  A    between atoms: C18_20  and  C19_21 
REMARK    5  A    between atoms: C20_22  and  C21_23 
REMARK    6  A    between atoms: C22_24  and  C23_25 
REMARK    7  A    between atoms: C23_25  and  N1_27 
REMARK       I    between atoms: N1_27  and  C25_29 
ROOT
HETATM    1  C1  UNL     1       3.028  15.053 -55.735  1.00  0.00     0.014 C 
HETATM    2  C2  UNL     1       1.999  14.741 -56.289  1.00  0.00    -0.092 C 
HETATM    3  C3  UNL     1       0.733  14.376 -56.960  1.00  0.00     0.168 C 
HETATM    4  C4  UNL     1       0.864  12.973 -57.605  1.00  0.00     0.058 C 
HETATM    5  C5  UNL     1       0.966  13.211 -59.103  1.00  0.00     0.048 C 
HETATM    6  C6  UNL     1       1.718  12.210 -59.916  1.00  0.00     0.020 C 
HETATM    7  C7  UNL     1       0.755  12.616 -61.058  1.00  0.00     0.008 C 
HETATM    8  C8  UNL     1      -0.183  12.968 -59.944  1.00  0.00     0.016 C 
HETATM    9  N3  UNL     1       0.572  15.136 -58.219  1.00  0.00    -0.328 N 
HETATM   10  C26 UNL     1       1.546  14.600 -59.084  1.00  0.00     0.230 C 
HETATM   11  O3  UNL     1       2.573  14.894 -59.726  1.00  0.00    -0.272 OA
ENDROOT
BRANCH   9  12
HETATM   12  C13 UNL     1      -0.530  16.076 -58.207  1.00  0.00     0.119 C 
HETATM   13  C11 UNL     1      -0.064  17.385 -58.814  1.00  0.00    -0.037 C 
HETATM   14  C10 UNL     1       0.857  17.583 -59.964  1.00  0.00     0.159 C 
HETATM   15  C12 UNL     1      -0.514  18.404 -58.195  1.00  0.00     0.019 C 
HETATM   16  C9  UNL     1       0.896  16.437 -60.903  1.00  0.00     0.014 A 
HETATM   17  C17 UNL     1      -0.430  16.151 -61.483  1.00  0.00     0.015 A 
HETATM   18  C18 UNL     1       0.563  16.782 -62.396  1.00  0.00     0.083 A 
HETATM   19  C16 UNL     1      -1.568  17.049 -61.127  1.00  0.00     0.007 C 
HETATM   20  C15 UNL     1      -2.328  16.664 -59.884  1.00  0.00     0.003 C 
HETATM   21  C14 UNL     1      -1.650  15.608 -59.081  1.00  0.00     0.030 C 
BRANCH  14  22
HETATM   22  O1  UNL     1       2.116  18.021 -59.543  1.00  0.00    -0.390 OA
ATOM     23  H1  UNL     1       2.300  17.852 -58.626  1.00  0.00     0.210 HD
ENDBRANCH  14  22
BRANCH  18  24
HETATM   24  C19 UNL     1       0.479  18.186 -62.691  1.00  0.00    -0.086 C 
HETATM   25  C20 UNL     1       0.393  19.380 -62.964  1.00  0.00    -0.015 C 
BRANCH  25  26
HETATM   26  C21 UNL     1       0.276  20.760 -63.263  1.00  0.00    -0.013 C 
HETATM   27  C22 UNL     1       0.158  21.937 -63.511  1.00  0.00    -0.067 C 
BRANCH  27  28
HETATM   28  C23 UNL     1      -0.009  23.366 -63.825  1.00  0.00     0.162 C 
HETATM   29  C24 UNL     1       0.205  24.146 -62.546  1.00  0.00     0.046 C 
BRANCH  28  30
HETATM   30  N1  UNL     1       0.853  23.793 -64.882  1.00  0.00    -0.331 N 
HETATM   31  C25 UNL     1       0.370  24.059 -66.188  1.00  0.00     0.329 C 
HETATM   32  N2  UNL     1       1.233  24.480 -67.225  1.00  0.00    -0.040 NA
HETATM   33  O2  UNL     1      -0.866  23.921 -66.458  1.00  0.00    -0.251 OA
ATOM     34  H1  UNL     1       1.848  23.910 -64.691  1.00  0.00     0.165 HD
ENDBRANCH  28  30
ENDBRANCH  27  28
ENDBRANCH  25  26
ENDBRANCH  18  24
ENDBRANCH   9  12
TORSDOF 7
ENDMDL
MODEL 5
REMARK VINA RESULT: -6.881865020      5.128      7.762
REMARK  7 active torsions:
REMARK  status: ('A' for Active; 'I' for Inactive)
REMARK    1  A    between atoms: C8_8  and  C9_9 
REMARK    2  A    between atoms: C10_10  and  O1_11 
REMARK    3  A    between atoms: C13_15  and  N3_32 
REMARK    4  A    between atoms: C18_20  and  C19_21 
REMARK    5  A    between atoms: C20_22  and  C21_23 
REMARK    6  A    between atoms: C22_24  and  C23_25 
REMARK    7  A    between atoms: C23_25  and  N1_27 
REMARK       I    between atoms: N1_27  and  C25_29 
ROOT
HETATM    1  C1  UNL     1       1.907  14.793 -55.573  1.00  0.00     0.014 C 
HETATM    2  C2  UNL     1       1.389  15.770 -56.064  1.00  0.00    -0.092 C 
HETATM    3  C3  UNL     1       0.767  16.961 -56.681  1.00  0.00     0.168 C 
HETATM    4  C4  UNL     1      -0.209  17.625 -55.677  1.00  0.00     0.058 C 
HETATM    5  C5  UNL     1      -1.607  17.298 -56.176  1.00  0.00     0.048 C 
HETATM    6  C6  UNL     1      -2.704  17.213 -55.168  1.00  0.00     0.020 C 
HETATM    7  C7  UNL     1      -3.621  17.677 -56.325  1.00  0.00     0.008 C 
HETATM    8  C8  UNL     1      -2.374  18.311 -56.863  1.00  0.00     0.016 C 
HETATM    9  N3  UNL     1      -0.249  16.561 -57.678  1.00  0.00    -0.328 N 
HETATM   10  C26 UNL     1      -1.304  16.022 -56.915  1.00  0.00     0.230 C 
HETATM   11  O3  UNL     1      -1.945  14.973 -56.710  1.00  0.00    -0.272 OA
ENDROOT
BRANCH   9  12
HETATM   12  C13 UNL     1       0.091  16.908 -59.043  1.00  0.00     0.119 C 
HETATM   13  C11 UNL     1       1.123  15.923 -59.557  1.00  0.00    -0.037 C 
HETATM   14  C10 UNL     1       1.206  14.463 -59.291  1.00  0.00     0.159 C 
HETATM   15  C12 UNL     1       2.028  16.481 -60.261  1.00  0.00     0.019 C 
HETATM   16  C9  UNL     1      -0.095  13.844 -58.943  1.00  0.00     0.014 A 
HETATM   17  C17 UNL     1      -1.092  14.010 -60.018  1.00  0.00     0.015 A 
HETATM   18  C18 UNL     1      -0.529  12.641 -59.851  1.00  0.00     0.083 A 
HETATM   19  C16 UNL     1      -0.667  14.680 -61.282  1.00  0.00     0.007 C 
HETATM   20  C15 UNL     1      -0.803  16.180 -61.293  1.00  0.00     0.003 C 
HETATM   21  C14 UNL     1      -1.090  16.757 -59.950  1.00  0.00     0.030 C 
BRANCH  14  22
HETATM   22  O1  UNL     1       2.239  14.163 -58.399  1.00  0.00    -0.390 OA
ATOM     23  H1  UNL     1       2.458  13.240 -58.353  1.00  0.00     0.210 HD
ENDBRANCH  14  22
BRANCH  18  24
HETATM   24  C19 UNL     1       0.484  12.165 -60.752  1.00  0.00    -0.086 C 
HETATM   25  C20 UNL     1       1.365  11.780 -61.516  1.00  0.00    -0.015 C 
BRANCH  25  26
HETATM   26  C21 UNL     1       2.390  11.320 -62.380  1.00  0.00    -0.013 C 
HETATM   27  C22 UNL     1       3.270  10.916 -63.103  1.00  0.00    -0.067 C 
BRANCH  27  28
HETATM   28  C23 UNL     1       4.359  10.427 -63.965  1.00  0.00     0.162 C 
HETATM   29  C24 UNL     1       4.333   8.914 -63.926  1.00  0.00     0.046 C 
BRANCH  28  30
HETATM   30  N1  UNL     1       4.274  10.947 -65.294  1.00  0.00    -0.331 N 
HETATM   31  C25 UNL     1       5.145  11.961 -65.763  1.00  0.00     0.329 C 
HETATM   32  N2  UNL     1       5.051  12.467 -67.079  1.00  0.00    -0.040 NA
HETATM   33  O2  UNL     1       6.042  12.445 -65.000  1.00  0.00    -0.251 OA
ATOM     34  H1  UNL     1       3.564  10.576 -65.924  1.00  0.00     0.165 HD
ENDBRANCH  28  30
ENDBRANCH  27  28
ENDBRANCH  25  26
ENDBRANCH  18  24
ENDBRANCH   9  12
TORSDOF 7
ENDMDL
