MODEL 1
REMARK VINA RESULT: -8.204326807      0.000      0.000
REMARK  6 active torsions:
REMARK  status: ('A' for Active; 'I' for Inactive)
REMARK    1  A    between atoms: C2_2  and  C3_4 
REMARK    2  A    between atoms: C3_4  and  S1_16 
REMARK    3  A    between atoms: N1_5  and  N2_7 
REMARK    4  A    between atoms: N2_7  and  C4_9 
REMARK    5  A    between atoms: S1_16  and  C10_17 
REMARK    6  A    between atoms: C10_17  and  C11_19 
ROOT
HETATM    1  C3  UNL     1       6.955   9.322  45.592  1.00  0.00     0.138 C 
HETATM    2  N1  UNL     1       6.309   9.765  46.502  1.00  0.00    -0.290 N 
ATOM      3  H1  UNL     1       5.881   8.943  46.928  1.00  0.00     0.187 HD
ENDROOT
BRANCH   1   4
HETATM    4  C2  UNL     1       7.791  10.005  44.619  1.00  0.00     0.180 C 
HETATM    5  C1  UNL     1       7.928   9.515  43.234  1.00  0.00     0.099 C 
HETATM    6  O1  UNL     1       8.416  11.026  44.925  1.00  0.00    -0.291 OA
ENDBRANCH   1   4
BRANCH   1   7
HETATM    7  S1  UNL     1       6.906   7.494  45.346  1.00  0.00    -0.025 SA
BRANCH   7   8
HETATM    8  C10 UNL     1       8.531   6.813  45.544  1.00  0.00     0.225 C 
HETATM    9  O2  UNL     1       9.075   6.813  46.666  1.00  0.00    -0.279 OA
BRANCH   8  10
HETATM   10  C11 UNL     1       9.226   6.258  44.403  1.00  0.00     0.021 A 
HETATM   11  C12 UNL     1       8.510   5.625  43.403  1.00  0.00     0.016 A 
HETATM   12  C13 UNL     1       9.098   5.074  42.292  1.00  0.00     0.001 A 
HETATM   13  C14 UNL     1      10.468   5.156  42.165  1.00  0.00     0.000 A 
HETATM   14  C15 UNL     1      11.185   5.779  43.147  1.00  0.00     0.001 A 
HETATM   15  C16 UNL     1      10.602   6.334  44.265  1.00  0.00     0.016 A 
ENDBRANCH   8  10
ENDBRANCH   7   8
ENDBRANCH   1   7
BRANCH   2  16
HETATM   16  N2  UNL     1       5.875  10.762  47.224  1.00  0.00    -0.300 N 
ATOM     17  H2  UNL     1       6.274  10.821  48.161  1.00  0.00     0.187 HD
BRANCH  16  18
HETATM   18  C4  UNL     1       4.919  11.792  46.904  1.00  0.00     0.048 A 
HETATM   19  C5  UNL     1       5.019  12.428  45.690  1.00  0.00     0.034 A 
HETATM   20  C6  UNL     1       4.099  13.430  45.399  1.00  0.00     0.044 A 
HETATM   21  C7  UNL     1       3.140  13.751  46.308  1.00  0.00     0.116 A 
HETATM   22  F1  UNL     1       2.255  14.743  45.982  1.00  0.00    -0.206 F 
HETATM   23  C8  UNL     1       3.047  13.113  47.515  1.00  0.00     0.044 A 
HETATM   24  C9  UNL     1       3.953  12.116  47.817  1.00  0.00     0.034 A 
ENDBRANCH  16  18
ENDBRANCH   2  16
TORSDOF 6
ENDMDL
MODEL 2
REMARK VINA RESULT: -8.201718326      0.025      1.020
REMARK  6 active torsions:
REMARK  status: ('A' for Active; 'I' for Inactive)
REMARK    1  A    between atoms: C2_2  and  C3_4 
REMARK    2  A    between atoms: C3_4  and  S1_16 
REMARK    3  A    between atoms: N1_5  and  N2_7 
REMARK    4  A    between atoms: N2_7  and  C4_9 
REMARK    5  A    between atoms: S1_16  and  C10_17 
REMARK    6  A    between atoms: C10_17  and  C11_19 
ROOT
HETATM    1  C3  UNL     1       6.938   9.308  45.600  1.00  0.00     0.138 C 
HETATM    2  N1  UNL     1       6.291   9.741  46.514  1.00  0.00    -0.290 N 
ATOM      3  H1  UNL     1       5.865   8.914  46.933  1.00  0.00     0.187 HD
ENDROOT
BRANCH   1   4
HETATM    4  C2  UNL     1       7.772  10.003  44.634  1.00  0.00     0.180 C 
HETATM    5  C1  UNL     1       7.909   9.527  43.244  1.00  0.00     0.099 C 
HETATM    6  O1  UNL     1       8.394  11.022  44.949  1.00  0.00    -0.291 OA
ENDBRANCH   1   4
BRANCH   1   7
HETATM    7  S1  UNL     1       6.894   7.483  45.338  1.00  0.00    -0.025 SA
BRANCH   7   8
HETATM    8  C10 UNL     1       8.519   6.803  45.536  1.00  0.00     0.225 C 
HETATM    9  O2  UNL     1       9.063   6.804  46.658  1.00  0.00    -0.279 OA
BRANCH   8  10
HETATM   10  C11 UNL     1       9.215   6.250  44.395  1.00  0.00     0.021 A 
HETATM   11  C12 UNL     1       8.501   5.619  43.393  1.00  0.00     0.016 A 
HETATM   12  C13 UNL     1       9.090   5.069  42.281  1.00  0.00     0.001 A 
HETATM   13  C14 UNL     1      10.460   5.151  42.157  1.00  0.00     0.000 A 
HETATM   14  C15 UNL     1      11.176   5.772  43.140  1.00  0.00     0.001 A 
HETATM   15  C16 UNL     1      10.592   6.325  44.259  1.00  0.00     0.016 A 
ENDBRANCH   8  10
ENDBRANCH   7   8
ENDBRANCH   1   7
BRANCH   2  16
HETATM   16  N2  UNL     1       5.854  10.730  47.246  1.00  0.00    -0.300 N 
ATOM     17  H2  UNL     1       6.231  10.764  48.194  1.00  0.00     0.187 HD
BRANCH  16  18
HETATM   18  C4  UNL     1       4.921  11.781  46.924  1.00  0.00     0.048 A 
HETATM   19  C5  UNL     1       3.957  12.110  47.846  1.00  0.00     0.034 A 
HETATM   20  C6  UNL     1       3.054  13.115  47.516  1.00  0.00     0.044 A 
HETATM   21  C7  UNL     1       3.146  13.738  46.310  1.00  0.00     0.116 A 
HETATM   22  F1  UNL     1       2.238  14.722  46.027  1.00  0.00    -0.206 F 
HETATM   23  C8  UNL     1       4.109  13.404  45.398  1.00  0.00     0.044 A 
HETATM   24  C9  UNL     1       5.012  12.408  45.711  1.00  0.00     0.034 A 
ENDBRANCH  16  18
ENDBRANCH   2  16
TORSDOF 6
ENDMDL
MODEL 3
REMARK VINA RESULT: -8.178386482      3.311      8.238
REMARK  6 active torsions:
REMARK  status: ('A' for Active; 'I' for Inactive)
REMARK    1  A    between atoms: C2_2  and  C3_4 
REMARK    2  A    between atoms: C3_4  and  S1_16 
REMARK    3  A    between atoms: N1_5  and  N2_7 
REMARK    4  A    between atoms: N2_7  and  C4_9 
REMARK    5  A    between atoms: S1_16  and  C10_17 
REMARK    6  A    between atoms: C10_17  and  C11_19 
ROOT
HETATM    1  C3  UNL     1       7.161   9.722  45.717  1.00  0.00     0.138 C 
HETATM    2  N1  UNL     1       7.247   8.580  46.080  1.00  0.00    -0.290 N 
ATOM      3  H1  UNL     1       6.509   8.483  46.777  1.00  0.00     0.187 HD
ENDROOT
BRANCH   1   4
HETATM    4  C2  UNL     1       7.944  10.450  44.732  1.00  0.00     0.180 C 
HETATM    5  C1  UNL     1       8.193  11.899  44.859  1.00  0.00     0.099 C 
HETATM    6  O1  UNL     1       8.429   9.874  43.753  1.00  0.00    -0.291 OA
ENDBRANCH   1   4
BRANCH   1   7
HETATM    7  S1  UNL     1       5.850  10.752  46.505  1.00  0.00    -0.025 SA
BRANCH   7   8
HETATM    8  C10 UNL     1       4.686  11.291  45.282  1.00  0.00     0.225 C 
HETATM    9  O2  UNL     1       4.433  10.567  44.299  1.00  0.00    -0.279 OA
BRANCH   8  10
HETATM   10  C11 UNL     1       4.031  12.573  45.423  1.00  0.00     0.021 A 
HETATM   11  C12 UNL     1       3.952  13.428  44.339  1.00  0.00     0.016 A 
HETATM   12  C13 UNL     1       3.347  14.659  44.395  1.00  0.00     0.001 A 
HETATM   13  C14 UNL     1       2.790  15.063  45.589  1.00  0.00     0.000 A 
HETATM   14  C15 UNL     1       2.862  14.227  46.666  1.00  0.00     0.001 A 
HETATM   15  C16 UNL     1       3.468  12.990  46.618  1.00  0.00     0.016 A 
ENDBRANCH   8  10
ENDBRANCH   7   8
ENDBRANCH   1   7
BRANCH   2  16
HETATM   16  N2  UNL     1       7.804   7.400  46.039  1.00  0.00    -0.300 N 
ATOM     17  H2  UNL     1       7.865   6.921  46.937  1.00  0.00     0.187 HD
BRANCH  16  18
HETATM   18  C4  UNL     1       8.345   6.669  44.921  1.00  0.00     0.048 A 
HETATM   19  C5  UNL     1       7.477   6.026  44.072  1.00  0.00     0.034 A 
HETATM   20  C6  UNL     1       8.013   5.312  43.006  1.00  0.00     0.044 A 
HETATM   21  C7  UNL     1       9.362   5.268  42.831  1.00  0.00     0.116 A 
HETATM   22  F1  UNL     1       9.847   4.554  41.770  1.00  0.00    -0.206 F 
HETATM   23  C8  UNL     1      10.220   5.912  43.681  1.00  0.00     0.044 A 
HETATM   24  C9  UNL     1       9.702   6.624  44.743  1.00  0.00     0.034 A 
ENDBRANCH  16  18
ENDBRANCH   2  16
TORSDOF 6
ENDMDL
MODEL 4
REMARK VINA RESULT: -8.174808645      3.310      8.212
REMARK  6 active torsions:
REMARK  status: ('A' for Active; 'I' for Inactive)
REMARK    1  A    between atoms: C2_2  and  C3_4 
REMARK    2  A    between atoms: C3_4  and  S1_16 
REMARK    3  A    between atoms: N1_5  and  N2_7 
REMARK    4  A    between atoms: N2_7  and  C4_9 
REMARK    5  A    between atoms: S1_16  and  C10_17 
REMARK    6  A    between atoms: C10_17  and  C11_19 
ROOT
HETATM    1  C3  UNL     1       7.171   9.689  45.715  1.00  0.00     0.138 C 
HETATM    2  N1  UNL     1       7.259   8.548  46.080  1.00  0.00    -0.290 N 
ATOM      3  H1  UNL     1       6.526   8.455  46.784  1.00  0.00     0.187 HD
ENDROOT
BRANCH   1   4
HETATM    4  C2  UNL     1       7.946  10.414  44.721  1.00  0.00     0.180 C 
HETATM    5  C1  UNL     1       8.193  11.864  44.838  1.00  0.00     0.099 C 
HETATM    6  O1  UNL     1       8.425   9.833  43.742  1.00  0.00    -0.291 OA
ENDBRANCH   1   4
BRANCH   1   7
HETATM    7  S1  UNL     1       5.870  10.724  46.513  1.00  0.00    -0.025 SA
BRANCH   7   8
HETATM    8  C10 UNL     1       4.689  11.253  45.302  1.00  0.00     0.225 C 
HETATM    9  O2  UNL     1       4.405  10.510  44.341  1.00  0.00    -0.279 OA
BRANCH   8  10
HETATM   10  C11 UNL     1       4.055  12.547  45.427  1.00  0.00     0.021 A 
HETATM   11  C12 UNL     1       4.013  13.400  44.338  1.00  0.00     0.016 A 
HETATM   12  C13 UNL     1       3.431  14.642  44.379  1.00  0.00     0.001 A 
HETATM   13  C14 UNL     1       2.859  15.061  45.561  1.00  0.00     0.000 A 
HETATM   14  C15 UNL     1       2.895  14.227  46.642  1.00  0.00     0.001 A 
HETATM   15  C16 UNL     1       3.478  12.979  46.609  1.00  0.00     0.016 A 
ENDBRANCH   8  10
ENDBRANCH   7   8
ENDBRANCH   1   7
BRANCH   2  16
HETATM   16  N2  UNL     1       7.812   7.367  46.036  1.00  0.00    -0.300 N 
ATOM     17  H2  UNL     1       7.886   6.892  46.936  1.00  0.00     0.187 HD
BRANCH  16  18
HETATM   18  C4  UNL     1       8.336   6.630  44.914  1.00  0.00     0.048 A 
HETATM   19  C5  UNL     1       9.698   6.589  44.731  1.00  0.00     0.034 A 
HETATM   20  C6  UNL     1      10.189   5.886  43.637  1.00  0.00     0.044 A 
HETATM   21  C7  UNL     1       9.326   5.267  42.787  1.00  0.00     0.116 A 
HETATM   22  F1  UNL     1       9.852   4.586  41.723  1.00  0.00    -0.206 F 
HETATM   23  C8  UNL     1       7.972   5.312  42.977  1.00  0.00     0.044 A 
HETATM   24  C9  UNL     1       7.470   6.006  44.059  1.00  0.00     0.034 A 
ENDBRANCH  16  18
ENDBRANCH   2  16
TORSDOF 6
ENDMDL
MODEL 5
REMARK VINA RESULT: -8.171421870      0.058      1.436
REMARK  6 active torsions:
REMARK  status: ('A' for Active; 'I' for Inactive)
REMARK    1  A    between atoms: C2_2  and  C3_4 
REMARK    2  A    between atoms: C3_4  and  S1_16 
REMARK    3  A    between atoms: N1_5  and  N2_7 
REMARK    4  A    between atoms: N2_7  and  C4_9 
REMARK    5  A    between atoms: S1_16  and  C10_17 
REMARK    6  A    between atoms: C10_17  and  C11_19 
ROOT
HETATM    1  C3  UNL     1       6.932   9.298  45.595  1.00  0.00     0.138 C 
HETATM    2  N1  UNL     1       6.286   9.729  46.512  1.00  0.00    -0.290 N 
ATOM      3  H1  UNL     1       5.860   8.901  46.928  1.00  0.00     0.187 HD
ENDROOT
BRANCH   1   4
HETATM    4  C2  UNL     1       7.765   9.996  44.630  1.00  0.00     0.180 C 
HETATM    5  C1  UNL     1       7.891   9.530  43.236  1.00  0.00     0.099 C 
HETATM    6  O1  UNL     1       8.396  11.008  44.950  1.00  0.00    -0.291 OA
ENDBRANCH   1   4
BRANCH   1   7
HETATM    7  S1  UNL     1       6.886   7.474  45.327  1.00  0.00    -0.025 SA
BRANCH   7   8
HETATM    8  C10 UNL     1       8.517   6.798  45.483  1.00  0.00     0.225 C 
HETATM    9  O2  UNL     1       9.099   6.820  46.586  1.00  0.00    -0.279 OA
BRANCH   8  10
HETATM   10  C11 UNL     1       9.174   6.222  44.330  1.00  0.00     0.021 A 
HETATM   11  C12 UNL     1      10.550   6.298  44.214  1.00  0.00     0.016 A 
HETATM   12  C13 UNL     1      11.244   5.777  43.151  1.00  0.00     0.001 A 
HETATM   13  C14 UNL     1      10.537   5.145  42.151  1.00  0.00     0.000 A 
HETATM   14  C15 UNL     1       9.178   5.063  42.256  1.00  0.00     0.001 A 
HETATM   15  C16 UNL     1       8.473   5.585  43.320  1.00  0.00     0.016 A 
ENDBRANCH   8  10
ENDBRANCH   7   8
ENDBRANCH   1   7
BRANCH   2  16
HETATM   16  N2  UNL     1       5.851  10.716  47.247  1.00  0.00    -0.300 N 
ATOM     17  H2  UNL     1       6.226  10.745  48.195  1.00  0.00     0.187 HD
BRANCH  16  18
HETATM   18  C4  UNL     1       4.923  11.772  46.927  1.00  0.00     0.048 A 
HETATM   19  C5  UNL     1       3.962  12.104  47.850  1.00  0.00     0.034 A 
HETATM   20  C6  UNL     1       3.064  13.115  47.523  1.00  0.00     0.044 A 
HETATM   21  C7  UNL     1       3.157  13.739  46.318  1.00  0.00     0.116 A 
HETATM   22  F1  UNL     1       2.253  14.727  46.037  1.00  0.00    -0.206 F 
HETATM   23  C8  UNL     1       4.118  13.402  45.404  1.00  0.00     0.044 A 
HETATM   24  C9  UNL     1       5.016  12.401  45.715  1.00  0.00     0.034 A 
ENDBRANCH  16  18
ENDBRANCH   2  16
TORSDOF 6
ENDMDL
