MODEL 1
REMARK VINA RESULT: -8.162299914      0.000      0.000
REMARK  13 active torsions:
REMARK  status: ('A' for Active; 'I' for Inactive)
REMARK    1  A    between atoms: C2_2  and  O1_3 
REMARK    2  A    between atoms: C2_2  and  N1_5 
REMARK    3  A    between atoms: N1_5  and  C3_7 
REMARK    4  A    between atoms: C6_14  and  N4_15 
REMARK    5  A    between atoms: N4_15  and  C7_16 
REMARK    6  A    between atoms: N4_15  and  C9_23 
REMARK    7  A    between atoms: C7_16  and  S1_17 
REMARK    8  A    between atoms: S1_17  and  C8_18 
REMARK    9  A    between atoms: C9_23  and  C10_29 
REMARK   10  A    between atoms: N7_24  and  N8_26 
REMARK   11  A    between atoms: N10_32  and  O4_33 
REMARK   12  A    between atoms: C12_36  and  N11_37 
REMARK   13  A    between atoms: N11_37  and  S2_39 
ROOT
HETATM    1  C3  UNL     1      66.726  55.146  43.320  1.00  0.00     0.067 A 
HETATM    2  C4  UNL     1      65.991  56.072  44.016  1.00  0.00     0.108 A 
HETATM    3  C5  UNL     1      66.208  57.434  43.842  1.00  0.00     0.270 A 
HETATM    4  O2  UNL     1      65.519  58.236  44.491  1.00  0.00    -0.266 OA
HETATM    5  N2  UNL     1      67.160  57.844  42.972  1.00  0.00    -0.184 N 
HETATM    6  N3  UNL     1      67.510  59.066  42.685  1.00  0.00    -0.118 N 
ATOM      7  H3  UNL     1      67.108  59.919  43.074  1.00  0.00     0.206 HD
HETATM    8  C6  UNL     1      68.499  58.991  41.781  1.00  0.00     0.734 A 
HETATM    9  N10 UNL     1      68.731  57.695  41.536  1.00  0.00    -0.029 N 
HETATM   10  C11 UNL     1      67.891  56.939  42.281  1.00  0.00     0.206 A 
HETATM   11  C12 UNL     1      67.712  55.593  42.420  1.00  0.00     0.120 A 
ENDROOT
BRANCH   8  12
HETATM   12  N4  UNL     1      69.159  60.145  41.212  1.00  0.00    -0.126 N 
BRANCH  12  13
HETATM   13  C7  UNL     1      68.906  60.399  39.826  1.00  0.00     0.170 C 
BRANCH  13  14
HETATM   14  S1  UNL     1      70.247  60.146  38.691  1.00  0.00    -0.051 SA
BRANCH  14  15
HETATM   15  C8  UNL     1      69.876  59.010  37.369  1.00  0.00     0.153 C 
HETATM   16  N5  UNL     1      69.733  59.349  36.141  1.00  0.00    -0.382 N 
ATOM     17  H52 UNL     1      69.836  60.327  35.873  1.00  0.00     0.157 HD
ATOM     18  H51 UNL     1      69.520  58.698  35.384  1.00  0.00     0.157 HD
HETATM   19  N6  UNL     1      69.732  57.641  37.744  1.00  0.00    -0.075 NA
ENDBRANCH  14  15
ENDBRANCH  13  14
ENDBRANCH  12  13
BRANCH  12  20
HETATM   20  C9  UNL     1      70.011  60.868  42.070  1.00  0.00     0.208 C 
HETATM   21  N7  UNL     1      69.653  61.858  42.789  1.00  0.00    -0.287 N 
ATOM     22  H7  UNL     1      70.400  62.265  43.352  1.00  0.00     0.188 HD
BRANCH  21  23
HETATM   23  N8  UNL     1      68.445  62.460  42.931  1.00  0.00    -0.343 N 
ATOM     24  H82 UNL     1      68.361  63.327  42.399  1.00  0.00     0.176 HD
ATOM     25  H81 UNL     1      67.625  62.189  43.473  1.00  0.00     0.176 HD
ENDBRANCH  21  23
BRANCH  20  26
HETATM   26  C10 UNL     1      71.417  60.501  42.164  1.00  0.00     0.301 C 
HETATM   27  N9  UNL     1      71.965  59.560  43.056  1.00  0.00    -0.054 NA
HETATM   28  O3  UNL     1      72.292  61.048  41.392  1.00  0.00    -0.268 OA
ENDBRANCH  20  26
ENDBRANCH  12  20
ENDBRANCH   8  12
BRANCH   9  29
HETATM   29  O4  UNL     1      69.687  57.207  40.675  1.00  0.00    -0.268 OA
ATOM     30  H4  UNL     1      69.513  56.689  39.898  1.00  0.00     0.246 HD
ENDBRANCH   9  29
BRANCH  11  31
HETATM   31  N11 UNL     1      68.433  54.619  41.697  1.00  0.00    -0.260 N 
ATOM     32  H11 UNL     1      69.209  54.166  42.178  1.00  0.00     0.181 HD
BRANCH  31  33
HETATM   33  S2  UNL     1      68.124  54.130  40.087  1.00  0.00     0.209 S 
HETATM   34  O5  UNL     1      69.209  54.660  39.159  1.00  0.00    -0.578 OA
HETATM   35  O6  UNL     1      68.242  52.626  39.991  1.00  0.00    -0.578 OA
HETATM   36  O7  UNL     1      66.671  54.665  39.484  1.00  0.00    -0.578 OA
ENDBRANCH  31  33
ENDBRANCH  11  31
BRANCH   1  37
HETATM   37  N1  UNL     1      66.499  53.767  43.507  1.00  0.00    -0.362 N 
ATOM     38  H1  UNL     1      67.116  53.284  44.160  1.00  0.00     0.162 HD
BRANCH  37  39
HETATM   39  C2  UNL     1      65.485  52.974  42.868  1.00  0.00     0.213 C 
HETATM   40  C1  UNL     1      65.104  51.813  43.782  1.00  0.00     0.063 C 
BRANCH  39  41
HETATM   41  O1  UNL     1      65.913  52.490  41.619  1.00  0.00    -0.377 OA
ATOM     42  H1  UNL     1      66.858  52.393  41.610  1.00  0.00     0.212 HD
ENDBRANCH  39  41
ENDBRANCH  37  39
ENDBRANCH   1  37
TORSDOF 13
ENDMDL
MODEL 2
REMARK VINA RESULT: -7.874429756      1.803      3.302
REMARK  13 active torsions:
REMARK  status: ('A' for Active; 'I' for Inactive)
REMARK    1  A    between atoms: C2_2  and  O1_3 
REMARK    2  A    between atoms: C2_2  and  N1_5 
REMARK    3  A    between atoms: N1_5  and  C3_7 
REMARK    4  A    between atoms: C6_14  and  N4_15 
REMARK    5  A    between atoms: N4_15  and  C7_16 
REMARK    6  A    between atoms: N4_15  and  C9_23 
REMARK    7  A    between atoms: C7_16  and  S1_17 
REMARK    8  A    between atoms: S1_17  and  C8_18 
REMARK    9  A    between atoms: C9_23  and  C10_29 
REMARK   10  A    between atoms: N7_24  and  N8_26 
REMARK   11  A    between atoms: N10_32  and  O4_33 
REMARK   12  A    between atoms: C12_36  and  N11_37 
REMARK   13  A    between atoms: N11_37  and  S2_39 
ROOT
HETATM    1  C3  UNL     1      66.656  55.137  41.609  1.00  0.00     0.067 A 
HETATM    2  C4  UNL     1      67.672  54.695  40.799  1.00  0.00     0.108 A 
HETATM    3  C5  UNL     1      68.631  55.575  40.311  1.00  0.00     0.270 A 
HETATM    4  O2  UNL     1      69.532  55.132  39.583  1.00  0.00    -0.266 OA
HETATM    5  N2  UNL     1      68.554  56.885  40.643  1.00  0.00    -0.184 N 
HETATM    6  N3  UNL     1      69.348  57.852  40.278  1.00  0.00    -0.118 N 
ATOM      7  H3  UNL     1      70.170  57.768  39.679  1.00  0.00     0.206 HD
HETATM    8  C6  UNL     1      68.880  58.978  40.838  1.00  0.00     0.734 A 
HETATM    9  N10 UNL     1      67.788  58.660  41.545  1.00  0.00    -0.029 N 
HETATM   10  C11 UNL     1      67.556  57.331  41.440  1.00  0.00     0.206 A 
HETATM   11  C12 UNL     1      66.594  56.503  41.943  1.00  0.00     0.120 A 
ENDROOT
BRANCH   8  12
HETATM   12  N4  UNL     1      69.493  60.277  40.666  1.00  0.00    -0.126 N 
BRANCH  12  13
HETATM   13  C7  UNL     1      69.440  60.830  39.346  1.00  0.00     0.170 C 
BRANCH  13  14
HETATM   14  S1  UNL     1      70.585  60.194  38.148  1.00  0.00    -0.051 SA
BRANCH  14  15
HETATM   15  C8  UNL     1      69.873  59.015  37.017  1.00  0.00     0.153 C 
HETATM   16  N5  UNL     1      69.180  59.327  35.984  1.00  0.00    -0.382 N 
ATOM     17  H52 UNL     1      69.012  60.309  35.769  1.00  0.00     0.157 HD
ATOM     18  H51 UNL     1      68.773  58.652  35.338  1.00  0.00     0.157 HD
HETATM   19  N6  UNL     1      70.109  57.640  37.318  1.00  0.00    -0.075 NA
ENDBRANCH  14  15
ENDBRANCH  13  14
ENDBRANCH  12  13
BRANCH  12  20
HETATM   20  C9  UNL     1      70.110  60.836  41.801  1.00  0.00     0.208 C 
HETATM   21  N7  UNL     1      69.539  61.617  42.632  1.00  0.00    -0.287 N 
ATOM     22  H7  UNL     1      70.135  61.929  43.398  1.00  0.00     0.188 HD
BRANCH  21  23
HETATM   23  N8  UNL     1      68.272  62.100  42.667  1.00  0.00    -0.343 N 
ATOM     24  H82 UNL     1      68.122  62.789  43.405  1.00  0.00     0.176 HD
ATOM     25  H81 UNL     1      67.462  61.889  42.084  1.00  0.00     0.176 HD
ENDBRANCH  21  23
BRANCH  20  26
HETATM   26  C10 UNL     1      71.508  60.540  42.078  1.00  0.00     0.301 C 
HETATM   27  N9  UNL     1      71.984  59.679  43.086  1.00  0.00    -0.054 NA
HETATM   28  O3  UNL     1      72.447  61.079  41.378  1.00  0.00    -0.268 OA
ENDBRANCH  20  26
ENDBRANCH  12  20
ENDBRANCH   8  12
BRANCH   9  29
HETATM   29  O4  UNL     1      67.013  59.549  42.253  1.00  0.00    -0.268 OA
ATOM     30  H4  UNL     1      66.352  59.313  42.893  1.00  0.00     0.246 HD
ENDBRANCH   9  29
BRANCH  11  31
HETATM   31  N11 UNL     1      65.555  56.925  42.800  1.00  0.00    -0.260 N 
ATOM     32  H11 UNL     1      64.633  57.052  42.383  1.00  0.00     0.181 HD
BRANCH  31  33
HETATM   33  S2  UNL     1      65.701  57.242  44.474  1.00  0.00     0.209 S 
HETATM   34  O5  UNL     1      64.533  56.623  45.230  1.00  0.00    -0.578 OA
HETATM   35  O6  UNL     1      66.922  56.533  45.012  1.00  0.00    -0.578 OA
HETATM   36  O7  UNL     1      65.718  58.859  44.858  1.00  0.00    -0.578 OA
ENDBRANCH  31  33
ENDBRANCH  11  31
BRANCH   1  37
HETATM   37  N1  UNL     1      65.688  54.235  42.097  1.00  0.00    -0.362 N 
ATOM     38  H1  UNL     1      64.816  54.170  41.572  1.00  0.00     0.162 HD
BRANCH  37  39
HETATM   39  C2  UNL     1      65.807  53.400  43.260  1.00  0.00     0.213 C 
HETATM   40  C1  UNL     1      65.088  52.078  43.006  1.00  0.00     0.063 C 
BRANCH  39  41
HETATM   41  O1  UNL     1      65.284  54.026  44.405  1.00  0.00    -0.377 OA
ATOM     42  H1  UNL     1      64.335  54.003  44.388  1.00  0.00     0.212 HD
ENDBRANCH  39  41
ENDBRANCH  37  39
ENDBRANCH   1  37
TORSDOF 13
ENDMDL
MODEL 3
REMARK VINA RESULT: -7.846698083      3.099      5.949
REMARK  13 active torsions:
REMARK  status: ('A' for Active; 'I' for Inactive)
REMARK    1  A    between atoms: C2_2  and  O1_3 
REMARK    2  A    between atoms: C2_2  and  N1_5 
REMARK    3  A    between atoms: N1_5  and  C3_7 
REMARK    4  A    between atoms: C6_14  and  N4_15 
REMARK    5  A    between atoms: N4_15  and  C7_16 
REMARK    6  A    between atoms: N4_15  and  C9_23 
REMARK    7  A    between atoms: C7_16  and  S1_17 
REMARK    8  A    between atoms: S1_17  and  C8_18 
REMARK    9  A    between atoms: C9_23  and  C10_29 
REMARK   10  A    between atoms: N7_24  and  N8_26 
REMARK   11  A    between atoms: N10_32  and  O4_33 
REMARK   12  A    between atoms: C12_36  and  N11_37 
REMARK   13  A    between atoms: N11_37  and  S2_39 
ROOT
HETATM    1  C3  UNL     1      70.127  57.694  44.340  1.00  0.00     0.067 A 
HETATM    2  C4  UNL     1      69.168  56.748  44.599  1.00  0.00     0.108 A 
HETATM    3  C5  UNL     1      68.386  56.224  43.576  1.00  0.00     0.270 A 
HETATM    4  O2  UNL     1      67.531  55.370  43.856  1.00  0.00    -0.266 OA
HETATM    5  N2  UNL     1      68.579  56.659  42.309  1.00  0.00    -0.184 N 
HETATM    6  N3  UNL     1      67.944  56.294  41.232  1.00  0.00    -0.118 N 
ATOM      7  H3  UNL     1      67.192  55.607  41.174  1.00  0.00     0.206 HD
HETATM    8  C6  UNL     1      68.464  56.994  40.212  1.00  0.00     0.734 A 
HETATM    9  N10 UNL     1      69.425  57.784  40.707  1.00  0.00    -0.029 N 
HETATM   10  C11 UNL     1      69.522  57.591  42.043  1.00  0.00     0.206 A 
HETATM   11  C12 UNL     1      70.313  58.133  43.015  1.00  0.00     0.120 A 
ENDROOT
BRANCH   8  12
HETATM   12  N4  UNL     1      68.018  56.871  38.841  1.00  0.00    -0.126 N 
BRANCH  12  13
HETATM   13  C7  UNL     1      67.795  58.098  38.137  1.00  0.00     0.170 C 
BRANCH  13  14
HETATM   14  S1  UNL     1      68.385  58.200  36.466  1.00  0.00    -0.051 SA
BRANCH  14  15
HETATM   15  C8  UNL     1      70.158  58.093  36.314  1.00  0.00     0.153 C 
HETATM   16  N5  UNL     1      70.837  57.019  36.485  1.00  0.00    -0.382 N 
ATOM     17  H52 UNL     1      70.356  56.151  36.722  1.00  0.00     0.157 HD
ATOM     18  H51 UNL     1      71.851  56.958  36.397  1.00  0.00     0.157 HD
HETATM   19  N6  UNL     1      70.830  59.307  35.981  1.00  0.00    -0.075 NA
ENDBRANCH  14  15
ENDBRANCH  13  14
ENDBRANCH  12  13
BRANCH  12  20
HETATM   20  C9  UNL     1      67.811  55.564  38.362  1.00  0.00     0.208 C 
HETATM   21  N7  UNL     1      66.691  54.954  38.365  1.00  0.00    -0.287 N 
ATOM     22  H7  UNL     1      66.721  54.010  37.980  1.00  0.00     0.188 HD
BRANCH  21  23
HETATM   23  N8  UNL     1      65.467  55.351  38.794  1.00  0.00    -0.343 N 
ATOM     24  H82 UNL     1      65.339  55.248  39.801  1.00  0.00     0.176 HD
ATOM     25  H81 UNL     1      64.671  55.730  38.281  1.00  0.00     0.176 HD
ENDBRANCH  21  23
BRANCH  20  26
HETATM   26  C10 UNL     1      68.935  54.808  37.827  1.00  0.00     0.301 C 
HETATM   27  N9  UNL     1      70.070  54.396  38.551  1.00  0.00    -0.054 NA
HETATM   28  O3  UNL     1      68.957  54.451  36.589  1.00  0.00    -0.268 OA
ENDBRANCH  20  26
ENDBRANCH  12  20
ENDBRANCH   8  12
BRANCH   9  29
HETATM   29  O4  UNL     1      70.183  58.668  39.974  1.00  0.00    -0.268 OA
ATOM     30  H4  UNL     1      69.945  59.568  39.783  1.00  0.00     0.246 HD
ENDBRANCH   9  29
BRANCH  11  31
HETATM   31  N11 UNL     1      71.326  59.086  42.773  1.00  0.00    -0.260 N 
ATOM     32  H11 UNL     1      72.291  58.765  42.849  1.00  0.00     0.181 HD
BRANCH  31  33
HETATM   33  S2  UNL     1      71.083  60.729  42.364  1.00  0.00     0.209 S 
HETATM   34  O5  UNL     1      71.181  61.600  43.609  1.00  0.00    -0.578 OA
HETATM   35  O6  UNL     1      72.216  61.196  41.481  1.00  0.00    -0.578 OA
HETATM   36  O7  UNL     1      69.604  61.043  41.674  1.00  0.00    -0.578 OA
ENDBRANCH  31  33
ENDBRANCH  11  31
BRANCH   1  37
HETATM   37  N1  UNL     1      70.913  58.220  45.385  1.00  0.00    -0.362 N 
ATOM     38  H1  UNL     1      71.182  59.202  45.309  1.00  0.00     0.162 HD
BRANCH  37  39
HETATM   39  C2  UNL     1      71.374  57.513  46.548  1.00  0.00     0.213 C 
HETATM   40  C1  UNL     1      71.631  58.509  47.674  1.00  0.00     0.063 C 
BRANCH  39  41
HETATM   41  O1  UNL     1      72.539  56.772  46.278  1.00  0.00    -0.377 OA
ATOM     42  H1  UNL     1      73.292  57.348  46.232  1.00  0.00     0.212 HD
ENDBRANCH  39  41
ENDBRANCH  37  39
ENDBRANCH   1  37
TORSDOF 13
ENDMDL
MODEL 4
REMARK VINA RESULT: -7.784369213      2.719      6.940
REMARK  13 active torsions:
REMARK  status: ('A' for Active; 'I' for Inactive)
REMARK    1  A    between atoms: C2_2  and  O1_3 
REMARK    2  A    between atoms: C2_2  and  N1_5 
REMARK    3  A    between atoms: N1_5  and  C3_7 
REMARK    4  A    between atoms: C6_14  and  N4_15 
REMARK    5  A    between atoms: N4_15  and  C7_16 
REMARK    6  A    between atoms: N4_15  and  C9_23 
REMARK    7  A    between atoms: C7_16  and  S1_17 
REMARK    8  A    between atoms: S1_17  and  C8_18 
REMARK    9  A    between atoms: C9_23  and  C10_29 
REMARK   10  A    between atoms: N7_24  and  N8_26 
REMARK   11  A    between atoms: N10_32  and  O4_33 
REMARK   12  A    between atoms: C12_36  and  N11_37 
REMARK   13  A    between atoms: N11_37  and  S2_39 
ROOT
HETATM    1  C3  UNL     1      68.407  57.552  38.105  1.00  0.00     0.067 A 
HETATM    2  C4  UNL     1      68.412  56.182  38.029  1.00  0.00     0.108 A 
HETATM    3  C5  UNL     1      68.337  55.403  39.178  1.00  0.00     0.270 A 
HETATM    4  O2  UNL     1      68.343  54.168  39.063  1.00  0.00    -0.266 OA
HETATM    5  N2  UNL     1      68.260  56.012  40.384  1.00  0.00    -0.184 N 
HETATM    6  N3  UNL     1      68.192  55.454  41.560  1.00  0.00    -0.118 N 
ATOM      7  H3  UNL     1      68.180  54.453  41.757  1.00  0.00     0.206 HD
HETATM    8  C6  UNL     1      68.141  56.446  42.463  1.00  0.00     0.734 A 
HETATM    9  N10 UNL     1      68.180  57.607  41.798  1.00  0.00    -0.029 N 
HETATM   10  C11 UNL     1      68.254  57.362  40.469  1.00  0.00     0.206 A 
HETATM   11  C12 UNL     1      68.325  58.166  39.369  1.00  0.00     0.120 A 
ENDROOT
BRANCH   8  12
HETATM   12  N4  UNL     1      68.062  56.229  43.892  1.00  0.00    -0.126 N 
BRANCH  12  13
HETATM   13  C7  UNL     1      69.308  56.062  44.575  1.00  0.00     0.170 C 
BRANCH  13  14
HETATM   14  S1  UNL     1      70.259  57.524  44.908  1.00  0.00    -0.051 SA
BRANCH  14  15
HETATM   15  C8  UNL     1      71.969  57.205  45.298  1.00  0.00     0.153 C 
HETATM   16  N5  UNL     1      72.368  56.546  46.323  1.00  0.00    -0.382 N 
ATOM     17  H52 UNL     1      71.683  56.164  46.975  1.00  0.00     0.157 HD
ATOM     18  H51 UNL     1      73.346  56.364  46.547  1.00  0.00     0.157 HD
HETATM   19  N6  UNL     1      72.928  57.739  44.386  1.00  0.00    -0.075 NA
ENDBRANCH  14  15
ENDBRANCH  13  14
ENDBRANCH  12  13
BRANCH  12  20
HETATM   20  C9  UNL     1      66.769  56.164  44.447  1.00  0.00     0.208 C 
HETATM   21  N7  UNL     1      66.002  55.147  44.391  1.00  0.00    -0.287 N 
ATOM     22  H7  UNL     1      65.098  55.272  44.846  1.00  0.00     0.188 HD
BRANCH  21  23
HETATM   23  N8  UNL     1      66.187  53.927  43.827  1.00  0.00    -0.343 N 
ATOM     24  H82 UNL     1      67.055  53.854  43.296  1.00  0.00     0.176 HD
ATOM     25  H81 UNL     1      65.607  53.088  43.850  1.00  0.00     0.176 HD
ENDBRANCH  21  23
BRANCH  20  26
HETATM   26  C10 UNL     1      66.222  57.325  45.133  1.00  0.00     0.301 C 
HETATM   27  N9  UNL     1      65.865  58.546  44.530  1.00  0.00    -0.054 NA
HETATM   28  O3  UNL     1      66.021  57.302  46.406  1.00  0.00    -0.268 OA
ENDBRANCH  20  26
ENDBRANCH  12  20
ENDBRANCH   8  12
BRANCH   9  29
HETATM   29  O4  UNL     1      68.164  58.855  42.377  1.00  0.00    -0.268 OA
ATOM     30  H4  UNL     1      68.315  59.674  41.920  1.00  0.00     0.246 HD
ENDBRANCH   9  29
BRANCH  11  31
HETATM   31  N11 UNL     1      68.294  59.577  39.415  1.00  0.00    -0.260 N 
ATOM     32  H11 UNL     1      67.463  60.034  39.040  1.00  0.00     0.181 HD
BRANCH  31  33
HETATM   33  S2  UNL     1      69.522  60.589  40.041  1.00  0.00     0.209 S 
HETATM   34  O5  UNL     1      69.017  61.325  41.276  1.00  0.00    -0.578 OA
HETATM   35  O6  UNL     1      70.663  59.736  40.546  1.00  0.00    -0.578 OA
HETATM   36  O7  UNL     1      70.053  61.748  38.975  1.00  0.00    -0.578 OA
ENDBRANCH  31  33
ENDBRANCH  11  31
BRANCH   1  37
HETATM   37  N1  UNL     1      68.486  58.333  36.933  1.00  0.00    -0.362 N 
ATOM     38  H1  UNL     1      67.601  58.627  36.517  1.00  0.00     0.162 HD
BRANCH  37  39
HETATM   39  C2  UNL     1      69.686  58.754  36.265  1.00  0.00     0.213 C 
HETATM   40  C1  UNL     1      70.678  57.595  36.235  1.00  0.00     0.063 C 
BRANCH  39  41
HETATM   41  O1  UNL     1      70.263  59.873  36.890  1.00  0.00    -0.377 OA
ATOM     42  H1  UNL     1      70.662  59.621  37.715  1.00  0.00     0.212 HD
ENDBRANCH  39  41
ENDBRANCH  37  39
ENDBRANCH   1  37
TORSDOF 13
ENDMDL
MODEL 5
REMARK VINA RESULT: -7.754729557      2.856      6.137
REMARK  13 active torsions:
REMARK  status: ('A' for Active; 'I' for Inactive)
REMARK    1  A    between atoms: C2_2  and  O1_3 
REMARK    2  A    between atoms: C2_2  and  N1_5 
REMARK    3  A    between atoms: N1_5  and  C3_7 
REMARK    4  A    between atoms: C6_14  and  N4_15 
REMARK    5  A    between atoms: N4_15  and  C7_16 
REMARK    6  A    between atoms: N4_15  and  C9_23 
REMARK    7  A    between atoms: C7_16  and  S1_17 
REMARK    8  A    between atoms: S1_17  and  C8_18 
REMARK    9  A    between atoms: C9_23  and  C10_29 
REMARK   10  A    between atoms: N7_24  and  N8_26 
REMARK   11  A    between atoms: N10_32  and  O4_33 
REMARK   12  A    between atoms: C12_36  and  N11_37 
REMARK   13  A    between atoms: N11_37  and  S2_39 
ROOT
HETATM    1  C3  UNL     1      69.674  57.813  44.141  1.00  0.00     0.067 A 
HETATM    2  C4  UNL     1      68.659  56.957  44.488  1.00  0.00     0.108 A 
HETATM    3  C5  UNL     1      67.864  56.361  43.517  1.00  0.00     0.270 A 
HETATM    4  O2  UNL     1      66.958  55.593  43.876  1.00  0.00    -0.266 OA
HETATM    5  N2  UNL     1      68.098  56.634  42.213  1.00  0.00    -0.184 N 
HETATM    6  N3  UNL     1      67.458  56.183  41.172  1.00  0.00    -0.118 N 
ATOM      7  H3  UNL     1      66.670  55.535  41.178  1.00  0.00     0.206 HD
HETATM    8  C6  UNL     1      68.032  56.730  40.089  1.00  0.00     0.734 A 
HETATM    9  N10 UNL     1      69.029  57.518  40.509  1.00  0.00    -0.029 N 
HETATM   10  C11 UNL     1      69.096  57.477  41.860  1.00  0.00     0.206 A 
HETATM   11  C12 UNL     1      69.903  58.084  42.779  1.00  0.00     0.120 A 
ENDROOT
BRANCH   8  12
HETATM   12  N4  UNL     1      67.599  56.473  38.732  1.00  0.00    -0.126 N 
BRANCH  12  13
HETATM   13  C7  UNL     1      66.245  56.034  38.574  1.00  0.00     0.170 C 
BRANCH  13  14
HETATM   14  S1  UNL     1      65.973  54.296  38.339  1.00  0.00    -0.051 SA
BRANCH  14  15
HETATM   15  C8  UNL     1      67.134  53.255  39.204  1.00  0.00     0.153 C 
HETATM   16  N5  UNL     1      68.039  52.548  38.634  1.00  0.00    -0.382 N 
ATOM     17  H52 UNL     1      68.125  52.565  37.618  1.00  0.00     0.157 HD
ATOM     18  H51 UNL     1      68.702  51.953  39.129  1.00  0.00     0.157 HD
HETATM   19  N6  UNL     1      67.013  53.232  40.626  1.00  0.00    -0.075 NA
ENDBRANCH  14  15
ENDBRANCH  13  14
ENDBRANCH  12  13
BRANCH  12  20
HETATM   20  C9  UNL     1      68.564  56.641  37.722  1.00  0.00     0.208 C 
HETATM   21  N7  UNL     1      68.783  57.730  37.095  1.00  0.00    -0.287 N 
ATOM     22  H7  UNL     1      69.521  57.675  36.393  1.00  0.00     0.188 HD
BRANCH  21  23
HETATM   23  N8  UNL     1      68.199  58.950  37.207  1.00  0.00    -0.343 N 
ATOM     24  H82 UNL     1      67.562  59.165  36.440  1.00  0.00     0.176 HD
ATOM     25  H81 UNL     1      68.294  59.671  37.922  1.00  0.00     0.176 HD
ENDBRANCH  21  23
BRANCH  20  26
HETATM   26  C10 UNL     1      69.389  55.511  37.319  1.00  0.00     0.301 C 
HETATM   27  N9  UNL     1      70.264  54.790  38.155  1.00  0.00    -0.054 NA
HETATM   28  O3  UNL     1      69.366  55.079  36.105  1.00  0.00    -0.268 OA
ENDBRANCH  20  26
ENDBRANCH  12  20
ENDBRANCH   8  12
BRANCH   9  29
HETATM   29  O4  UNL     1      69.846  58.268  39.694  1.00  0.00    -0.268 OA
ATOM     30  H4  UNL     1      70.618  58.743  39.979  1.00  0.00     0.246 HD
ENDBRANCH   9  29
BRANCH  11  31
HETATM   31  N11 UNL     1      70.971  58.945  42.449  1.00  0.00    -0.260 N 
ATOM     32  H11 UNL     1      71.906  58.539  42.437  1.00  0.00     0.181 HD
BRANCH  31  33
HETATM   33  S2  UNL     1      70.840  60.607  42.068  1.00  0.00     0.209 S 
HETATM   34  O5  UNL     1      70.811  61.439  43.344  1.00  0.00    -0.578 OA
HETATM   35  O6  UNL     1      72.093  61.055  41.350  1.00  0.00    -0.578 OA
HETATM   36  O7  UNL     1      69.473  60.999  41.208  1.00  0.00    -0.578 OA
ENDBRANCH  31  33
ENDBRANCH  11  31
BRANCH   1  37
HETATM   37  N1  UNL     1      70.474  58.413  45.135  1.00  0.00    -0.362 N 
ATOM     38  H1  UNL     1      70.184  59.334  45.464  1.00  0.00     0.162 HD
BRANCH  37  39
HETATM   39  C2  UNL     1      71.657  57.857  45.731  1.00  0.00     0.213 C 
HETATM   40  C1  UNL     1      71.710  58.248  47.205  1.00  0.00     0.063 C 
BRANCH  39  41
HETATM   41  O1  UNL     1      72.823  58.288  45.072  1.00  0.00    -0.377 OA
ATOM     42  H1  UNL     1      72.629  58.500  44.167  1.00  0.00     0.212 HD
ENDBRANCH  39  41
ENDBRANCH  37  39
ENDBRANCH   1  37
TORSDOF 13
ENDMDL
