MODEL 1
REMARK VINA RESULT: -8.010560799      0.000      0.000
REMARK  14 active torsions:
REMARK  status: ('A' for Active; 'I' for Inactive)
REMARK    1  A    between atoms: C5_9  and  N4_10 
REMARK    2  A    between atoms: C9_19  and  C10_20 
REMARK    3  A    between atoms: C10_20  and  O1_21 
REMARK    4  A    between atoms: C10_20  and  N7_23 
REMARK    5  A    between atoms: N7_23  and  N8_24 
REMARK    6  A    between atoms: N8_24  and  C11_26 
REMARK    7  A    between atoms: C11_26  and  C12_27 
REMARK    8  A    between atoms: C12_27  and  O2_28 
REMARK    9  A    between atoms: C12_27  and  C13_30 
REMARK   10  A    between atoms: C13_30  and  O3_31 
REMARK   11  A    between atoms: C13_30  and  C14_33 
REMARK   12  A    between atoms: C14_33  and  N9_34 
REMARK   13  A    between atoms: C14_33  and  C15_38 
REMARK   14  A    between atoms: C17_41  and  N10_42 
ROOT
HETATM    1  C10 UNL     1      70.672  57.668  44.215  1.00  0.00     0.267 C 
ENDROOT
BRANCH   1   2
HETATM    2  C9  UNL     1      69.349  57.116  44.185  1.00  0.00     0.133 A 
HETATM    3  C8  UNL     1      68.999  55.997  43.402  1.00  0.00     0.151 A 
HETATM    4  N6  UNL     1      67.692  55.726  43.620  1.00  0.00    -0.150 N 
HETATM    5  C7  UNL     1      66.901  54.683  43.023  1.00  0.00     0.233 C 
HETATM    6  C18 UNL     1      67.197  56.620  44.498  1.00  0.00     0.691 A 
HETATM    7  N3  UNL     1      65.599  54.523  43.578  1.00  0.00    -0.125 N 
HETATM    8  C4  UNL     1      65.066  55.370  44.442  1.00  0.00     0.175 A 
HETATM    9  C5  UNL     1      64.916  53.384  43.156  1.00  0.00     0.686 A 
HETATM   10  C3  UNL     1      63.786  55.132  44.956  1.00  0.00     0.124 A 
HETATM   11  N13 UNL     1      65.854  56.433  44.917  1.00  0.00    -0.172 N 
HETATM   12  N2  UNL     1      63.017  55.763  45.816  1.00  0.00    -0.346 N 
HETATM   13  C6  UNL     1      63.116  54.003  44.542  1.00  0.00     0.154 A 
HETATM   14  C2  UNL     1      61.857  55.102  45.992  1.00  0.00     0.184 A 
ATOM     15  H2  UNL     1      63.265  56.634  46.286  1.00  0.00     0.167 HD
HETATM   16  N1  UNL     1      61.935  54.010  45.197  1.00  0.00    -0.331 N 
HETATM   17  C1  UNL     1      60.955  52.948  45.081  1.00  0.00     0.158 C 
HETATM   18  N5  UNL     1      63.693  53.161  43.659  1.00  0.00    -0.174 N 
ATOM     19  H5  UNL     1      63.182  52.330  43.364  1.00  0.00     0.186 HD
ATOM     20  H13 UNL     1      65.449  57.090  45.583  1.00  0.00     0.186 HD
HETATM   21  N12 UNL     1      68.213  57.452  44.828  1.00  0.00    -0.184 N 
ATOM     22  H12 UNL     1      68.129  58.232  45.479  1.00  0.00     0.184 HD
BRANCH   9  23
HETATM   23  N4  UNL     1      65.485  52.672  42.317  1.00  0.00    -0.234 N 
ATOM     24  H42 UNL     1      65.690  52.944  41.355  1.00  0.00     0.174 HD
ATOM     25  H41 UNL     1      65.792  51.750  42.629  1.00  0.00     0.174 HD
ENDBRANCH   9  23
ENDBRANCH   1   2
BRANCH   1  26
HETATM   26  O1  UNL     1      71.464  56.789  44.916  1.00  0.00    -0.332 OA
ATOM     27  H1  UNL     1      72.251  57.258  45.166  1.00  0.00     0.220 HD
ENDBRANCH   1  26
BRANCH   1  28
HETATM   28  N7  UNL     1      71.282  58.821  43.758  1.00  0.00    -0.302 NA
BRANCH  28  29
HETATM   29  N8  UNL     1      71.828  59.849  43.350  1.00  0.00    -0.267 N 
ATOM     30  H8  UNL     1      72.841  59.840  43.230  1.00  0.00     0.195 HD
BRANCH  29  31
HETATM   31  C11 UNL     1      71.103  61.083  43.025  1.00  0.00     0.188 C 
BRANCH  31  32
HETATM   32  C12 UNL     1      69.854  60.700  42.229  1.00  0.00     0.169 C 
BRANCH  32  33
HETATM   33  O2  UNL     1      69.003  61.832  42.353  1.00  0.00    -0.391 OA
ATOM     34  H2  UNL     1      69.135  62.310  41.543  1.00  0.00     0.210 HD
ENDBRANCH  32  33
BRANCH  32  35
HETATM   35  C13 UNL     1      70.089  60.392  40.783  1.00  0.00     0.185 C 
BRANCH  35  36
HETATM   36  O3  UNL     1      71.348  60.643  40.340  1.00  0.00    -0.390 OA
ATOM     37  H3  UNL     1      71.463  60.579  39.399  1.00  0.00     0.210 HD
ENDBRANCH  35  36
BRANCH  35  38
HETATM   38  C14 UNL     1      69.497  59.079  40.424  1.00  0.00     0.264 C 
BRANCH  38  39
HETATM   39  N9  UNL     1      68.297  58.833  41.132  1.00  0.00    -0.067 N 
ATOM     40  H93 UNL     1      68.484  58.451  42.059  1.00  0.00     0.275 HD
ATOM     41  H92 UNL     1      67.842  59.704  41.407  1.00  0.00     0.275 HD
ATOM     42  H91 UNL     1      67.663  58.234  40.603  1.00  0.00     0.275 HD
ENDBRANCH  38  39
BRANCH  38  43
HETATM   43  C15 UNL     1      69.297  58.880  38.913  1.00  0.00     0.051 A 
HETATM   44  C16 UNL     1      68.133  58.352  38.469  1.00  0.00     0.080 A 
HETATM   45  S1  UNL     1      68.411  58.285  36.752  1.00  0.00    -0.064 SA
HETATM   46  C17 UNL     1      69.999  58.944  36.759  1.00  0.00     0.142 A 
HETATM   47  N11 UNL     1      70.247  59.178  38.043  1.00  0.00    -0.338 N 
ATOM     48  H11 UNL     1      71.136  59.574  38.347  1.00  0.00     0.168 HD
BRANCH  46  49
HETATM   49  N10 UNL     1      70.737  59.168  35.677  1.00  0.00    -0.380 N 
ATOM     50 2H10 UNL     1      70.770  58.683  34.781  1.00  0.00     0.158 HD
ATOM     51 1H10 UNL     1      71.444  59.898  35.591  1.00  0.00     0.158 HD
ENDBRANCH  46  49
ENDBRANCH  38  43
ENDBRANCH  35  38
ENDBRANCH  32  35
ENDBRANCH  31  32
ENDBRANCH  29  31
ENDBRANCH  28  29
ENDBRANCH   1  28
TORSDOF 14
ENDMDL
MODEL 2
REMARK VINA RESULT: -7.808309820      4.891      8.092
REMARK  14 active torsions:
REMARK  status: ('A' for Active; 'I' for Inactive)
REMARK    1  A    between atoms: C5_9  and  N4_10 
REMARK    2  A    between atoms: C9_19  and  C10_20 
REMARK    3  A    between atoms: C10_20  and  O1_21 
REMARK    4  A    between atoms: C10_20  and  N7_23 
REMARK    5  A    between atoms: N7_23  and  N8_24 
REMARK    6  A    between atoms: N8_24  and  C11_26 
REMARK    7  A    between atoms: C11_26  and  C12_27 
REMARK    8  A    between atoms: C12_27  and  O2_28 
REMARK    9  A    between atoms: C12_27  and  C13_30 
REMARK   10  A    between atoms: C13_30  and  O3_31 
REMARK   11  A    between atoms: C13_30  and  C14_33 
REMARK   12  A    between atoms: C14_33  and  N9_34 
REMARK   13  A    between atoms: C14_33  and  C15_38 
REMARK   14  A    between atoms: C17_41  and  N10_42 
ROOT
HETATM    1  C10 UNL     1      70.181  58.762  36.725  1.00  0.00     0.267 C 
ENDROOT
BRANCH   1   2
HETATM    2  C9  UNL     1      70.074  57.333  36.684  1.00  0.00     0.133 A 
HETATM    3  C8  UNL     1      70.913  56.520  35.894  1.00  0.00     0.151 A 
HETATM    4  N6  UNL     1      70.562  55.230  36.102  1.00  0.00    -0.150 N 
HETATM    5  C7  UNL     1      71.133  54.057  35.496  1.00  0.00     0.233 C 
HETATM    6  C18 UNL     1      69.541  55.188  36.980  1.00  0.00     0.691 A 
HETATM    7  N3  UNL     1      70.686  52.820  36.041  1.00  0.00    -0.125 N 
HETATM    8  C4  UNL     1      69.689  52.722  36.905  1.00  0.00     0.175 A 
HETATM    9  C5  UNL     1      71.392  51.698  35.611  1.00  0.00     0.686 A 
HETATM   10  C3  UNL     1      69.321  51.469  37.409  1.00  0.00     0.124 A 
HETATM   11  N13 UNL     1      69.099  53.902  37.389  1.00  0.00    -0.172 N 
HETATM   12  N2  UNL     1      68.410  51.063  38.265  1.00  0.00    -0.346 N 
HETATM   13  C6  UNL     1      70.023  50.363  36.985  1.00  0.00     0.154 A 
HETATM   14  C2  UNL     1      68.473  49.728  38.430  1.00  0.00     0.184 A 
ATOM     15  H2  UNL     1      67.747  51.675  38.740  1.00  0.00     0.167 HD
HETATM   16  N1  UNL     1      69.482  49.309  37.632  1.00  0.00    -0.331 N 
HETATM   17  C1  UNL     1      69.985  47.955  37.506  1.00  0.00     0.158 C 
HETATM   18  N5  UNL     1      71.036  50.503  36.104  1.00  0.00    -0.174 N 
ATOM     19  H5  UNL     1      71.545  49.673  35.802  1.00  0.00     0.186 HD
ATOM     20  H13 UNL     1      68.329  53.833  38.054  1.00  0.00     0.186 HD
HETATM   21  N12 UNL     1      69.260  56.467  37.320  1.00  0.00    -0.184 N 
ATOM     22  H12 UNL     1      68.526  56.741  37.973  1.00  0.00     0.184 HD
BRANCH   9  23
HETATM   23  N4  UNL     1      72.284  51.889  34.772  1.00  0.00    -0.234 N 
ATOM     24  H42 UNL     1      72.254  52.587  34.029  1.00  0.00     0.174 HD
ATOM     25  H41 UNL     1      73.123  51.315  34.857  1.00  0.00     0.174 HD
ENDBRANCH   9  23
ENDBRANCH   1   2
BRANCH   1  26
HETATM   26  O1  UNL     1      70.614  59.173  35.486  1.00  0.00    -0.332 OA
ATOM     27  H1  UNL     1      71.384  59.712  35.622  1.00  0.00     0.220 HD
ENDBRANCH   1  26
BRANCH   1  28
HETATM   28  N7  UNL     1      69.993  59.750  37.674  1.00  0.00    -0.302 NA
BRANCH  28  29
HETATM   29  N8  UNL     1      69.824  60.631  38.520  1.00  0.00    -0.267 N 
ATOM     30  H8  UNL     1      68.870  60.937  38.711  1.00  0.00     0.195 HD
BRANCH  29  31
HETATM   31  C11 UNL     1      70.917  61.264  39.268  1.00  0.00     0.188 C 
BRANCH  31  32
HETATM   32  C12 UNL     1      71.157  60.443  40.535  1.00  0.00     0.169 C 
BRANCH  32  33
HETATM   33  O2  UNL     1      72.300  61.044  41.127  1.00  0.00    -0.391 OA
ATOM     34  H2  UNL     1      72.442  60.542  41.921  1.00  0.00     0.210 HD
ENDBRANCH  32  33
BRANCH  32  35
HETATM   35  C13 UNL     1      70.022  60.430  41.511  1.00  0.00     0.185 C 
BRANCH  35  36
HETATM   36  O3  UNL     1      69.115  61.427  41.350  1.00  0.00    -0.390 OA
ATOM     37  H3  UNL     1      68.587  61.618  42.117  1.00  0.00     0.210 HD
ENDBRANCH  35  36
BRANCH  35  38
HETATM   38  C14 UNL     1      69.489  59.054  41.677  1.00  0.00     0.264 C 
BRANCH  38  39
HETATM   39  N9  UNL     1      69.742  58.253  40.539  1.00  0.00    -0.067 N 
ATOM     40  H93 UNL     1      70.148  58.802  39.781  1.00  0.00     0.275 HD
ATOM     41  H92 UNL     1      70.516  57.609  40.703  1.00  0.00     0.275 HD
ATOM     42  H91 UNL     1      68.904  57.757  40.232  1.00  0.00     0.275 HD
ENDBRANCH  38  39
BRANCH  38  43
HETATM   43  C15 UNL     1      69.964  58.354  42.961  1.00  0.00     0.051 A 
HETATM   44  C16 UNL     1      69.589  57.074  43.188  1.00  0.00     0.080 A 
HETATM   45  S1  UNL     1      70.314  56.766  44.740  1.00  0.00    -0.064 SA
HETATM   46  C17 UNL     1      71.037  58.312  44.957  1.00  0.00     0.142 A 
HETATM   47  N11 UNL     1      70.698  58.984  43.863  1.00  0.00    -0.338 N 
ATOM     48  H11 UNL     1      70.993  59.950  43.723  1.00  0.00     0.168 HD
BRANCH  46  49
HETATM   49  N10 UNL     1      71.780  58.666  46.000  1.00  0.00    -0.380 N 
ATOM     50 2H10 UNL     1      72.396  58.116  46.598  1.00  0.00     0.158 HD
ATOM     51 1H10 UNL     1      71.825  59.606  46.395  1.00  0.00     0.158 HD
ENDBRANCH  46  49
ENDBRANCH  38  43
ENDBRANCH  35  38
ENDBRANCH  32  35
ENDBRANCH  31  32
ENDBRANCH  29  31
ENDBRANCH  28  29
ENDBRANCH   1  28
TORSDOF 14
ENDMDL
MODEL 3
REMARK VINA RESULT: -7.792246015      1.684      2.202
REMARK  14 active torsions:
REMARK  status: ('A' for Active; 'I' for Inactive)
REMARK    1  A    between atoms: C5_9  and  N4_10 
REMARK    2  A    between atoms: C9_19  and  C10_20 
REMARK    3  A    between atoms: C10_20  and  O1_21 
REMARK    4  A    between atoms: C10_20  and  N7_23 
REMARK    5  A    between atoms: N7_23  and  N8_24 
REMARK    6  A    between atoms: N8_24  and  C11_26 
REMARK    7  A    between atoms: C11_26  and  C12_27 
REMARK    8  A    between atoms: C12_27  and  O2_28 
REMARK    9  A    between atoms: C12_27  and  C13_30 
REMARK   10  A    between atoms: C13_30  and  O3_31 
REMARK   11  A    between atoms: C13_30  and  C14_33 
REMARK   12  A    between atoms: C14_33  and  N9_34 
REMARK   13  A    between atoms: C14_33  and  C15_38 
REMARK   14  A    between atoms: C17_41  and  N10_42 
ROOT
HETATM    1  C10 UNL     1      70.425  58.014  44.419  1.00  0.00     0.267 C 
ENDROOT
BRANCH   1   2
HETATM    2  C9  UNL     1      69.431  57.087  43.964  1.00  0.00     0.133 A 
HETATM    3  C8  UNL     1      69.432  56.531  42.668  1.00  0.00     0.151 A 
HETATM    4  N6  UNL     1      68.379  55.688  42.574  1.00  0.00    -0.150 N 
HETATM    5  C7  UNL     1      67.977  54.912  41.432  1.00  0.00     0.233 C 
HETATM    6  C18 UNL     1      67.710  55.686  43.744  1.00  0.00     0.691 A 
HETATM    7  N3  UNL     1      66.934  53.973  41.679  1.00  0.00    -0.125 N 
HETATM    8  C4  UNL     1      66.247  53.928  42.808  1.00  0.00     0.175 A 
HETATM    9  C5  UNL     1      66.693  53.075  40.641  1.00  0.00     0.686 A 
HETATM   10  C3  UNL     1      65.249  52.962  42.981  1.00  0.00     0.124 A 
HETATM   11  N13 UNL     1      66.621  54.783  43.859  1.00  0.00    -0.172 N 
HETATM   12  N2  UNL     1      64.430  52.663  43.964  1.00  0.00    -0.346 N 
HETATM   13  C6  UNL     1      65.016  52.073  41.955  1.00  0.00     0.154 A 
HETATM   14  C2  UNL     1      63.655  51.611  43.637  1.00  0.00     0.184 A 
ATOM     15  H2  UNL     1      64.386  53.160  44.854  1.00  0.00     0.167 HD
HETATM   16  N1  UNL     1      64.034  51.254  42.388  1.00  0.00    -0.331 N 
HETATM   17  C1  UNL     1      63.537  50.131  41.618  1.00  0.00     0.158 C 
HETATM   18  N5  UNL     1      65.739  52.149  40.818  1.00  0.00    -0.174 N 
ATOM     19  H5  UNL     1      65.553  51.482  40.070  1.00  0.00     0.186 HD
ATOM     20  H13 UNL     1      66.094  54.753  44.732  1.00  0.00     0.186 HD
HETATM   21  N12 UNL     1      68.360  56.537  44.571  1.00  0.00    -0.184 N 
ATOM     22  H12 UNL     1      68.076  56.737  45.530  1.00  0.00     0.184 HD
BRANCH   9  23
HETATM   23  N4  UNL     1      67.364  53.222  39.609  1.00  0.00    -0.234 N 
ATOM     24  H42 UNL     1      67.929  54.041  39.386  1.00  0.00     0.174 HD
ATOM     25  H41 UNL     1      67.366  52.445  38.949  1.00  0.00     0.174 HD
ENDBRANCH   9  23
ENDBRANCH   1   2
BRANCH   1  26
HETATM   26  O1  UNL     1      70.717  57.690  45.724  1.00  0.00    -0.332 OA
ATOM     27  H1  UNL     1      71.303  58.360  46.055  1.00  0.00     0.220 HD
ENDBRANCH   1  26
BRANCH   1  28
HETATM   28  N7  UNL     1      71.088  59.106  43.890  1.00  0.00    -0.302 NA
BRANCH  28  29
HETATM   29  N8  UNL     1      71.681  60.079  43.419  1.00  0.00    -0.267 N 
ATOM     30  H8  UNL     1      72.699  60.044  43.367  1.00  0.00     0.195 HD
BRANCH  29  31
HETATM   31  C11 UNL     1      71.005  61.287  42.929  1.00  0.00     0.188 C 
BRANCH  31  32
HETATM   32  C12 UNL     1      69.748  60.849  42.174  1.00  0.00     0.169 C 
BRANCH  32  33
HETATM   33  O2  UNL     1      68.870  61.960  42.288  1.00  0.00    -0.391 OA
ATOM     34  H2  UNL     1      69.203  62.443  43.035  1.00  0.00     0.210 HD
ENDBRANCH  32  33
BRANCH  32  35
HETATM   35  C13 UNL     1      69.957  60.508  40.732  1.00  0.00     0.185 C 
BRANCH  35  36
HETATM   36  O3  UNL     1      71.237  60.629  40.293  1.00  0.00    -0.390 OA
ATOM     37  H3  UNL     1      71.894  60.237  40.856  1.00  0.00     0.210 HD
ENDBRANCH  35  36
BRANCH  35  38
HETATM   38  C14 UNL     1      69.240  59.256  40.380  1.00  0.00     0.264 C 
BRANCH  38  39
HETATM   39  N9  UNL     1      67.952  59.209  40.963  1.00  0.00    -0.067 N 
ATOM     40  H93 UNL     1      67.742  60.068  41.471  1.00  0.00     0.275 HD
ATOM     41  H92 UNL     1      67.221  59.261  40.253  1.00  0.00     0.275 HD
ATOM     42  H91 UNL     1      67.836  58.387  41.556  1.00  0.00     0.275 HD
ENDBRANCH  38  39
BRANCH  38  43
HETATM   43  C15 UNL     1      69.172  58.984  38.868  1.00  0.00     0.051 A 
HETATM   44  C16 UNL     1      68.064  58.401  38.356  1.00  0.00     0.080 A 
HETATM   45  S1  UNL     1      68.485  58.266  36.673  1.00  0.00    -0.064 SA
HETATM   46  C17 UNL     1      70.049  58.974  36.779  1.00  0.00     0.142 A 
HETATM   47  N11 UNL     1      70.182  59.272  38.066  1.00  0.00    -0.338 N 
ATOM     48  H11 UNL     1      71.032  59.709  38.422  1.00  0.00     0.168 HD
BRANCH  46  49
HETATM   49  N10 UNL     1      70.868  59.172  35.751  1.00  0.00    -0.380 N 
ATOM     50 2H10 UNL     1      70.764  59.751  34.917  1.00  0.00     0.158 HD
ATOM     51 1H10 UNL     1      71.774  58.721  35.629  1.00  0.00     0.158 HD
ENDBRANCH  46  49
ENDBRANCH  38  43
ENDBRANCH  35  38
ENDBRANCH  32  35
ENDBRANCH  31  32
ENDBRANCH  29  31
ENDBRANCH  28  29
ENDBRANCH   1  28
TORSDOF 14
ENDMDL
MODEL 4
REMARK VINA RESULT: -7.780669324      5.517      8.256
REMARK  14 active torsions:
REMARK  status: ('A' for Active; 'I' for Inactive)
REMARK    1  A    between atoms: C5_9  and  N4_10 
REMARK    2  A    between atoms: C9_19  and  C10_20 
REMARK    3  A    between atoms: C10_20  and  O1_21 
REMARK    4  A    between atoms: C10_20  and  N7_23 
REMARK    5  A    between atoms: N7_23  and  N8_24 
REMARK    6  A    between atoms: N8_24  and  C11_26 
REMARK    7  A    between atoms: C11_26  and  C12_27 
REMARK    8  A    between atoms: C12_27  and  O2_28 
REMARK    9  A    between atoms: C12_27  and  C13_30 
REMARK   10  A    between atoms: C13_30  and  O3_31 
REMARK   11  A    between atoms: C13_30  and  C14_33 
REMARK   12  A    between atoms: C14_33  and  N9_34 
REMARK   13  A    between atoms: C14_33  and  C15_38 
REMARK   14  A    between atoms: C17_41  and  N10_42 
ROOT
HETATM    1  C10 UNL     1      69.915  58.971  36.955  1.00  0.00     0.267 C 
ENDROOT
BRANCH   1   2
HETATM    2  C9  UNL     1      69.884  57.543  36.834  1.00  0.00     0.133 A 
HETATM    3  C8  UNL     1      70.760  56.822  35.996  1.00  0.00     0.151 A 
HETATM    4  N6  UNL     1      70.480  55.506  36.132  1.00  0.00    -0.150 N 
HETATM    5  C7  UNL     1      71.109  54.401  35.458  1.00  0.00     0.233 C 
HETATM    6  C18 UNL     1      69.469  55.359  37.011  1.00  0.00     0.691 A 
HETATM    7  N3  UNL     1      70.732  53.113  35.934  1.00  0.00    -0.125 N 
HETATM    8  C4  UNL     1      69.749  52.913  36.796  1.00  0.00     0.175 A 
HETATM    9  C5  UNL     1      71.495  52.057  35.439  1.00  0.00     0.686 A 
HETATM   10  C3  UNL     1      69.452  51.616  37.230  1.00  0.00     0.124 A 
HETATM   11  N13 UNL     1      69.100  54.031  37.348  1.00  0.00    -0.172 N 
HETATM   12  N2  UNL     1      68.571  51.113  38.066  1.00  0.00    -0.346 N 
HETATM   13  C6  UNL     1      70.210  50.575  36.742  1.00  0.00     0.154 A 
HETATM   14  C2  UNL     1      68.707  49.776  38.155  1.00  0.00     0.184 A 
ATOM     15  H2  UNL     1      67.879  51.661  38.577  1.00  0.00     0.167 HD
HETATM   16  N1  UNL     1      69.731  49.458  37.330  1.00  0.00    -0.331 N 
HETATM   17  C1  UNL     1      70.304  48.142  37.126  1.00  0.00     0.158 C 
HETATM   18  N5  UNL     1      71.207  50.818  35.865  1.00  0.00    -0.174 N 
ATOM     19  H5  UNL     1      71.758  50.035  35.515  1.00  0.00     0.186 HD
ATOM     20  H13 UNL     1      68.340  53.883  38.012  1.00  0.00     0.186 HD
HETATM   21  N12 UNL     1      69.122  56.600  37.423  1.00  0.00    -0.184 N 
ATOM     22  H12 UNL     1      68.380  56.797  38.094  1.00  0.00     0.184 HD
BRANCH   9  23
HETATM   23  N4  UNL     1      72.369  52.342  34.609  1.00  0.00    -0.234 N 
ATOM     24  H42 UNL     1      72.198  52.740  33.685  1.00  0.00     0.174 HD
ATOM     25  H41 UNL     1      73.337  52.188  34.891  1.00  0.00     0.174 HD
ENDBRANCH   9  23
ENDBRANCH   1   2
BRANCH   1  26
HETATM   26  O1  UNL     1      69.481  59.491  35.758  1.00  0.00    -0.332 OA
ATOM     27  H1  UNL     1      70.225  59.496  35.167  1.00  0.00     0.220 HD
ENDBRANCH   1  26
BRANCH   1  28
HETATM   28  N7  UNL     1      70.288  59.882  37.925  1.00  0.00    -0.302 NA
BRANCH  28  29
HETATM   29  N8  UNL     1      70.620  60.694  38.792  1.00  0.00    -0.267 N 
ATOM     30  H8  UNL     1      71.508  61.184  38.676  1.00  0.00     0.195 HD
BRANCH  29  31
HETATM   31  C11 UNL     1      69.813  60.998  39.979  1.00  0.00     0.188 C 
BRANCH  31  32
HETATM   32  C12 UNL     1      70.259  60.062  41.104  1.00  0.00     0.169 C 
BRANCH  32  33
HETATM   33  O2  UNL     1      70.145  58.763  40.540  1.00  0.00    -0.391 OA
ATOM     34  H2  UNL     1      70.594  58.201  41.160  1.00  0.00     0.210 HD
ENDBRANCH  32  33
BRANCH  32  35
HETATM   35  C13 UNL     1      71.654  60.283  41.601  1.00  0.00     0.185 C 
BRANCH  35  36
HETATM   36  O3  UNL     1      72.368  61.211  40.913  1.00  0.00    -0.390 OA
ATOM     37  H3  UNL     1      73.311  61.143  41.007  1.00  0.00     0.210 HD
ENDBRANCH  35  36
BRANCH  35  38
HETATM   38  C14 UNL     1      71.673  60.380  43.082  1.00  0.00     0.264 C 
BRANCH  38  39
HETATM   39  N9  UNL     1      70.718  61.308  43.560  1.00  0.00    -0.067 N 
ATOM     40  H93 UNL     1      69.891  61.330  42.963  1.00  0.00     0.275 HD
ATOM     41  H92 UNL     1      70.283  60.983  44.423  1.00  0.00     0.275 HD
ATOM     42  H91 UNL     1      71.120  62.239  43.674  1.00  0.00     0.275 HD
ENDBRANCH  38  39
BRANCH  38  43
HETATM   43  C15 UNL     1      71.531  59.025  43.795  1.00  0.00     0.051 A 
HETATM   44  C16 UNL     1      70.307  58.454  43.880  1.00  0.00     0.080 A 
HETATM   45  S1  UNL     1      70.655  57.013  44.791  1.00  0.00    -0.064 SA
HETATM   46  C17 UNL     1      72.345  57.274  44.980  1.00  0.00     0.142 A 
HETATM   47  N11 UNL     1      72.566  58.426  44.357  1.00  0.00    -0.338 N 
ATOM     48  H11 UNL     1      73.500  58.833  44.314  1.00  0.00     0.168 HD
BRANCH  46  49
HETATM   49  N10 UNL     1      73.180  56.444  45.596  1.00  0.00    -0.380 N 
ATOM     50 2H10 UNL     1      73.000  55.631  46.185  1.00  0.00     0.158 HD
ATOM     51 1H10 UNL     1      74.197  56.523  45.587  1.00  0.00     0.158 HD
ENDBRANCH  46  49
ENDBRANCH  38  43
ENDBRANCH  35  38
ENDBRANCH  32  35
ENDBRANCH  31  32
ENDBRANCH  29  31
ENDBRANCH  28  29
ENDBRANCH   1  28
TORSDOF 14
ENDMDL
MODEL 5
REMARK VINA RESULT: -7.677178540      4.414      7.609
REMARK  14 active torsions:
REMARK  status: ('A' for Active; 'I' for Inactive)
REMARK    1  A    between atoms: C5_9  and  N4_10 
REMARK    2  A    between atoms: C9_19  and  C10_20 
REMARK    3  A    between atoms: C10_20  and  O1_21 
REMARK    4  A    between atoms: C10_20  and  N7_23 
REMARK    5  A    between atoms: N7_23  and  N8_24 
REMARK    6  A    between atoms: N8_24  and  C11_26 
REMARK    7  A    between atoms: C11_26  and  C12_27 
REMARK    8  A    between atoms: C12_27  and  O2_28 
REMARK    9  A    between atoms: C12_27  and  C13_30 
REMARK   10  A    between atoms: C13_30  and  O3_31 
REMARK   11  A    between atoms: C13_30  and  C14_33 
REMARK   12  A    between atoms: C14_33  and  N9_34 
REMARK   13  A    between atoms: C14_33  and  C15_38 
REMARK   14  A    between atoms: C17_41  and  N10_42 
ROOT
HETATM    1  C10 UNL     1      69.987  59.178  37.086  1.00  0.00     0.267 C 
ENDROOT
BRANCH   1   2
HETATM    2  C9  UNL     1      69.836  57.754  37.023  1.00  0.00     0.133 A 
HETATM    3  C8  UNL     1      70.590  56.938  36.155  1.00  0.00     0.151 A 
HETATM    4  N6  UNL     1      70.219  55.653  36.361  1.00  0.00    -0.150 N 
HETATM    5  C7  UNL     1      70.709  54.480  35.689  1.00  0.00     0.233 C 
HETATM    6  C18 UNL     1      69.265  55.618  37.313  1.00  0.00     0.691 A 
HETATM    7  N3  UNL     1      70.268  53.242  36.240  1.00  0.00    -0.125 N 
HETATM    8  C4  UNL     1      69.337  53.152  37.175  1.00  0.00     0.175 A 
HETATM    9  C5  UNL     1      70.908  52.113  35.734  1.00  0.00     0.686 A 
HETATM   10  C3  UNL     1      68.973  51.898  37.679  1.00  0.00     0.124 A 
HETATM   11  N13 UNL     1      68.819  54.336  37.727  1.00  0.00    -0.172 N 
HETATM   12  N2  UNL     1      68.118  51.496  38.594  1.00  0.00    -0.346 N 
HETATM   13  C6  UNL     1      69.610  50.783  37.180  1.00  0.00     0.154 A 
HETATM   14  C2  UNL     1      68.156  50.156  38.726  1.00  0.00     0.184 A 
ATOM     15  H2  UNL     1      67.510  52.114  39.130  1.00  0.00     0.167 HD
HETATM   16  N1  UNL     1      69.089  49.729  37.844  1.00  0.00    -0.331 N 
HETATM   17  C1  UNL     1      69.542  48.365  37.652  1.00  0.00     0.158 C 
HETATM   18  N5  UNL     1      70.556  50.916  36.227  1.00  0.00    -0.174 N 
ATOM     19  H5  UNL     1      71.018  50.080  35.870  1.00  0.00     0.186 HD
ATOM     20  H13 UNL     1      68.101  54.272  38.448  1.00  0.00     0.186 HD
HETATM   21  N12 UNL     1      69.047  56.896  37.700  1.00  0.00    -0.184 N 
ATOM     22  H12 UNL     1      68.374  57.174  38.413  1.00  0.00     0.184 HD
BRANCH   9  23
HETATM   23  N4  UNL     1      71.739  52.299  34.834  1.00  0.00    -0.234 N 
ATOM     24  H42 UNL     1      71.662  52.998  34.096  1.00  0.00     0.174 HD
ATOM     25  H41 UNL     1      72.578  51.718  34.857  1.00  0.00     0.174 HD
ENDBRANCH   9  23
ENDBRANCH   1   2
BRANCH   1  26
HETATM   26  O1  UNL     1      69.791  59.665  35.814  1.00  0.00    -0.332 OA
ATOM     27  H1  UNL     1      68.949  60.105  35.808  1.00  0.00     0.220 HD
ENDBRANCH   1  26
BRANCH   1  28
HETATM   28  N7  UNL     1      70.296  60.107  38.062  1.00  0.00    -0.302 NA
BRANCH  28  29
HETATM   29  N8  UNL     1      70.570  60.935  38.934  1.00  0.00    -0.267 N 
ATOM     30  H8  UNL     1      71.137  61.741  38.670  1.00  0.00     0.195 HD
BRANCH  29  31
HETATM   31  C11 UNL     1      70.128  60.828  40.329  1.00  0.00     0.188 C 
BRANCH  31  32
HETATM   32  C12 UNL     1      71.322  60.363  41.166  1.00  0.00     0.169 C 
BRANCH  32  33
HETATM   33  O2  UNL     1      72.374  61.239  40.785  1.00  0.00    -0.391 OA
ATOM     34  H2  UNL     1      72.130  62.074  41.165  1.00  0.00     0.210 HD
ENDBRANCH  32  33
BRANCH  32  35
HETATM   35  C13 UNL     1      71.121  60.419  42.649  1.00  0.00     0.185 C 
BRANCH  35  36
HETATM   36  O3  UNL     1      70.157  61.281  43.066  1.00  0.00    -0.390 OA
ATOM     37  H3  UNL     1      69.409  60.874  43.487  1.00  0.00     0.210 HD
ENDBRANCH  35  36
BRANCH  35  38
HETATM   38  C14 UNL     1      71.097  59.052  43.226  1.00  0.00     0.264 C 
BRANCH  38  39
HETATM   39  N9  UNL     1      71.290  59.071  44.628  1.00  0.00    -0.067 N 
ATOM     40  H93 UNL     1      72.272  58.937  44.870  1.00  0.00     0.275 HD
ATOM     41  H92 UNL     1      71.159  60.009  45.008  1.00  0.00     0.275 HD
ATOM     42  H91 UNL     1      70.694  58.391  45.101  1.00  0.00     0.275 HD
ENDBRANCH  38  39
BRANCH  38  43
HETATM   43  C15 UNL     1      69.845  58.241  42.853  1.00  0.00     0.051 A 
HETATM   44  C16 UNL     1      69.997  57.055  42.220  1.00  0.00     0.080 A 
HETATM   45  S1  UNL     1      68.342  56.572  41.980  1.00  0.00    -0.064 SA
HETATM   46  C17 UNL     1      67.603  57.939  42.718  1.00  0.00     0.142 A 
HETATM   47  N11 UNL     1      68.628  58.691  43.104  1.00  0.00    -0.338 N 
ATOM     48  H11 UNL     1      68.481  59.583  43.576  1.00  0.00     0.168 HD
BRANCH  46  49
HETATM   49  N10 UNL     1      66.294  58.114  42.861  1.00  0.00    -0.380 N 
ATOM     50 2H10 UNL     1      65.565  58.288  42.169  1.00  0.00     0.158 HD
ATOM     51 1H10 UNL     1      65.798  58.125  43.752  1.00  0.00     0.158 HD
ENDBRANCH  46  49
ENDBRANCH  38  43
ENDBRANCH  35  38
ENDBRANCH  32  35
ENDBRANCH  31  32
ENDBRANCH  29  31
ENDBRANCH  28  29
ENDBRANCH   1  28
TORSDOF 14
ENDMDL
