MODEL 1
REMARK VINA RESULT: -4.974236489      0.000      0.000
REMARK  5 active torsions:
REMARK  status: ('A' for Active; 'I' for Inactive)
REMARK    1  A    between atoms: C2_2  and  C3_3 
REMARK    2  A    between atoms: C4_5  and  C5_6 
REMARK    3  A    between atoms: C5_6  and  N1_7 
REMARK    4  A    between atoms: N1_7  and  N2_8 
REMARK    5  A    between atoms: N1_7  and  C6_11 
ROOT
HETATM    1  N1  UNL     1      19.804  20.839  95.562  1.00  0.00    -0.292 N 
ENDROOT
BRANCH   1   2
HETATM    2  C5  UNL     1      18.635  20.033  95.517  1.00  0.00     0.184 C 
BRANCH   2   3
HETATM    3  C4  UNL     1      17.553  20.563  94.617  1.00  0.00     0.174 A 
HETATM    4  C3  UNL     1      16.191  20.686  94.998  1.00  0.00     0.174 A 
HETATM    5  O1  UNL     1      16.633  19.396  94.359  1.00  0.00    -0.369 OA
BRANCH   4   6
HETATM    6  C2  UNL     1      15.209  21.305  94.103  1.00  0.00    -0.003 C 
HETATM    7  C1  UNL     1      15.230  22.605  93.824  1.00  0.00     0.009 C 
ENDBRANCH   4   6
ENDBRANCH   2   3
ENDBRANCH   1   2
BRANCH   1   8
HETATM    8  N2  UNL     1      21.021  20.282  95.161  1.00  0.00    -0.342 N 
ATOM      9  H22 UNL     1      21.169  19.292  95.355  1.00  0.00     0.177 HD
ATOM     10  H21 UNL     1      21.704  20.880  94.695  1.00  0.00     0.177 HD
ENDBRANCH   1   8
BRANCH   1  11
HETATM   11  C6  UNL     1      19.816  22.199  95.997  1.00  0.00     0.192 C 
HETATM   12  N3  UNL     1      20.254  22.538  97.152  1.00  0.00    -0.394 N 
ATOM     13  H32 UNL     1      20.602  21.802  97.767  1.00  0.00     0.156 HD
ATOM     14  H31 UNL     1      20.263  23.509  97.462  1.00  0.00     0.156 HD
ENDBRANCH   1  11
TORSDOF 5
ENDMDL
MODEL 2
REMARK VINA RESULT: -4.720176956      1.042      1.751
REMARK  5 active torsions:
REMARK  status: ('A' for Active; 'I' for Inactive)
REMARK    1  A    between atoms: C2_2  and  C3_3 
REMARK    2  A    between atoms: C4_5  and  C5_6 
REMARK    3  A    between atoms: C5_6  and  N1_7 
REMARK    4  A    between atoms: N1_7  and  N2_8 
REMARK    5  A    between atoms: N1_7  and  C6_11 
ROOT
HETATM    1  N1  UNL     1      19.911  20.369  95.382  1.00  0.00    -0.292 N 
ENDROOT
BRANCH   1   2
HETATM    2  C5  UNL     1      18.560  20.099  95.730  1.00  0.00     0.184 C 
BRANCH   2   3
HETATM    3  C4  UNL     1      17.551  20.639  94.754  1.00  0.00     0.174 A 
HETATM    4  C3  UNL     1      16.152  20.669  94.991  1.00  0.00     0.174 A 
HETATM    5  O1  UNL     1      16.730  19.450  94.321  1.00  0.00    -0.369 OA
BRANCH   4   6
HETATM    6  C2  UNL     1      15.237  21.301  94.037  1.00  0.00    -0.003 C 
HETATM    7  C1  UNL     1      15.222  22.617  93.840  1.00  0.00     0.009 C 
ENDBRANCH   4   6
ENDBRANCH   2   3
ENDBRANCH   1   2
BRANCH   1   8
HETATM    8  N2  UNL     1      20.426  21.645  95.629  1.00  0.00    -0.342 N 
ATOM      9  H22 UNL     1      20.057  22.415  95.072  1.00  0.00     0.177 HD
ATOM     10  H21 UNL     1      21.140  21.755  96.348  1.00  0.00     0.177 HD
ENDBRANCH   1   8
BRANCH   1  11
HETATM   11  C6  UNL     1      20.787  19.412  94.789  1.00  0.00     0.192 C 
HETATM   12  N3  UNL     1      21.982  19.231  95.213  1.00  0.00    -0.394 N 
ATOM     13  H32 UNL     1      22.302  19.797  95.999  1.00  0.00     0.156 HD
ATOM     14  H31 UNL     1      22.608  18.547  94.788  1.00  0.00     0.156 HD
ENDBRANCH   1  11
TORSDOF 5
ENDMDL
MODEL 3
REMARK VINA RESULT: -4.484825966      2.924      4.674
REMARK  5 active torsions:
REMARK  status: ('A' for Active; 'I' for Inactive)
REMARK    1  A    between atoms: C2_2  and  C3_3 
REMARK    2  A    between atoms: C4_5  and  C5_6 
REMARK    3  A    between atoms: C5_6  and  N1_7 
REMARK    4  A    between atoms: N1_7  and  N2_8 
REMARK    5  A    between atoms: N1_7  and  C6_11 
ROOT
HETATM    1  N1  UNL     1      16.458  20.786  94.542  1.00  0.00    -0.292 N 
ENDROOT
BRANCH   1   2
HETATM    2  C5  UNL     1      17.681  21.507  94.476  1.00  0.00     0.184 C 
BRANCH   2   3
HETATM    3  C4  UNL     1      18.901  20.686  94.791  1.00  0.00     0.174 A 
HETATM    4  C3  UNL     1      20.131  20.788  94.091  1.00  0.00     0.174 A 
HETATM    5  O1  UNL     1      19.112  19.799  93.589  1.00  0.00    -0.369 OA
BRANCH   4   6
HETATM    6  C2  UNL     1      21.309  20.027  94.517  1.00  0.00    -0.003 C 
HETATM    7  C1  UNL     1      21.211  18.799  95.022  1.00  0.00     0.009 C 
ENDBRANCH   4   6
ENDBRANCH   2   3
ENDBRANCH   1   2
BRANCH   1   8
HETATM    8  N2  UNL     1      16.503  19.407  94.765  1.00  0.00    -0.342 N 
ATOM      9  H22 UNL     1      17.139  19.069  95.487  1.00  0.00     0.177 HD
ATOM     10  H21 UNL     1      15.904  18.800  94.205  1.00  0.00     0.177 HD
ENDBRANCH   1   8
BRANCH   1  11
HETATM   11  C6  UNL     1      15.172  21.385  94.393  1.00  0.00     0.192 C 
HETATM   12  N3  UNL     1      14.983  22.411  93.650  1.00  0.00    -0.394 N 
ATOM     13  H32 UNL     1      15.787  22.799  93.157  1.00  0.00     0.156 HD
ATOM     14  H31 UNL     1      14.064  22.839  93.544  1.00  0.00     0.156 HD
ENDBRANCH   1  11
TORSDOF 5
ENDMDL
MODEL 4
REMARK VINA RESULT: -4.464623393      7.454      8.264
REMARK  5 active torsions:
REMARK  status: ('A' for Active; 'I' for Inactive)
REMARK    1  A    between atoms: C2_2  and  C3_3 
REMARK    2  A    between atoms: C4_5  and  C5_6 
REMARK    3  A    between atoms: C5_6  and  N1_7 
REMARK    4  A    between atoms: N1_7  and  N2_8 
REMARK    5  A    between atoms: N1_7  and  C6_11 
ROOT
HETATM    1  N1  UNL     1      20.466  15.126  89.918  1.00  0.00    -0.292 N 
ENDROOT
BRANCH   1   2
HETATM    2  C5  UNL     1      19.113  14.924  90.302  1.00  0.00     0.184 C 
BRANCH   2   3
HETATM    3  C4  UNL     1      18.915  13.825  91.310  1.00  0.00     0.174 A 
HETATM    4  C3  UNL     1      17.720  13.630  92.050  1.00  0.00     0.174 A 
HETATM    5  O1  UNL     1      18.783  14.518  92.643  1.00  0.00    -0.369 OA
BRANCH   4   6
HETATM    6  C2  UNL     1      17.563  12.478  92.942  1.00  0.00    -0.003 C 
HETATM    7  C1  UNL     1      16.373  11.940  93.196  1.00  0.00     0.009 C 
ENDBRANCH   4   6
ENDBRANCH   2   3
ENDBRANCH   1   2
BRANCH   1   8
HETATM    8  N2  UNL     1      20.831  14.887  88.590  1.00  0.00    -0.342 N 
ATOM      9  H22 UNL     1      20.126  14.480  87.977  1.00  0.00     0.177 HD
ATOM     10  H21 UNL     1      21.777  15.126  88.291  1.00  0.00     0.177 HD
ENDBRANCH   1   8
BRANCH   1  11
HETATM   11  C6  UNL     1      21.490  15.563  90.811  1.00  0.00     0.192 C 
HETATM   12  N3  UNL     1      21.271  16.441  91.718  1.00  0.00    -0.394 N 
ATOM     13  H32 UNL     1      20.331  16.830  91.790  1.00  0.00     0.156 HD
ATOM     14  H31 UNL     1      22.003  16.753  92.356  1.00  0.00     0.156 HD
ENDBRANCH   1  11
TORSDOF 5
ENDMDL
MODEL 5
REMARK VINA RESULT: -4.457501220      7.042      7.395
REMARK  5 active torsions:
REMARK  status: ('A' for Active; 'I' for Inactive)
REMARK    1  A    between atoms: C2_2  and  C3_3 
REMARK    2  A    between atoms: C4_5  and  C5_6 
REMARK    3  A    between atoms: C5_6  and  N1_7 
REMARK    4  A    between atoms: N1_7  and  N2_8 
REMARK    5  A    between atoms: N1_7  and  C6_11 
ROOT
HETATM    1  N1  UNL     1      22.169  16.641  90.849  1.00  0.00    -0.292 N 
ENDROOT
BRANCH   1   2
HETATM    2  C5  UNL     1      21.140  16.270  91.756  1.00  0.00     0.184 C 
BRANCH   2   3
HETATM    3  C4  UNL     1      20.106  15.347  91.172  1.00  0.00     0.174 A 
HETATM    4  C3  UNL     1      18.749  15.307  91.587  1.00  0.00     0.174 A 
HETATM    5  O1  UNL     1      19.730  14.403  92.287  1.00  0.00    -0.369 OA
BRANCH   4   6
HETATM    6  C2  UNL     1      17.775  14.451  90.905  1.00  0.00    -0.003 C 
HETATM    7  C1  UNL     1      16.733  13.922  91.540  1.00  0.00     0.009 C 
ENDBRANCH   4   6
ENDBRANCH   2   3
ENDBRANCH   1   2
BRANCH   1   8
HETATM    8  N2  UNL     1      22.235  16.002  89.608  1.00  0.00    -0.342 N 
ATOM      9  H22 UNL     1      22.160  16.587  88.776  1.00  0.00     0.177 HD
ATOM     10  H21 UNL     1      22.354  14.989  89.584  1.00  0.00     0.177 HD
ENDBRANCH   1   8
BRANCH   1  11
HETATM   11  C6  UNL     1      23.153  17.637  91.127  1.00  0.00     0.192 C 
HETATM   12  N3  UNL     1      24.019  17.997  90.255  1.00  0.00    -0.394 N 
ATOM     13  H32 UNL     1      23.991  17.549  89.339  1.00  0.00     0.156 HD
ATOM     14  H31 UNL     1      24.722  18.709  90.454  1.00  0.00     0.156 HD
ENDBRANCH   1  11
TORSDOF 5
ENDMDL
