MODEL 1
REMARK VINA RESULT: -4.376472391      0.000      0.000
REMARK  4 active torsions:
REMARK  status: ('A' for Active; 'I' for Inactive)
REMARK    1  A    between atoms: N1_2  and  C2_4 
REMARK    2  A    between atoms: C2_4  and  N2_5 
REMARK    3  A    between atoms: N2_5  and  N3_7 
REMARK    4  A    between atoms: N3_7  and  C4_9 
ROOT
HETATM    1  N3  UNL     1      19.048  20.891  94.167  1.00  0.00    -0.133 N 
ATOM      2  H3  UNL     1      19.302  21.067  93.195  1.00  0.00     0.205 HD
ENDROOT
BRANCH   1   3
HETATM    3  N2  UNL     1      18.426  19.696  94.544  1.00  0.00    -0.300 N 
HETATM    4  C3  UNL     1      19.145  18.472  94.336  1.00  0.00     0.173 C 
BRANCH   3   5
HETATM    5  C2  UNL     1      17.114  19.793  95.109  1.00  0.00     0.262 C 
BRANCH   5   6
HETATM    6  N1  UNL     1      16.117  20.170  94.157  1.00  0.00    -0.391 N 
HETATM    7  C1  UNL     1      15.493  21.271  94.369  1.00  0.00     0.113 C 
ATOM      8  H1  UNL     1      15.910  19.589  93.344  1.00  0.00     0.159 HD
ENDBRANCH   5   6
ENDBRANCH   3   5
ENDBRANCH   1   3
BRANCH   1   9
HETATM    9  C4  UNL     1      19.291  21.764  95.082  1.00  0.00     0.696 A 
HETATM   10  N4  UNL     1      20.105  21.537  96.148  1.00  0.00    -0.199 N 
HETATM   11  C5  UNL     1      20.093  22.674  96.853  1.00  0.00     0.123 A 
ATOM     12  H4  UNL     1      20.617  20.681  96.364  1.00  0.00     0.183 HD
HETATM   13  C6  UNL     1      19.284  23.616  96.249  1.00  0.00     0.123 A 
HETATM   14  N5  UNL     1      18.803  23.014  95.153  1.00  0.00    -0.199 N 
ATOM     15  H5  UNL     1      18.167  23.438  94.478  1.00  0.00     0.183 HD
ENDBRANCH   1   9
TORSDOF 4
ENDMDL
MODEL 2
REMARK VINA RESULT: -4.335266282      0.090      1.112
REMARK  4 active torsions:
REMARK  status: ('A' for Active; 'I' for Inactive)
REMARK    1  A    between atoms: N1_2  and  C2_4 
REMARK    2  A    between atoms: C2_4  and  N2_5 
REMARK    3  A    between atoms: N2_5  and  N3_7 
REMARK    4  A    between atoms: N3_7  and  C4_9 
ROOT
HETATM    1  N3  UNL     1      19.145  20.867  94.163  1.00  0.00    -0.133 N 
ATOM      2  H3  UNL     1      19.428  21.042  93.199  1.00  0.00     0.205 HD
ENDROOT
BRANCH   1   3
HETATM    3  N2  UNL     1      18.507  19.674  94.520  1.00  0.00    -0.300 N 
HETATM    4  C3  UNL     1      19.188  18.441  94.242  1.00  0.00     0.173 C 
BRANCH   3   5
HETATM    5  C2  UNL     1      17.218  19.781  95.136  1.00  0.00     0.262 C 
BRANCH   5   6
HETATM    6  N1  UNL     1      16.173  20.076  94.206  1.00  0.00    -0.391 N 
HETATM    7  C1  UNL     1      15.562  21.195  94.350  1.00  0.00     0.113 C 
ATOM      8  H1  UNL     1      15.923  19.425  93.462  1.00  0.00     0.159 HD
ENDBRANCH   5   6
ENDBRANCH   3   5
ENDBRANCH   1   3
BRANCH   1   9
HETATM    9  C4  UNL     1      19.363  21.737  95.086  1.00  0.00     0.696 A 
HETATM   10  N4  UNL     1      18.830  22.989  95.089  1.00  0.00    -0.199 N 
HETATM   11  C5  UNL     1      19.292  23.570  96.202  1.00  0.00     0.123 A 
ATOM     12  H4  UNL     1      18.209  23.398  94.391  1.00  0.00     0.183 HD
HETATM   13  C6  UNL     1      20.109  22.705  96.903  1.00  0.00     0.123 A 
HETATM   14  N5  UNL     1      20.129  21.578  96.179  1.00  0.00    -0.199 N 
ATOM     15  H5  UNL     1      20.645  20.731  96.420  1.00  0.00     0.183 HD
ENDBRANCH   1   9
TORSDOF 4
ENDMDL
MODEL 3
REMARK VINA RESULT: -4.286852632      1.448      4.207
REMARK  4 active torsions:
REMARK  status: ('A' for Active; 'I' for Inactive)
REMARK    1  A    between atoms: N1_2  and  C2_4 
REMARK    2  A    between atoms: C2_4  and  N2_5 
REMARK    3  A    between atoms: N2_5  and  N3_7 
REMARK    4  A    between atoms: N3_7  and  C4_9 
ROOT
HETATM    1  N3  UNL     1      18.596  22.328  94.400  1.00  0.00    -0.133 N 
ATOM      2  H3  UNL     1      18.563  23.180  93.841  1.00  0.00     0.205 HD
ENDROOT
BRANCH   1   3
HETATM    3  N2  UNL     1      19.756  21.967  95.094  1.00  0.00    -0.300 N 
HETATM    4  C3  UNL     1      19.869  22.371  96.467  1.00  0.00     0.173 C 
BRANCH   3   5
HETATM    5  C2  UNL     1      20.742  21.219  94.373  1.00  0.00     0.262 C 
BRANCH   5   6
HETATM    6  N1  UNL     1      21.103  19.995  95.018  1.00  0.00    -0.391 N 
HETATM    7  C1  UNL     1      21.121  18.937  94.291  1.00  0.00     0.113 C 
ATOM      8  H1  UNL     1      21.334  19.964  96.010  1.00  0.00     0.159 HD
ENDBRANCH   5   6
ENDBRANCH   3   5
ENDBRANCH   1   3
BRANCH   1   9
HETATM    9  C4  UNL     1      17.571  21.552  94.487  1.00  0.00     0.696 A 
HETATM   10  N4  UNL     1      16.298  21.946  94.216  1.00  0.00    -0.199 N 
HETATM   11  C5  UNL     1      15.540  20.863  94.422  1.00  0.00     0.123 A 
ATOM     12  H4  UNL     1      15.986  22.871  93.918  1.00  0.00     0.183 HD
HETATM   13  C6  UNL     1      16.314  19.791  94.818  1.00  0.00     0.123 A 
HETATM   14  N5  UNL     1      17.570  20.257  94.848  1.00  0.00    -0.199 N 
ATOM     15  H5  UNL     1      18.394  19.715  95.104  1.00  0.00     0.183 HD
ENDBRANCH   1   9
TORSDOF 4
ENDMDL
MODEL 4
REMARK VINA RESULT: -4.285927061      1.603      3.384
REMARK  4 active torsions:
REMARK  status: ('A' for Active; 'I' for Inactive)
REMARK    1  A    between atoms: N1_2  and  C2_4 
REMARK    2  A    between atoms: C2_4  and  N2_5 
REMARK    3  A    between atoms: N2_5  and  N3_7 
REMARK    4  A    between atoms: N3_7  and  C4_9 
ROOT
HETATM    1  N3  UNL     1      19.184  20.581  95.860  1.00  0.00    -0.133 N 
ATOM      2  H3  UNL     1      18.892  20.226  96.770  1.00  0.00     0.205 HD
ENDROOT
BRANCH   1   3
HETATM    3  N2  UNL     1      18.749  21.829  95.401  1.00  0.00    -0.300 N 
HETATM    4  C3  UNL     1      19.351  23.000  95.973  1.00  0.00     0.173 C 
BRANCH   3   5
HETATM    5  C2  UNL     1      17.732  21.837  94.393  1.00  0.00     0.262 C 
BRANCH   5   6
HETATM    6  N1  UNL     1      16.645  20.955  94.684  1.00  0.00    -0.391 N 
HETATM    7  C1  UNL     1      15.479  21.314  94.286  1.00  0.00     0.113 C 
ATOM      8  H1  UNL     1      16.790  20.078  95.185  1.00  0.00     0.159 HD
ENDBRANCH   5   6
ENDBRANCH   3   5
ENDBRANCH   1   3
BRANCH   1   9
HETATM    9  C4  UNL     1      19.964  19.894  95.100  1.00  0.00     0.696 A 
HETATM   10  N4  UNL     1      19.574  18.779  94.424  1.00  0.00    -0.199 N 
HETATM   11  C5  UNL     1      20.660  18.368  93.760  1.00  0.00     0.123 A 
ATOM     12  H4  UNL     1      18.649  18.348  94.424  1.00  0.00     0.183 HD
HETATM   13  C6  UNL     1      21.730  19.205  94.005  1.00  0.00     0.123 A 
HETATM   14  N5  UNL     1      21.260  20.140  94.841  1.00  0.00    -0.199 N 
ATOM     15  H5  UNL     1      21.800  20.917  95.222  1.00  0.00     0.183 HD
ENDBRANCH   1   9
TORSDOF 4
ENDMDL
MODEL 5
REMARK VINA RESULT: -4.281749044      1.604      3.365
REMARK  4 active torsions:
REMARK  status: ('A' for Active; 'I' for Inactive)
REMARK    1  A    between atoms: N1_2  and  C2_4 
REMARK    2  A    between atoms: C2_4  and  N2_5 
REMARK    3  A    between atoms: N2_5  and  N3_7 
REMARK    4  A    between atoms: N3_7  and  C4_9 
ROOT
HETATM    1  N3  UNL     1      19.199  20.573  95.858  1.00  0.00    -0.133 N 
ATOM      2  H3  UNL     1      18.927  20.226  96.777  1.00  0.00     0.205 HD
ENDROOT
BRANCH   1   3
HETATM    3  N2  UNL     1      18.753  21.816  95.396  1.00  0.00    -0.300 N 
HETATM    4  C3  UNL     1      19.345  22.993  95.964  1.00  0.00     0.173 C 
BRANCH   3   5
HETATM    5  C2  UNL     1      17.734  21.811  94.390  1.00  0.00     0.262 C 
BRANCH   5   6
HETATM    6  N1  UNL     1      16.646  20.934  94.693  1.00  0.00    -0.391 N 
HETATM    7  C1  UNL     1      15.479  21.292  94.297  1.00  0.00     0.113 C 
ATOM      8  H1  UNL     1      16.792  20.062  95.203  1.00  0.00     0.159 HD
ENDBRANCH   5   6
ENDBRANCH   3   5
ENDBRANCH   1   3
BRANCH   1   9
HETATM    9  C4  UNL     1      19.964  19.879  95.088  1.00  0.00     0.696 A 
HETATM   10  N4  UNL     1      21.268  20.180  94.844  1.00  0.00    -0.199 N 
HETATM   11  C5  UNL     1      21.701  19.231  94.007  1.00  0.00     0.123 A 
ATOM     12  H4  UNL     1      21.802  20.964  95.220  1.00  0.00     0.183 HD
HETATM   13  C6  UNL     1      20.692  18.334  93.719  1.00  0.00     0.123 A 
HETATM   14  N5  UNL     1      19.628  18.769  94.407  1.00  0.00    -0.199 N 
ATOM     15  H5  UNL     1      18.709  18.328  94.414  1.00  0.00     0.183 HD
ENDBRANCH   1   9
TORSDOF 4
ENDMDL
