MODEL 1
REMARK VINA RESULT: -4.942257292      0.000      0.000
REMARK  5 active torsions:
REMARK  status: ('A' for Active; 'I' for Inactive)
REMARK    1  A    between atoms: C2_2  and  C3_3 
REMARK    2  A    between atoms: C2_2  and  N3_9 
REMARK    3  A    between atoms: C3_3  and  N1_4 
REMARK    4  A    between atoms: N1_4  and  N2_6 
REMARK    5  A    between atoms: N3_9  and  C5_12 
ROOT
HETATM    1  C1  UNL     1      16.574  20.237  95.049  1.00  0.00     0.041 C 
HETATM    2  C2  UNL     1      18.048  20.125  95.051  1.00  0.00     0.197 C 
ENDROOT
BRANCH   2   3
HETATM    3  C3  UNL     1      18.519  18.701  94.796  1.00  0.00     0.145 C 
BRANCH   3   4
HETATM    4  N1  UNL     1      19.217  18.521  93.565  1.00  0.00    -0.240 NA
HETATM    5  C4  UNL     1      20.642  18.567  93.867  1.00  0.00     0.135 C 
BRANCH   4   6
HETATM    6  N2  UNL     1      18.976  17.309  92.913  1.00  0.00    -0.364 NA
ATOM      7  H22 UNL     1      18.078  17.399  92.438  1.00  0.00     0.171 HD
ATOM      8  H21 UNL     1      19.666  17.049  92.208  1.00  0.00     0.171 HD
ENDBRANCH   4   6
ENDBRANCH   3   4
ENDBRANCH   2   3
BRANCH   2   9
HETATM    9  N3  UNL     1      18.623  20.598  96.306  1.00  0.00    -0.066 N 
ATOM     10  H32 UNL     1      17.914  20.906  96.972  1.00  0.00     0.278 HD
ATOM     11  H31 UNL     1      19.020  19.844  96.866  1.00  0.00     0.278 HD
BRANCH   9  12
HETATM   12  C5  UNL     1      19.574  21.618  96.005  1.00  0.00     0.186 A 
HETATM   13  C6  UNL     1      19.153  22.901  95.338  1.00  0.00     0.035 A 
HETATM   14  C7  UNL     1      19.836  22.845  96.736  1.00  0.00     0.035 A 
ENDBRANCH   9  12
ENDBRANCH   2   9
TORSDOF 5
ENDMDL
MODEL 2
REMARK VINA RESULT: -4.936590263      2.155      3.600
REMARK  5 active torsions:
REMARK  status: ('A' for Active; 'I' for Inactive)
REMARK    1  A    between atoms: C2_2  and  C3_3 
REMARK    2  A    between atoms: C2_2  and  N3_9 
REMARK    3  A    between atoms: C3_3  and  N1_4 
REMARK    4  A    between atoms: N1_4  and  N2_6 
REMARK    5  A    between atoms: N3_9  and  C5_12 
ROOT
HETATM    1  C1  UNL     1      19.390  22.501  95.538  1.00  0.00     0.041 C 
HETATM    2  C2  UNL     1      18.610  22.028  94.374  1.00  0.00     0.197 C 
ENDROOT
BRANCH   2   3
HETATM    3  C3  UNL     1      17.201  21.604  94.756  1.00  0.00     0.145 C 
BRANCH   3   4
HETATM    4  N1  UNL     1      16.668  20.543  93.966  1.00  0.00    -0.240 NA
HETATM    5  C4  UNL     1      16.568  19.372  94.828  1.00  0.00     0.135 C 
BRANCH   4   6
HETATM    6  N2  UNL     1      15.394  20.771  93.438  1.00  0.00    -0.364 NA
ATOM      7  H22 UNL     1      15.489  20.777  92.423  1.00  0.00     0.171 HD
ATOM      8  H21 UNL     1      14.693  20.067  93.672  1.00  0.00     0.171 HD
ENDBRANCH   4   6
ENDBRANCH   3   4
ENDBRANCH   2   3
BRANCH   2   9
HETATM    9  N3  UNL     1      19.273  20.919  93.695  1.00  0.00    -0.066 N 
ATOM     10  H32 UNL     1      18.616  20.216  93.356  1.00  0.00     0.278 HD
ATOM     11  H31 UNL     1      19.665  21.189  92.793  1.00  0.00     0.278 HD
BRANCH   9  12
HETATM   12  C5  UNL     1      20.252  20.377  94.579  1.00  0.00     0.186 A 
HETATM   13  C6  UNL     1      20.188  18.939  95.024  1.00  0.00     0.035 A 
HETATM   14  C7  UNL     1      21.396  19.543  94.250  1.00  0.00     0.035 A 
ENDBRANCH   9  12
ENDBRANCH   2   9
TORSDOF 5
ENDMDL
MODEL 3
REMARK VINA RESULT: -4.847701294      1.464      2.967
REMARK  5 active torsions:
REMARK  status: ('A' for Active; 'I' for Inactive)
REMARK    1  A    between atoms: C2_2  and  C3_3 
REMARK    2  A    between atoms: C2_2  and  N3_9 
REMARK    3  A    between atoms: C3_3  and  N1_4 
REMARK    4  A    between atoms: N1_4  and  N2_6 
REMARK    5  A    between atoms: N3_9  and  C5_12 
ROOT
HETATM    1  C1  UNL     1      19.710  22.156  96.060  1.00  0.00     0.041 C 
HETATM    2  C2  UNL     1      19.362  21.132  95.052  1.00  0.00     0.197 C 
ENDROOT
BRANCH   2   3
HETATM    3  C3  UNL     1      20.531  20.803  94.136  1.00  0.00     0.145 C 
BRANCH   3   4
HETATM    4  N1  UNL     1      20.674  19.416  93.836  1.00  0.00    -0.240 NA
HETATM    5  C4  UNL     1      21.383  18.805  94.952  1.00  0.00     0.135 C 
BRANCH   4   6
HETATM    6  N2  UNL     1      19.478  18.712  93.678  1.00  0.00    -0.364 NA
ATOM      7  H22 UNL     1      18.719  19.375  93.835  1.00  0.00     0.171 HD
ATOM      8  H21 UNL     1      19.332  18.300  92.755  1.00  0.00     0.171 HD
ENDBRANCH   4   6
ENDBRANCH   3   4
ENDBRANCH   2   3
BRANCH   2   9
HETATM    9  N3  UNL     1      18.221  21.541  94.239  1.00  0.00    -0.066 N 
ATOM     10  H32 UNL     1      18.236  22.536  94.013  1.00  0.00     0.278 HD
ATOM     11  H31 UNL     1      18.270  21.182  93.285  1.00  0.00     0.278 HD
BRANCH   9  12
HETATM   12  C5  UNL     1      17.029  21.147  94.914  1.00  0.00     0.186 A 
HETATM   13  C6  UNL     1      15.688  21.223  94.233  1.00  0.00     0.035 A 
HETATM   14  C7  UNL     1      16.294  19.901  94.785  1.00  0.00     0.035 A 
ENDBRANCH   9  12
ENDBRANCH   2   9
TORSDOF 5
ENDMDL
MODEL 4
REMARK VINA RESULT: -4.796683805      1.795      3.244
REMARK  5 active torsions:
REMARK  status: ('A' for Active; 'I' for Inactive)
REMARK    1  A    between atoms: C2_2  and  C3_3 
REMARK    2  A    between atoms: C2_2  and  N3_9 
REMARK    3  A    between atoms: C3_3  and  N1_4 
REMARK    4  A    between atoms: N1_4  and  N2_6 
REMARK    5  A    between atoms: N3_9  and  C5_12 
ROOT
HETATM    1  C1  UNL     1      19.868  22.434  96.651  1.00  0.00     0.041 C 
HETATM    2  C2  UNL     1      19.337  21.513  95.623  1.00  0.00     0.197 C 
ENDROOT
BRANCH   2   3
HETATM    3  C3  UNL     1      20.433  20.949  94.732  1.00  0.00     0.145 C 
BRANCH   3   4
HETATM    4  N1  UNL     1      20.850  19.628  95.072  1.00  0.00    -0.240 NA
HETATM    5  C4  UNL     1      20.260  18.724  94.094  1.00  0.00     0.135 C 
BRANCH   4   6
HETATM    6  N2  UNL     1      22.231  19.412  95.046  1.00  0.00    -0.364 NA
ATOM      7  H22 UNL     1      22.674  20.282  95.343  1.00  0.00     0.171 HD
ATOM      8  H21 UNL     1      22.568  18.675  95.665  1.00  0.00     0.171 HD
ENDBRANCH   4   6
ENDBRANCH   3   4
ENDBRANCH   2   3
BRANCH   2   9
HETATM    9  N3  UNL     1      18.329  22.158  94.788  1.00  0.00    -0.066 N 
ATOM     10  H32 UNL     1      17.851  22.921  95.268  1.00  0.00     0.278 HD
ATOM     11  H31 UNL     1      18.739  22.707  94.032  1.00  0.00     0.278 HD
BRANCH   9  12
HETATM   12  C5  UNL     1      17.431  21.156  94.317  1.00  0.00     0.186 A 
HETATM   13  C6  UNL     1      16.904  20.089  95.240  1.00  0.00     0.035 A 
HETATM   14  C7  UNL     1      15.989  21.094  94.481  1.00  0.00     0.035 A 
ENDBRANCH   9  12
ENDBRANCH   2   9
TORSDOF 5
ENDMDL
MODEL 5
REMARK VINA RESULT: -4.658482362      1.382      2.693
REMARK  5 active torsions:
REMARK  status: ('A' for Active; 'I' for Inactive)
REMARK    1  A    between atoms: C2_2  and  C3_3 
REMARK    2  A    between atoms: C2_2  and  N3_9 
REMARK    3  A    between atoms: C3_3  and  N1_4 
REMARK    4  A    between atoms: N1_4  and  N2_6 
REMARK    5  A    between atoms: N3_9  and  C5_12 
ROOT
HETATM    1  C1  UNL     1      19.780  21.730  93.585  1.00  0.00     0.041 C 
HETATM    2  C2  UNL     1      19.708  21.188  94.959  1.00  0.00     0.197 C 
ENDROOT
BRANCH   2   3
HETATM    3  C3  UNL     1      20.101  19.720  95.021  1.00  0.00     0.145 C 
BRANCH   3   4
HETATM    4  N1  UNL     1      20.180  19.075  93.752  1.00  0.00    -0.240 NA
HETATM    5  C4  UNL     1      21.517  18.505  93.640  1.00  0.00     0.135 C 
BRANCH   4   6
HETATM    6  N2  UNL     1      19.274  18.029  93.554  1.00  0.00    -0.364 NA
ATOM      7  H22 UNL     1      19.301  17.450  94.394  1.00  0.00     0.171 HD
ATOM      8  H21 UNL     1      18.304  18.313  93.415  1.00  0.00     0.171 HD
ENDBRANCH   4   6
ENDBRANCH   3   4
ENDBRANCH   2   3
BRANCH   2   9
HETATM    9  N3  UNL     1      18.377  21.349  95.533  1.00  0.00    -0.066 N 
ATOM     10  H32 UNL     1      18.261  20.836  96.406  1.00  0.00     0.278 HD
ATOM     11  H31 UNL     1      18.219  22.287  95.902  1.00  0.00     0.278 HD
BRANCH   9  12
HETATM   12  C5  UNL     1      17.417  20.979  94.545  1.00  0.00     0.186 A 
HETATM   13  C6  UNL     1      16.418  19.882  94.804  1.00  0.00     0.035 A 
HETATM   14  C7  UNL     1      16.014  21.349  94.474  1.00  0.00     0.035 A 
ENDBRANCH   9  12
ENDBRANCH   2   9
TORSDOF 5
ENDMDL
