MODEL 1
REMARK VINA RESULT: -5.160003136      0.000      0.000
REMARK  3 active torsions:
REMARK  status: ('A' for Active; 'I' for Inactive)
REMARK    1  A    between atoms: C1_2  and  C2_4 
REMARK    2  A    between atoms: C5_7  and  N2_8 
REMARK    3  A    between atoms: C6_12  and  N3_13 
ROOT
HETATM    1  C2  UNL     1       6.949  12.489  30.749  1.00  0.00     0.107 C 
HETATM    2  C3  UNL     1       6.145  11.452  31.550  1.00  0.00     0.018 C 
HETATM    3  C4  UNL     1       4.920  11.333  30.642  1.00  0.00     0.036 C 
HETATM    4  C5  UNL     1       4.778  12.687  29.971  1.00  0.00     0.214 C 
HETATM    5  C6  UNL     1       5.918  13.541  30.552  1.00  0.00     0.226 C 
ENDROOT
BRANCH   4   6
HETATM    6  N2  UNL     1       3.495  13.264  30.223  1.00  0.00    -0.073 N 
ATOM      7  H23 UNL     1       3.051  12.845  31.040  1.00  0.00     0.274 HD
ATOM      8  H22 UNL     1       3.577  14.223  30.562  1.00  0.00     0.274 HD
ATOM      9  H21 UNL     1       2.893  13.209  29.402  1.00  0.00     0.274 HD
ENDBRANCH   4   6
BRANCH   5  10
HETATM   10  N3  UNL     1       6.276  14.598  29.675  1.00  0.00    -0.072 N 
ATOM     11  H33 UNL     1       7.180  14.983  29.946  1.00  0.00     0.274 HD
ATOM     12  H32 UNL     1       6.506  14.224  28.754  1.00  0.00     0.274 HD
ATOM     13  H31 UNL     1       5.592  15.349  29.583  1.00  0.00     0.274 HD
ENDBRANCH   5  10
BRANCH   1  14
HETATM   14  C1  UNL     1       8.108  12.871  31.542  1.00  0.00     0.237 C 
HETATM   15  N1  UNL     1       8.996  13.844  31.005  1.00  0.00    -0.062 NA
HETATM   16  O1  UNL     1       8.395  12.408  32.676  1.00  0.00    -0.276 OA
ENDBRANCH   1  14
TORSDOF 3
ENDMDL
MODEL 2
REMARK VINA RESULT: -4.877048108      2.351      4.016
REMARK  3 active torsions:
REMARK  status: ('A' for Active; 'I' for Inactive)
REMARK    1  A    between atoms: C1_2  and  C2_4 
REMARK    2  A    between atoms: C5_7  and  N2_8 
REMARK    3  A    between atoms: C6_12  and  N3_13 
ROOT
HETATM    1  C2  UNL     1       5.939  13.146  30.057  1.00  0.00     0.107 C 
HETATM    2  C3  UNL     1       6.715  14.470  30.126  1.00  0.00     0.018 C 
HETATM    3  C4  UNL     1       8.100  13.929  30.483  1.00  0.00     0.036 C 
HETATM    4  C5  UNL     1       7.848  12.655  31.271  1.00  0.00     0.214 C 
HETATM    5  C6  UNL     1       6.317  12.538  31.360  1.00  0.00     0.226 C 
ENDROOT
BRANCH   4   6
HETATM    6  N2  UNL     1       8.457  12.709  32.562  1.00  0.00    -0.073 N 
ATOM      7  H23 UNL     1       8.612  13.672  32.862  1.00  0.00     0.274 HD
ATOM      8  H22 UNL     1       7.808  12.418  33.293  1.00  0.00     0.274 HD
ATOM      9  H21 UNL     1       9.320  12.166  32.592  1.00  0.00     0.274 HD
ENDBRANCH   4   6
BRANCH   5  10
HETATM   10  N3  UNL     1       5.907  11.193  31.555  1.00  0.00    -0.072 N 
ATOM     11  H33 UNL     1       4.918  11.095  31.328  1.00  0.00     0.274 HD
ATOM     12  H32 UNL     1       6.319  10.597  30.836  1.00  0.00     0.274 HD
ATOM     13  H31 UNL     1       6.093  10.803  32.479  1.00  0.00     0.274 HD
ENDBRANCH   5  10
BRANCH   1  14
HETATM   14  C1  UNL     1       4.529  13.458  29.883  1.00  0.00     0.237 C 
HETATM   15  N1  UNL     1       4.178  14.784  29.501  1.00  0.00    -0.062 NA
HETATM   16  O1  UNL     1       3.581  12.647  30.045  1.00  0.00    -0.276 OA
ENDBRANCH   1  14
TORSDOF 3
ENDMDL
MODEL 3
REMARK VINA RESULT: -4.660977881      1.956      3.827
REMARK  3 active torsions:
REMARK  status: ('A' for Active; 'I' for Inactive)
REMARK    1  A    between atoms: C1_2  and  C2_4 
REMARK    2  A    between atoms: C5_7  and  N2_8 
REMARK    3  A    between atoms: C6_12  and  N3_13 
ROOT
HETATM    1  C2  UNL     1       6.423  13.876  30.561  1.00  0.00     0.107 C 
HETATM    2  C3  UNL     1       7.355  12.695  30.875  1.00  0.00     0.018 C 
HETATM    3  C4  UNL     1       8.637  13.468  31.192  1.00  0.00     0.036 C 
HETATM    4  C5  UNL     1       8.563  14.736  30.360  1.00  0.00     0.214 C 
HETATM    5  C6  UNL     1       7.247  14.620  29.572  1.00  0.00     0.226 C 
ENDROOT
BRANCH   4   6
HETATM    6  N2  UNL     1       9.694  14.864  29.497  1.00  0.00    -0.073 N 
ATOM      7  H23 UNL     1       9.924  15.843  29.325  1.00  0.00     0.274 HD
ATOM      8  H22 UNL     1      10.554  14.579  29.966  1.00  0.00     0.274 HD
ATOM      9  H21 UNL     1       9.558  14.354  28.624  1.00  0.00     0.274 HD
ENDBRANCH   4   6
BRANCH   5  10
HETATM   10  N3  UNL     1       6.752  15.895  29.192  1.00  0.00    -0.072 N 
ATOM     11  H33 UNL     1       7.450  16.388  28.637  1.00  0.00     0.274 HD
ATOM     12  H32 UNL     1       6.010  15.788  28.499  1.00  0.00     0.274 HD
ATOM     13  H31 UNL     1       6.431  16.491  29.955  1.00  0.00     0.274 HD
ENDBRANCH   5  10
BRANCH   1  14
HETATM   14  C1  UNL     1       5.164  13.337  30.067  1.00  0.00     0.237 C 
HETATM   15  N1  UNL     1       4.201  14.249  29.552  1.00  0.00    -0.062 NA
HETATM   16  O1  UNL     1       4.852  12.119  30.056  1.00  0.00    -0.276 OA
ENDBRANCH   1  14
TORSDOF 3
ENDMDL
MODEL 4
REMARK VINA RESULT: -4.610378296      8.059      9.370
REMARK  3 active torsions:
REMARK  status: ('A' for Active; 'I' for Inactive)
REMARK    1  A    between atoms: C1_2  and  C2_4 
REMARK    2  A    between atoms: C5_7  and  N2_8 
REMARK    3  A    between atoms: C6_12  and  N3_13 
ROOT
HETATM    1  C2  UNL     1      12.512  17.785  27.712  1.00  0.00     0.107 C 
HETATM    2  C3  UNL     1      11.946  17.004  26.517  1.00  0.00     0.018 C 
HETATM    3  C4  UNL     1      13.043  17.289  25.490  1.00  0.00     0.036 C 
HETATM    4  C5  UNL     1      13.604  18.650  25.863  1.00  0.00     0.214 C 
HETATM    5  C6  UNL     1      12.776  19.104  27.077  1.00  0.00     0.226 C 
ENDROOT
BRANCH   4   6
HETATM    6  N2  UNL     1      13.509  19.572  24.776  1.00  0.00    -0.073 N 
ATOM      7  H23 UNL     1      12.699  19.373  24.187  1.00  0.00     0.274 HD
ATOM      8  H22 UNL     1      13.245  20.503  25.098  1.00  0.00     0.274 HD
ATOM      9  H21 UNL     1      14.370  19.596  24.229  1.00  0.00     0.274 HD
ENDBRANCH   4   6
BRANCH   5  10
HETATM   10  N3  UNL     1      13.487  20.040  27.873  1.00  0.00    -0.072 N 
ATOM     11  H33 UNL     1      14.341  20.324  27.395  1.00  0.00     0.274 HD
ATOM     12  H32 UNL     1      12.986  20.929  27.896  1.00  0.00     0.274 HD
ATOM     13  H31 UNL     1      13.704  19.739  28.824  1.00  0.00     0.274 HD
ENDBRANCH   5  10
BRANCH   1  14
HETATM   14  C1  UNL     1      11.514  17.775  28.771  1.00  0.00     0.237 C 
HETATM   15  N1  UNL     1      11.086  16.516  29.277  1.00  0.00    -0.062 NA
HETATM   16  O1  UNL     1      10.991  18.798  29.284  1.00  0.00    -0.276 OA
ENDBRANCH   1  14
TORSDOF 3
ENDMDL
MODEL 5
REMARK VINA RESULT: -4.609490902      2.815      3.615
REMARK  3 active torsions:
REMARK  status: ('A' for Active; 'I' for Inactive)
REMARK    1  A    between atoms: C1_2  and  C2_4 
REMARK    2  A    between atoms: C5_7  and  N2_8 
REMARK    3  A    between atoms: C6_12  and  N3_13 
ROOT
HETATM    1  C2  UNL     1       8.349  13.976  30.037  1.00  0.00     0.107 C 
HETATM    2  C3  UNL     1       6.890  14.289  30.407  1.00  0.00     0.018 C 
HETATM    3  C4  UNL     1       6.545  15.248  29.268  1.00  0.00     0.036 C 
HETATM    4  C5  UNL     1       7.851  15.931  28.901  1.00  0.00     0.214 C 
HETATM    5  C6  UNL     1       8.891  15.351  29.875  1.00  0.00     0.226 C 
ENDROOT
BRANCH   4   6
HETATM    6  N2  UNL     1       7.748  17.352  29.011  1.00  0.00    -0.073 N 
ATOM      7  H23 UNL     1       8.004  17.813  28.137  1.00  0.00     0.274 HD
ATOM      8  H22 UNL     1       6.775  17.652  29.069  1.00  0.00     0.274 HD
ATOM      9  H21 UNL     1       8.296  17.707  29.794  1.00  0.00     0.274 HD
ENDBRANCH   4   6
BRANCH   5  10
HETATM   10  N3  UNL     1      10.205  15.438  29.347  1.00  0.00    -0.072 N 
ATOM     11  H33 UNL     1      10.485  14.536  28.962  1.00  0.00     0.274 HD
ATOM     12  H32 UNL     1      10.203  16.005  28.499  1.00  0.00     0.274 HD
ATOM     13  H31 UNL     1      10.920  15.777  29.991  1.00  0.00     0.274 HD
ENDBRANCH   5  10
BRANCH   1  14
HETATM   14  C1  UNL     1       8.927  13.185  31.113  1.00  0.00     0.237 C 
HETATM   15  N1  UNL     1       8.047  12.429  31.937  1.00  0.00    -0.062 NA
HETATM   16  O1  UNL     1      10.154  13.112  31.380  1.00  0.00    -0.276 OA
ENDBRANCH   1  14
TORSDOF 3
ENDMDL
