MODEL 1
REMARK VINA RESULT: -7.730619277      0.000      0.000
REMARK  15 active torsions:
REMARK  status: ('A' for Active; 'I' for Inactive)
REMARK    1  A    between atoms: O1_2  and  C2_3 
REMARK    2  A    between atoms: C5_6  and  N1_7 
REMARK    3  A    between atoms: C6_12  and  N3_13 
REMARK    4  A    between atoms: N4_19  and  C11_20 
REMARK    5  A    between atoms: C11_20  and  C12_21 
REMARK    6  A    between atoms: C12_21  and  O3_23 
REMARK    7  A    between atoms: C14_25  and  N5_26 
REMARK    8  A    between atoms: N5_26  and  C15_28 
REMARK    9  A    between atoms: C15_28  and  C16_29 
REMARK   10  A    between atoms: C15_28  and  C17_32 
REMARK   11  A    between atoms: C16_29  and  O4_30 
REMARK   12  A    between atoms: C17_32  and  O5_33 
REMARK   13  A    between atoms: C17_32  and  C18_35 
REMARK   14  A    between atoms: C21_44  and  O6_45 
REMARK   15  A    between atoms: C23_47  and  O7_48 
ROOT
HETATM    1  C2  UNL     1      99.210 -19.858 -13.337  1.00  0.00     0.105 A 
HETATM    2  C3  UNL     1      99.703 -18.577 -13.392  1.00  0.00     0.056 A 
HETATM    3  C4  UNL     1     100.978 -18.292 -13.876  1.00  0.00     0.028 A 
HETATM    4  C5  UNL     1     101.224 -16.929 -13.847  1.00  0.00     0.126 C 
HETATM    5  N2  UNL     1     102.379 -16.313 -14.185  1.00  0.00    -0.176 N 
ATOM      6  H2  UNL     1     102.324 -15.343 -14.495  1.00  0.00     0.186 HD
HETATM    7  C6  UNL     1     103.629 -16.901 -14.140  1.00  0.00     0.685 C 
HETATM    8  N4  UNL     1     103.945 -18.210 -14.144  1.00  0.00    -0.165 N 
HETATM    9  C14 UNL     1     103.160 -19.235 -14.680  1.00  0.00     0.138 C 
HETATM   10  C20 UNL     1     101.776 -19.352 -14.318  1.00  0.00     0.059 A 
HETATM   11  C21 UNL     1     101.304 -20.609 -14.278  1.00  0.00     0.119 A 
HETATM   12  C23 UNL     1     100.009 -20.878 -13.780  1.00  0.00     0.136 A 
ENDROOT
BRANCH   9  13
HETATM   13  N5  UNL     1     103.575 -20.024 -15.473  1.00  0.00    -0.343 N 
ATOM     14  H5  UNL     1     102.824 -20.713 -15.496  1.00  0.00     0.167 HD
BRANCH  13  15
HETATM   15  C15 UNL     1     104.484 -20.558 -16.388  1.00  0.00     0.048 C 
BRANCH  15  16
HETATM   16  C16 UNL     1     105.458 -21.607 -15.982  1.00  0.00     0.219 C 
BRANCH  16  17
HETATM   17  O4  UNL     1     106.688 -21.177 -15.517  1.00  0.00    -0.395 OA
ATOM     18  H4  UNL     1     106.973 -21.514 -14.675  1.00  0.00     0.209 HD
ENDBRANCH  16  17
ENDBRANCH  15  16
BRANCH  15  19
HETATM   19  C17 UNL     1     105.125 -19.603 -17.376  1.00  0.00     0.234 C 
BRANCH  19  20
HETATM   20  O5  UNL     1     105.991 -18.693 -16.854  1.00  0.00    -0.382 OA
ATOM     21  H5  UNL     1     105.600 -17.942 -16.423  1.00  0.00     0.211 HD
ENDBRANCH  19  20
BRANCH  19  22
HETATM   22  C18 UNL     1     105.770 -20.361 -18.462  1.00  0.00     0.132 A 
HETATM   23  N6  UNL     1     107.099 -20.487 -18.687  1.00  0.00    -0.338 N 
HETATM   24  C19 UNL     1     107.282 -21.202 -19.797  1.00  0.00     0.198 A 
ATOM     25  H6  UNL     1     107.839 -20.098 -18.103  1.00  0.00     0.168 HD
HETATM   26  N7  UNL     1     106.079 -21.532 -20.281  1.00  0.00    -0.295 N 
HETATM   27  N8  UNL     1     105.171 -21.023 -19.474  1.00  0.00    -0.286 N 
ATOM     28  H7  UNL     1     105.897 -22.078 -21.123  1.00  0.00     0.187 HD
ATOM     29  H8  UNL     1     104.163 -21.116 -19.596  1.00  0.00     0.188 HD
ENDBRANCH  19  22
ENDBRANCH  15  19
ENDBRANCH  13  15
ENDBRANCH   9  13
BRANCH   8  30
HETATM   30  C11 UNL     1     105.141 -18.634 -13.482  1.00  0.00     0.180 C 
BRANCH  30  31
HETATM   31  C12 UNL     1     104.970 -19.245 -12.134  1.00  0.00     0.133 C 
HETATM   32  C13 UNL     1     106.163 -19.646 -11.375  1.00  0.00     0.041 C 
BRANCH  31  33
HETATM   33  O3  UNL     1     104.201 -18.404 -11.296  1.00  0.00    -0.394 OA
ATOM     34  H3  UNL     1     104.745 -17.734 -10.898  1.00  0.00     0.210 HD
ENDBRANCH  31  33
ENDBRANCH  30  31
ENDBRANCH   8  30
BRANCH   7  35
HETATM   35  N3  UNL     1     104.700 -15.997 -14.105  1.00  0.00    -0.213 N 
HETATM   36  C7  UNL     1     104.968 -15.175 -15.298  1.00  0.00     0.167 C 
HETATM   37  C8  UNL     1     106.336 -15.571 -15.791  1.00  0.00     0.188 C 
HETATM   38  O2  UNL     1     107.253 -15.725 -14.765  1.00  0.00    -0.388 OA
HETATM   39  C9  UNL     1     106.853 -15.082 -13.599  1.00  0.00     0.188 C 
HETATM   40  C10 UNL     1     105.625 -15.786 -13.014  1.00  0.00     0.167 C 
ENDBRANCH   7  35
BRANCH  11  41
HETATM   41  O6  UNL     1     101.975 -21.727 -14.721  1.00  0.00    -0.352 OA
HETATM   42  C22 UNL     1     101.399 -22.373 -15.934  1.00  0.00     0.210 C 
ENDBRANCH  11  41
BRANCH   4  43
HETATM   43  N1  UNL     1     100.221 -16.218 -13.452  1.00  0.00    -0.384 N 
ATOM     44  H12 UNL     1      99.296 -16.402 -13.840  1.00  0.00     0.157 HD
ATOM     45  H11 UNL     1     100.458 -15.510 -12.758  1.00  0.00     0.157 HD
ENDBRANCH   4  43
BRANCH  12  46
HETATM   46  O7  UNL     1      99.510 -22.156 -13.721  1.00  0.00    -0.351 OA
HETATM   47  C24 UNL     1      99.656 -23.005 -12.597  1.00  0.00     0.210 C 
ENDBRANCH  12  46
BRANCH   1  48
HETATM   48  O1  UNL     1      97.918 -20.115 -12.839  1.00  0.00    -0.353 OA
HETATM   49  C1  UNL     1      96.980 -19.088 -12.667  1.00  0.00     0.210 C 
ENDBRANCH   1  48
TORSDOF 15
ENDMDL
MODEL 2
REMARK VINA RESULT: -7.339055667      4.051      8.223
REMARK  15 active torsions:
REMARK  status: ('A' for Active; 'I' for Inactive)
REMARK    1  A    between atoms: O1_2  and  C2_3 
REMARK    2  A    between atoms: C5_6  and  N1_7 
REMARK    3  A    between atoms: C6_12  and  N3_13 
REMARK    4  A    between atoms: N4_19  and  C11_20 
REMARK    5  A    between atoms: C11_20  and  C12_21 
REMARK    6  A    between atoms: C12_21  and  O3_23 
REMARK    7  A    between atoms: C14_25  and  N5_26 
REMARK    8  A    between atoms: N5_26  and  C15_28 
REMARK    9  A    between atoms: C15_28  and  C16_29 
REMARK   10  A    between atoms: C15_28  and  C17_32 
REMARK   11  A    between atoms: C16_29  and  O4_30 
REMARK   12  A    between atoms: C17_32  and  O5_33 
REMARK   13  A    between atoms: C17_32  and  C18_35 
REMARK   14  A    between atoms: C21_44  and  O6_45 
REMARK   15  A    between atoms: C23_47  and  O7_48 
ROOT
HETATM    1  C2  UNL     1     108.391 -24.552 -17.109  1.00  0.00     0.105 A 
HETATM    2  C3  UNL     1     107.123 -25.019 -16.863  1.00  0.00     0.056 A 
HETATM    3  C4  UNL     1     105.984 -24.308 -17.234  1.00  0.00     0.028 A 
HETATM    4  C5  UNL     1     104.835 -25.004 -16.896  1.00  0.00     0.126 C 
HETATM    5  N2  UNL     1     103.562 -24.579 -17.055  1.00  0.00    -0.176 N 
ATOM      6  H2  UNL     1     102.834 -25.289 -17.144  1.00  0.00     0.186 HD
HETATM    7  C6  UNL     1     103.173 -23.253 -17.105  1.00  0.00     0.685 C 
HETATM    8  N4  UNL     1     103.917 -22.167 -17.389  1.00  0.00    -0.165 N 
HETATM    9  C14 UNL     1     105.081 -22.159 -18.162  1.00  0.00     0.138 C 
HETATM   10  C20 UNL     1     106.147 -23.076 -17.876  1.00  0.00     0.059 A 
HETATM   11  C21 UNL     1     107.381 -22.610 -18.131  1.00  0.00     0.119 A 
HETATM   12  C23 UNL     1     108.524 -23.345 -17.743  1.00  0.00     0.136 A 
ENDROOT
BRANCH   9  13
HETATM   13  N5  UNL     1     105.234 -21.434 -19.098  1.00  0.00    -0.343 N 
ATOM     14  H5  UNL     1     106.016 -20.857 -18.790  1.00  0.00     0.167 HD
BRANCH  13  15
HETATM   15  C15 UNL     1     104.972 -20.912 -20.366  1.00  0.00     0.048 C 
BRANCH  15  16
HETATM   16  C16 UNL     1     105.064 -19.451 -20.631  1.00  0.00     0.219 C 
BRANCH  16  17
HETATM   17  O4  UNL     1     106.194 -19.001 -21.290  1.00  0.00    -0.395 OA
ATOM     18  H4  UNL     1     106.085 -18.724 -22.192  1.00  0.00     0.209 HD
ENDBRANCH  16  17
ENDBRANCH  15  16
BRANCH  15  19
HETATM   19  C17 UNL     1     103.819 -21.515 -21.145  1.00  0.00     0.234 C 
BRANCH  19  20
HETATM   20  O5  UNL     1     102.683 -21.762 -20.438  1.00  0.00    -0.382 OA
ATOM     21  H5  UNL     1     102.527 -22.668 -20.200  1.00  0.00     0.211 HD
ENDBRANCH  19  20
BRANCH  19  22
HETATM   22  C18 UNL     1     103.519 -20.681 -22.322  1.00  0.00     0.132 A 
HETATM   23  N6  UNL     1     102.359 -20.036 -22.587  1.00  0.00    -0.338 N 
HETATM   24  C19 UNL     1     102.460 -19.438 -23.775  1.00  0.00     0.198 A 
ATOM     25  H6  UNL     1     101.542 -20.010 -21.978  1.00  0.00     0.168 HD
HETATM   26  N7  UNL     1     103.676 -19.699 -24.269  1.00  0.00    -0.295 N 
HETATM   27  N8  UNL     1     104.310 -20.449 -23.391  1.00  0.00    -0.286 N 
ATOM     28  H7  UNL     1     104.045 -19.377 -25.163  1.00  0.00     0.187 HD
ATOM     29  H8  UNL     1     105.261 -20.802 -23.502  1.00  0.00     0.188 HD
ENDBRANCH  19  22
ENDBRANCH  15  19
ENDBRANCH  13  15
ENDBRANCH   9  13
BRANCH   8  30
HETATM   30  C11 UNL     1     103.559 -20.912 -16.803  1.00  0.00     0.180 C 
BRANCH  30  31
HETATM   31  C12 UNL     1     104.366 -20.477 -15.628  1.00  0.00     0.133 C 
HETATM   32  C13 UNL     1     105.369 -19.417 -15.804  1.00  0.00     0.041 C 
BRANCH  31  33
HETATM   33  O3  UNL     1     103.526 -20.088 -14.559  1.00  0.00    -0.394 OA
ATOM     34  H3  UNL     1     104.039 -19.770 -13.825  1.00  0.00     0.210 HD
ENDBRANCH  31  33
ENDBRANCH  30  31
ENDBRANCH   8  30
BRANCH   7  35
HETATM   35  N3  UNL     1     101.814 -23.032 -16.838  1.00  0.00    -0.213 N 
HETATM   36  C7  UNL     1     101.345 -23.121 -15.445  1.00  0.00     0.167 C 
HETATM   37  C8  UNL     1     100.367 -24.267 -15.396  1.00  0.00     0.188 C 
HETATM   38  O2  UNL     1      99.506 -24.285 -16.480  1.00  0.00    -0.388 OA
HETATM   39  C9  UNL     1      99.437 -23.052 -17.120  1.00  0.00     0.188 C 
HETATM   40  C10 UNL     1     100.775 -22.748 -17.803  1.00  0.00     0.167 C 
ENDBRANCH   7  35
BRANCH  11  41
HETATM   41  O6  UNL     1     107.670 -21.436 -18.790  1.00  0.00    -0.352 OA
HETATM   42  C22 UNL     1     108.225 -21.600 -20.163  1.00  0.00     0.210 C 
ENDBRANCH  11  41
BRANCH   4  43
HETATM   43  N1  UNL     1     105.053 -26.169 -16.383  1.00  0.00    -0.384 N 
ATOM     44  H12 UNL     1     104.488 -26.962 -16.687  1.00  0.00     0.157 HD
ATOM     45  H11 UNL     1     105.804 -26.188 -15.693  1.00  0.00     0.157 HD
ENDBRANCH   4  43
BRANCH  12  46
HETATM   46  O7  UNL     1     109.794 -22.884 -17.984  1.00  0.00    -0.351 OA
HETATM   47  C24 UNL     1     110.575 -22.194 -17.024  1.00  0.00     0.210 C 
ENDBRANCH  12  46
BRANCH   1  48
HETATM   48  O1  UNL     1     109.524 -25.292 -16.719  1.00  0.00    -0.353 OA
HETATM   49  C1  UNL     1     109.827 -25.512 -15.368  1.00  0.00     0.210 C 
ENDBRANCH   1  48
TORSDOF 15
ENDMDL
MODEL 3
REMARK VINA RESULT: -7.271359344      2.692      6.347
REMARK  15 active torsions:
REMARK  status: ('A' for Active; 'I' for Inactive)
REMARK    1  A    between atoms: O1_2  and  C2_3 
REMARK    2  A    between atoms: C5_6  and  N1_7 
REMARK    3  A    between atoms: C6_12  and  N3_13 
REMARK    4  A    between atoms: N4_19  and  C11_20 
REMARK    5  A    between atoms: C11_20  and  C12_21 
REMARK    6  A    between atoms: C12_21  and  O3_23 
REMARK    7  A    between atoms: C14_25  and  N5_26 
REMARK    8  A    between atoms: N5_26  and  C15_28 
REMARK    9  A    between atoms: C15_28  and  C16_29 
REMARK   10  A    between atoms: C15_28  and  C17_32 
REMARK   11  A    between atoms: C16_29  and  O4_30 
REMARK   12  A    between atoms: C17_32  and  O5_33 
REMARK   13  A    between atoms: C17_32  and  C18_35 
REMARK   14  A    between atoms: C21_44  and  O6_45 
REMARK   15  A    between atoms: C23_47  and  O7_48 
ROOT
HETATM    1  C2  UNL     1     100.175 -21.568 -15.475  1.00  0.00     0.105 A 
HETATM    2  C3  UNL     1     101.063 -22.556 -15.825  1.00  0.00     0.056 A 
HETATM    3  C4  UNL     1     102.441 -22.355 -15.813  1.00  0.00     0.028 A 
HETATM    4  C5  UNL     1     103.112 -23.509 -16.183  1.00  0.00     0.126 C 
HETATM    5  N2  UNL     1     104.448 -23.649 -16.337  1.00  0.00    -0.176 N 
ATOM      6  H2  UNL     1     104.842 -24.582 -16.221  1.00  0.00     0.186 HD
HETATM    7  C6  UNL     1     105.319 -22.618 -16.640  1.00  0.00     0.685 C 
HETATM    8  N4  UNL     1     105.146 -21.293 -16.474  1.00  0.00    -0.165 N 
HETATM    9  C14 UNL     1     104.301 -20.694 -15.536  1.00  0.00     0.138 C 
HETATM   10  C20 UNL     1     102.928 -21.100 -15.433  1.00  0.00     0.059 A 
HETATM   11  C21 UNL     1     102.072 -20.127 -15.080  1.00  0.00     0.119 A 
HETATM   12  C23 UNL     1     100.677 -20.350 -15.102  1.00  0.00     0.136 A 
ENDROOT
BRANCH   9  13
HETATM   13  N5  UNL     1     104.672 -19.862 -14.766  1.00  0.00    -0.343 N 
ATOM     14  H5  UNL     1     103.883 -19.217 -14.756  1.00  0.00     0.167 HD
BRANCH  13  15
HETATM   15  C15 UNL     1     105.552 -19.251 -13.870  1.00  0.00     0.048 C 
BRANCH  15  16
HETATM   16  C16 UNL     1     105.945 -17.825 -14.028  1.00  0.00     0.219 C 
BRANCH  16  17
HETATM   17  O4  UNL     1     106.747 -17.509 -15.110  1.00  0.00    -0.395 OA
ATOM     18  H4  UNL     1     107.427 -16.861 -14.969  1.00  0.00     0.209 HD
ENDBRANCH  16  17
ENDBRANCH  15  16
BRANCH  15  19
HETATM   19  C17 UNL     1     106.733 -20.068 -13.384  1.00  0.00     0.234 C 
BRANCH  19  20
HETATM   20  O5  UNL     1     107.862 -19.999 -14.140  1.00  0.00    -0.382 OA
ATOM     21  H5  UNL     1     108.549 -19.429 -13.815  1.00  0.00     0.211 HD
ENDBRANCH  19  20
BRANCH  19  22
HETATM   22  C18 UNL     1     107.034 -19.731 -11.981  1.00  0.00     0.132 A 
HETATM   23  N6  UNL     1     108.254 -19.486 -11.448  1.00  0.00    -0.338 N 
HETATM   24  C19 UNL     1     108.117 -19.276 -10.139  1.00  0.00     0.198 A 
ATOM     25  H6  UNL     1     109.134 -19.466 -11.964  1.00  0.00     0.168 HD
HETATM   26  N7  UNL     1     106.819 -19.386  -9.834  1.00  0.00    -0.295 N 
HETATM   27  N8  UNL     1     106.171 -19.660 -10.947  1.00  0.00    -0.286 N 
ATOM     28  H7  UNL     1     106.406 -19.277  -8.908  1.00  0.00     0.187 HD
ATOM     29  H8  UNL     1     105.162 -19.799 -11.017  1.00  0.00     0.188 HD
ENDBRANCH  19  22
ENDBRANCH  15  19
ENDBRANCH  13  15
ENDBRANCH   9  13
BRANCH   8  30
HETATM   30  C11 UNL     1     105.807 -20.393 -17.369  1.00  0.00     0.180 C 
BRANCH  30  31
HETATM   31  C12 UNL     1     105.279 -20.336 -18.760  1.00  0.00     0.133 C 
HETATM   32  C13 UNL     1     106.176 -20.658 -19.878  1.00  0.00     0.041 C 
BRANCH  31  33
HETATM   33  O3  UNL     1     104.130 -21.150 -18.895  1.00  0.00    -0.394 OA
ATOM     34  H3  UNL     1     103.976 -21.368 -19.807  1.00  0.00     0.210 HD
ENDBRANCH  31  33
ENDBRANCH  30  31
ENDBRANCH   8  30
BRANCH   7  35
HETATM   35  N3  UNL     1     106.548 -23.030 -17.173  1.00  0.00    -0.213 N 
HETATM   36  C7  UNL     1     106.549 -24.031 -18.253  1.00  0.00     0.167 C 
HETATM   37  C8  UNL     1     107.263 -25.244 -17.711  1.00  0.00     0.188 C 
HETATM   38  O2  UNL     1     108.398 -24.919 -16.990  1.00  0.00    -0.388 OA
HETATM   39  C9  UNL     1     108.861 -23.640 -17.278  1.00  0.00     0.188 C 
HETATM   40  C10 UNL     1     107.864 -22.600 -16.756  1.00  0.00     0.167 C 
ENDBRANCH   7  35
BRANCH  11  41
HETATM   41  O6  UNL     1     102.430 -18.869 -14.650  1.00  0.00    -0.352 OA
HETATM   42  C22 UNL     1     102.257 -18.625 -13.190  1.00  0.00     0.210 C 
ENDBRANCH  11  41
BRANCH   4  43
HETATM   43  N1  UNL     1     102.343 -24.526 -16.389  1.00  0.00    -0.384 N 
ATOM     44  H12 UNL     1     101.487 -24.623 -15.842  1.00  0.00     0.157 HD
ATOM     45  H11 UNL     1     102.677 -25.164 -17.111  1.00  0.00     0.157 HD
ENDBRANCH   4  43
BRANCH  12  46
HETATM   46  O7  UNL     1      99.784 -19.367 -14.755  1.00  0.00    -0.351 OA
HETATM   47  C24 UNL     1      98.991 -19.405 -13.582  1.00  0.00     0.210 C 
ENDBRANCH  12  46
BRANCH   1  48
HETATM   48  O1  UNL     1      98.786 -21.801 -15.499  1.00  0.00    -0.353 OA
HETATM   49  C1  UNL     1      98.237 -23.009 -15.049  1.00  0.00     0.210 C 
ENDBRANCH   1  48
TORSDOF 15
ENDMDL
MODEL 4
REMARK VINA RESULT: -7.172813548      1.341      1.555
REMARK  15 active torsions:
REMARK  status: ('A' for Active; 'I' for Inactive)
REMARK    1  A    between atoms: O1_2  and  C2_3 
REMARK    2  A    between atoms: C5_6  and  N1_7 
REMARK    3  A    between atoms: C6_12  and  N3_13 
REMARK    4  A    between atoms: N4_19  and  C11_20 
REMARK    5  A    between atoms: C11_20  and  C12_21 
REMARK    6  A    between atoms: C12_21  and  O3_23 
REMARK    7  A    between atoms: C14_25  and  N5_26 
REMARK    8  A    between atoms: N5_26  and  C15_28 
REMARK    9  A    between atoms: C15_28  and  C16_29 
REMARK   10  A    between atoms: C15_28  and  C17_32 
REMARK   11  A    between atoms: C16_29  and  O4_30 
REMARK   12  A    between atoms: C17_32  and  O5_33 
REMARK   13  A    between atoms: C17_32  and  C18_35 
REMARK   14  A    between atoms: C21_44  and  O6_45 
REMARK   15  A    between atoms: C23_47  and  O7_48 
ROOT
HETATM    1  C2  UNL     1      99.291 -20.291 -13.405  1.00  0.00     0.105 A 
HETATM    2  C3  UNL     1      99.745 -18.995 -13.440  1.00  0.00     0.056 A 
HETATM    3  C4  UNL     1     101.002 -18.661 -13.937  1.00  0.00     0.028 A 
HETATM    4  C5  UNL     1     101.208 -17.292 -13.884  1.00  0.00     0.126 C 
HETATM    5  N2  UNL     1     102.338 -16.635 -14.226  1.00  0.00    -0.176 N 
ATOM      6  H2  UNL     1     102.249 -15.661 -14.516  1.00  0.00     0.186 HD
HETATM    7  C6  UNL     1     103.607 -17.186 -14.211  1.00  0.00     0.685 C 
HETATM    8  N4  UNL     1     103.962 -18.484 -14.247  1.00  0.00    -0.165 N 
HETATM    9  C14 UNL     1     103.199 -19.521 -14.792  1.00  0.00     0.138 C 
HETATM   10  C20 UNL     1     101.825 -19.688 -14.412  1.00  0.00     0.059 A 
HETATM   11  C21 UNL     1     101.392 -20.959 -14.391  1.00  0.00     0.119 A 
HETATM   12  C23 UNL     1     100.114 -21.277 -13.880  1.00  0.00     0.136 A 
ENDROOT
BRANCH   9  13
HETATM   13  N5  UNL     1     103.626 -20.281 -15.607  1.00  0.00    -0.343 N 
ATOM     14  H5  UNL     1     102.842 -20.922 -15.727  1.00  0.00     0.167 HD
BRANCH  13  15
HETATM   15  C15 UNL     1     104.567 -20.809 -16.492  1.00  0.00     0.048 C 
BRANCH  15  16
HETATM   16  C16 UNL     1     105.568 -19.936 -17.163  1.00  0.00     0.219 C 
BRANCH  16  17
HETATM   17  O4  UNL     1     105.164 -19.285 -18.314  1.00  0.00    -0.395 OA
ATOM     18  H4  UNL     1     104.239 -19.320 -18.528  1.00  0.00     0.209 HD
ENDBRANCH  16  17
ENDBRANCH  15  16
BRANCH  15  19
HETATM   19  C17 UNL     1     104.100 -21.895 -17.442  1.00  0.00     0.234 C 
BRANCH  19  20
HETATM   20  O5  UNL     1     103.539 -21.472 -18.607  1.00  0.00    -0.382 OA
ATOM     21  H5  UNL     1     103.094 -20.633 -18.576  1.00  0.00     0.211 HD
ENDBRANCH  19  20
BRANCH  19  22
HETATM   22  C18 UNL     1     105.204 -22.832 -17.716  1.00  0.00     0.132 A 
HETATM   23  N6  UNL     1     106.009 -23.428 -16.805  1.00  0.00    -0.338 N 
HETATM   24  C19 UNL     1     106.921 -24.156 -17.448  1.00  0.00     0.198 A 
ATOM     25  H6  UNL     1     105.931 -23.334 -15.793  1.00  0.00     0.168 HD
HETATM   26  N7  UNL     1     106.704 -24.029 -18.763  1.00  0.00    -0.295 N 
HETATM   27  N8  UNL     1     105.669 -23.230 -18.919  1.00  0.00    -0.286 N 
ATOM     28  H7  UNL     1     107.242 -24.470 -19.508  1.00  0.00     0.187 HD
ATOM     29  H8  UNL     1     105.275 -22.952 -19.818  1.00  0.00     0.188 HD
ENDBRANCH  19  22
ENDBRANCH  15  19
ENDBRANCH  13  15
ENDBRANCH   9  13
BRANCH   8  30
HETATM   30  C11 UNL     1     105.179 -18.885 -13.611  1.00  0.00     0.180 C 
BRANCH  30  31
HETATM   31  C12 UNL     1     105.071 -19.328 -12.193  1.00  0.00     0.133 C 
HETATM   32  C13 UNL     1     106.228 -19.162 -11.302  1.00  0.00     0.041 C 
BRANCH  31  33
HETATM   33  O3  UNL     1     103.962 -18.719 -11.560  1.00  0.00    -0.394 OA
ATOM     34  H3  UNL     1     103.365 -19.375 -11.220  1.00  0.00     0.210 HD
ENDBRANCH  31  33
ENDBRANCH  30  31
ENDBRANCH   8  30
BRANCH   7  35
HETATM   35  N3  UNL     1     104.650 -16.250 -14.174  1.00  0.00    -0.213 N 
HETATM   36  C7  UNL     1     105.020 -15.555 -15.419  1.00  0.00     0.167 C 
HETATM   37  C8  UNL     1     106.438 -15.960 -15.729  1.00  0.00     0.188 C 
HETATM   38  O2  UNL     1     107.250 -15.972 -14.609  1.00  0.00    -0.388 OA
HETATM   39  C9  UNL     1     106.723 -15.218 -13.565  1.00  0.00     0.188 C 
HETATM   40  C10 UNL     1     105.456 -15.893 -13.028  1.00  0.00     0.167 C 
ENDBRANCH   7  35
BRANCH  11  41
HETATM   41  O6  UNL     1     102.090 -22.047 -14.866  1.00  0.00    -0.352 OA
HETATM   42  C22 UNL     1     101.396 -22.831 -15.927  1.00  0.00     0.210 C 
ENDBRANCH  11  41
BRANCH   4  43
HETATM   43  N1  UNL     1     100.190 -16.620 -13.460  1.00  0.00    -0.384 N 
ATOM     44  H12 UNL     1      99.251 -16.915 -13.728  1.00  0.00     0.157 HD
ATOM     45  H11 UNL     1     100.431 -15.824 -12.869  1.00  0.00     0.157 HD
ENDBRANCH   4  43
BRANCH  12  46
HETATM   46  O7  UNL     1      99.654 -22.570 -13.840  1.00  0.00    -0.351 OA
HETATM   47  C24 UNL     1      99.734 -23.397 -12.692  1.00  0.00     0.210 C 
ENDBRANCH  12  46
BRANCH   1  48
HETATM   48  O1  UNL     1      98.015 -20.597 -12.893  1.00  0.00    -0.353 OA
HETATM   49  C1  UNL     1      97.051 -19.602 -12.682  1.00  0.00     0.210 C 
ENDBRANCH   1  48
TORSDOF 15
ENDMDL
MODEL 5
REMARK VINA RESULT: -6.981544483      1.069      1.451
REMARK  15 active torsions:
REMARK  status: ('A' for Active; 'I' for Inactive)
REMARK    1  A    between atoms: O1_2  and  C2_3 
REMARK    2  A    between atoms: C5_6  and  N1_7 
REMARK    3  A    between atoms: C6_12  and  N3_13 
REMARK    4  A    between atoms: N4_19  and  C11_20 
REMARK    5  A    between atoms: C11_20  and  C12_21 
REMARK    6  A    between atoms: C12_21  and  O3_23 
REMARK    7  A    between atoms: C14_25  and  N5_26 
REMARK    8  A    between atoms: N5_26  and  C15_28 
REMARK    9  A    between atoms: C15_28  and  C16_29 
REMARK   10  A    between atoms: C15_28  and  C17_32 
REMARK   11  A    between atoms: C16_29  and  O4_30 
REMARK   12  A    between atoms: C17_32  and  O5_33 
REMARK   13  A    between atoms: C17_32  and  C18_35 
REMARK   14  A    between atoms: C21_44  and  O6_45 
REMARK   15  A    between atoms: C23_47  and  O7_48 
ROOT
HETATM    1  C2  UNL     1      99.651 -20.415 -13.732  1.00  0.00     0.105 A 
HETATM    2  C3  UNL     1     100.058 -19.106 -13.654  1.00  0.00     0.056 A 
HETATM    3  C4  UNL     1     101.308 -18.688 -14.107  1.00  0.00     0.028 A 
HETATM    4  C5  UNL     1     101.464 -17.322 -13.937  1.00  0.00     0.126 C 
HETATM    5  N2  UNL     1     102.572 -16.599 -14.210  1.00  0.00    -0.176 N 
ATOM      6  H2  UNL     1     102.451 -15.608 -14.419  1.00  0.00     0.186 HD
HETATM    7  C6  UNL     1     103.860 -17.104 -14.226  1.00  0.00     0.685 C 
HETATM    8  N4  UNL     1     104.261 -18.382 -14.364  1.00  0.00    -0.165 N 
HETATM    9  C14 UNL     1     103.542 -19.396 -15.003  1.00  0.00     0.138 C 
HETATM   10  C20 UNL     1     102.171 -19.642 -14.655  1.00  0.00     0.059 A 
HETATM   11  C21 UNL     1     101.784 -20.925 -14.745  1.00  0.00     0.119 A 
HETATM   12  C23 UNL     1     100.513 -21.329 -14.277  1.00  0.00     0.136 A 
ENDROOT
BRANCH   9  13
HETATM   13  N5  UNL     1     104.003 -20.070 -15.872  1.00  0.00    -0.343 N 
ATOM     14  H5  UNL     1     103.239 -20.718 -16.064  1.00  0.00     0.167 HD
BRANCH  13  15
HETATM   15  C15 UNL     1     104.973 -20.494 -16.783  1.00  0.00     0.048 C 
BRANCH  15  16
HETATM   16  C16 UNL     1     104.689 -20.547 -18.242  1.00  0.00     0.219 C 
BRANCH  16  17
HETATM   17  O4  UNL     1     105.211 -19.529 -19.021  1.00  0.00    -0.395 OA
ATOM     18  H4  UNL     1     106.154 -19.516 -19.139  1.00  0.00     0.209 HD
ENDBRANCH  16  17
ENDBRANCH  15  16
BRANCH  15  19
HETATM   19  C17 UNL     1     105.848 -21.665 -16.377  1.00  0.00     0.234 C 
BRANCH  19  20
HETATM   20  O5  UNL     1     105.200 -22.752 -15.876  1.00  0.00    -0.382 OA
ATOM     21  H5  UNL     1     105.233 -23.539 -16.407  1.00  0.00     0.211 HD
ENDBRANCH  19  20
BRANCH  19  22
HETATM   22  C18 UNL     1     106.715 -22.057 -17.501  1.00  0.00     0.132 A 
HETATM   23  N6  UNL     1     107.681 -21.309 -18.082  1.00  0.00    -0.338 N 
HETATM   24  C19 UNL     1     108.200 -21.992 -19.102  1.00  0.00     0.198 A 
ATOM     25  H6  UNL     1     107.966 -20.375 -17.788  1.00  0.00     0.168 HD
HETATM   26  N7  UNL     1     107.571 -23.171 -19.176  1.00  0.00    -0.295 N 
HETATM   27  N8  UNL     1     106.677 -23.205 -18.210  1.00  0.00    -0.286 N 
ATOM     28  H7  UNL     1     107.751 -23.909 -19.857  1.00  0.00     0.187 HD
ATOM     29  H8  UNL     1     106.047 -23.986 -18.024  1.00  0.00     0.188 HD
ENDBRANCH  19  22
ENDBRANCH  15  19
ENDBRANCH  13  15
ENDBRANCH   9  13
BRANCH   8  30
HETATM   30  C11 UNL     1     105.487 -18.791 -13.749  1.00  0.00     0.180 C 
BRANCH  30  31
HETATM   31  C12 UNL     1     105.369 -19.484 -12.436  1.00  0.00     0.133 C 
HETATM   32  C13 UNL     1     106.564 -19.624 -11.593  1.00  0.00     0.041 C 
BRANCH  31  33
HETATM   33  O3  UNL     1     104.362 -18.887 -11.642  1.00  0.00    -0.394 OA
ATOM     34  H3  UNL     1     103.664 -19.506 -11.460  1.00  0.00     0.210 HD
ENDBRANCH  31  33
ENDBRANCH  30  31
ENDBRANCH   8  30
BRANCH   7  35
HETATM   35  N3  UNL     1     104.868 -16.139 -14.099  1.00  0.00    -0.213 N 
HETATM   36  C7  UNL     1     105.165 -15.272 -15.252  1.00  0.00     0.167 C 
HETATM   37  C8  UNL     1     106.585 -15.574 -15.658  1.00  0.00     0.188 C 
HETATM   38  O2  UNL     1     107.438 -15.699 -14.575  1.00  0.00    -0.388 OA
HETATM   39  C9  UNL     1     106.922 -15.110 -13.426  1.00  0.00     0.188 C 
HETATM   40  C10 UNL     1     105.703 -15.902 -12.942  1.00  0.00     0.167 C 
ENDBRANCH   7  35
BRANCH  11  41
HETATM   41  O6  UNL     1     102.525 -21.945 -15.299  1.00  0.00    -0.352 OA
HETATM   42  C22 UNL     1     101.949 -22.546 -16.536  1.00  0.00     0.210 C 
ENDBRANCH  11  41
BRANCH   4  43
HETATM   43  N1  UNL     1     100.418 -16.723 -13.471  1.00  0.00    -0.384 N 
ATOM     44  H12 UNL     1     100.082 -16.961 -12.538  1.00  0.00     0.157 HD
ATOM     45  H11 UNL     1     100.010 -16.039 -14.107  1.00  0.00     0.157 HD
ENDBRANCH   4  43
BRANCH  12  46
HETATM   46  O7  UNL     1     100.100 -22.636 -14.350  1.00  0.00    -0.351 OA
HETATM   47  C24 UNL     1     100.187 -23.549 -13.270  1.00  0.00     0.210 C 
ENDBRANCH  12  46
BRANCH   1  48
HETATM   48  O1  UNL     1      98.383 -20.808 -13.262  1.00  0.00    -0.353 OA
HETATM   49  C1  UNL     1      97.413 -19.865 -12.894  1.00  0.00     0.210 C 
ENDBRANCH   1  48
TORSDOF 15
ENDMDL
