MODEL 1
REMARK VINA RESULT: -6.394682998      0.000      0.000
REMARK  7 active torsions:
REMARK  status: ('A' for Active; 'I' for Inactive)
REMARK    1  A    between atoms: C2_4  and  C3_5 
REMARK    2  A    between atoms: C2_4  and  N5_26 
REMARK    3  A    between atoms: C3_5  and  C4_6 
REMARK    4  A    between atoms: C4_6  and  N2_7 
REMARK       I    between atoms: N2_7  and  C5_9 
REMARK    5  A    between atoms: C5_9  and  C6_11 
REMARK    6  A    between atoms: N3_14  and  S1_15 
REMARK    7  A    between atoms: S1_15  and  N4_18 
ROOT
HETATM    1  N2  UNL     1     -14.143 -19.081  -9.095  1.00  0.00    -0.340 N 
ATOM      2  H2  UNL     1     -13.387 -18.503  -8.728  1.00  0.00     0.167 HD
HETATM    3  C5  UNL     1     -15.210 -19.226  -8.227  1.00  0.00     0.225 C 
HETATM    4  O1  UNL     1     -16.237 -19.849  -8.427  1.00  0.00    -0.273 OA
ENDROOT
BRANCH   3   5
HETATM    5  C6  UNL     1     -15.106 -18.540  -6.878  1.00  0.00     0.081 C 
HETATM    6  C7  UNL     1     -16.445 -17.890  -6.562  1.00  0.00     0.034 C 
HETATM    7  C8  UNL     1     -16.344 -17.343  -5.146  1.00  0.00     0.137 C 
HETATM    8  N3  UNL     1     -16.118 -18.446  -4.281  1.00  0.00    -0.294 N 
HETATM    9  C14 UNL     1     -14.921 -19.181  -4.463  1.00  0.00     0.137 C 
HETATM   10  C15 UNL     1     -14.709 -19.602  -5.904  1.00  0.00     0.034 C 
BRANCH   8  11
HETATM   11  S1  UNL     1     -16.446 -18.153  -2.626  1.00  0.00     0.326 S 
HETATM   12  O2  UNL     1     -17.937 -18.167  -2.403  1.00  0.00    -0.182 OA
HETATM   13  O3  UNL     1     -15.929 -19.372  -1.862  1.00  0.00    -0.182 OA
BRANCH  11  14
HETATM   14  N4  UNL     1     -15.690 -16.800  -1.976  1.00  0.00    -0.253 N 
HETATM   15  C9  UNL     1     -16.440 -15.879  -1.245  1.00  0.00     0.082 C 
HETATM   16  C10 UNL     1     -15.877 -14.487  -1.176  1.00  0.00     0.046 C 
HETATM   17  C11 UNL     1     -14.773 -14.240  -2.161  1.00  0.00     0.010 C 
HETATM   18  C12 UNL     1     -13.745 -15.319  -2.225  1.00  0.00     0.046 C 
HETATM   19  C13 UNL     1     -14.293 -16.706  -2.034  1.00  0.00     0.082 C 
ENDBRANCH  11  14
ENDBRANCH   8  11
ENDBRANCH   3   5
BRANCH   1  20
HETATM   20  C4  UNL     1     -13.901 -19.580 -10.387  1.00  0.00     0.071 C 
BRANCH  20  21
HETATM   21  C3  UNL     1     -12.987 -20.697 -10.553  1.00  0.00     0.120 C 
BRANCH  21  22
HETATM   22  C2  UNL     1     -11.607 -20.419 -10.953  1.00  0.00     0.079 C 
HETATM   23  N1  UNL     1     -11.350 -20.281 -12.167  1.00  0.00    -0.384 N 
HETATM   24  C1  UNL     1     -10.252 -20.022 -12.976  1.00  0.00     0.147 C 
ATOM     25  H1  UNL     1     -12.194 -20.390 -12.729  1.00  0.00     0.160 HD
BRANCH  22  26
HETATM   26  N5  UNL     1     -10.608 -20.379  -9.953  1.00  0.00    -0.371 N 
HETATM   27  C16 UNL     1     -10.179 -19.067  -9.457  1.00  0.00     0.124 C 
HETATM   28  C17 UNL     1     -10.734 -18.962  -8.057  1.00  0.00     0.020 C 
HETATM   29  C18 UNL     1     -11.148 -20.293  -7.514  1.00  0.00     0.003 C 
HETATM   30  C19 UNL     1     -10.187 -21.415  -7.843  1.00  0.00     0.020 C 
HETATM   31  C20 UNL     1      -9.940 -21.492  -9.327  1.00  0.00     0.124 C 
ENDBRANCH  22  26
ENDBRANCH  21  22
ENDBRANCH  20  21
ENDBRANCH   1  20
TORSDOF 7
ENDMDL
MODEL 2
REMARK VINA RESULT: -6.305121197      2.183      8.331
REMARK  7 active torsions:
REMARK  status: ('A' for Active; 'I' for Inactive)
REMARK    1  A    between atoms: C2_4  and  C3_5 
REMARK    2  A    between atoms: C2_4  and  N5_26 
REMARK    3  A    between atoms: C3_5  and  C4_6 
REMARK    4  A    between atoms: C4_6  and  N2_7 
REMARK       I    between atoms: N2_7  and  C5_9 
REMARK    5  A    between atoms: C5_9  and  C6_11 
REMARK    6  A    between atoms: N3_14  and  S1_15 
REMARK    7  A    between atoms: S1_15  and  N4_18 
ROOT
HETATM    1  N2  UNL     1     -16.227 -18.922  -3.055  1.00  0.00    -0.340 N 
ATOM      2  H2  UNL     1     -15.885 -19.871  -3.205  1.00  0.00     0.167 HD
HETATM    3  C5  UNL     1     -16.404 -18.198  -4.220  1.00  0.00     0.225 C 
HETATM    4  O1  UNL     1     -16.814 -17.057  -4.319  1.00  0.00    -0.273 OA
ENDROOT
BRANCH   3   5
HETATM    5  C6  UNL     1     -16.054 -18.888  -5.526  1.00  0.00     0.081 C 
HETATM    6  C7  UNL     1     -16.386 -17.948  -6.674  1.00  0.00     0.034 C 
HETATM    7  C8  UNL     1     -15.888 -18.615  -7.946  1.00  0.00     0.137 C 
HETATM    8  N3  UNL     1     -14.481 -18.761  -7.825  1.00  0.00    -0.294 N 
HETATM    9  C14 UNL     1     -14.001 -19.589  -6.780  1.00  0.00     0.137 C 
HETATM   10  C15 UNL     1     -14.603 -19.235  -5.434  1.00  0.00     0.034 C 
BRANCH   8  11
HETATM   11  S1  UNL     1     -13.647 -19.037  -9.295  1.00  0.00     0.326 S 
HETATM   12  O2  UNL     1     -14.474 -19.938 -10.176  1.00  0.00    -0.182 OA
HETATM   13  O3  UNL     1     -13.618 -17.697 -10.031  1.00  0.00    -0.182 OA
BRANCH  11  14
HETATM   14  N4  UNL     1     -12.055 -19.549  -9.129  1.00  0.00    -0.253 N 
HETATM   15  C9  UNL     1     -11.647 -20.734  -9.743  1.00  0.00     0.082 C 
HETATM   16  C10 UNL     1     -10.447 -21.405  -9.134  1.00  0.00     0.046 C 
HETATM   17  C11 UNL     1     -10.082 -20.863  -7.784  1.00  0.00     0.010 C 
HETATM   18  C12 UNL     1     -10.068 -19.374  -7.695  1.00  0.00     0.046 C 
HETATM   19  C13 UNL     1     -11.124 -18.696  -8.522  1.00  0.00     0.082 C 
ENDBRANCH  11  14
ENDBRANCH   8  11
ENDBRANCH   3   5
BRANCH   1  20
HETATM   20  C4  UNL     1     -16.431 -18.598  -1.702  1.00  0.00     0.071 C 
BRANCH  20  21
HETATM   21  C3  UNL     1     -15.504 -17.692  -1.046  1.00  0.00     0.120 C 
BRANCH  21  22
HETATM   22  C2  UNL     1     -15.476 -16.291  -1.469  1.00  0.00     0.079 C 
HETATM   23  N1  UNL     1     -16.544 -15.644  -1.472  1.00  0.00    -0.384 N 
HETATM   24  C1  UNL     1     -16.983 -14.363  -1.777  1.00  0.00     0.147 C 
ATOM     25  H1  UNL     1     -17.320 -16.227  -1.160  1.00  0.00     0.160 HD
BRANCH  22  26
HETATM   26  N5  UNL     1     -14.252 -15.744  -1.918  1.00  0.00    -0.371 N 
HETATM   27  C16 UNL     1     -13.471 -16.509  -2.895  1.00  0.00     0.124 C 
HETATM   28  C17 UNL     1     -13.592 -15.750  -4.194  1.00  0.00     0.020 C 
HETATM   29  C18 UNL     1     -14.078 -14.351  -3.985  1.00  0.00     0.003 C 
HETATM   30  C19 UNL     1     -13.466 -13.663  -2.784  1.00  0.00     0.020 C 
HETATM   31  C20 UNL     1     -13.654 -14.489  -1.539  1.00  0.00     0.124 C 
ENDBRANCH  22  26
ENDBRANCH  21  22
ENDBRANCH  20  21
ENDBRANCH   1  20
TORSDOF 7
ENDMDL
MODEL 3
REMARK VINA RESULT: -6.230307256      1.531      2.258
REMARK  7 active torsions:
REMARK  status: ('A' for Active; 'I' for Inactive)
REMARK    1  A    between atoms: C2_4  and  C3_5 
REMARK    2  A    between atoms: C2_4  and  N5_26 
REMARK    3  A    between atoms: C3_5  and  C4_6 
REMARK    4  A    between atoms: C4_6  and  N2_7 
REMARK       I    between atoms: N2_7  and  C5_9 
REMARK    5  A    between atoms: C5_9  and  C6_11 
REMARK    6  A    between atoms: N3_14  and  S1_15 
REMARK    7  A    between atoms: S1_15  and  N4_18 
ROOT
HETATM    1  N2  UNL     1     -14.452 -19.388  -8.986  1.00  0.00    -0.340 N 
ATOM      2  H2  UNL     1     -13.753 -19.020  -8.342  1.00  0.00     0.167 HD
HETATM    3  C5  UNL     1     -15.704 -19.553  -8.421  1.00  0.00     0.225 C 
HETATM    4  O1  UNL     1     -16.710 -19.958  -8.973  1.00  0.00    -0.273 OA
ENDROOT
BRANCH   3   5
HETATM    5  C6  UNL     1     -15.856 -19.192  -6.954  1.00  0.00     0.081 C 
HETATM    6  C7  UNL     1     -14.493 -19.294  -6.288  1.00  0.00     0.034 C 
HETATM    7  C8  UNL     1     -14.662 -18.787  -4.864  1.00  0.00     0.137 C 
HETATM    8  N3  UNL     1     -15.068 -17.428  -4.943  1.00  0.00    -0.294 N 
HETATM    9  C14 UNL     1     -16.311 -17.157  -5.566  1.00  0.00     0.137 C 
HETATM   10  C15 UNL     1     -16.438 -17.816  -6.926  1.00  0.00     0.034 C 
BRANCH   8  11
HETATM   11  S1  UNL     1     -14.857 -16.519  -3.508  1.00  0.00     0.326 S 
HETATM   12  O2  UNL     1     -13.531 -16.872  -2.884  1.00  0.00    -0.182 OA
HETATM   13  O3  UNL     1     -14.706 -15.061  -3.940  1.00  0.00    -0.182 OA
BRANCH  11  14
HETATM   14  N4  UNL     1     -16.140 -16.588  -2.423  1.00  0.00    -0.253 N 
HETATM   15  C9  UNL     1     -16.784 -17.805  -2.198  1.00  0.00     0.082 C 
HETATM   16  C10 UNL     1     -18.196 -17.711  -1.690  1.00  0.00     0.046 C 
HETATM   17  C11 UNL     1     -18.783 -16.336  -1.810  1.00  0.00     0.010 C 
HETATM   18  C12 UNL     1     -17.887 -15.236  -1.350  1.00  0.00     0.046 C 
HETATM   19  C13 UNL     1     -16.430 -15.464  -1.639  1.00  0.00     0.082 C 
ENDBRANCH  11  14
ENDBRANCH   8  11
ENDBRANCH   3   5
BRANCH   1  20
HETATM   20  C4  UNL     1     -13.962 -19.632 -10.281  1.00  0.00     0.071 C 
BRANCH  20  21
HETATM   21  C3  UNL     1     -13.053 -20.746 -10.494  1.00  0.00     0.120 C 
BRANCH  21  22
HETATM   22  C2  UNL     1     -11.683 -20.460 -10.920  1.00  0.00     0.079 C 
HETATM   23  N1  UNL     1     -11.443 -20.362 -12.142  1.00  0.00    -0.384 N 
HETATM   24  C1  UNL     1     -10.359 -20.115 -12.973  1.00  0.00     0.147 C 
ATOM     25  H1  UNL     1     -12.293 -20.505 -12.689  1.00  0.00     0.160 HD
BRANCH  22  26
HETATM   26  N5  UNL     1     -10.672 -20.369  -9.935  1.00  0.00    -0.371 N 
HETATM   27  C16 UNL     1     -10.294 -19.036  -9.455  1.00  0.00     0.124 C 
HETATM   28  C17 UNL     1     -10.833 -18.944  -8.049  1.00  0.00     0.020 C 
HETATM   29  C18 UNL     1     -11.181 -20.288  -7.490  1.00  0.00     0.003 C 
HETATM   30  C19 UNL     1     -10.177 -21.369  -7.824  1.00  0.00     0.020 C 
HETATM   31  C20 UNL     1      -9.948 -21.448  -9.311  1.00  0.00     0.124 C 
ENDBRANCH  22  26
ENDBRANCH  21  22
ENDBRANCH  20  21
ENDBRANCH   1  20
TORSDOF 7
ENDMDL
MODEL 4
REMARK VINA RESULT: -6.210988212      1.783      2.656
REMARK  7 active torsions:
REMARK  status: ('A' for Active; 'I' for Inactive)
REMARK    1  A    between atoms: C2_4  and  C3_5 
REMARK    2  A    between atoms: C2_4  and  N5_26 
REMARK    3  A    between atoms: C3_5  and  C4_6 
REMARK    4  A    between atoms: C4_6  and  N2_7 
REMARK       I    between atoms: N2_7  and  C5_9 
REMARK    5  A    between atoms: C5_9  and  C6_11 
REMARK    6  A    between atoms: N3_14  and  S1_15 
REMARK    7  A    between atoms: S1_15  and  N4_18 
ROOT
HETATM    1  N2  UNL     1     -14.555 -19.444  -8.125  1.00  0.00    -0.340 N 
ATOM      2  H2  UNL     1     -14.655 -20.291  -7.564  1.00  0.00     0.167 HD
HETATM    3  C5  UNL     1     -15.144 -18.326  -7.562  1.00  0.00     0.225 C 
HETATM    4  O1  UNL     1     -15.155 -17.197  -8.016  1.00  0.00    -0.273 OA
ENDROOT
BRANCH   3   5
HETATM    5  C6  UNL     1     -15.856 -18.510  -6.235  1.00  0.00     0.081 C 
HETATM    6  C7  UNL     1     -14.964 -19.333  -5.318  1.00  0.00     0.034 C 
HETATM    7  C8  UNL     1     -15.646 -19.369  -3.959  1.00  0.00     0.137 C 
HETATM    8  N3  UNL     1     -15.728 -18.031  -3.490  1.00  0.00    -0.294 N 
HETATM    9  C14 UNL     1     -16.504 -17.123  -4.252  1.00  0.00     0.137 C 
HETATM   10  C15 UNL     1     -16.138 -17.134  -5.723  1.00  0.00     0.034 C 
BRANCH   8  11
HETATM   11  S1  UNL     1     -16.010 -17.863  -1.809  1.00  0.00     0.326 S 
HETATM   12  O2  UNL     1     -16.011 -19.227  -1.166  1.00  0.00    -0.182 OA
HETATM   13  O3  UNL     1     -14.778 -17.165  -1.234  1.00  0.00    -0.182 OA
BRANCH  11  14
HETATM   14  N4  UNL     1     -17.349 -16.934  -1.398  1.00  0.00    -0.253 N 
HETATM   15  C9  UNL     1     -18.622 -17.500  -1.459  1.00  0.00     0.082 C 
HETATM   16  C10 UNL     1     -19.760 -16.531  -1.624  1.00  0.00     0.046 C 
HETATM   17  C11 UNL     1     -19.316 -15.152  -2.013  1.00  0.00     0.010 C 
HETATM   18  C12 UNL     1     -18.166 -14.624  -1.224  1.00  0.00     0.046 C 
HETATM   19  C13 UNL     1     -17.151 -15.665  -0.840  1.00  0.00     0.082 C 
ENDBRANCH  11  14
ENDBRANCH   8  11
ENDBRANCH   3   5
BRANCH   1  20
HETATM   20  C4  UNL     1     -13.845 -19.636  -9.323  1.00  0.00     0.071 C 
BRANCH  20  21
HETATM   21  C3  UNL     1     -12.392 -19.612  -9.294  1.00  0.00     0.120 C 
BRANCH  21  22
HETATM   22  C2  UNL     1     -11.661 -20.635 -10.043  1.00  0.00     0.079 C 
HETATM   23  N1  UNL     1     -12.263 -21.275 -10.930  1.00  0.00    -0.384 N 
HETATM   24  C1  UNL     1     -11.999 -22.282 -11.848  1.00  0.00     0.147 C 
ATOM     25  H1  UNL     1     -13.233 -20.967 -11.001  1.00  0.00     0.160 HD
BRANCH  22  26
HETATM   26  N5  UNL     1     -10.318 -20.901  -9.690  1.00  0.00    -0.371 N 
HETATM   27  C16 UNL     1     -10.018 -21.197  -8.285  1.00  0.00     0.124 C 
HETATM   28  C17 UNL     1      -9.689 -22.669  -8.243  1.00  0.00     0.020 C 
HETATM   29  C18 UNL     1      -9.384 -23.217  -9.601  1.00  0.00     0.003 C 
HETATM   30  C19 UNL     1      -8.540 -22.298 -10.456  1.00  0.00     0.020 C 
HETATM   31  C20 UNL     1      -9.166 -20.932 -10.557  1.00  0.00     0.124 C 
ENDBRANCH  22  26
ENDBRANCH  21  22
ENDBRANCH  20  21
ENDBRANCH   1  20
TORSDOF 7
ENDMDL
MODEL 5
REMARK VINA RESULT: -6.124924915      1.882      2.538
REMARK  7 active torsions:
REMARK  status: ('A' for Active; 'I' for Inactive)
REMARK    1  A    between atoms: C2_4  and  C3_5 
REMARK    2  A    between atoms: C2_4  and  N5_26 
REMARK    3  A    between atoms: C3_5  and  C4_6 
REMARK    4  A    between atoms: C4_6  and  N2_7 
REMARK       I    between atoms: N2_7  and  C5_9 
REMARK    5  A    between atoms: C5_9  and  C6_11 
REMARK    6  A    between atoms: N3_14  and  S1_15 
REMARK    7  A    between atoms: S1_15  and  N4_18 
ROOT
HETATM    1  N2  UNL     1     -14.131 -19.522  -9.519  1.00  0.00    -0.340 N 
ATOM      2  H2  UNL     1     -13.470 -19.214  -8.806  1.00  0.00     0.167 HD
HETATM    3  C5  UNL     1     -15.455 -19.453  -9.124  1.00  0.00     0.225 C 
HETATM    4  O1  UNL     1     -16.433 -19.745  -9.786  1.00  0.00    -0.273 OA
ENDROOT
BRANCH   3   5
HETATM    5  C6  UNL     1     -15.735 -18.961  -7.716  1.00  0.00     0.081 C 
HETATM    6  C7  UNL     1     -14.437 -18.998  -6.924  1.00  0.00     0.034 C 
HETATM    7  C8  UNL     1     -14.729 -18.363  -5.573  1.00  0.00     0.137 C 
HETATM    8  N3  UNL     1     -15.119 -17.019  -5.812  1.00  0.00    -0.294 N 
HETATM    9  C14 UNL     1     -16.300 -16.809  -6.565  1.00  0.00     0.137 C 
HETATM   10  C15 UNL     1     -16.310 -17.590  -7.864  1.00  0.00     0.034 C 
BRANCH   8  11
HETATM   11  S1  UNL     1     -15.033 -15.982  -4.452  1.00  0.00     0.326 S 
HETATM   12  O2  UNL     1     -13.613 -15.506  -4.278  1.00  0.00    -0.182 OA
HETATM   13  O3  UNL     1     -15.820 -14.725  -4.818  1.00  0.00    -0.182 OA
BRANCH  11  14
HETATM   14  N4  UNL     1     -15.703 -16.598  -3.039  1.00  0.00    -0.253 N 
HETATM   15  C9  UNL     1     -14.872 -16.910  -1.964  1.00  0.00     0.082 C 
HETATM   16  C10 UNL     1     -15.411 -17.926  -0.995  1.00  0.00     0.046 C 
HETATM   17  C11 UNL     1     -16.609 -18.666  -1.513  1.00  0.00     0.010 C 
HETATM   18  C12 UNL     1     -17.649 -17.801  -2.143  1.00  0.00     0.046 C 
HETATM   19  C13 UNL     1     -17.097 -16.627  -2.904  1.00  0.00     0.082 C 
ENDBRANCH  11  14
ENDBRANCH   8  11
ENDBRANCH   3   5
BRANCH   1  20
HETATM   20  C4  UNL     1     -13.523 -19.936 -10.717  1.00  0.00     0.071 C 
BRANCH  20  21
HETATM   21  C3  UNL     1     -12.734 -21.156 -10.723  1.00  0.00     0.120 C 
BRANCH  21  22
HETATM   22  C2  UNL     1     -11.314 -21.070 -11.068  1.00  0.00     0.079 C 
HETATM   23  N1  UNL     1     -10.978 -21.201 -12.264  1.00  0.00    -0.384 N 
HETATM   24  C1  UNL     1      -9.818 -21.195 -13.026  1.00  0.00     0.147 C 
ATOM     25  H1  UNL     1     -11.797 -21.357 -12.853  1.00  0.00     0.160 HD
BRANCH  22  26
HETATM   26  N5  UNL     1     -10.373 -20.904 -10.026  1.00  0.00    -0.371 N 
HETATM   27  C16 UNL     1      -9.916 -19.545  -9.717  1.00  0.00     0.124 C 
HETATM   28  C17 UNL     1     -10.545 -19.198  -8.390  1.00  0.00     0.020 C 
HETATM   29  C18 UNL     1     -11.048 -20.409  -7.671  1.00  0.00     0.003 C 
HETATM   30  C19 UNL     1     -10.120 -21.601  -7.756  1.00  0.00     0.020 C 
HETATM   31  C20 UNL     1      -9.792 -21.924  -9.191  1.00  0.00     0.124 C 
ENDBRANCH  22  26
ENDBRANCH  21  22
ENDBRANCH  20  21
ENDBRANCH   1  20
TORSDOF 7
ENDMDL
