MODEL 1
REMARK VINA RESULT: -6.609100744      0.000      0.000
REMARK  6 active torsions:
REMARK  status: ('A' for Active; 'I' for Inactive)
REMARK       I    between atoms: C1_2  and  N1_3 
REMARK    1  A    between atoms: C1_2  and  C5_8 
REMARK    2  A    between atoms: N1_3  and  C2_5 
REMARK    3  A    between atoms: N2_11  and  S1_12 
REMARK    4  A    between atoms: S1_12  and  N3_15 
REMARK    5  A    between atoms: N4_18  and  C10_19 
REMARK    6  A    between atoms: C10_19  and  C11_20 
ROOT
HETATM    1  S1  UNL     1     -14.864 -16.889  -6.746  1.00  0.00     0.300 S 
HETATM    2  O2  UNL     1     -15.952 -17.901  -6.951  1.00  0.00    -0.188 OA
HETATM    3  O3  UNL     1     -14.912 -15.980  -7.959  1.00  0.00    -0.188 OA
ENDROOT
BRANCH   1   4
HETATM    4  N2  UNL     1     -15.087 -16.003  -5.320  1.00  0.00    -0.298 N 
HETATM    5  C7  UNL     1     -13.955 -16.040  -4.475  1.00  0.00     0.137 C 
HETATM    6  C6  UNL     1     -14.086 -17.019  -3.323  1.00  0.00     0.034 C 
HETATM    7  C5  UNL     1     -15.393 -16.894  -2.615  1.00  0.00     0.081 C 
HETATM    8  C21 UNL     1     -16.544 -16.994  -3.597  1.00  0.00     0.034 C 
HETATM    9  C20 UNL     1     -16.370 -16.031  -4.733  1.00  0.00     0.137 C 
BRANCH   7  10
HETATM   10  C1  UNL     1     -15.571 -17.993  -1.645  1.00  0.00     0.222 C 
HETATM   11  O1  UNL     1     -15.425 -17.752  -0.428  1.00  0.00    -0.273 OA
HETATM   12  N1  UNL     1     -15.901 -19.285  -2.137  1.00  0.00    -0.356 N 
ATOM     13  H1  UNL     1     -16.005 -19.411  -3.144  1.00  0.00     0.162 HD
BRANCH  12  14
HETATM   14  C2  UNL     1     -16.098 -20.432  -1.268  1.00  0.00     0.084 A 
HETATM   15  C3  UNL     1     -14.950 -21.244  -0.797  1.00  0.00     0.027 A 
HETATM   16  C4  UNL     1     -15.833 -21.794  -1.855  1.00  0.00     0.027 A 
ENDBRANCH  12  14
ENDBRANCH   7  10
ENDBRANCH   1   4
BRANCH   1  17
HETATM   17  N3  UNL     1     -13.348 -17.671  -6.719  1.00  0.00    -0.190 NA
HETATM   18  C8  UNL     1     -12.338 -16.916  -7.431  1.00  0.00     0.139 C 
HETATM   19  C9  UNL     1     -12.315 -17.187  -8.881  1.00  0.00     0.288 C 
HETATM   20  N4  UNL     1     -12.267 -18.651  -9.199  1.00  0.00     0.091 N 
HETATM   21  C18 UNL     1     -13.402 -19.250  -8.541  1.00  0.00     0.288 C 
HETATM   22  C19 UNL     1     -13.352 -19.053  -7.067  1.00  0.00     0.139 C 
BRANCH  20  23
HETATM   23  C10 UNL     1     -10.983 -19.138  -8.926  1.00  0.00     0.277 C 
BRANCH  23  24
HETATM   24  C11 UNL     1     -10.651 -20.593  -8.996  1.00  0.00     0.014 C 
HETATM   25  C12 UNL     1     -10.234 -21.173  -7.707  1.00  0.00     0.006 C 
HETATM   26  C13 UNL     1      -9.771 -22.608  -7.730  1.00  0.00     0.000 C 
HETATM   27  C14 UNL     1      -8.833 -22.974  -8.808  1.00  0.00     0.000 C 
HETATM   28  C15 UNL     1      -9.675 -23.269 -10.054  1.00  0.00     0.000 C 
HETATM   29  C16 UNL     1      -9.743 -22.028 -10.874  1.00  0.00     0.000 C 
HETATM   30  C17 UNL     1      -9.610 -20.761 -10.108  1.00  0.00     0.006 C 
ENDBRANCH  23  24
ENDBRANCH  20  23
ENDBRANCH   1  17
TORSDOF 6
ENDMDL
MODEL 2
REMARK VINA RESULT: -6.465273184      1.451      1.920
REMARK  6 active torsions:
REMARK  status: ('A' for Active; 'I' for Inactive)
REMARK       I    between atoms: C1_2  and  N1_3 
REMARK    1  A    between atoms: C1_2  and  C5_8 
REMARK    2  A    between atoms: N1_3  and  C2_5 
REMARK    3  A    between atoms: N2_11  and  S1_12 
REMARK    4  A    between atoms: S1_12  and  N3_15 
REMARK    5  A    between atoms: N4_18  and  C10_19 
REMARK    6  A    between atoms: C10_19  and  C11_20 
ROOT
HETATM    1  S1  UNL     1     -14.104 -16.069  -6.851  1.00  0.00     0.300 S 
HETATM    2  O2  UNL     1     -15.330 -16.303  -7.682  1.00  0.00    -0.188 OA
HETATM    3  O3  UNL     1     -13.339 -14.959  -7.547  1.00  0.00    -0.188 OA
ENDROOT
BRANCH   1   4
HETATM    4  N2  UNL     1     -14.493 -15.627  -5.262  1.00  0.00    -0.298 N 
HETATM    5  C7  UNL     1     -13.659 -16.247  -4.306  1.00  0.00     0.137 C 
HETATM    6  C6  UNL     1     -14.298 -17.442  -3.624  1.00  0.00     0.034 C 
HETATM    7  C5  UNL     1     -15.684 -17.156  -3.154  1.00  0.00     0.081 C 
HETATM    8  C21 UNL     1     -16.531 -16.613  -4.289  1.00  0.00     0.034 C 
HETATM    9  C20 UNL     1     -15.859 -15.450  -4.955  1.00  0.00     0.137 C 
BRANCH   7  10
HETATM   10  C1  UNL     1     -16.346 -18.392  -2.689  1.00  0.00     0.222 C 
HETATM   11  O1  UNL     1     -17.581 -18.381  -2.506  1.00  0.00    -0.273 OA
HETATM   12  N1  UNL     1     -15.548 -19.547  -2.468  1.00  0.00    -0.356 N 
ATOM     13  H1  UNL     1     -14.544 -19.485  -2.638  1.00  0.00     0.162 HD
BRANCH  12  14
HETATM   14  C2  UNL     1     -16.101 -20.811  -2.012  1.00  0.00     0.084 A 
HETATM   15  C3  UNL     1     -15.717 -21.387  -0.700  1.00  0.00     0.027 A 
HETATM   16  C4  UNL     1     -15.161 -21.987  -1.939  1.00  0.00     0.027 A 
ENDBRANCH  12  14
ENDBRANCH   7  10
ENDBRANCH   1   4
BRANCH   1  17
HETATM   17  N3  UNL     1     -13.134 -17.472  -6.847  1.00  0.00    -0.190 NA
HETATM   18  C8  UNL     1     -11.981 -17.333  -7.714  1.00  0.00     0.139 C 
HETATM   19  C9  UNL     1     -12.261 -17.678  -9.121  1.00  0.00     0.288 C 
HETATM   20  N4  UNL     1     -12.936 -19.007  -9.272  1.00  0.00     0.091 N 
HETATM   21  C18 UNL     1     -14.132 -18.952  -8.468  1.00  0.00     0.288 C 
HETATM   22  C19 UNL     1     -13.821 -18.707  -7.034  1.00  0.00     0.139 C 
BRANCH  20  23
HETATM   23  C10 UNL     1     -12.003 -20.025  -9.041  1.00  0.00     0.277 C 
BRANCH  23  24
HETATM   24  C11 UNL     1     -11.612 -21.003 -10.101  1.00  0.00     0.014 C 
HETATM   25  C12 UNL     1     -10.184 -20.952 -10.462  1.00  0.00     0.006 C 
HETATM   26  C13 UNL     1      -9.745 -21.829 -11.607  1.00  0.00     0.000 C 
HETATM   27  C14 UNL     1     -10.601 -21.810 -12.809  1.00  0.00     0.000 C 
HETATM   28  C15 UNL     1     -11.752 -22.789 -12.555  1.00  0.00     0.000 C 
HETATM   29  C16 UNL     1     -12.910 -22.017 -12.024  1.00  0.00     0.000 C 
HETATM   30  C17 UNL     1     -12.552 -20.775 -11.289  1.00  0.00     0.006 C 
ENDBRANCH  23  24
ENDBRANCH  20  23
ENDBRANCH   1  17
TORSDOF 6
ENDMDL
MODEL 3
REMARK VINA RESULT: -6.451130510      3.634      8.897
REMARK  6 active torsions:
REMARK  status: ('A' for Active; 'I' for Inactive)
REMARK       I    between atoms: C1_2  and  N1_3 
REMARK    1  A    between atoms: C1_2  and  C5_8 
REMARK    2  A    between atoms: N1_3  and  C2_5 
REMARK    3  A    between atoms: N2_11  and  S1_12 
REMARK    4  A    between atoms: S1_12  and  N3_15 
REMARK    5  A    between atoms: N4_18  and  C10_19 
REMARK    6  A    between atoms: C10_19  and  C11_20 
ROOT
HETATM    1  S1  UNL     1     -10.221 -18.479  -9.721  1.00  0.00     0.300 S 
HETATM    2  O2  UNL     1      -9.529 -18.906  -8.460  1.00  0.00    -0.188 OA
HETATM    3  O3  UNL     1      -9.905 -17.004  -9.885  1.00  0.00    -0.188 OA
ENDROOT
BRANCH   1   4
HETATM    4  N2  UNL     1      -9.687 -19.362 -11.064  1.00  0.00    -0.298 N 
HETATM    5  C7  UNL     1     -10.515 -19.184 -12.195  1.00  0.00     0.137 C 
HETATM    6  C6  UNL     1     -11.484 -20.328 -12.427  1.00  0.00     0.034 C 
HETATM    7  C5  UNL     1     -10.822 -21.661 -12.339  1.00  0.00     0.081 C 
HETATM    8  C21 UNL     1     -10.066 -21.796 -11.032  1.00  0.00     0.034 C 
HETATM    9  C20 UNL     1      -9.136 -20.639 -10.824  1.00  0.00     0.137 C 
BRANCH   7  10
HETATM   10  C1  UNL     1     -11.824 -22.746 -12.359  1.00  0.00     0.222 C 
HETATM   11  O1  UNL     1     -11.503 -23.871 -11.921  1.00  0.00    -0.273 OA
HETATM   12  N1  UNL     1     -13.117 -22.466 -12.878  1.00  0.00    -0.356 N 
ATOM     13  H1  UNL     1     -13.312 -21.524 -13.219  1.00  0.00     0.162 HD
BRANCH  12  14
HETATM   14  C2  UNL     1     -14.173 -23.462 -12.942  1.00  0.00     0.084 A 
HETATM   15  C3  UNL     1     -14.499 -24.154 -14.212  1.00  0.00     0.027 A 
HETATM   16  C4  UNL     1     -15.416 -23.099 -13.713  1.00  0.00     0.027 A 
ENDBRANCH  12  14
ENDBRANCH   7  10
ENDBRANCH   1   4
BRANCH   1  17
HETATM   17  N3  UNL     1     -11.908 -18.652  -9.539  1.00  0.00    -0.190 NA
HETATM   18  C8  UNL     1     -12.522 -17.445  -9.025  1.00  0.00     0.139 C 
HETATM   19  C9  UNL     1     -12.495 -17.355  -7.552  1.00  0.00     0.288 C 
HETATM   20  N4  UNL     1     -13.012 -18.591  -6.883  1.00  0.00     0.091 N 
HETATM   21  C18 UNL     1     -12.222 -19.689  -7.384  1.00  0.00     0.288 C 
HETATM   22  C19 UNL     1     -12.345 -19.827  -8.860  1.00  0.00     0.139 C 
BRANCH  20  23
HETATM   23  C10 UNL     1     -14.405 -18.637  -7.014  1.00  0.00     0.277 C 
BRANCH  23  24
HETATM   24  C11 UNL     1     -15.323 -18.365  -5.867  1.00  0.00     0.014 C 
HETATM   25  C12 UNL     1     -15.697 -16.946  -5.724  1.00  0.00     0.006 C 
HETATM   26  C13 UNL     1     -16.526 -16.585  -4.517  1.00  0.00     0.000 C 
HETATM   27  C14 UNL     1     -16.085 -17.153  -3.229  1.00  0.00     0.000 C 
HETATM   28  C15 UNL     1     -16.660 -18.571  -3.146  1.00  0.00     0.000 C 
HETATM   29  C16 UNL     1     -15.622 -19.522  -3.634  1.00  0.00     0.000 C 
HETATM   30  C17 UNL     1     -14.662 -18.953  -4.616  1.00  0.00     0.006 C 
ENDBRANCH  23  24
ENDBRANCH  20  23
ENDBRANCH   1  17
TORSDOF 6
ENDMDL
MODEL 4
REMARK VINA RESULT: -6.291486557      4.135      5.890
REMARK  6 active torsions:
REMARK  status: ('A' for Active; 'I' for Inactive)
REMARK       I    between atoms: C1_2  and  N1_3 
REMARK    1  A    between atoms: C1_2  and  C5_8 
REMARK    2  A    between atoms: N1_3  and  C2_5 
REMARK    3  A    between atoms: N2_11  and  S1_12 
REMARK    4  A    between atoms: S1_12  and  N3_15 
REMARK    5  A    between atoms: N4_18  and  C10_19 
REMARK    6  A    between atoms: C10_19  and  C11_20 
ROOT
HETATM    1  S1  UNL     1     -14.671 -16.204  -7.269  1.00  0.00     0.300 S 
HETATM    2  O2  UNL     1     -14.443 -15.010  -8.147  1.00  0.00    -0.188 OA
HETATM    3  O3  UNL     1     -13.559 -17.179  -7.601  1.00  0.00    -0.188 OA
ENDROOT
BRANCH   1   4
HETATM    4  N2  UNL     1     -14.641 -15.793  -5.625  1.00  0.00    -0.298 N 
HETATM    5  C7  UNL     1     -13.711 -16.562  -4.891  1.00  0.00     0.137 C 
HETATM    6  C6  UNL     1     -14.342 -17.696  -4.106  1.00  0.00     0.034 C 
HETATM    7  C5  UNL     1     -15.540 -17.257  -3.334  1.00  0.00     0.081 C 
HETATM    8  C21 UNL     1     -16.532 -16.555  -4.241  1.00  0.00     0.034 C 
HETATM    9  C20 UNL     1     -15.870 -15.457  -5.018  1.00  0.00     0.137 C 
BRANCH   7  10
HETATM   10  C1  UNL     1     -16.247 -18.418  -2.757  1.00  0.00     0.222 C 
HETATM   11  O1  UNL     1     -17.457 -18.304  -2.469  1.00  0.00    -0.273 OA
HETATM   12  N1  UNL     1     -15.519 -19.621  -2.551  1.00  0.00    -0.356 N 
ATOM     13  H1  UNL     1     -14.532 -19.645  -2.809  1.00  0.00     0.162 HD
BRANCH  12  14
HETATM   14  C2  UNL     1     -16.120 -20.819  -1.990  1.00  0.00     0.084 A 
HETATM   15  C3  UNL     1     -15.707 -21.336  -0.663  1.00  0.00     0.027 A 
HETATM   16  C4  UNL     1     -15.248 -22.043  -1.885  1.00  0.00     0.027 A 
ENDBRANCH  12  14
ENDBRANCH   7  10
ENDBRANCH   1   4
BRANCH   1  17
HETATM   17  N3  UNL     1     -16.162 -16.933  -7.663  1.00  0.00    -0.190 NA
HETATM   18  C8  UNL     1     -16.125 -18.370  -7.484  1.00  0.00     0.139 C 
HETATM   19  C9  UNL     1     -15.600 -19.094  -8.658  1.00  0.00     0.288 C 
HETATM   20  N4  UNL     1     -16.269 -18.692  -9.937  1.00  0.00     0.091 N 
HETATM   21  C18 UNL     1     -16.109 -17.263 -10.051  1.00  0.00     0.288 C 
HETATM   22  C19 UNL     1     -16.737 -16.546  -8.909  1.00  0.00     0.139 C 
BRANCH  20  23
HETATM   23  C10 UNL     1     -17.556 -19.241  -9.974  1.00  0.00     0.277 C 
BRANCH  23  24
HETATM   24  C11 UNL     1     -18.427 -19.150 -11.185  1.00  0.00     0.014 C 
HETATM   25  C12 UNL     1     -19.157 -17.874 -11.300  1.00  0.00     0.006 C 
HETATM   26  C13 UNL     1     -20.144 -17.761 -12.434  1.00  0.00     0.000 C 
HETATM   27  C14 UNL     1     -21.046 -18.911 -12.631  1.00  0.00     0.000 C 
HETATM   28  C15 UNL     1     -20.277 -19.946 -13.460  1.00  0.00     0.000 C 
HETATM   29  C16 UNL     1     -19.650 -20.918 -12.521  1.00  0.00     0.000 C 
HETATM   30  C17 UNL     1     -19.342 -20.379 -11.171  1.00  0.00     0.006 C 
ENDBRANCH  23  24
ENDBRANCH  20  23
ENDBRANCH   1  17
TORSDOF 6
ENDMDL
MODEL 5
REMARK VINA RESULT: -6.290814411      1.583      2.108
REMARK  6 active torsions:
REMARK  status: ('A' for Active; 'I' for Inactive)
REMARK       I    between atoms: C1_2  and  N1_3 
REMARK    1  A    between atoms: C1_2  and  C5_8 
REMARK    2  A    between atoms: N1_3  and  C2_5 
REMARK    3  A    between atoms: N2_11  and  S1_12 
REMARK    4  A    between atoms: S1_12  and  N3_15 
REMARK    5  A    between atoms: N4_18  and  C10_19 
REMARK    6  A    between atoms: C10_19  and  C11_20 
ROOT
HETATM    1  S1  UNL     1     -13.955 -17.287  -7.281  1.00  0.00     0.300 S 
HETATM    2  O2  UNL     1     -13.758 -16.332  -8.422  1.00  0.00    -0.188 OA
HETATM    3  O3  UNL     1     -12.886 -16.941  -6.264  1.00  0.00    -0.188 OA
ENDROOT
BRANCH   1   4
HETATM    4  N2  UNL     1     -15.501 -17.146  -6.602  1.00  0.00    -0.298 N 
HETATM    5  C7  UNL     1     -15.561 -16.165  -5.587  1.00  0.00     0.137 C 
HETATM    6  C6  UNL     1     -15.516 -16.738  -4.183  1.00  0.00     0.034 C 
HETATM    7  C5  UNL     1     -16.455 -17.882  -4.004  1.00  0.00     0.081 C 
HETATM    8  C21 UNL     1     -16.222 -18.936  -5.069  1.00  0.00     0.034 C 
HETATM    9  C20 UNL     1     -16.250 -18.332  -6.441  1.00  0.00     0.137 C 
BRANCH   7  10
HETATM   10  C1  UNL     1     -16.234 -18.545  -2.702  1.00  0.00     0.222 C 
HETATM   11  O1  UNL     1     -15.909 -17.847  -1.719  1.00  0.00    -0.273 OA
HETATM   12  N1  UNL     1     -16.401 -19.954  -2.622  1.00  0.00    -0.356 N 
ATOM     13  H1  UNL     1     -16.668 -20.462  -3.465  1.00  0.00     0.162 HD
BRANCH  12  14
HETATM   14  C2  UNL     1     -16.207 -20.700  -1.391  1.00  0.00     0.084 A 
HETATM   15  C3  UNL     1     -14.862 -21.167  -0.980  1.00  0.00     0.027 A 
HETATM   16  C4  UNL     1     -15.830 -22.154  -1.519  1.00  0.00     0.027 A 
ENDBRANCH  12  14
ENDBRANCH   7  10
ENDBRANCH   1   4
BRANCH   1  17
HETATM   17  N3  UNL     1     -13.694 -18.885  -7.816  1.00  0.00    -0.190 NA
HETATM   18  C8  UNL     1     -12.386 -19.375  -7.432  1.00  0.00     0.139 C 
HETATM   19  C9  UNL     1     -11.320 -19.012  -8.386  1.00  0.00     0.288 C 
HETATM   20  N4  UNL     1     -11.666 -19.350  -9.803  1.00  0.00     0.091 N 
HETATM   21  C18 UNL     1     -12.914 -18.686 -10.090  1.00  0.00     0.288 C 
HETATM   22  C19 UNL     1     -14.002 -19.144  -9.183  1.00  0.00     0.139 C 
BRANCH  20  23
HETATM   23  C10 UNL     1     -11.572 -20.735  -9.981  1.00  0.00     0.277 C 
BRANCH  23  24
HETATM   24  C11 UNL     1     -10.447 -21.369 -10.733  1.00  0.00     0.014 C 
HETATM   25  C12 UNL     1      -9.474 -22.067  -9.874  1.00  0.00     0.006 C 
HETATM   26  C13 UNL     1      -8.251 -22.627 -10.556  1.00  0.00     0.000 C 
HETATM   27  C14 UNL     1      -7.572 -21.735 -11.515  1.00  0.00     0.000 C 
HETATM   28  C15 UNL     1      -8.320 -21.858 -12.847  1.00  0.00     0.000 C 
HETATM   29  C16 UNL     1      -9.324 -20.759 -12.919  1.00  0.00     0.000 C 
HETATM   30  C17 UNL     1      -9.820 -20.275 -11.604  1.00  0.00     0.006 C 
ENDBRANCH  23  24
ENDBRANCH  20  23
ENDBRANCH   1  17
TORSDOF 6
ENDMDL
