MODEL 1
REMARK VINA RESULT: -6.354454132      0.000      0.000
REMARK  6 active torsions:
REMARK  status: ('A' for Active; 'I' for Inactive)
REMARK    1  A    between atoms: C4_5  and  C5_6 
REMARK       I    between atoms: C5_6  and  N2_8 
REMARK    2  A    between atoms: N2_8  and  C6_10 
REMARK    3  A    between atoms: N3_13  and  C9_14 
REMARK    4  A    between atoms: N4_17  and  S1_18 
REMARK    5  A    between atoms: S1_18  and  C12_21 
REMARK    6  A    between atoms: C12_21  and  C13_22 
ROOT
HETATM    1  C6  UNL     1     -13.539 -18.825  -8.603  1.00  0.00     0.087 C 
HETATM    2  C7  UNL     1     -14.933 -19.308  -8.956  1.00  0.00     0.055 C 
HETATM    3  C8  UNL     1     -15.923 -18.778  -7.948  1.00  0.00     0.275 C 
HETATM    4  N3  UNL     1     -15.681 -17.423  -7.578  1.00  0.00     0.093 N 
HETATM    5  C18 UNL     1     -14.829 -16.723  -8.469  1.00  0.00     0.275 C 
HETATM    6  C19 UNL     1     -13.444 -17.312  -8.626  1.00  0.00     0.055 C 
ENDROOT
BRANCH   4   7
HETATM    7  C9  UNL     1     -15.407 -17.324  -6.194  1.00  0.00     0.225 C 
HETATM    8  C10 UNL     1     -15.747 -18.680  -5.565  1.00  0.00     0.051 C 
HETATM    9  C11 UNL     1     -16.503 -18.399  -4.284  1.00  0.00     0.109 C 
HETATM   10  N4  UNL     1     -15.662 -17.505  -3.499  1.00  0.00    -0.210 NA
HETATM   11  C16 UNL     1     -15.793 -16.188  -4.032  1.00  0.00     0.109 C 
HETATM   12  C17 UNL     1     -16.153 -16.213  -5.495  1.00  0.00     0.051 C 
BRANCH  10  13
HETATM   13  S1  UNL     1     -16.001 -17.629  -1.833  1.00  0.00     0.211 S 
HETATM   14  O2  UNL     1     -14.747 -17.328  -1.061  1.00  0.00    -0.211 OA
HETATM   15  O3  UNL     1     -17.020 -16.586  -1.474  1.00  0.00    -0.211 OA
BRANCH  13  16
HETATM   16  C12 UNL     1     -16.675 -19.203  -1.380  1.00  0.00     0.162 C 
BRANCH  16  17
HETATM   17  C13 UNL     1     -15.532 -20.195  -1.344  1.00  0.00     0.001 A 
HETATM   18  C14 UNL     1     -15.719 -21.473  -0.610  1.00  0.00     0.006 A 
HETATM   19  C15 UNL     1     -15.732 -21.474  -2.140  1.00  0.00     0.006 A 
ENDBRANCH  16  17
ENDBRANCH  13  16
ENDBRANCH  10  13
ENDBRANCH   4   7
BRANCH   1  20
HETATM   20  N2  UNL     1     -12.631 -19.435  -9.544  1.00  0.00    -0.356 N 
HETATM   21  C5  UNL     1     -11.582 -20.246  -9.048  1.00  0.00     0.222 C 
HETATM   22  O1  UNL     1     -11.403 -20.460  -7.826  1.00  0.00    -0.273 OA
ATOM     23  H2  UNL     1     -12.742 -19.284 -10.546  1.00  0.00     0.162 HD
BRANCH  21  24
HETATM   24  C4  UNL     1     -10.648 -20.874 -10.004  1.00  0.00     0.081 C 
HETATM   25  C3  UNL     1     -11.331 -21.392 -11.250  1.00  0.00     0.044 C 
HETATM   26  C2  UNL     1     -10.256 -22.002 -12.130  1.00  0.00     0.272 C 
HETATM   27  N1  UNL     1      -8.946 -21.739 -11.566  1.00  0.00     0.084 N 
HETATM   28  C1  UNL     1      -7.865 -21.915 -12.484  1.00  0.00     0.309 C 
HETATM   29  C21 UNL     1      -8.756 -22.404 -10.295  1.00  0.00     0.272 C 
HETATM   30  C20 UNL     1      -9.899 -22.030  -9.380  1.00  0.00     0.044 C 
ENDBRANCH  21  24
ENDBRANCH   1  20
TORSDOF 6
ENDMDL
MODEL 2
REMARK VINA RESULT: -6.235626823      3.199      9.270
REMARK  6 active torsions:
REMARK  status: ('A' for Active; 'I' for Inactive)
REMARK    1  A    between atoms: C4_5  and  C5_6 
REMARK       I    between atoms: C5_6  and  N2_8 
REMARK    2  A    between atoms: N2_8  and  C6_10 
REMARK    3  A    between atoms: N3_13  and  C9_14 
REMARK    4  A    between atoms: N4_17  and  S1_18 
REMARK    5  A    between atoms: S1_18  and  C12_21 
REMARK    6  A    between atoms: C12_21  and  C13_22 
ROOT
HETATM    1  C6  UNL     1     -15.507 -18.456  -7.756  1.00  0.00     0.087 C 
HETATM    2  C7  UNL     1     -15.317 -17.204  -8.592  1.00  0.00     0.055 C 
HETATM    3  C8  UNL     1     -14.481 -17.529  -9.806  1.00  0.00     0.275 C 
HETATM    4  N3  UNL     1     -14.820 -18.776 -10.408  1.00  0.00     0.093 N 
HETATM    5  C18 UNL     1     -16.081 -19.287 -10.010  1.00  0.00     0.275 C 
HETATM    6  C19 UNL     1     -16.229 -19.545  -8.526  1.00  0.00     0.055 C 
ENDROOT
BRANCH   4   7
HETATM    7  C9  UNL     1     -13.716 -19.659 -10.381  1.00  0.00     0.225 C 
HETATM    8  C10 UNL     1     -12.447 -18.805 -10.478  1.00  0.00     0.051 C 
HETATM    9  C11 UNL     1     -11.525 -19.487 -11.466  1.00  0.00     0.109 C 
HETATM   10  N4  UNL     1     -11.359 -20.856 -10.995  1.00  0.00    -0.210 NA
HETATM   11  C16 UNL     1     -12.525 -21.596 -11.354  1.00  0.00     0.109 C 
HETATM   12  C17 UNL     1     -13.735 -20.706 -11.469  1.00  0.00     0.051 C 
BRANCH  10  13
HETATM   13  S1  UNL     1      -9.896 -21.535 -11.545  1.00  0.00     0.211 S 
HETATM   14  O2  UNL     1     -10.200 -22.512 -12.646  1.00  0.00    -0.211 OA
HETATM   15  O3  UNL     1      -9.049 -20.439 -12.127  1.00  0.00    -0.211 OA
BRANCH  13  16
HETATM   16  C12 UNL     1      -8.956 -22.296 -10.250  1.00  0.00     0.162 C 
BRANCH  16  17
HETATM   17  C13 UNL     1      -9.920 -22.662  -9.143  1.00  0.00     0.001 A 
HETATM   18  C14 UNL     1      -9.372 -23.160  -7.854  1.00  0.00     0.006 A 
HETATM   19  C15 UNL     1      -9.934 -21.738  -7.936  1.00  0.00     0.006 A 
ENDBRANCH  16  17
ENDBRANCH  13  16
ENDBRANCH  10  13
ENDBRANCH   4   7
BRANCH   1  20
HETATM   20  N2  UNL     1     -16.231 -18.066  -6.571  1.00  0.00    -0.356 N 
HETATM   21  C5  UNL     1     -15.775 -18.525  -5.312  1.00  0.00     0.222 C 
HETATM   22  O1  UNL     1     -14.767 -19.259  -5.178  1.00  0.00    -0.273 OA
ATOM     23  H2  UNL     1     -17.057 -17.471  -6.639  1.00  0.00     0.162 HD
BRANCH  21  24
HETATM   24  C4  UNL     1     -16.511 -18.130  -4.095  1.00  0.00     0.081 C 
HETATM   25  C3  UNL     1     -16.530 -16.634  -3.870  1.00  0.00     0.044 C 
HETATM   26  C2  UNL     1     -17.314 -16.382  -2.596  1.00  0.00     0.272 C 
HETATM   27  N1  UNL     1     -17.908 -17.619  -2.127  1.00  0.00     0.084 N 
HETATM   28  C1  UNL     1     -18.967 -17.443  -1.183  1.00  0.00     0.309 C 
HETATM   29  C21 UNL     1     -16.909 -18.584  -1.720  1.00  0.00     0.272 C 
HETATM   30  C20 UNL     1     -15.929 -18.770  -2.854  1.00  0.00     0.044 C 
ENDBRANCH  21  24
ENDBRANCH   1  20
TORSDOF 6
ENDMDL
MODEL 3
REMARK VINA RESULT: -6.145610857      0.985      1.151
REMARK  6 active torsions:
REMARK  status: ('A' for Active; 'I' for Inactive)
REMARK    1  A    between atoms: C4_5  and  C5_6 
REMARK       I    between atoms: C5_6  and  N2_8 
REMARK    2  A    between atoms: N2_8  and  C6_10 
REMARK    3  A    between atoms: N3_13  and  C9_14 
REMARK    4  A    between atoms: N4_17  and  S1_18 
REMARK    5  A    between atoms: S1_18  and  C12_21 
REMARK    6  A    between atoms: C12_21  and  C13_22 
ROOT
HETATM    1  C6  UNL     1     -12.523 -18.307  -8.116  1.00  0.00     0.087 C 
HETATM    2  C7  UNL     1     -13.804 -17.889  -8.815  1.00  0.00     0.055 C 
HETATM    3  C8  UNL     1     -14.752 -17.280  -7.811  1.00  0.00     0.275 C 
HETATM    4  N3  UNL     1     -14.108 -16.423  -6.874  1.00  0.00     0.093 N 
HETATM    5  C18 UNL     1     -12.810 -16.006  -7.267  1.00  0.00     0.275 C 
HETATM    6  C19 UNL     1     -11.816 -17.126  -7.482  1.00  0.00     0.055 C 
ENDROOT
BRANCH   4   7
HETATM    7  C9  UNL     1     -14.269 -16.912  -5.557  1.00  0.00     0.225 C 
HETATM    8  C10 UNL     1     -15.600 -17.669  -5.512  1.00  0.00     0.051 C 
HETATM    9  C11 UNL     1     -16.303 -17.259  -4.236  1.00  0.00     0.109 C 
HETATM   10  N4  UNL     1     -15.367 -17.517  -3.150  1.00  0.00    -0.210 NA
HETATM   11  C16 UNL     1     -14.407 -16.461  -3.129  1.00  0.00     0.109 C 
HETATM   12  C17 UNL     1     -14.231 -15.842  -4.492  1.00  0.00     0.051 C 
BRANCH  10  13
HETATM   13  S1  UNL     1     -16.175 -17.765  -1.671  1.00  0.00     0.211 S 
HETATM   14  O2  UNL     1     -15.243 -17.413  -0.545  1.00  0.00    -0.211 OA
HETATM   15  O3  UNL     1     -17.348 -16.829  -1.604  1.00  0.00    -0.211 OA
BRANCH  13  16
HETATM   16  C12 UNL     1     -16.805 -19.412  -1.494  1.00  0.00     0.162 C 
BRANCH  16  17
HETATM   17  C13 UNL     1     -15.618 -20.346  -1.402  1.00  0.00     0.001 A 
HETATM   18  C14 UNL     1     -15.721 -21.547  -0.533  1.00  0.00     0.006 A 
HETATM   19  C15 UNL     1     -15.787 -21.708  -2.054  1.00  0.00     0.006 A 
ENDBRANCH  16  17
ENDBRANCH  13  16
ENDBRANCH  10  13
ENDBRANCH   4   7
BRANCH   1  20
HETATM   20  N2  UNL     1     -11.698 -18.961  -9.103  1.00  0.00    -0.356 N 
HETATM   21  C5  UNL     1     -11.082 -20.190  -8.769  1.00  0.00     0.222 C 
HETATM   22  O1  UNL     1     -11.219 -20.740  -7.650  1.00  0.00    -0.273 OA
ATOM     23  H2  UNL     1     -11.561 -18.544 -10.024  1.00  0.00     0.162 HD
BRANCH  21  24
HETATM   24  C4  UNL     1     -10.237 -20.865  -9.773  1.00  0.00     0.081 C 
HETATM   25  C3  UNL     1     -10.945 -21.096 -11.089  1.00  0.00     0.044 C 
HETATM   26  C2  UNL     1      -9.961 -21.789 -12.013  1.00  0.00     0.272 C 
HETATM   27  N1  UNL     1      -8.652 -21.844 -11.391  1.00  0.00     0.084 N 
HETATM   28  C1  UNL     1      -7.580 -22.112 -12.297  1.00  0.00     0.309 C 
HETATM   29  C21 UNL     1      -8.646 -22.678 -10.207  1.00  0.00     0.272 C 
HETATM   30  C20 UNL     1      -9.742 -22.207  -9.281  1.00  0.00     0.044 C 
ENDBRANCH  21  24
ENDBRANCH   1  20
TORSDOF 6
ENDMDL
MODEL 4
REMARK VINA RESULT: -6.028331648      3.190      9.275
REMARK  6 active torsions:
REMARK  status: ('A' for Active; 'I' for Inactive)
REMARK    1  A    between atoms: C4_5  and  C5_6 
REMARK       I    between atoms: C5_6  and  N2_8 
REMARK    2  A    between atoms: N2_8  and  C6_10 
REMARK    3  A    between atoms: N3_13  and  C9_14 
REMARK    4  A    between atoms: N4_17  and  S1_18 
REMARK    5  A    between atoms: S1_18  and  C12_21 
REMARK    6  A    between atoms: C12_21  and  C13_22 
ROOT
HETATM    1  C6  UNL     1     -14.947 -18.264  -7.619  1.00  0.00     0.087 C 
HETATM    2  C7  UNL     1     -14.820 -17.087  -8.568  1.00  0.00     0.055 C 
HETATM    3  C8  UNL     1     -14.130 -17.530  -9.835  1.00  0.00     0.275 C 
HETATM    4  N3  UNL     1     -14.562 -18.808 -10.295  1.00  0.00     0.093 N 
HETATM    5  C18 UNL     1     -15.784 -19.246  -9.725  1.00  0.00     0.275 C 
HETATM    6  C19 UNL     1     -15.774 -19.384  -8.219  1.00  0.00     0.055 C 
ENDROOT
BRANCH   4   7
HETATM    7  C9  UNL     1     -13.483 -19.722 -10.317  1.00  0.00     0.225 C 
HETATM    8  C10 UNL     1     -12.190 -18.899 -10.361  1.00  0.00     0.051 C 
HETATM    9  C11 UNL     1     -11.284 -19.548 -11.385  1.00  0.00     0.109 C 
HETATM   10  N4  UNL     1     -11.157 -20.946 -10.993  1.00  0.00    -0.210 NA
HETATM   11  C16 UNL     1     -12.342 -21.631 -11.397  1.00  0.00     0.109 C 
HETATM   12  C17 UNL     1     -13.527 -20.702 -11.464  1.00  0.00     0.051 C 
BRANCH  10  13
HETATM   13  S1  UNL     1      -9.711 -21.632 -11.578  1.00  0.00     0.211 S 
HETATM   14  O2  UNL     1     -10.048 -22.621 -12.658  1.00  0.00    -0.211 OA
HETATM   15  O3  UNL     1      -8.881 -20.544 -12.195  1.00  0.00    -0.211 OA
BRANCH  13  16
HETATM   16  C12 UNL     1      -8.735 -22.380 -10.302  1.00  0.00     0.162 C 
BRANCH  16  17
HETATM   17  C13 UNL     1      -9.689 -22.953  -9.276  1.00  0.00     0.001 A 
HETATM   18  C14 UNL     1      -9.132 -23.506  -8.014  1.00  0.00     0.006 A 
HETATM   19  C15 UNL     1      -9.849 -22.154  -7.994  1.00  0.00     0.006 A 
ENDBRANCH  16  17
ENDBRANCH  13  16
ENDBRANCH  10  13
ENDBRANCH   4   7
BRANCH   1  20
HETATM   20  N2  UNL     1     -15.528 -17.761  -6.398  1.00  0.00    -0.356 N 
HETATM   21  C5  UNL     1     -15.120 -18.327  -5.167  1.00  0.00     0.222 C 
HETATM   22  O1  UNL     1     -14.275 -19.250  -5.086  1.00  0.00    -0.273 OA
ATOM     23  H2  UNL     1     -16.220 -17.012  -6.422  1.00  0.00     0.162 HD
BRANCH  21  24
HETATM   24  C4  UNL     1     -15.710 -17.818  -3.913  1.00  0.00     0.081 C 
HETATM   25  C3  UNL     1     -16.405 -18.890  -3.104  1.00  0.00     0.044 C 
HETATM   26  C2  UNL     1     -16.955 -18.224  -1.856  1.00  0.00     0.272 C 
HETATM   27  N1  UNL     1     -16.493 -16.851  -1.783  1.00  0.00     0.084 N 
HETATM   28  C1  UNL     1     -16.616 -16.257  -0.489  1.00  0.00     0.309 C 
HETATM   29  C21 UNL     1     -17.025 -16.039  -2.857  1.00  0.00     0.272 C 
HETATM   30  C20 UNL     1     -16.715 -16.717  -4.171  1.00  0.00     0.044 C 
ENDBRANCH  21  24
ENDBRANCH   1  20
TORSDOF 6
ENDMDL
MODEL 5
REMARK VINA RESULT: -5.949136831      1.663      2.316
REMARK  6 active torsions:
REMARK  status: ('A' for Active; 'I' for Inactive)
REMARK    1  A    between atoms: C4_5  and  C5_6 
REMARK       I    between atoms: C5_6  and  N2_8 
REMARK    2  A    between atoms: N2_8  and  C6_10 
REMARK    3  A    between atoms: N3_13  and  C9_14 
REMARK    4  A    between atoms: N4_17  and  S1_18 
REMARK    5  A    between atoms: S1_18  and  C12_21 
REMARK    6  A    between atoms: C12_21  and  C13_22 
ROOT
HETATM    1  C6  UNL     1     -12.518 -18.974  -8.219  1.00  0.00     0.087 C 
HETATM    2  C7  UNL     1     -13.865 -18.996  -8.917  1.00  0.00     0.055 C 
HETATM    3  C8  UNL     1     -14.939 -18.543  -7.958  1.00  0.00     0.275 C 
HETATM    4  N3  UNL     1     -14.544 -17.439  -7.148  1.00  0.00     0.093 N 
HETATM    5  C18 UNL     1     -13.406 -16.745  -7.631  1.00  0.00     0.275 C 
HETATM    6  C19 UNL     1     -12.149 -17.580  -7.750  1.00  0.00     0.055 C 
ENDROOT
BRANCH   4   7
HETATM    7  C9  UNL     1     -14.566 -17.792  -5.779  1.00  0.00     0.225 C 
HETATM    8  C10 UNL     1     -15.794 -18.681  -5.557  1.00  0.00     0.051 C 
HETATM    9  C11 UNL     1     -16.461 -18.210  -4.283  1.00  0.00     0.109 C 
HETATM   10  N4  UNL     1     -15.436 -18.239  -3.248  1.00  0.00    -0.210 NA
HETATM   11  C16 UNL     1     -14.607 -17.088  -3.409  1.00  0.00     0.109 C 
HETATM   12  C17 UNL     1     -14.589 -16.611  -4.838  1.00  0.00     0.051 C 
BRANCH  10  13
HETATM   13  S1  UNL     1     -16.118 -18.406  -1.695  1.00  0.00     0.211 S 
HETATM   14  O2  UNL     1     -16.000 -19.841  -1.267  1.00  0.00    -0.211 OA
HETATM   15  O3  UNL     1     -15.321 -17.574  -0.731  1.00  0.00    -0.211 OA
BRANCH  13  16
HETATM   16  C12 UNL     1     -17.796 -17.845  -1.614  1.00  0.00     0.162 C 
BRANCH  16  17
HETATM   17  C13 UNL     1     -17.767 -16.363  -1.314  1.00  0.00     0.001 A 
HETATM   18  C14 UNL     1     -17.867 -15.403  -2.444  1.00  0.00     0.006 A 
HETATM   19  C15 UNL     1     -19.072 -15.612  -1.523  1.00  0.00     0.006 A 
ENDBRANCH  16  17
ENDBRANCH  13  16
ENDBRANCH  10  13
ENDBRANCH   4   7
BRANCH   1  20
HETATM   20  N2  UNL     1     -11.551 -19.500  -9.152  1.00  0.00    -0.356 N 
HETATM   21  C5  UNL     1     -10.746 -20.593  -8.753  1.00  0.00     0.222 C 
HETATM   22  O1  UNL     1     -10.832 -21.128  -7.622  1.00  0.00    -0.273 OA
ATOM     23  H2  UNL     1     -11.449 -19.091 -10.081  1.00  0.00     0.162 HD
BRANCH  21  24
HETATM   24  C4  UNL     1      -9.754 -21.138  -9.702  1.00  0.00     0.081 C 
HETATM   25  C3  UNL     1     -10.158 -20.964 -11.149  1.00  0.00     0.044 C 
HETATM   26  C2  UNL     1      -9.052 -21.564 -11.998  1.00  0.00     0.272 C 
HETATM   27  N1  UNL     1      -7.932 -21.941 -11.157  1.00  0.00     0.084 N 
HETATM   28  C1  UNL     1      -6.708 -22.146 -11.866  1.00  0.00     0.309 C 
HETATM   29  C21 UNL     1      -8.272 -23.012 -10.244  1.00  0.00     0.272 C 
HETATM   30  C20 UNL     1      -9.506 -22.611  -9.471  1.00  0.00     0.044 C 
ENDBRANCH  21  24
ENDBRANCH   1  20
TORSDOF 6
ENDMDL
