MODEL 1
REMARK VINA RESULT: -7.515552765      0.000      0.000
REMARK  9 active torsions:
REMARK  status: ('A' for Active; 'I' for Inactive)
REMARK    1  A    between atoms: C1_2  and  O2_3 
REMARK    2  A    between atoms: C1_2  and  C8_12 
REMARK    3  A    between atoms: O2_3  and  C2_4 
REMARK    4  A    between atoms: C5_7  and  O3_8 
REMARK    5  A    between atoms: C8_12  and  C15_24 
REMARK       I    between atoms: N1_13  and  C9_15 
REMARK    6  A    between atoms: C9_15  and  C10_17 
REMARK    7  A    between atoms: C15_24  and  C16_25 
REMARK    8  A    between atoms: C15_24  and  C17_28 
REMARK    9  A    between atoms: C17_28  and  C18_30 
ROOT
HETATM    1  C8  UNL     1     -50.156  -2.732 -22.179  1.00  0.00     0.110 C 
HETATM    2  N1  UNL     1     -48.944  -2.827 -22.526  1.00  0.00    -0.319 N 
ATOM      3  H1  UNL     1     -48.325  -2.078 -22.218  1.00  0.00     0.169 HD
HETATM    4  C9  UNL     1     -48.356  -3.845 -23.286  1.00  0.00     0.272 C 
HETATM    5  O4  UNL     1     -47.929  -4.877 -22.726  1.00  0.00    -0.266 OA
ENDROOT
BRANCH   1   6
HETATM    6  C1  UNL     1     -51.123  -3.742 -22.562  1.00  0.00     0.312 C 
HETATM    7  O1  UNL     1     -51.032  -4.890 -22.075  1.00  0.00    -0.258 OA
BRANCH   6   8
HETATM    8  O2  UNL     1     -52.165  -3.486 -23.463  1.00  0.00    -0.274 OA
BRANCH   8   9
HETATM    9  C2  UNL     1     -52.000  -3.563 -24.837  1.00  0.00     0.079 A 
HETATM   10  C3  UNL     1     -51.566  -4.705 -25.473  1.00  0.00     0.040 A 
HETATM   11  C4  UNL     1     -51.424  -4.708 -26.842  1.00  0.00     0.039 A 
HETATM   12  C5  UNL     1     -51.712  -3.581 -27.593  1.00  0.00     0.065 A 
HETATM   13  C6  UNL     1     -52.145  -2.448 -26.947  1.00  0.00     0.039 A 
HETATM   14  C7  UNL     1     -52.290  -2.429 -25.588  1.00  0.00     0.040 A 
BRANCH  12  15
HETATM   15  O3  UNL     1     -51.566  -3.605 -28.961  1.00  0.00    -0.361 OA
ATOM     16  H3  UNL     1     -52.123  -4.162 -29.491  1.00  0.00     0.217 HD
ENDBRANCH  12  15
ENDBRANCH   8   9
ENDBRANCH   6   8
ENDBRANCH   1   6
BRANCH   1  17
HETATM   17  C15 UNL     1     -50.545  -1.545 -21.357  1.00  0.00     0.218 C 
BRANCH  17  18
HETATM   18  C16 UNL     1     -49.292  -1.077 -20.673  1.00  0.00     0.191 C 
HETATM   19  O5  UNL     1     -48.910  -1.590 -19.595  1.00  0.00    -0.647 OA
HETATM   20  O6  UNL     1     -48.514  -0.056 -21.215  1.00  0.00    -0.647 OA
ENDBRANCH  17  18
BRANCH  17  21
HETATM   21  C17 UNL     1     -51.086  -0.441 -22.153  1.00  0.00     0.186 C 
HETATM   22  O7  UNL     1     -50.749  -0.290 -23.339  1.00  0.00    -0.290 OA
BRANCH  21  23
HETATM   23  C18 UNL     1     -52.042   0.532 -21.589  1.00  0.00     0.051 A 
HETATM   24  C19 UNL     1     -53.053   1.189 -22.242  1.00  0.00     0.023 A 
HETATM   25  C20 UNL     1     -53.807   2.032 -21.524  1.00  0.00     0.009 A 
HETATM   26  C21 UNL     1     -53.504   2.171 -20.195  1.00  0.00     0.050 A 
HETATM   27  S1  UNL     1     -52.180   1.121 -19.993  1.00  0.00    -0.098 SA
ENDBRANCH  21  23
ENDBRANCH  17  21
ENDBRANCH   1  17
BRANCH   4  28
HETATM   28  C10 UNL     1     -48.235  -3.718 -24.722  1.00  0.00     0.100 A 
HETATM   29  C11 UNL     1     -48.543  -2.516 -25.362  1.00  0.00     0.035 A 
HETATM   30  C12 UNL     1     -48.421  -2.414 -26.732  1.00  0.00     0.004 A 
HETATM   31  C13 UNL     1     -47.995  -3.498 -27.473  1.00  0.00     0.017 A 
HETATM   32  C14 UNL     1     -47.708  -4.654 -26.785  1.00  0.00     0.088 A 
HETATM   33  N2  UNL     1     -47.820  -4.772 -25.454  1.00  0.00    -0.361 N 
ATOM     34  H2  UNL     1     -47.593  -5.655 -24.997  1.00  0.00     0.165 HD
ENDBRANCH   4  28
TORSDOF 9
ENDMDL
MODEL 2
REMARK VINA RESULT: -7.442992903      1.200      1.871
REMARK  9 active torsions:
REMARK  status: ('A' for Active; 'I' for Inactive)
REMARK    1  A    between atoms: C1_2  and  O2_3 
REMARK    2  A    between atoms: C1_2  and  C8_12 
REMARK    3  A    between atoms: O2_3  and  C2_4 
REMARK    4  A    between atoms: C5_7  and  O3_8 
REMARK    5  A    between atoms: C8_12  and  C15_24 
REMARK       I    between atoms: N1_13  and  C9_15 
REMARK    6  A    between atoms: C9_15  and  C10_17 
REMARK    7  A    between atoms: C15_24  and  C16_25 
REMARK    8  A    between atoms: C15_24  and  C17_28 
REMARK    9  A    between atoms: C17_28  and  C18_30 
ROOT
HETATM    1  C8  UNL     1     -50.372  -3.785 -21.979  1.00  0.00     0.110 C 
HETATM    2  N1  UNL     1     -49.189  -3.471 -22.294  1.00  0.00    -0.319 N 
ATOM      3  H1  UNL     1     -48.808  -2.637 -21.847  1.00  0.00     0.169 HD
HETATM    4  C9  UNL     1     -48.342  -4.138 -23.187  1.00  0.00     0.272 C 
HETATM    5  O4  UNL     1     -47.629  -5.082 -22.787  1.00  0.00    -0.266 OA
ENDROOT
BRANCH   1   6
HETATM    6  C1  UNL     1     -51.012  -4.951 -22.555  1.00  0.00     0.312 C 
HETATM    7  O1  UNL     1     -50.574  -6.089 -22.273  1.00  0.00    -0.258 OA
BRANCH   6   8
HETATM    8  O2  UNL     1     -52.109  -4.861 -23.420  1.00  0.00    -0.274 OA
BRANCH   8   9
HETATM    9  C2  UNL     1     -52.031  -4.255 -24.665  1.00  0.00     0.079 A 
HETATM   10  C3  UNL     1     -52.379  -2.940 -24.877  1.00  0.00     0.040 A 
HETATM   11  C4  UNL     1     -52.276  -2.406 -26.141  1.00  0.00     0.039 A 
HETATM   12  C5  UNL     1     -51.827  -3.169 -27.205  1.00  0.00     0.065 A 
HETATM   13  C6  UNL     1     -51.483  -4.480 -26.981  1.00  0.00     0.039 A 
HETATM   14  C7  UNL     1     -51.580  -5.025 -25.732  1.00  0.00     0.040 A 
BRANCH  12  15
HETATM   15  O3  UNL     1     -51.730  -2.615 -28.462  1.00  0.00    -0.361 OA
ATOM     16  H3  UNL     1     -52.501  -2.258 -28.887  1.00  0.00     0.217 HD
ENDBRANCH  12  15
ENDBRANCH   8   9
ENDBRANCH   6   8
ENDBRANCH   1   6
BRANCH   1  17
HETATM   17  C15 UNL     1     -51.076  -2.912 -20.990  1.00  0.00     0.218 C 
BRANCH  17  18
HETATM   18  C16 UNL     1     -50.696  -3.424 -19.630  1.00  0.00     0.191 C 
HETATM   19  O5  UNL     1     -51.388  -3.158 -18.619  1.00  0.00    -0.647 OA
HETATM   20  O6  UNL     1     -49.561  -4.211 -19.448  1.00  0.00    -0.647 OA
ENDBRANCH  17  18
BRANCH  17  21
HETATM   21  C17 UNL     1     -50.691  -1.501 -21.085  1.00  0.00     0.186 C 
HETATM   22  O7  UNL     1     -49.622  -1.102 -20.597  1.00  0.00    -0.290 OA
BRANCH  21  23
HETATM   23  C18 UNL     1     -51.547  -0.503 -21.755  1.00  0.00     0.051 A 
HETATM   24  C19 UNL     1     -51.413   0.000 -23.024  1.00  0.00     0.023 A 
HETATM   25  C20 UNL     1     -52.316   0.903 -23.429  1.00  0.00     0.009 A 
HETATM   26  C21 UNL     1     -53.300   1.251 -22.542  1.00  0.00     0.050 A 
HETATM   27  S1  UNL     1     -52.932   0.307 -21.174  1.00  0.00    -0.098 SA
ENDBRANCH  21  23
ENDBRANCH  17  21
ENDBRANCH   1  17
BRANCH   4  28
HETATM   28  C10 UNL     1     -48.281  -3.746 -24.578  1.00  0.00     0.100 A 
HETATM   29  C11 UNL     1     -48.651  -2.460 -24.976  1.00  0.00     0.035 A 
HETATM   30  C12 UNL     1     -48.586  -2.105 -26.307  1.00  0.00     0.004 A 
HETATM   31  C13 UNL     1     -48.156  -3.019 -27.249  1.00  0.00     0.017 A 
HETATM   32  C14 UNL     1     -47.806  -4.269 -26.794  1.00  0.00     0.088 A 
HETATM   33  N2  UNL     1     -47.863  -4.632 -25.505  1.00  0.00    -0.361 N 
ATOM     34  H2  UNL     1     -47.590  -5.574 -25.226  1.00  0.00     0.165 HD
ENDBRANCH   4  28
TORSDOF 9
ENDMDL
MODEL 3
REMARK VINA RESULT: -7.176746084      2.358      5.947
REMARK  9 active torsions:
REMARK  status: ('A' for Active; 'I' for Inactive)
REMARK    1  A    between atoms: C1_2  and  O2_3 
REMARK    2  A    between atoms: C1_2  and  C8_12 
REMARK    3  A    between atoms: O2_3  and  C2_4 
REMARK    4  A    between atoms: C5_7  and  O3_8 
REMARK    5  A    between atoms: C8_12  and  C15_24 
REMARK       I    between atoms: N1_13  and  C9_15 
REMARK    6  A    between atoms: C9_15  and  C10_17 
REMARK    7  A    between atoms: C15_24  and  C16_25 
REMARK    8  A    between atoms: C15_24  and  C17_28 
REMARK    9  A    between atoms: C17_28  and  C18_30 
ROOT
HETATM    1  C8  UNL     1     -50.304  -1.386 -23.208  1.00  0.00     0.110 C 
HETATM    2  N1  UNL     1     -50.563  -0.148 -23.194  1.00  0.00    -0.319 N 
ATOM      3  H1  UNL     1     -49.791   0.478 -23.422  1.00  0.00     0.169 HD
HETATM    4  C9  UNL     1     -51.789   0.459 -22.900  1.00  0.00     0.272 C 
HETATM    5  O4  UNL     1     -52.633   0.633 -23.804  1.00  0.00    -0.266 OA
ENDROOT
BRANCH   1   6
HETATM    6  C1  UNL     1     -51.327  -2.365 -22.898  1.00  0.00     0.312 C 
HETATM    7  O1  UNL     1     -51.313  -2.929 -21.781  1.00  0.00    -0.258 OA
BRANCH   6   8
HETATM    8  O2  UNL     1     -52.339  -2.711 -23.801  1.00  0.00    -0.274 OA
BRANCH   8   9
HETATM    9  C2  UNL     1     -52.094  -2.939 -25.146  1.00  0.00     0.079 A 
HETATM   10  C3  UNL     1     -52.077  -1.929 -26.082  1.00  0.00     0.040 A 
HETATM   11  C4  UNL     1     -51.827  -2.230 -27.401  1.00  0.00     0.039 A 
HETATM   12  C5  UNL     1     -51.592  -3.534 -27.805  1.00  0.00     0.065 A 
HETATM   13  C6  UNL     1     -51.612  -4.532 -26.862  1.00  0.00     0.039 A 
HETATM   14  C7  UNL     1     -51.858  -4.250 -25.548  1.00  0.00     0.040 A 
BRANCH  12  15
HETATM   15  O3  UNL     1     -51.343  -3.814 -29.130  1.00  0.00    -0.361 OA
ATOM     16  H3  UNL     1     -51.995  -4.265 -29.653  1.00  0.00     0.217 HD
ENDBRANCH  12  15
ENDBRANCH   8   9
ENDBRANCH   6   8
ENDBRANCH   1   6
BRANCH   1  17
HETATM   17  C15 UNL     1     -48.909  -1.793 -23.561  1.00  0.00     0.218 C 
BRANCH  17  18
HETATM   18  C16 UNL     1     -48.072  -1.531 -22.342  1.00  0.00     0.191 C 
HETATM   19  O5  UNL     1     -46.858  -1.843 -22.309  1.00  0.00    -0.647 OA
HETATM   20  O6  UNL     1     -48.617  -0.933 -21.207  1.00  0.00    -0.647 OA
ENDBRANCH  17  18
BRANCH  17  21
HETATM   21  C17 UNL     1     -48.792  -3.211 -23.915  1.00  0.00     0.186 C 
HETATM   22  O7  UNL     1     -49.018  -4.095 -23.073  1.00  0.00    -0.290 OA
BRANCH  21  23
HETATM   23  C18 UNL     1     -48.402  -3.646 -25.269  1.00  0.00     0.051 A 
HETATM   24  C19 UNL     1     -48.304  -2.878 -26.401  1.00  0.00     0.023 A 
HETATM   25  C20 UNL     1     -47.925  -3.489 -27.531  1.00  0.00     0.009 A 
HETATM   26  C21 UNL     1     -47.666  -4.832 -27.464  1.00  0.00     0.050 A 
HETATM   27  S1  UNL     1     -47.960  -5.197 -25.828  1.00  0.00    -0.098 SA
ENDBRANCH  21  23
ENDBRANCH  17  21
ENDBRANCH   1  17
BRANCH   4  28
HETATM   28  C10 UNL     1     -52.093   0.893 -21.554  1.00  0.00     0.100 A 
HETATM   29  C11 UNL     1     -53.166   1.749 -21.304  1.00  0.00     0.035 A 
HETATM   30  C12 UNL     1     -53.441   2.151 -20.014  1.00  0.00     0.004 A 
HETATM   31  C13 UNL     1     -52.657   1.709 -18.967  1.00  0.00     0.017 A 
HETATM   32  C14 UNL     1     -51.615   0.867 -19.278  1.00  0.00     0.088 A 
HETATM   33  N2  UNL     1     -51.333   0.466 -20.526  1.00  0.00    -0.361 N 
ATOM     34  H2  UNL     1     -50.545  -0.160 -20.696  1.00  0.00     0.165 HD
ENDBRANCH   4  28
TORSDOF 9
ENDMDL
MODEL 4
REMARK VINA RESULT: -6.881891111      2.324      3.279
REMARK  9 active torsions:
REMARK  status: ('A' for Active; 'I' for Inactive)
REMARK    1  A    between atoms: C1_2  and  O2_3 
REMARK    2  A    between atoms: C1_2  and  C8_12 
REMARK    3  A    between atoms: O2_3  and  C2_4 
REMARK    4  A    between atoms: C5_7  and  O3_8 
REMARK    5  A    between atoms: C8_12  and  C15_24 
REMARK       I    between atoms: N1_13  and  C9_15 
REMARK    6  A    between atoms: C9_15  and  C10_17 
REMARK    7  A    between atoms: C15_24  and  C16_25 
REMARK    8  A    between atoms: C15_24  and  C17_28 
REMARK    9  A    between atoms: C17_28  and  C18_30 
ROOT
HETATM    1  C8  UNL     1     -50.999  -1.032 -22.174  1.00  0.00     0.110 C 
HETATM    2  N1  UNL     1     -49.884  -0.755 -22.701  1.00  0.00    -0.319 N 
ATOM      3  H1  UNL     1     -49.859   0.071 -23.300  1.00  0.00     0.169 HD
HETATM    4  C9  UNL     1     -48.680  -1.452 -22.556  1.00  0.00     0.272 C 
HETATM    5  O4  UNL     1     -47.916  -1.191 -21.602  1.00  0.00    -0.266 OA
ENDROOT
BRANCH   1   6
HETATM    6  C1  UNL     1     -51.148  -2.183 -21.306  1.00  0.00     0.312 C 
HETATM    7  O1  UNL     1     -50.616  -2.165 -20.174  1.00  0.00    -0.258 OA
BRANCH   6   8
HETATM    8  O2  UNL     1     -51.868  -3.323 -21.680  1.00  0.00    -0.274 OA
BRANCH   8   9
HETATM    9  C2  UNL     1     -51.648  -3.986 -22.879  1.00  0.00     0.079 A 
HETATM   10  C3  UNL     1     -52.139  -3.532 -24.082  1.00  0.00     0.040 A 
HETATM   11  C4  UNL     1     -51.881  -4.242 -25.232  1.00  0.00     0.039 A 
HETATM   12  C5  UNL     1     -51.134  -5.407 -25.200  1.00  0.00     0.065 A 
HETATM   13  C6  UNL     1     -50.650  -5.850 -23.993  1.00  0.00     0.039 A 
HETATM   14  C7  UNL     1     -50.897  -5.156 -22.843  1.00  0.00     0.040 A 
BRANCH  12  15
HETATM   15  O3  UNL     1     -50.886  -6.102 -26.362  1.00  0.00    -0.361 OA
ATOM     16  H3  UNL     1     -49.996  -6.337 -26.598  1.00  0.00     0.217 HD
ENDBRANCH  12  15
ENDBRANCH   8   9
ENDBRANCH   6   8
ENDBRANCH   1   6
BRANCH   1  17
HETATM   17  C15 UNL     1     -52.148  -0.124 -22.478  1.00  0.00     0.218 C 
BRANCH  17  18
HETATM   18  C16 UNL     1     -51.942   1.111 -21.648  1.00  0.00     0.191 C 
HETATM   19  O5  UNL     1     -50.830   1.365 -21.127  1.00  0.00    -0.647 OA
HETATM   20  O6  UNL     1     -52.980   2.014 -21.429  1.00  0.00    -0.647 OA
ENDBRANCH  17  18
BRANCH  17  21
HETATM   21  C17 UNL     1     -52.221   0.266 -23.889  1.00  0.00     0.186 C 
HETATM   22  O7  UNL     1     -51.190   0.541 -24.525  1.00  0.00    -0.290 OA
BRANCH  21  23
HETATM   23  C18 UNL     1     -53.507   0.352 -24.608  1.00  0.00     0.051 A 
HETATM   24  C19 UNL     1     -54.510   1.269 -24.427  1.00  0.00     0.023 A 
HETATM   25  C20 UNL     1     -55.597   1.158 -25.202  1.00  0.00     0.009 A 
HETATM   26  C21 UNL     1     -55.618   0.135 -26.112  1.00  0.00     0.050 A 
HETATM   27  S1  UNL     1     -54.122  -0.636 -25.857  1.00  0.00    -0.098 SA
ENDBRANCH  21  23
ENDBRANCH  17  21
ENDBRANCH   1  17
BRANCH   4  28
HETATM   28  C10 UNL     1     -48.304  -2.480 -23.502  1.00  0.00     0.100 A 
HETATM   29  C11 UNL     1     -48.643  -2.369 -24.851  1.00  0.00     0.035 A 
HETATM   30  C12 UNL     1     -48.276  -3.358 -25.739  1.00  0.00     0.004 A 
HETATM   31  C13 UNL     1     -47.573  -4.461 -25.296  1.00  0.00     0.017 A 
HETATM   32  C14 UNL     1     -47.268  -4.513 -23.955  1.00  0.00     0.088 A 
HETATM   33  N2  UNL     1     -47.617  -3.560 -23.079  1.00  0.00    -0.361 N 
ATOM     34  H2  UNL     1     -47.363  -3.653 -22.095  1.00  0.00     0.165 HD
ENDBRANCH   4  28
TORSDOF 9
ENDMDL
MODEL 5
REMARK VINA RESULT: -6.828827308      2.814      4.849
REMARK  9 active torsions:
REMARK  status: ('A' for Active; 'I' for Inactive)
REMARK    1  A    between atoms: C1_2  and  O2_3 
REMARK    2  A    between atoms: C1_2  and  C8_12 
REMARK    3  A    between atoms: O2_3  and  C2_4 
REMARK    4  A    between atoms: C5_7  and  O3_8 
REMARK    5  A    between atoms: C8_12  and  C15_24 
REMARK       I    between atoms: N1_13  and  C9_15 
REMARK    6  A    between atoms: C9_15  and  C10_17 
REMARK    7  A    between atoms: C15_24  and  C16_25 
REMARK    8  A    between atoms: C15_24  and  C17_28 
REMARK    9  A    between atoms: C17_28  and  C18_30 
ROOT
HETATM    1  C8  UNL     1     -51.427  -1.004 -22.566  1.00  0.00     0.110 C 
HETATM    2  N1  UNL     1     -50.347  -0.365 -22.417  1.00  0.00    -0.319 N 
ATOM      3  H1  UNL     1     -50.112   0.303 -23.151  1.00  0.00     0.169 HD
HETATM    4  C9  UNL     1     -49.437  -0.469 -21.359  1.00  0.00     0.272 C 
HETATM    5  O4  UNL     1     -49.595   0.217 -20.327  1.00  0.00    -0.266 OA
ENDROOT
BRANCH   1   6
HETATM    6  C1  UNL     1     -51.858  -1.979 -21.583  1.00  0.00     0.312 C 
HETATM    7  O1  UNL     1     -52.697  -1.642 -20.717  1.00  0.00    -0.258 OA
BRANCH   6   8
HETATM    8  O2  UNL     1     -51.373  -3.292 -21.558  1.00  0.00    -0.274 OA
BRANCH   8   9
HETATM    9  C2  UNL     1     -51.199  -4.046 -22.708  1.00  0.00     0.079 A 
HETATM   10  C3  UNL     1     -52.248  -4.433 -23.511  1.00  0.00     0.040 A 
HETATM   11  C4  UNL     1     -51.999  -5.182 -24.639  1.00  0.00     0.039 A 
HETATM   12  C5  UNL     1     -50.710  -5.553 -24.981  1.00  0.00     0.065 A 
HETATM   13  C6  UNL     1     -49.672  -5.161 -24.171  1.00  0.00     0.039 A 
HETATM   14  C7  UNL     1     -49.902  -4.417 -23.049  1.00  0.00     0.040 A 
BRANCH  12  15
HETATM   15  O3  UNL     1     -50.483  -6.302 -26.114  1.00  0.00    -0.361 OA
ATOM     16  H3  UNL     1     -50.225  -5.876 -26.923  1.00  0.00     0.217 HD
ENDBRANCH  12  15
ENDBRANCH   8   9
ENDBRANCH   6   8
ENDBRANCH   1   6
BRANCH   1  17
HETATM   17  C15 UNL     1     -52.239  -0.711 -23.787  1.00  0.00     0.218 C 
BRANCH  17  18
HETATM   18  C16 UNL     1     -52.885   0.625 -23.553  1.00  0.00     0.191 C 
HETATM   19  O5  UNL     1     -53.782   1.055 -24.316  1.00  0.00    -0.647 OA
HETATM   20  O6  UNL     1     -52.508   1.430 -22.480  1.00  0.00    -0.647 OA
ENDBRANCH  17  18
BRANCH  17  21
HETATM   21  C17 UNL     1     -51.437  -0.636 -25.011  1.00  0.00     0.186 C 
HETATM   22  O7  UNL     1     -50.621   0.286 -25.179  1.00  0.00    -0.290 OA
BRANCH  21  23
HETATM   23  C18 UNL     1     -51.562  -1.637 -26.088  1.00  0.00     0.051 A 
HETATM   24  C19 UNL     1     -52.713  -2.103 -26.670  1.00  0.00     0.023 A 
HETATM   25  C20 UNL     1     -52.588  -3.017 -27.641  1.00  0.00     0.009 A 
HETATM   26  C21 UNL     1     -51.319  -3.414 -27.972  1.00  0.00     0.050 A 
HETATM   27  S1  UNL     1     -50.345  -2.498 -26.919  1.00  0.00    -0.098 SA
ENDBRANCH  21  23
ENDBRANCH  17  21
ENDBRANCH   1  17
BRANCH   4  28
HETATM   28  C10 UNL     1     -48.307  -1.368 -21.444  1.00  0.00     0.100 A 
HETATM   29  C11 UNL     1     -47.593  -1.508 -22.635  1.00  0.00     0.035 A 
HETATM   30  C12 UNL     1     -46.518  -2.370 -22.697  1.00  0.00     0.004 A 
HETATM   31  C13 UNL     1     -46.145  -3.095 -21.583  1.00  0.00     0.017 A 
HETATM   32  C14 UNL     1     -46.888  -2.914 -20.440  1.00  0.00     0.088 A 
HETATM   33  N2  UNL     1     -47.936  -2.081 -20.361  1.00  0.00    -0.361 N 
ATOM     34  H2  UNL     1     -48.450  -1.987 -19.485  1.00  0.00     0.165 HD
ENDBRANCH   4  28
TORSDOF 9
ENDMDL
