MODEL 1
REMARK VINA RESULT: -7.144588860      0.000      0.000
REMARK  12 active torsions:
REMARK  status: ('A' for Active; 'I' for Inactive)
REMARK    1  A    between atoms: C2_2  and  O1_3 
REMARK    2  A    between atoms: O1_3  and  C3_4 
REMARK    3  A    between atoms: C3_4  and  C4_6 
REMARK    4  A    between atoms: C5_7  and  O3_8 
REMARK    5  A    between atoms: C7_12  and  N1_13 
REMARK    6  A    between atoms: N1_13  and  C8_15 
REMARK    7  A    between atoms: C8_15  and  C9_16 
REMARK    8  A    between atoms: C8_15  and  N2_20 
REMARK    9  A    between atoms: C9_16  and  C10_17 
REMARK   10  A    between atoms: C14_23  and  C15_24 
REMARK   11  A    between atoms: C15_24  and  O6_26 
REMARK   12  A    between atoms: O6_26  and  C16_27 
ROOT
HETATM    1  C8  UNL     1     -52.063  -2.397 -24.846  1.00  0.00     0.093 C 
ENDROOT
BRANCH   1   2
HETATM    2  N1  UNL     1     -51.075  -2.486 -25.659  1.00  0.00    -0.339 N 
ATOM      3  H1  UNL     1     -50.384  -1.739 -25.595  1.00  0.00     0.168 HD
BRANCH   2   4
HETATM    4  C7  UNL     1     -50.814  -3.479 -26.633  1.00  0.00     0.094 A 
HETATM    5  C4  UNL     1     -50.748  -3.297 -28.017  1.00  0.00     0.106 A 
HETATM    6  C5  UNL     1     -50.506  -4.400 -28.750  1.00  0.00     0.091 A 
HETATM    7  C6  UNL     1     -50.352  -5.582 -28.084  1.00  0.00     0.089 A 
HETATM    8  S1  UNL     1     -50.541  -5.155 -26.459  1.00  0.00    -0.080 SA
BRANCH   5   9
HETATM    9  C3  UNL     1     -50.948  -1.949 -28.631  1.00  0.00     0.298 C 
HETATM   10  O2  UNL     1     -50.519  -0.913 -28.076  1.00  0.00    -0.259 OA
BRANCH   9  11
HETATM   11  O1  UNL     1     -51.603  -1.777 -29.817  1.00  0.00    -0.318 OA
BRANCH  11  12
HETATM   12  C2  UNL     1     -52.969  -1.441 -29.932  1.00  0.00     0.174 C 
HETATM   13  C1  UNL     1     -53.872  -2.619 -29.798  1.00  0.00     0.034 C 
ENDBRANCH  11  12
ENDBRANCH   9  11
ENDBRANCH   5   9
BRANCH   6  14
HETATM   14  O3  UNL     1     -50.410  -4.365 -30.182  1.00  0.00    -0.359 OA
ATOM     15  H3  UNL     1     -50.209  -5.138 -30.698  1.00  0.00     0.217 HD
ENDBRANCH   6  14
ENDBRANCH   2   4
ENDBRANCH   1   2
BRANCH   1  16
HETATM   16  C9  UNL     1     -52.877  -3.548 -24.425  1.00  0.00     0.154 C 
BRANCH  16  17
HETATM   17  C10 UNL     1     -52.698  -4.011 -23.050  1.00  0.00     0.130 C 
HETATM   18  C11 UNL     1     -51.936  -5.284 -22.776  1.00  0.00     0.091 C 
HETATM   19  O4  UNL     1     -53.118  -3.460 -22.048  1.00  0.00    -0.298 OA
ENDBRANCH  16  17
ENDBRANCH   1  16
BRANCH   1  20
HETATM   20  N2  UNL     1     -52.360  -1.088 -24.383  1.00  0.00    -0.307 N 
HETATM   21  C12 UNL     1     -51.638  -0.388 -23.357  1.00  0.00     0.134 C 
HETATM   22  C13 UNL     1     -52.690   0.054 -22.333  1.00  0.00     0.035 C 
HETATM   23  C14 UNL     1     -53.487   1.147 -22.995  1.00  0.00     0.096 C 
HETATM   24  C18 UNL     1     -54.135   0.760 -24.283  1.00  0.00     0.118 C 
HETATM   25  C19 UNL     1     -53.433  -0.330 -24.993  1.00  0.00     0.226 C 
HETATM   26  O7  UNL     1     -53.781  -0.608 -26.166  1.00  0.00    -0.273 OA
BRANCH  23  27
HETATM   27  C15 UNL     1     -54.521   1.631 -22.050  1.00  0.00     0.263 C 
HETATM   28  O5  UNL     1     -55.296   2.536 -22.402  1.00  0.00    -0.265 OA
BRANCH  27  29
HETATM   29  O6  UNL     1     -54.635   1.087 -20.784  1.00  0.00    -0.322 OA
BRANCH  29  30
HETATM   30  C16 UNL     1     -54.307   1.804 -19.619  1.00  0.00     0.174 C 
HETATM   31  C17 UNL     1     -53.270   1.045 -18.812  1.00  0.00     0.034 C 
ENDBRANCH  29  30
ENDBRANCH  27  29
ENDBRANCH  23  27
ENDBRANCH   1  20
TORSDOF 12
ENDMDL
MODEL 2
REMARK VINA RESULT: -7.114666721      2.591      7.505
REMARK  12 active torsions:
REMARK  status: ('A' for Active; 'I' for Inactive)
REMARK    1  A    between atoms: C2_2  and  O1_3 
REMARK    2  A    between atoms: O1_3  and  C3_4 
REMARK    3  A    between atoms: C3_4  and  C4_6 
REMARK    4  A    between atoms: C5_7  and  O3_8 
REMARK    5  A    between atoms: C7_12  and  N1_13 
REMARK    6  A    between atoms: N1_13  and  C8_15 
REMARK    7  A    between atoms: C8_15  and  C9_16 
REMARK    8  A    between atoms: C8_15  and  N2_20 
REMARK    9  A    between atoms: C9_16  and  C10_17 
REMARK   10  A    between atoms: C14_23  and  C15_24 
REMARK   11  A    between atoms: C15_24  and  O6_26 
REMARK   12  A    between atoms: O6_26  and  C16_27 
ROOT
HETATM    1  C8  UNL     1     -53.008  -1.593 -22.905  1.00  0.00     0.093 C 
ENDROOT
BRANCH   1   2
HETATM    2  N1  UNL     1     -52.904  -0.368 -22.538  1.00  0.00    -0.339 N 
ATOM      3  H1  UNL     1     -52.637   0.290 -23.269  1.00  0.00     0.168 HD
BRANCH   2   4
HETATM    4  C7  UNL     1     -53.109   0.194 -21.255  1.00  0.00     0.094 A 
HETATM    5  C4  UNL     1     -54.060   1.157 -20.905  1.00  0.00     0.106 A 
HETATM    6  C5  UNL     1     -54.054   1.558 -19.620  1.00  0.00     0.091 A 
HETATM    7  C6  UNL     1     -53.130   0.997 -18.786  1.00  0.00     0.089 A 
HETATM    8  S1  UNL     1     -52.287  -0.075 -19.784  1.00  0.00    -0.080 SA
BRANCH   5   9
HETATM    9  C3  UNL     1     -55.013   1.707 -21.917  1.00  0.00     0.298 C 
HETATM   10  O2  UNL     1     -55.438   2.881 -21.836  1.00  0.00    -0.259 OA
BRANCH   9  11
HETATM   11  O1  UNL     1     -55.466   0.967 -22.972  1.00  0.00    -0.318 OA
BRANCH  11  12
HETATM   12  C2  UNL     1     -55.796   1.502 -24.236  1.00  0.00     0.174 C 
HETATM   13  C1  UNL     1     -54.794   1.171 -25.289  1.00  0.00     0.034 C 
ENDBRANCH  11  12
ENDBRANCH   9  11
ENDBRANCH   5   9
BRANCH   6  14
HETATM   14  O3  UNL     1     -54.973   2.540 -19.118  1.00  0.00    -0.359 OA
ATOM     15  H3  UNL     1     -55.834   2.310 -18.788  1.00  0.00     0.217 HD
ENDBRANCH   6  14
ENDBRANCH   2   4
ENDBRANCH   1   2
BRANCH   1  16
HETATM   16  C9  UNL     1     -53.481  -2.670 -22.022  1.00  0.00     0.154 C 
BRANCH  16  17
HETATM   17  C10 UNL     1     -52.491  -3.661 -21.606  1.00  0.00     0.130 C 
HETATM   18  C11 UNL     1     -52.258  -4.893 -22.447  1.00  0.00     0.091 C 
HETATM   19  O4  UNL     1     -51.798  -3.606 -20.606  1.00  0.00    -0.298 OA
ENDBRANCH  16  17
ENDBRANCH   1  16
BRANCH   1  20
HETATM   20  N2  UNL     1     -52.601  -1.870 -24.236  1.00  0.00    -0.307 N 
HETATM   21  C12 UNL     1     -53.487  -2.133 -25.336  1.00  0.00     0.134 C 
HETATM   22  C13 UNL     1     -53.019  -3.462 -25.942  1.00  0.00     0.035 C 
HETATM   23  C14 UNL     1     -51.707  -3.174 -26.623  1.00  0.00     0.096 C 
HETATM   24  C18 UNL     1     -50.653  -2.596 -25.737  1.00  0.00     0.118 C 
HETATM   25  C19 UNL     1     -51.196  -1.847 -24.584  1.00  0.00     0.226 C 
HETATM   26  O7  UNL     1     -50.408  -1.168 -23.881  1.00  0.00    -0.273 OA
BRANCH  23  27
HETATM   27  C15 UNL     1     -51.201  -4.420 -27.243  1.00  0.00     0.263 C 
HETATM   28  O5  UNL     1     -50.401  -4.351 -28.192  1.00  0.00    -0.265 OA
BRANCH  27  29
HETATM   29  O6  UNL     1     -51.605  -5.658 -26.779  1.00  0.00    -0.322 OA
BRANCH  29  30
HETATM   30  C16 UNL     1     -50.695  -6.677 -26.445  1.00  0.00     0.174 C 
HETATM   31  C17 UNL     1     -49.997  -6.346 -25.139  1.00  0.00     0.034 C 
ENDBRANCH  29  30
ENDBRANCH  27  29
ENDBRANCH  23  27
ENDBRANCH   1  20
TORSDOF 12
ENDMDL
MODEL 3
REMARK VINA RESULT: -7.093642551      2.578      7.834
REMARK  12 active torsions:
REMARK  status: ('A' for Active; 'I' for Inactive)
REMARK    1  A    between atoms: C2_2  and  O1_3 
REMARK    2  A    between atoms: O1_3  and  C3_4 
REMARK    3  A    between atoms: C3_4  and  C4_6 
REMARK    4  A    between atoms: C5_7  and  O3_8 
REMARK    5  A    between atoms: C7_12  and  N1_13 
REMARK    6  A    between atoms: N1_13  and  C8_15 
REMARK    7  A    between atoms: C8_15  and  C9_16 
REMARK    8  A    between atoms: C8_15  and  N2_20 
REMARK    9  A    between atoms: C9_16  and  C10_17 
REMARK   10  A    between atoms: C14_23  and  C15_24 
REMARK   11  A    between atoms: C15_24  and  O6_26 
REMARK   12  A    between atoms: O6_26  and  C16_27 
ROOT
HETATM    1  C8  UNL     1     -53.182  -1.068 -26.526  1.00  0.00     0.093 C 
ENDROOT
BRANCH   1   2
HETATM    2  N1  UNL     1     -53.095   0.023 -25.856  1.00  0.00    -0.339 N 
ATOM      3  H1  UNL     1     -52.199   0.505 -25.913  1.00  0.00     0.168 HD
BRANCH   2   4
HETATM    4  C7  UNL     1     -54.075   0.647 -25.048  1.00  0.00     0.094 A 
HETATM    5  C4  UNL     1     -54.104   0.690 -23.650  1.00  0.00     0.106 A 
HETATM    6  C5  UNL     1     -55.154   1.328 -23.098  1.00  0.00     0.091 A 
HETATM    7  C6  UNL     1     -56.084   1.865 -23.941  1.00  0.00     0.089 A 
HETATM    8  S1  UNL     1     -55.497   1.485 -25.480  1.00  0.00    -0.080 SA
BRANCH   5   9
HETATM    9  C3  UNL     1     -53.029   0.050 -22.834  1.00  0.00     0.298 C 
HETATM   10  O2  UNL     1     -53.275  -0.446 -21.712  1.00  0.00    -0.259 OA
BRANCH   9  11
HETATM   11  O1  UNL     1     -51.734  -0.026 -23.262  1.00  0.00    -0.318 OA
BRANCH  11  12
HETATM   12  C2  UNL     1     -50.655  -0.463 -22.462  1.00  0.00     0.174 C 
HETATM   13  C1  UNL     1     -50.115  -1.786 -22.884  1.00  0.00     0.034 C 
ENDBRANCH  11  12
ENDBRANCH   9  11
ENDBRANCH   5   9
BRANCH   6  14
HETATM   14  O3  UNL     1     -55.315   1.452 -21.677  1.00  0.00    -0.359 OA
ATOM     15  H3  UNL     1     -55.793   2.171 -21.280  1.00  0.00     0.217 HD
ENDBRANCH   6  14
ENDBRANCH   2   4
ENDBRANCH   1   2
BRANCH   1  16
HETATM   16  C9  UNL     1     -54.187  -1.301 -27.574  1.00  0.00     0.154 C 
BRANCH  16  17
HETATM   17  C10 UNL     1     -53.762  -2.095 -28.726  1.00  0.00     0.130 C 
HETATM   18  C11 UNL     1     -52.796  -1.512 -29.729  1.00  0.00     0.091 C 
HETATM   19  O4  UNL     1     -54.117  -3.231 -28.983  1.00  0.00    -0.298 OA
ENDBRANCH  16  17
ENDBRANCH   1  16
BRANCH   1  20
HETATM   20  N2  UNL     1     -52.252  -2.080 -26.171  1.00  0.00    -0.307 N 
HETATM   21  C12 UNL     1     -50.881  -2.133 -26.598  1.00  0.00     0.134 C 
HETATM   22  C13 UNL     1     -50.689  -3.522 -27.218  1.00  0.00     0.035 C 
HETATM   23  C14 UNL     1     -50.727  -4.501 -26.075  1.00  0.00     0.096 C 
HETATM   24  C18 UNL     1     -51.973  -4.457 -25.253  1.00  0.00     0.118 C 
HETATM   25  C19 UNL     1     -52.645  -3.142 -25.268  1.00  0.00     0.226 C 
HETATM   26  O7  UNL     1     -53.592  -2.939 -24.470  1.00  0.00    -0.273 OA
BRANCH  23  27
HETATM   27  C15 UNL     1     -50.535  -5.871 -26.606  1.00  0.00     0.263 C 
HETATM   28  O5  UNL     1     -50.571  -6.839 -25.828  1.00  0.00    -0.265 OA
BRANCH  27  29
HETATM   29  O6  UNL     1     -50.318  -6.085 -27.954  1.00  0.00    -0.322 OA
BRANCH  29  30
HETATM   30  C16 UNL     1     -49.201  -6.788 -28.440  1.00  0.00     0.174 C 
HETATM   31  C17 UNL     1     -48.915  -6.388 -29.875  1.00  0.00     0.034 C 
ENDBRANCH  29  30
ENDBRANCH  27  29
ENDBRANCH  23  27
ENDBRANCH   1  20
TORSDOF 12
ENDMDL
MODEL 4
REMARK VINA RESULT: -7.092390319      1.480      2.734
REMARK  12 active torsions:
REMARK  status: ('A' for Active; 'I' for Inactive)
REMARK    1  A    between atoms: C2_2  and  O1_3 
REMARK    2  A    between atoms: O1_3  and  C3_4 
REMARK    3  A    between atoms: C3_4  and  C4_6 
REMARK    4  A    between atoms: C5_7  and  O3_8 
REMARK    5  A    between atoms: C7_12  and  N1_13 
REMARK    6  A    between atoms: N1_13  and  C8_15 
REMARK    7  A    between atoms: C8_15  and  C9_16 
REMARK    8  A    between atoms: C8_15  and  N2_20 
REMARK    9  A    between atoms: C9_16  and  C10_17 
REMARK   10  A    between atoms: C14_23  and  C15_24 
REMARK   11  A    between atoms: C15_24  and  O6_26 
REMARK   12  A    between atoms: O6_26  and  C16_27 
ROOT
HETATM    1  C8  UNL     1     -52.243  -2.431 -24.819  1.00  0.00     0.093 C 
ENDROOT
BRANCH   1   2
HETATM    2  N1  UNL     1     -51.113  -2.909 -25.196  1.00  0.00    -0.339 N 
ATOM      3  H1  UNL     1     -50.290  -2.464 -24.792  1.00  0.00     0.168 HD
BRANCH   2   4
HETATM    4  C7  UNL     1     -50.855  -3.970 -26.096  1.00  0.00     0.094 A 
HETATM    5  C4  UNL     1     -50.667  -3.868 -27.478  1.00  0.00     0.106 A 
HETATM    6  C5  UNL     1     -50.455  -5.024 -28.135  1.00  0.00     0.091 A 
HETATM    7  C6  UNL     1     -50.446  -6.176 -27.403  1.00  0.00     0.089 A 
HETATM    8  S1  UNL     1     -50.727  -5.649 -25.822  1.00  0.00    -0.080 SA
BRANCH   5   9
HETATM    9  C3  UNL     1     -50.713  -2.544 -28.170  1.00  0.00     0.298 C 
HETATM   10  O2  UNL     1     -50.301  -1.504 -27.609  1.00  0.00    -0.259 OA
BRANCH   9  11
HETATM   11  O1  UNL     1     -51.202  -2.398 -29.437  1.00  0.00    -0.318 OA
BRANCH  11  12
HETATM   12  C2  UNL     1     -52.511  -1.965 -29.741  1.00  0.00     0.174 C 
HETATM   13  C1  UNL     1     -53.532  -3.039 -29.584  1.00  0.00     0.034 C 
ENDBRANCH  11  12
ENDBRANCH   9  11
ENDBRANCH   5   9
BRANCH   6  14
HETATM   14  O3  UNL     1     -50.245  -5.073 -29.555  1.00  0.00    -0.359 OA
ATOM     15  H3  UNL     1     -49.638  -4.493 -29.999  1.00  0.00     0.217 HD
ENDBRANCH   6  14
ENDBRANCH   2   4
ENDBRANCH   1   2
BRANCH   1  16
HETATM   16  C9  UNL     1     -53.409  -2.304 -25.706  1.00  0.00     0.154 C 
BRANCH  16  17
HETATM   17  C10 UNL     1     -53.649  -0.986 -26.291  1.00  0.00     0.130 C 
HETATM   18  C11 UNL     1     -54.913  -0.728 -27.075  1.00  0.00     0.091 C 
HETATM   19  O4  UNL     1     -52.907  -0.023 -26.216  1.00  0.00    -0.298 OA
ENDBRANCH  16  17
ENDBRANCH   1  16
BRANCH   1  20
HETATM   20  N2  UNL     1     -52.302  -1.990 -23.471  1.00  0.00    -0.307 N 
HETATM   21  C12 UNL     1     -53.132  -2.561 -22.447  1.00  0.00     0.134 C 
HETATM   22  C13 UNL     1     -53.927  -1.393 -21.852  1.00  0.00     0.035 C 
HETATM   23  C14 UNL     1     -52.939  -0.569 -21.069  1.00  0.00     0.096 C 
HETATM   24  C18 UNL     1     -51.774  -0.069 -21.858  1.00  0.00     0.118 C 
HETATM   25  C19 UNL     1     -51.441  -0.916 -23.022  1.00  0.00     0.226 C 
HETATM   26  O7  UNL     1     -50.374  -0.694 -23.644  1.00  0.00    -0.273 OA
BRANCH  23  27
HETATM   27  C15 UNL     1     -53.647   0.578 -20.454  1.00  0.00     0.263 C 
HETATM   28  O5  UNL     1     -53.143   1.154 -19.475  1.00  0.00    -0.265 OA
BRANCH  27  29
HETATM   29  O6  UNL     1     -54.859   1.015 -20.956  1.00  0.00    -0.322 OA
BRANCH  29  30
HETATM   30  C16 UNL     1     -54.968   2.126 -21.811  1.00  0.00     0.174 C 
HETATM   31  C17 UNL     1     -55.457   1.687 -23.179  1.00  0.00     0.034 C 
ENDBRANCH  29  30
ENDBRANCH  27  29
ENDBRANCH  23  27
ENDBRANCH   1  20
TORSDOF 12
ENDMDL
MODEL 5
REMARK VINA RESULT: -7.061036794      2.683      7.483
REMARK  12 active torsions:
REMARK  status: ('A' for Active; 'I' for Inactive)
REMARK    1  A    between atoms: C2_2  and  O1_3 
REMARK    2  A    between atoms: O1_3  and  C3_4 
REMARK    3  A    between atoms: C3_4  and  C4_6 
REMARK    4  A    between atoms: C5_7  and  O3_8 
REMARK    5  A    between atoms: C7_12  and  N1_13 
REMARK    6  A    between atoms: N1_13  and  C8_15 
REMARK    7  A    between atoms: C8_15  and  C9_16 
REMARK    8  A    between atoms: C8_15  and  N2_20 
REMARK    9  A    between atoms: C9_16  and  C10_17 
REMARK   10  A    between atoms: C14_23  and  C15_24 
REMARK   11  A    between atoms: C15_24  and  O6_26 
REMARK   12  A    between atoms: O6_26  and  C16_27 
ROOT
HETATM    1  C8  UNL     1     -53.214  -1.166 -26.449  1.00  0.00     0.093 C 
ENDROOT
BRANCH   1   2
HETATM    2  N1  UNL     1     -53.149  -0.021 -25.873  1.00  0.00    -0.339 N 
ATOM      3  H1  UNL     1     -52.277   0.490 -26.006  1.00  0.00     0.168 HD
BRANCH   2   4
HETATM    4  C7  UNL     1     -54.123   0.628 -25.079  1.00  0.00     0.094 A 
HETATM    5  C4  UNL     1     -54.143   0.716 -23.683  1.00  0.00     0.106 A 
HETATM    6  C5  UNL     1     -55.189   1.370 -23.144  1.00  0.00     0.091 A 
HETATM    7  C6  UNL     1     -56.126   1.880 -23.997  1.00  0.00     0.089 A 
HETATM    8  S1  UNL     1     -55.549   1.452 -25.528  1.00  0.00    -0.080 SA
BRANCH   5   9
HETATM    9  C3  UNL     1     -53.062   0.102 -22.854  1.00  0.00     0.298 C 
HETATM   10  O2  UNL     1     -53.302  -0.367 -21.719  1.00  0.00    -0.259 OA
BRANCH   9  11
HETATM   11  O1  UNL     1     -51.768   0.019 -23.285  1.00  0.00    -0.318 OA
BRANCH  11  12
HETATM   12  C2  UNL     1     -50.677  -0.339 -22.464  1.00  0.00     0.174 C 
HETATM   13  C1  UNL     1     -50.110  -1.676 -22.800  1.00  0.00     0.034 C 
ENDBRANCH  11  12
ENDBRANCH   9  11
ENDBRANCH   5   9
BRANCH   6  14
HETATM   14  O3  UNL     1     -55.342   1.538 -21.727  1.00  0.00    -0.359 OA
ATOM     15  H3  UNL     1     -54.772   2.104 -21.217  1.00  0.00     0.217 HD
ENDBRANCH   6  14
ENDBRANCH   2   4
ENDBRANCH   1   2
BRANCH   1  16
HETATM   16  C9  UNL     1     -54.217  -1.509 -27.467  1.00  0.00     0.154 C 
BRANCH  16  17
HETATM   17  C10 UNL     1     -53.729  -2.179 -28.671  1.00  0.00     0.130 C 
HETATM   18  C11 UNL     1     -52.713  -1.496 -29.554  1.00  0.00     0.091 C 
HETATM   19  O4  UNL     1     -54.066  -3.281 -29.065  1.00  0.00    -0.298 OA
ENDBRANCH  16  17
ENDBRANCH   1  16
BRANCH   1  20
HETATM   20  N2  UNL     1     -52.259  -2.123 -26.017  1.00  0.00    -0.307 N 
HETATM   21  C12 UNL     1     -50.883  -2.166 -26.429  1.00  0.00     0.134 C 
HETATM   22  C13 UNL     1     -50.645  -3.589 -26.948  1.00  0.00     0.035 C 
HETATM   23  C14 UNL     1     -50.667  -4.486 -25.739  1.00  0.00     0.096 C 
HETATM   24  C18 UNL     1     -51.920  -4.421 -24.931  1.00  0.00     0.118 C 
HETATM   25  C19 UNL     1     -52.630  -3.129 -25.044  1.00  0.00     0.226 C 
HETATM   26  O7  UNL     1     -53.590  -2.899 -24.269  1.00  0.00    -0.273 OA
BRANCH  23  27
HETATM   27  C15 UNL     1     -50.431  -5.884 -26.171  1.00  0.00     0.263 C 
HETATM   28  O5  UNL     1     -51.065  -6.342 -27.136  1.00  0.00    -0.265 OA
BRANCH  27  29
HETATM   29  O6  UNL     1     -49.513  -6.683 -25.514  1.00  0.00    -0.322 OA
BRANCH  29  30
HETATM   30  C16 UNL     1     -49.881  -7.857 -24.834  1.00  0.00     0.174 C 
HETATM   31  C17 UNL     1     -50.470  -7.513 -23.478  1.00  0.00     0.034 C 
ENDBRANCH  29  30
ENDBRANCH  27  29
ENDBRANCH  23  27
ENDBRANCH   1  20
TORSDOF 12
ENDMDL
