MODEL 1
REMARK VINA RESULT: -7.801350248      0.000      0.000
REMARK  8 active torsions:
REMARK  status: ('A' for Active; 'I' for Inactive)
REMARK    1  A    between atoms: C2_2  and  N1_3 
REMARK    2  A    between atoms: N1_3  and  C3_4 
REMARK       I    between atoms: N1_3  and  C7_13 
REMARK    3  A    between atoms: C3_4  and  C4_5 
REMARK    4  A    between atoms: C7_13  and  C8_15 
REMARK    5  A    between atoms: C8_15  and  S1_16 
REMARK    6  A    between atoms: S1_16  and  C9_17 
REMARK    7  A    between atoms: C10_22  and  C11_23 
REMARK    8  A    between atoms: N6_31  and  N7_32 
ROOT
HETATM    1  C9  UNL     1     -53.221  -1.026 -28.034  1.00  0.00     0.182 A 
HETATM    2  N4  UNL     1     -52.040  -0.766 -27.447  1.00  0.00    -0.277 N 
ATOM      3  H4  UNL     1     -51.126  -0.852 -27.890  1.00  0.00     0.189 HD
HETATM    4  N5  UNL     1     -52.262  -0.378 -26.193  1.00  0.00    -0.285 N 
ATOM      5  H5  UNL     1     -51.543  -0.117 -25.518  1.00  0.00     0.188 HD
HETATM    6  C10 UNL     1     -53.594  -0.384 -25.958  1.00  0.00     0.124 A 
HETATM    7  N6  UNL     1     -54.167  -0.784 -27.096  1.00  0.00    -0.225 N 
ENDROOT
BRANCH   1   8
HETATM    8  S1  UNL     1     -53.585  -1.581 -29.690  1.00  0.00    -0.081 SA
BRANCH   8   9
HETATM    9  C8  UNL     1     -53.315  -3.357 -29.840  1.00  0.00     0.185 C 
BRANCH   9  10
HETATM   10  C7  UNL     1     -51.968  -3.667 -29.272  1.00  0.00     0.229 C 
HETATM   11  N1  UNL     1     -51.852  -4.349 -28.032  1.00  0.00    -0.344 N 
HETATM   12  O2  UNL     1     -50.953  -3.320 -29.901  1.00  0.00    -0.273 OA
BRANCH  11  13
HETATM   13  C2  UNL     1     -53.054  -4.741 -27.318  1.00  0.00     0.122 C 
HETATM   14  C1  UNL     1     -53.146  -4.130 -25.960  1.00  0.00     0.026 C 
ENDBRANCH  11  13
BRANCH  11  15
HETATM   15  C3  UNL     1     -50.527  -4.631 -27.526  1.00  0.00     0.212 C 
BRANCH  15  16
HETATM   16  C4  UNL     1     -50.070  -5.936 -28.107  1.00  0.00     0.166 A 
HETATM   17  N2  UNL     1     -49.640  -6.219 -29.342  1.00  0.00    -0.326 N 
HETATM   18  C5  UNL     1     -49.329  -7.522 -29.437  1.00  0.00     0.100 A 
ATOM     19  H2  UNL     1     -49.561  -5.544 -30.103  1.00  0.00     0.169 HD
HETATM   20  C6  UNL     1     -48.823  -8.201 -30.638  1.00  0.00     0.091 C 
HETATM   21  N3  UNL     1     -49.585  -8.030 -28.208  1.00  0.00    -0.247 N 
HETATM   22  O1  UNL     1     -50.019  -7.084 -27.441  1.00  0.00    -0.221 OA
ATOM     23  H3  UNL     1     -49.455  -9.003 -27.932  1.00  0.00     0.196 HD
ENDBRANCH  15  16
ENDBRANCH  11  15
ENDBRANCH   9  10
ENDBRANCH   8   9
ENDBRANCH   1   8
BRANCH   7  24
HETATM   24  N7  UNL     1     -55.539  -0.925 -27.274  1.00  0.00    -0.335 N 
ATOM     25  H72 UNL     1     -56.068  -1.761 -27.025  1.00  0.00     0.177 HD
ATOM     26  H71 UNL     1     -56.162  -0.220 -27.669  1.00  0.00     0.177 HD
ENDBRANCH   7  24
BRANCH   6  27
HETATM   27  C11 UNL     1     -54.209  -0.011 -24.677  1.00  0.00     0.057 C 
HETATM   28  C12 UNL     1     -53.338  -0.388 -23.522  1.00  0.00     0.012 C 
HETATM   29  C13 UNL     1     -52.729   0.741 -22.765  1.00  0.00     0.001 C 
HETATM   30  C14 UNL     1     -53.248   0.860 -21.351  1.00  0.00     0.000 C 
HETATM   31  C15 UNL     1     -54.647   1.355 -21.245  1.00  0.00     0.000 C 
HETATM   32  C16 UNL     1     -55.027   2.349 -22.338  1.00  0.00     0.000 C 
HETATM   33  C17 UNL     1     -55.616   1.579 -23.471  1.00  0.00     0.001 C 
HETATM   34  C18 UNL     1     -54.701   1.416 -24.663  1.00  0.00     0.012 C 
ENDBRANCH   6  27
TORSDOF 8
ENDMDL
MODEL 2
REMARK VINA RESULT: -7.745772467      1.787      3.328
REMARK  8 active torsions:
REMARK  status: ('A' for Active; 'I' for Inactive)
REMARK    1  A    between atoms: C2_2  and  N1_3 
REMARK    2  A    between atoms: N1_3  and  C3_4 
REMARK       I    between atoms: N1_3  and  C7_13 
REMARK    3  A    between atoms: C3_4  and  C4_5 
REMARK    4  A    between atoms: C7_13  and  C8_15 
REMARK    5  A    between atoms: C8_15  and  S1_16 
REMARK    6  A    between atoms: S1_16  and  C9_17 
REMARK    7  A    between atoms: C10_22  and  C11_23 
REMARK    8  A    between atoms: N6_31  and  N7_32 
ROOT
HETATM    1  C9  UNL     1     -53.116  -0.962 -28.140  1.00  0.00     0.182 A 
HETATM    2  N4  UNL     1     -51.961  -0.576 -27.572  1.00  0.00    -0.277 N 
ATOM      3  H4  UNL     1     -51.047  -0.578 -28.025  1.00  0.00     0.189 HD
HETATM    4  N5  UNL     1     -52.207  -0.189 -26.322  1.00  0.00    -0.285 N 
ATOM      5  H5  UNL     1     -51.510   0.153 -25.660  1.00  0.00     0.188 HD
HETATM    6  C10 UNL     1     -53.529  -0.323 -26.071  1.00  0.00     0.124 A 
HETATM    7  N6  UNL     1     -54.071  -0.798 -27.194  1.00  0.00    -0.225 N 
ENDROOT
BRANCH   1   8
HETATM    8  S1  UNL     1     -53.441  -1.580 -29.782  1.00  0.00    -0.081 SA
BRANCH   8   9
HETATM    9  C8  UNL     1     -52.906  -3.294 -29.934  1.00  0.00     0.185 C 
BRANCH   9  10
HETATM   10  C7  UNL     1     -53.042  -3.939 -28.593  1.00  0.00     0.229 C 
HETATM   11  N1  UNL     1     -51.900  -4.458 -27.928  1.00  0.00    -0.344 N 
HETATM   12  O2  UNL     1     -54.168  -4.014 -28.070  1.00  0.00    -0.273 OA
BRANCH  11  13
HETATM   13  C2  UNL     1     -50.598  -4.359 -28.563  1.00  0.00     0.122 C 
HETATM   14  C1  UNL     1     -49.860  -5.655 -28.575  1.00  0.00     0.026 C 
ENDBRANCH  11  13
BRANCH  11  15
HETATM   15  C3  UNL     1     -52.081  -5.069 -26.630  1.00  0.00     0.212 C 
BRANCH  15  16
HETATM   16  C4  UNL     1     -51.515  -4.145 -25.592  1.00  0.00     0.166 A 
HETATM   17  N2  UNL     1     -51.429  -4.298 -24.265  1.00  0.00    -0.326 N 
HETATM   18  C5  UNL     1     -50.848  -3.222 -23.712  1.00  0.00     0.100 A 
ATOM     19  H2  UNL     1     -51.757  -5.115 -23.749  1.00  0.00     0.169 HD
HETATM   20  C6  UNL     1     -50.583  -3.028 -22.279  1.00  0.00     0.091 C 
HETATM   21  N3  UNL     1     -50.580  -2.399 -24.753  1.00  0.00    -0.247 N 
HETATM   22  O1  UNL     1     -50.979  -2.958 -25.849  1.00  0.00    -0.221 OA
ATOM     23  H3  UNL     1     -50.134  -1.484 -24.684  1.00  0.00     0.196 HD
ENDBRANCH  15  16
ENDBRANCH  11  15
ENDBRANCH   9  10
ENDBRANCH   8   9
ENDBRANCH   1   8
BRANCH   7  24
HETATM   24  N7  UNL     1     -55.424  -1.078 -27.354  1.00  0.00    -0.335 N 
ATOM     25  H72 UNL     1     -55.966  -1.673 -26.727  1.00  0.00     0.177 HD
ATOM     26  H71 UNL     1     -56.019  -0.725 -28.103  1.00  0.00     0.177 HD
ENDBRANCH   7  24
BRANCH   6  27
HETATM   27  C11 UNL     1     -54.164   0.009 -24.788  1.00  0.00     0.057 C 
HETATM   28  C12 UNL     1     -53.295  -0.370 -23.633  1.00  0.00     0.012 C 
HETATM   29  C13 UNL     1     -52.721   0.758 -22.847  1.00  0.00     0.001 C 
HETATM   30  C14 UNL     1     -53.255   0.836 -21.437  1.00  0.00     0.000 C 
HETATM   31  C15 UNL     1     -54.666   1.296 -21.334  1.00  0.00     0.000 C 
HETATM   32  C16 UNL     1     -55.060   2.302 -22.411  1.00  0.00     0.000 C 
HETATM   33  C17 UNL     1     -55.620   1.541 -23.564  1.00  0.00     0.001 C 
HETATM   34  C18 UNL     1     -54.691   1.423 -24.751  1.00  0.00     0.012 C 
ENDBRANCH   6  27
TORSDOF 8
ENDMDL
MODEL 3
REMARK VINA RESULT: -7.714503796      2.075      3.343
REMARK  8 active torsions:
REMARK  status: ('A' for Active; 'I' for Inactive)
REMARK    1  A    between atoms: C2_2  and  N1_3 
REMARK    2  A    between atoms: N1_3  and  C3_4 
REMARK       I    between atoms: N1_3  and  C7_13 
REMARK    3  A    between atoms: C3_4  and  C4_5 
REMARK    4  A    between atoms: C7_13  and  C8_15 
REMARK    5  A    between atoms: C8_15  and  S1_16 
REMARK    6  A    between atoms: S1_16  and  C9_17 
REMARK    7  A    between atoms: C10_22  and  C11_23 
REMARK    8  A    between atoms: N6_31  and  N7_32 
ROOT
HETATM    1  C9  UNL     1     -52.279  -1.000 -27.204  1.00  0.00     0.182 A 
HETATM    2  N4  UNL     1     -51.286  -1.282 -26.343  1.00  0.00    -0.277 N 
ATOM      3  H4  UNL     1     -50.365  -1.639 -26.596  1.00  0.00     0.189 HD
HETATM    4  N5  UNL     1     -51.704  -1.020 -25.107  1.00  0.00    -0.285 N 
ATOM      5  H5  UNL     1     -51.154  -1.143 -24.256  1.00  0.00     0.188 HD
HETATM    6  C10 UNL     1     -52.976  -0.563 -25.158  1.00  0.00     0.124 A 
HETATM    7  N6  UNL     1     -53.314  -0.558 -26.450  1.00  0.00    -0.225 N 
ENDROOT
BRANCH   1   8
HETATM    8  S1  UNL     1     -52.336  -1.142 -28.982  1.00  0.00    -0.081 SA
BRANCH   8   9
HETATM    9  C8  UNL     1     -52.050  -2.846 -29.493  1.00  0.00     0.185 C 
BRANCH   9  10
HETATM   10  C7  UNL     1     -52.826  -3.737 -28.579  1.00  0.00     0.229 C 
HETATM   11  N1  UNL     1     -52.153  -4.583 -27.659  1.00  0.00    -0.344 N 
HETATM   12  O2  UNL     1     -54.069  -3.726 -28.635  1.00  0.00    -0.273 OA
BRANCH  11  13
HETATM   13  C2  UNL     1     -50.701  -4.577 -27.615  1.00  0.00     0.122 C 
HETATM   14  C1  UNL     1     -50.100  -5.829 -28.160  1.00  0.00     0.026 C 
ENDBRANCH  11  13
BRANCH  11  15
HETATM   15  C3  UNL     1     -52.947  -5.424 -26.791  1.00  0.00     0.212 C 
BRANCH  15  16
HETATM   16  C4  UNL     1     -52.580  -5.112 -25.370  1.00  0.00     0.166 A 
HETATM   17  N2  UNL     1     -52.194  -5.934 -24.386  1.00  0.00    -0.326 N 
HETATM   18  C5  UNL     1     -51.962  -5.235 -23.263  1.00  0.00     0.100 A 
ATOM     19  H2  UNL     1     -52.092  -6.945 -24.476  1.00  0.00     0.169 HD
HETATM   20  C6  UNL     1     -51.524  -5.794 -21.977  1.00  0.00     0.091 C 
HETATM   21  N3  UNL     1     -52.221  -3.948 -23.597  1.00  0.00    -0.247 N 
HETATM   22  O1  UNL     1     -52.582  -3.897 -24.837  1.00  0.00    -0.221 OA
ATOM     23  H3  UNL     1     -52.143  -3.148 -22.969  1.00  0.00     0.196 HD
ENDBRANCH  15  16
ENDBRANCH  11  15
ENDBRANCH   9  10
ENDBRANCH   8   9
ENDBRANCH   1   8
BRANCH   7  24
HETATM   24  N7  UNL     1     -54.553  -0.153 -26.935  1.00  0.00    -0.335 N 
ATOM     25  H72 UNL     1     -54.699   0.666 -27.525  1.00  0.00     0.177 HD
ATOM     26  H71 UNL     1     -55.441  -0.622 -26.758  1.00  0.00     0.177 HD
ENDBRANCH   7  24
BRANCH   6  27
HETATM   27  C11 UNL     1     -53.763  -0.173 -23.981  1.00  0.00     0.057 C 
HETATM   28  C12 UNL     1     -53.042  -0.493 -22.711  1.00  0.00     0.012 C 
HETATM   29  C13 UNL     1     -52.566   0.673 -21.916  1.00  0.00     0.001 C 
HETATM   30  C14 UNL     1     -53.268   0.817 -20.586  1.00  0.00     0.000 C 
HETATM   31  C15 UNL     1     -54.681   1.276 -20.679  1.00  0.00     0.000 C 
HETATM   32  C16 UNL     1     -54.937   2.228 -21.843  1.00  0.00     0.000 C 
HETATM   33  C17 UNL     1     -55.355   1.410 -23.019  1.00  0.00     0.001 C 
HETATM   34  C18 UNL     1     -54.287   1.240 -24.075  1.00  0.00     0.012 C 
ENDBRANCH   6  27
TORSDOF 8
ENDMDL
MODEL 4
REMARK VINA RESULT: -7.532208302      4.340      8.446
REMARK  8 active torsions:
REMARK  status: ('A' for Active; 'I' for Inactive)
REMARK    1  A    between atoms: C2_2  and  N1_3 
REMARK    2  A    between atoms: N1_3  and  C3_4 
REMARK       I    between atoms: N1_3  and  C7_13 
REMARK    3  A    between atoms: C3_4  and  C4_5 
REMARK    4  A    between atoms: C7_13  and  C8_15 
REMARK    5  A    between atoms: C8_15  and  S1_16 
REMARK    6  A    between atoms: S1_16  and  C9_17 
REMARK    7  A    between atoms: C10_22  and  C11_23 
REMARK    8  A    between atoms: N6_31  and  N7_32 
ROOT
HETATM    1  C9  UNL     1     -50.291  -2.118 -22.010  1.00  0.00     0.182 A 
HETATM    2  N4  UNL     1     -50.071  -0.986 -22.700  1.00  0.00    -0.277 N 
ATOM      3  H4  UNL     1     -49.690  -0.121 -22.316  1.00  0.00     0.189 HD
HETATM    4  N5  UNL     1     -50.431  -1.181 -23.967  1.00  0.00    -0.285 N 
ATOM      5  H5  UNL     1     -50.371  -0.488 -24.713  1.00  0.00     0.188 HD
HETATM    6  C10 UNL     1     -50.888  -2.446 -24.106  1.00  0.00     0.124 A 
HETATM    7  N6  UNL     1     -50.797  -3.006 -22.898  1.00  0.00    -0.225 N 
ENDROOT
BRANCH   1   8
HETATM    8  S1  UNL     1     -50.016  -2.486 -20.286  1.00  0.00    -0.081 SA
BRANCH   8   9
HETATM    9  C8  UNL     1     -51.357  -1.832 -19.274  1.00  0.00     0.185 C 
BRANCH   9  10
HETATM   10  C7  UNL     1     -52.632  -2.005 -20.033  1.00  0.00     0.229 C 
HETATM   11  N1  UNL     1     -53.339  -0.873 -20.516  1.00  0.00    -0.344 N 
HETATM   12  O2  UNL     1     -53.064  -3.154 -20.234  1.00  0.00    -0.273 OA
BRANCH  11  13
HETATM   13  C2  UNL     1     -52.813   0.457 -20.265  1.00  0.00     0.122 C 
HETATM   14  C1  UNL     1     -53.591   1.203 -19.234  1.00  0.00     0.026 C 
ENDBRANCH  11  13
BRANCH  11  15
HETATM   15  C3  UNL     1     -54.566  -1.091 -21.249  1.00  0.00     0.212 C 
BRANCH  15  16
HETATM   16  C4  UNL     1     -54.539  -0.230 -22.478  1.00  0.00     0.166 A 
HETATM   17  N2  UNL     1     -53.845  -0.379 -23.613  1.00  0.00    -0.326 N 
HETATM   18  C5  UNL     1     -54.119   0.627 -24.458  1.00  0.00     0.100 A 
ATOM     19  H2  UNL     1     -53.202  -1.146 -23.807  1.00  0.00     0.169 HD
HETATM   20  C6  UNL     1     -53.548   0.803 -25.801  1.00  0.00     0.091 C 
HETATM   21  N3  UNL     1     -55.011   1.403 -23.797  1.00  0.00    -0.247 N 
HETATM   22  O1  UNL     1     -55.245   0.884 -22.636  1.00  0.00    -0.221 OA
ATOM     23  H3  UNL     1     -55.430   2.260 -24.157  1.00  0.00     0.196 HD
ENDBRANCH  15  16
ENDBRANCH  11  15
ENDBRANCH   9  10
ENDBRANCH   8   9
ENDBRANCH   1   8
BRANCH   7  24
HETATM   24  N7  UNL     1     -51.170  -4.315 -22.611  1.00  0.00    -0.335 N 
ATOM     25  H72 UNL     1     -50.883  -4.824 -21.775  1.00  0.00     0.177 HD
ATOM     26  H71 UNL     1     -51.764  -4.904 -23.194  1.00  0.00     0.177 HD
ENDBRANCH   7  24
BRANCH   6  27
HETATM   27  C11 UNL     1     -51.374  -3.015 -25.371  1.00  0.00     0.057 C 
HETATM   28  C12 UNL     1     -51.569  -1.956 -26.408  1.00  0.00     0.012 C 
HETATM   29  C13 UNL     1     -50.626  -1.986 -27.561  1.00  0.00     0.001 C 
HETATM   30  C14 UNL     1     -51.296  -2.321 -28.872  1.00  0.00     0.000 C 
HETATM   31  C15 UNL     1     -51.727  -3.740 -29.003  1.00  0.00     0.000 C 
HETATM   32  C16 UNL     1     -50.811  -4.723 -28.282  1.00  0.00     0.000 C 
HETATM   33  C17 UNL     1     -51.343  -4.917 -26.902  1.00  0.00     0.001 C 
HETATM   34  C18 UNL     1     -50.562  -4.205 -25.822  1.00  0.00     0.012 C 
ENDBRANCH   6  27
TORSDOF 8
ENDMDL
MODEL 5
REMARK VINA RESULT: -7.523117784      0.576      1.745
REMARK  8 active torsions:
REMARK  status: ('A' for Active; 'I' for Inactive)
REMARK    1  A    between atoms: C2_2  and  N1_3 
REMARK    2  A    between atoms: N1_3  and  C3_4 
REMARK       I    between atoms: N1_3  and  C7_13 
REMARK    3  A    between atoms: C3_4  and  C4_5 
REMARK    4  A    between atoms: C7_13  and  C8_15 
REMARK    5  A    between atoms: C8_15  and  S1_16 
REMARK    6  A    between atoms: S1_16  and  C9_17 
REMARK    7  A    between atoms: C10_22  and  C11_23 
REMARK    8  A    between atoms: N6_31  and  N7_32 
ROOT
HETATM    1  C9  UNL     1     -54.149  -1.042 -28.194  1.00  0.00     0.182 A 
HETATM    2  N4  UNL     1     -55.386  -0.798 -27.729  1.00  0.00    -0.277 N 
ATOM      3  H4  UNL     1     -56.252  -0.910 -28.256  1.00  0.00     0.189 HD
HETATM    4  N5  UNL     1     -55.294  -0.386 -26.466  1.00  0.00    -0.285 N 
ATOM      5  H5  UNL     1     -56.080  -0.130 -25.867  1.00  0.00     0.188 HD
HETATM    6  C10 UNL     1     -53.992  -0.361 -26.104  1.00  0.00     0.124 A 
HETATM    7  N6  UNL     1     -53.304  -0.765 -27.174  1.00  0.00    -0.225 N 
ENDROOT
BRANCH   1   8
HETATM    8  S1  UNL     1     -53.616  -1.611 -29.799  1.00  0.00    -0.081 SA
BRANCH   8   9
HETATM    9  C8  UNL     1     -53.383  -3.398 -29.795  1.00  0.00     0.185 C 
BRANCH   9  10
HETATM   10  C7  UNL     1     -52.030  -3.684 -29.230  1.00  0.00     0.229 C 
HETATM   11  N1  UNL     1     -51.899  -4.340 -27.978  1.00  0.00    -0.344 N 
HETATM   12  O2  UNL     1     -51.022  -3.341 -29.873  1.00  0.00    -0.273 OA
BRANCH  11  13
HETATM   13  C2  UNL     1     -53.092  -4.729 -27.248  1.00  0.00     0.122 C 
HETATM   14  C1  UNL     1     -53.121  -4.192 -25.857  1.00  0.00     0.026 C 
ENDBRANCH  11  13
BRANCH  11  15
HETATM   15  C3  UNL     1     -50.568  -4.600 -27.476  1.00  0.00     0.212 C 
BRANCH  15  16
HETATM   16  C4  UNL     1     -50.106  -5.917 -28.027  1.00  0.00     0.166 A 
HETATM   17  N2  UNL     1     -49.656  -6.222 -29.250  1.00  0.00    -0.326 N 
HETATM   18  C5  UNL     1     -49.349  -7.527 -29.317  1.00  0.00     0.100 A 
ATOM     19  H2  UNL     1     -49.560  -5.559 -30.019  1.00  0.00     0.169 HD
HETATM   20  C6  UNL     1     -48.825  -8.228 -30.498  1.00  0.00     0.091 C 
HETATM   21  N3  UNL     1     -49.628  -8.014 -28.085  1.00  0.00    -0.247 N 
HETATM   22  O1  UNL     1     -50.072  -7.054 -27.341  1.00  0.00    -0.221 OA
ATOM     23  H3  UNL     1     -49.508  -8.983 -27.791  1.00  0.00     0.196 HD
ENDBRANCH  15  16
ENDBRANCH  11  15
ENDBRANCH   9  10
ENDBRANCH   8   9
ENDBRANCH   1   8
BRANCH   7  24
HETATM   24  N7  UNL     1     -51.918  -0.880 -27.217  1.00  0.00    -0.335 N 
ATOM     25  H72 UNL     1     -51.417  -1.766 -27.274  1.00  0.00     0.177 HD
ATOM     26  H71 UNL     1     -51.257  -0.103 -27.198  1.00  0.00     0.177 HD
ENDBRANCH   7  24
BRANCH   6  27
HETATM   27  C11 UNL     1     -53.510   0.045 -24.776  1.00  0.00     0.057 C 
HETATM   28  C12 UNL     1     -54.243   1.247 -24.273  1.00  0.00     0.012 C 
HETATM   29  C13 UNL     1     -55.148   1.023 -23.110  1.00  0.00     0.001 C 
HETATM   30  C14 UNL     1     -54.688   1.722 -21.852  1.00  0.00     0.000 C 
HETATM   31  C15 UNL     1     -53.486   1.120 -21.215  1.00  0.00     0.000 C 
HETATM   32  C16 UNL     1     -53.399  -0.393 -21.384  1.00  0.00     0.000 C 
HETATM   33  C17 UNL     1     -52.613  -0.671 -22.620  1.00  0.00     0.001 C 
HETATM   34  C18 UNL     1     -53.441  -1.110 -23.806  1.00  0.00     0.012 C 
ENDBRANCH   6  27
TORSDOF 8
ENDMDL
