MODEL 1
REMARK VINA RESULT: -8.036977853      0.000      0.000
REMARK  8 active torsions:
REMARK  status: ('A' for Active; 'I' for Inactive)
REMARK    1  A    between atoms: N1_1  and  C1_4 
REMARK    2  A    between atoms: C2_8  and  N3_9 
REMARK    3  A    between atoms: N3_9  and  N4_11 
REMARK    4  A    between atoms: C3_13  and  C4_14 
REMARK    5  A    between atoms: C8_19  and  N5_20 
REMARK    6  A    between atoms: N6_24  and  C10_25 
REMARK    7  A    between atoms: C13_28  and  O3_29 
REMARK    8  A    between atoms: O3_29  and  C14_30 
ROOT
HETATM    1  C1  UNL     1     -49.413  -5.380 -24.554  1.00  0.00     0.691 A 
HETATM    2  N2  UNL     1     -48.374  -5.973 -23.943  1.00  0.00    -0.157 N 
ATOM      3  H2  UNL     1     -48.152  -6.967 -23.887  1.00  0.00     0.193 HD
HETATM    4  S1  UNL     1     -47.519  -4.655 -23.285  1.00  0.00     0.041 SA
HETATM    5  C2  UNL     1     -48.560  -3.408 -23.840  1.00  0.00     0.203 A 
HETATM    6  N6  UNL     1     -49.501  -4.090 -24.499  1.00  0.00    -0.121 N 
ENDROOT
BRANCH   5   7
HETATM    7  N3  UNL     1     -48.421  -2.129 -23.641  1.00  0.00    -0.278 N 
ATOM      8  H3  UNL     1     -47.790  -1.574 -24.219  1.00  0.00     0.189 HD
BRANCH   7   9
HETATM    9  N4  UNL     1     -49.151  -1.544 -22.628  1.00  0.00    -0.309 N 
HETATM   10  C3  UNL     1     -50.038  -0.640 -22.853  1.00  0.00     0.118 C 
ATOM     11  H4  UNL     1     -48.981  -1.838 -21.667  1.00  0.00     0.186 HD
BRANCH  10  12
HETATM   12  C4  UNL     1     -50.771  -0.064 -21.731  1.00  0.00    -0.015 A 
HETATM   13  C5  UNL     1     -50.316  -0.190 -20.435  1.00  0.00     0.036 A 
HETATM   14  C6  UNL     1     -50.970   0.334 -19.346  1.00  0.00     0.037 A 
HETATM   15 CL1  UNL     1     -50.384   0.168 -17.702  1.00  0.00    -0.084 Cl
HETATM   16  C7  UNL     1     -52.140   1.019 -19.588  1.00  0.00     0.059 A 
HETATM   17  C8  UNL     1     -52.625   1.164 -20.866  1.00  0.00     0.105 A 
HETATM   18  C9  UNL     1     -51.941   0.626 -21.929  1.00  0.00     0.049 A 
BRANCH  17  19
HETATM   19  N5  UNL     1     -53.829   1.867 -21.130  1.00  0.00    -0.116 N 
HETATM   20  O1  UNL     1     -54.627   1.507 -21.990  1.00  0.00    -0.532 OA
HETATM   21  O2  UNL     1     -54.100   2.996 -20.384  1.00  0.00    -0.532 OA
ENDBRANCH  17  19
ENDBRANCH  10  12
ENDBRANCH   7   9
ENDBRANCH   5   7
BRANCH   6  22
HETATM   22  C10 UNL     1     -50.570  -3.329 -25.114  1.00  0.00     0.081 A 
HETATM   23  C11 UNL     1     -51.741  -3.236 -24.391  1.00  0.00     0.035 A 
HETATM   24  C12 UNL     1     -52.845  -2.529 -24.878  1.00  0.00     0.039 A 
HETATM   25  C13 UNL     1     -52.719  -1.927 -26.107  1.00  0.00     0.076 A 
HETATM   26  C15 UNL     1     -51.523  -2.032 -26.826  1.00  0.00     0.063 A 
HETATM   27  C16 UNL     1     -50.446  -2.731 -26.335  1.00  0.00     0.064 A 
HETATM   28 CL2  UNL     1     -48.956  -2.873 -27.209  1.00  0.00    -0.082 Cl
BRANCH  25  29
HETATM   29  O3  UNL     1     -53.776  -1.222 -26.627  1.00  0.00    -0.290 OA
BRANCH  29  30
HETATM   30  C14 UNL     1     -54.584  -0.355 -25.872  1.00  0.00     0.505 C 
HETATM   31  F1  UNL     1     -55.560   0.286 -26.595  1.00  0.00    -0.184 F 
HETATM   32  F2  UNL     1     -53.809   0.576 -25.167  1.00  0.00    -0.184 F 
ENDBRANCH  29  30
ENDBRANCH  25  29
ENDBRANCH   6  22
BRANCH   1  33
HETATM   33  N1  UNL     1     -50.257  -6.166 -25.159  1.00  0.00    -0.233 N 
ATOM     34  H12 UNL     1     -51.185  -6.412 -24.814  1.00  0.00     0.174 HD
ATOM     35  H11 UNL     1     -49.954  -6.559 -26.051  1.00  0.00     0.174 HD
ENDBRANCH   1  33
TORSDOF 8
ENDMDL
MODEL 2
REMARK VINA RESULT: -7.896868891      1.045      1.584
REMARK  8 active torsions:
REMARK  status: ('A' for Active; 'I' for Inactive)
REMARK    1  A    between atoms: N1_1  and  C1_4 
REMARK    2  A    between atoms: C2_8  and  N3_9 
REMARK    3  A    between atoms: N3_9  and  N4_11 
REMARK    4  A    between atoms: C3_13  and  C4_14 
REMARK    5  A    between atoms: C8_19  and  N5_20 
REMARK    6  A    between atoms: N6_24  and  C10_25 
REMARK    7  A    between atoms: C13_28  and  O3_29 
REMARK    8  A    between atoms: O3_29  and  C14_30 
ROOT
HETATM    1  C1  UNL     1     -49.342  -5.482 -24.612  1.00  0.00     0.691 A 
HETATM    2  N2  UNL     1     -48.214  -6.034 -24.136  1.00  0.00    -0.157 N 
ATOM      3  H2  UNL     1     -47.946  -7.017 -24.118  1.00  0.00     0.193 HD
HETATM    4  S1  UNL     1     -47.342  -4.685 -23.567  1.00  0.00     0.041 SA
HETATM    5  C2  UNL     1     -48.493  -3.480 -23.981  1.00  0.00     0.203 A 
HETATM    6  N6  UNL     1     -49.476  -4.197 -24.532  1.00  0.00    -0.121 N 
ENDROOT
BRANCH   5   7
HETATM    7  N3  UNL     1     -48.385  -2.197 -23.785  1.00  0.00    -0.278 N 
ATOM      8  H3  UNL     1     -47.781  -1.626 -24.375  1.00  0.00     0.189 HD
BRANCH   7   9
HETATM    9  N4  UNL     1     -49.109  -1.632 -22.756  1.00  0.00    -0.309 N 
HETATM   10  C3  UNL     1     -49.932  -0.662 -22.946  1.00  0.00     0.118 C 
ATOM     11  H4  UNL     1     -48.988  -1.996 -21.812  1.00  0.00     0.186 HD
BRANCH  10  12
HETATM   12  C4  UNL     1     -50.663  -0.112 -21.811  1.00  0.00    -0.015 A 
HETATM   13  C5  UNL     1     -50.212  -0.278 -20.518  1.00  0.00     0.036 A 
HETATM   14  C6  UNL     1     -50.864   0.220 -19.415  1.00  0.00     0.037 A 
HETATM   15 CL1  UNL     1     -50.283   0.004 -17.775  1.00  0.00    -0.084 Cl
HETATM   16  C7  UNL     1     -52.029   0.919 -19.640  1.00  0.00     0.059 A 
HETATM   17  C8  UNL     1     -52.510   1.104 -20.914  1.00  0.00     0.105 A 
HETATM   18  C9  UNL     1     -51.828   0.591 -21.991  1.00  0.00     0.049 A 
BRANCH  17  19
HETATM   19  N5  UNL     1     -53.709   1.822 -21.161  1.00  0.00    -0.116 N 
HETATM   20  O1  UNL     1     -54.106   2.716 -20.419  1.00  0.00    -0.532 OA
HETATM   21  O2  UNL     1     -54.446   1.493 -22.280  1.00  0.00    -0.532 OA
ENDBRANCH  17  19
ENDBRANCH  10  12
ENDBRANCH   7   9
ENDBRANCH   5   7
BRANCH   6  22
HETATM   22  C10 UNL     1     -50.641  -3.478 -25.007  1.00  0.00     0.081 A 
HETATM   23  C11 UNL     1     -50.547  -2.940 -26.273  1.00  0.00     0.035 A 
HETATM   24  C12 UNL     1     -51.604  -2.223 -26.842  1.00  0.00     0.039 A 
HETATM   25  C13 UNL     1     -52.746  -2.077 -26.093  1.00  0.00     0.076 A 
HETATM   26  C15 UNL     1     -52.824  -2.631 -24.809  1.00  0.00     0.063 A 
HETATM   27  C16 UNL     1     -51.776  -3.332 -24.262  1.00  0.00     0.064 A 
HETATM   28 CL2  UNL     1     -51.852  -4.025 -22.676  1.00  0.00    -0.082 Cl
BRANCH  25  29
HETATM   29  O3  UNL     1     -53.811  -1.382 -26.609  1.00  0.00    -0.290 OA
BRANCH  29  30
HETATM   30  C14 UNL     1     -54.313  -0.194 -26.053  1.00  0.00     0.505 C 
HETATM   31  F1  UNL     1     -53.580   0.296 -25.000  1.00  0.00    -0.184 F 
HETATM   32  F2  UNL     1     -55.658  -0.335 -25.684  1.00  0.00    -0.184 F 
ENDBRANCH  29  30
ENDBRANCH  25  29
ENDBRANCH   6  22
BRANCH   1  33
HETATM   33  N1  UNL     1     -50.218  -6.299 -25.123  1.00  0.00    -0.233 N 
ATOM     34  H12 UNL     1     -50.302  -6.527 -26.114  1.00  0.00     0.174 HD
ATOM     35  H11 UNL     1     -50.865  -6.739 -24.470  1.00  0.00     0.174 HD
ENDBRANCH   1  33
TORSDOF 8
ENDMDL
MODEL 3
REMARK VINA RESULT: -7.753254558      1.857      2.138
REMARK  8 active torsions:
REMARK  status: ('A' for Active; 'I' for Inactive)
REMARK    1  A    between atoms: N1_1  and  C1_4 
REMARK    2  A    between atoms: C2_8  and  N3_9 
REMARK    3  A    between atoms: N3_9  and  N4_11 
REMARK    4  A    between atoms: C3_13  and  C4_14 
REMARK    5  A    between atoms: C8_19  and  N5_20 
REMARK    6  A    between atoms: N6_24  and  C10_25 
REMARK    7  A    between atoms: C13_28  and  O3_29 
REMARK    8  A    between atoms: O3_29  and  C14_30 
ROOT
HETATM    1  C1  UNL     1     -49.437  -5.433 -24.416  1.00  0.00     0.691 A 
HETATM    2  N2  UNL     1     -48.449  -6.066 -23.763  1.00  0.00    -0.157 N 
ATOM      3  H2  UNL     1     -48.242  -7.064 -23.737  1.00  0.00     0.193 HD
HETATM    4  S1  UNL     1     -47.628  -4.790 -22.988  1.00  0.00     0.041 SA
HETATM    5  C2  UNL     1     -48.616  -3.506 -23.557  1.00  0.00     0.203 A 
HETATM    6  N6  UNL     1     -49.516  -4.145 -24.309  1.00  0.00    -0.121 N 
ENDROOT
BRANCH   5   7
HETATM    7  N3  UNL     1     -48.478  -2.239 -23.290  1.00  0.00    -0.278 N 
ATOM      8  H3  UNL     1     -47.692  -1.707 -23.665  1.00  0.00     0.189 HD
BRANCH   7   9
HETATM    9  N4  UNL     1     -49.423  -1.635 -22.488  1.00  0.00    -0.309 N 
HETATM   10  C3  UNL     1     -49.957  -0.503 -22.787  1.00  0.00     0.118 C 
ATOM     11  H4  UNL     1     -49.708  -2.101 -21.628  1.00  0.00     0.186 HD
BRANCH  10  12
HETATM   12  C4  UNL     1     -50.950   0.077 -21.890  1.00  0.00    -0.015 A 
HETATM   13  C5  UNL     1     -52.142   0.581 -22.369  1.00  0.00     0.036 A 
HETATM   14  C6  UNL     1     -53.109   1.137 -21.565  1.00  0.00     0.037 A 
HETATM   15 CL1  UNL     1     -54.620   1.775 -22.182  1.00  0.00    -0.084 Cl
HETATM   16  C7  UNL     1     -52.850   1.181 -20.214  1.00  0.00     0.059 A 
HETATM   17  C8  UNL     1     -51.673   0.689 -19.701  1.00  0.00     0.105 A 
HETATM   18  C9  UNL     1     -50.732   0.140 -20.537  1.00  0.00     0.049 A 
BRANCH  17  19
HETATM   19  N5  UNL     1     -51.394   0.728 -18.310  1.00  0.00    -0.116 N 
HETATM   20  O1  UNL     1     -52.202   1.147 -17.486  1.00  0.00    -0.532 OA
HETATM   21  O2  UNL     1     -50.162   0.277 -17.881  1.00  0.00    -0.532 OA
ENDBRANCH  17  19
ENDBRANCH  10  12
ENDBRANCH   7   9
ENDBRANCH   5   7
BRANCH   6  22
HETATM   22  C10 UNL     1     -50.532  -3.343 -24.960  1.00  0.00     0.081 A 
HETATM   23  C11 UNL     1     -51.750  -3.270 -24.318  1.00  0.00     0.035 A 
HETATM   24  C12 UNL     1     -52.810  -2.528 -24.847  1.00  0.00     0.039 A 
HETATM   25  C13 UNL     1     -52.593  -1.871 -26.034  1.00  0.00     0.076 A 
HETATM   26  C15 UNL     1     -51.350  -1.957 -26.672  1.00  0.00     0.063 A 
HETATM   27  C16 UNL     1     -50.316  -2.690 -26.140  1.00  0.00     0.064 A 
HETATM   28 CL2  UNL     1     -48.770  -2.810 -26.913  1.00  0.00    -0.082 Cl
BRANCH  25  29
HETATM   29  O3  UNL     1     -53.604  -1.130 -26.593  1.00  0.00    -0.290 OA
BRANCH  29  30
HETATM   30  C14 UNL     1     -54.494  -0.336 -25.850  1.00  0.00     0.505 C 
HETATM   31  F1  UNL     1     -55.509   0.223 -26.587  1.00  0.00    -0.184 F 
HETATM   32  F2  UNL     1     -53.812   0.655 -25.132  1.00  0.00    -0.184 F 
ENDBRANCH  29  30
ENDBRANCH  25  29
ENDBRANCH   6  22
BRANCH   1  33
HETATM   33  N1  UNL     1     -50.245  -6.179 -25.113  1.00  0.00    -0.233 N 
ATOM     34  H12 UNL     1     -50.540  -5.991 -26.072  1.00  0.00     0.174 HD
ATOM     35  H11 UNL     1     -50.602  -7.017 -24.654  1.00  0.00     0.174 HD
ENDBRANCH   1  33
TORSDOF 8
ENDMDL
MODEL 4
REMARK VINA RESULT: -7.752807539      2.927      5.958
REMARK  8 active torsions:
REMARK  status: ('A' for Active; 'I' for Inactive)
REMARK    1  A    between atoms: N1_1  and  C1_4 
REMARK    2  A    between atoms: C2_8  and  N3_9 
REMARK    3  A    between atoms: N3_9  and  N4_11 
REMARK    4  A    between atoms: C3_13  and  C4_14 
REMARK    5  A    between atoms: C8_19  and  N5_20 
REMARK    6  A    between atoms: N6_24  and  C10_25 
REMARK    7  A    between atoms: C13_28  and  O3_29 
REMARK    8  A    between atoms: O3_29  and  C14_30 
ROOT
HETATM    1  C1  UNL     1     -49.933  -3.153 -17.615  1.00  0.00     0.691 A 
HETATM    2  N2  UNL     1     -48.871  -3.908 -17.290  1.00  0.00    -0.157 N 
ATOM      3  H2  UNL     1     -48.795  -4.618 -16.561  1.00  0.00     0.193 HD
HETATM    4  S1  UNL     1     -47.682  -3.387 -18.393  1.00  0.00     0.041 SA
HETATM    5  C2  UNL     1     -48.633  -2.217 -19.216  1.00  0.00     0.203 A 
HETATM    6  N6  UNL     1     -49.807  -2.305 -18.585  1.00  0.00    -0.121 N 
ENDROOT
BRANCH   5   7
HETATM    7  N3  UNL     1     -48.254  -1.458 -20.203  1.00  0.00    -0.278 N 
ATOM      8  H3  UNL     1     -47.612  -0.681 -20.050  1.00  0.00     0.189 HD
BRANCH   7   9
HETATM    9  N4  UNL     1     -48.744  -1.734 -21.462  1.00  0.00    -0.309 N 
HETATM   10  C3  UNL     1     -49.273  -0.830 -22.208  1.00  0.00     0.118 C 
ATOM     11  H4  UNL     1     -48.685  -2.689 -21.814  1.00  0.00     0.186 HD
BRANCH  10  12
HETATM   12  C4  UNL     1     -49.772  -1.194 -23.529  1.00  0.00    -0.015 A 
HETATM   13  C5  UNL     1     -48.998  -1.913 -24.415  1.00  0.00     0.036 A 
HETATM   14  C6  UNL     1     -49.422  -2.281 -25.670  1.00  0.00     0.037 A 
HETATM   15 CL1  UNL     1     -48.430  -3.195 -26.791  1.00  0.00    -0.084 Cl
HETATM   16  C7  UNL     1     -50.693  -1.900 -26.037  1.00  0.00     0.059 A 
HETATM   17  C8  UNL     1     -51.494  -1.183 -25.181  1.00  0.00     0.105 A 
HETATM   18  C9  UNL     1     -51.033  -0.835 -23.934  1.00  0.00     0.049 A 
BRANCH  17  19
HETATM   19  N5  UNL     1     -52.806  -0.784 -25.546  1.00  0.00    -0.116 N 
HETATM   20  O1  UNL     1     -53.421   0.091 -24.944  1.00  0.00    -0.532 OA
HETATM   21  O2  UNL     1     -53.401  -1.411 -26.622  1.00  0.00    -0.532 OA
ENDBRANCH  17  19
ENDBRANCH  10  12
ENDBRANCH   7   9
ENDBRANCH   5   7
BRANCH   6  22
HETATM   22  C10 UNL     1     -50.873  -1.433 -19.035  1.00  0.00     0.081 A 
HETATM   23  C11 UNL     1     -50.883  -0.162 -18.500  1.00  0.00     0.035 A 
HETATM   24  C12 UNL     1     -51.861   0.772 -18.855  1.00  0.00     0.039 A 
HETATM   25  C13 UNL     1     -52.815   0.376 -19.761  1.00  0.00     0.076 A 
HETATM   26  C15 UNL     1     -52.789  -0.918 -20.295  1.00  0.00     0.063 A 
HETATM   27  C16 UNL     1     -51.822  -1.826 -19.936  1.00  0.00     0.064 A 
HETATM   28 CL2  UNL     1     -51.771  -3.432 -20.583  1.00  0.00    -0.082 Cl
BRANCH  25  29
HETATM   29  O3  UNL     1     -53.796   1.258 -20.141  1.00  0.00    -0.290 OA
BRANCH  29  30
HETATM   30  C14 UNL     1     -53.828   1.901 -21.389  1.00  0.00     0.505 C 
HETATM   31  F1  UNL     1     -54.816   1.458 -22.233  1.00  0.00    -0.184 F 
HETATM   32  F2  UNL     1     -52.581   1.837 -22.025  1.00  0.00    -0.184 F 
ENDBRANCH  29  30
ENDBRANCH  25  29
ENDBRANCH   6  22
BRANCH   1  33
HETATM   33  N1  UNL     1     -51.017  -3.343 -16.918  1.00  0.00    -0.233 N 
ATOM     34  H12 UNL     1     -51.602  -4.178 -16.956  1.00  0.00     0.174 HD
ATOM     35  H11 UNL     1     -51.290  -2.589 -16.288  1.00  0.00     0.174 HD
ENDBRANCH   1  33
TORSDOF 8
ENDMDL
MODEL 5
REMARK VINA RESULT: -7.736059475      2.528      3.051
REMARK  8 active torsions:
REMARK  status: ('A' for Active; 'I' for Inactive)
REMARK    1  A    between atoms: N1_1  and  C1_4 
REMARK    2  A    between atoms: C2_8  and  N3_9 
REMARK    3  A    between atoms: N3_9  and  N4_11 
REMARK    4  A    between atoms: C3_13  and  C4_14 
REMARK    5  A    between atoms: C8_19  and  N5_20 
REMARK    6  A    between atoms: N6_24  and  C10_25 
REMARK    7  A    between atoms: C13_28  and  O3_29 
REMARK    8  A    between atoms: O3_29  and  C14_30 
ROOT
HETATM    1  C1  UNL     1     -50.198  -6.347 -22.819  1.00  0.00     0.691 A 
HETATM    2  N2  UNL     1     -49.895  -6.766 -21.580  1.00  0.00    -0.157 N 
ATOM      3  H2  UNL     1     -49.962  -7.707 -21.193  1.00  0.00     0.193 HD
HETATM    4  S1  UNL     1     -49.371  -5.337 -20.814  1.00  0.00     0.041 SA
HETATM    5  C2  UNL     1     -49.576  -4.276 -22.148  1.00  0.00     0.203 A 
HETATM    6  N6  UNL     1     -50.035  -5.093 -23.099  1.00  0.00    -0.121 N 
ENDROOT
BRANCH   5   7
HETATM    7  N3  UNL     1     -49.329  -2.998 -22.173  1.00  0.00    -0.278 N 
ATOM      8  H3  UNL     1     -48.371  -2.650 -22.216  1.00  0.00     0.189 HD
BRANCH   7   9
HETATM    9  N4  UNL     1     -50.397  -2.127 -22.141  1.00  0.00    -0.309 N 
HETATM   10  C3  UNL     1     -50.489  -1.120 -22.937  1.00  0.00     0.118 C 
ATOM     11  H4  UNL     1     -51.141  -2.286 -21.462  1.00  0.00     0.186 HD
BRANCH  10  12
HETATM   12  C4  UNL     1     -51.648  -0.240 -22.845  1.00  0.00    -0.015 A 
HETATM   13  C5  UNL     1     -52.476  -0.029 -23.927  1.00  0.00     0.036 A 
HETATM   14  C6  UNL     1     -53.580   0.790 -23.891  1.00  0.00     0.037 A 
HETATM   15 CL1  UNL     1     -54.627   1.053 -25.273  1.00  0.00    -0.084 Cl
HETATM   16  C7  UNL     1     -53.852   1.422 -22.698  1.00  0.00     0.059 A 
HETATM   17  C8  UNL     1     -53.049   1.236 -21.599  1.00  0.00     0.105 A 
HETATM   18  C9  UNL     1     -51.955   0.408 -21.675  1.00  0.00     0.049 A 
BRANCH  17  19
HETATM   19  N5  UNL     1     -53.317   1.880 -20.363  1.00  0.00    -0.116 N 
HETATM   20  O1  UNL     1     -54.089   2.829 -20.269  1.00  0.00    -0.532 OA
HETATM   21  O2  UNL     1     -52.677   1.413 -19.233  1.00  0.00    -0.532 OA
ENDBRANCH  17  19
ENDBRANCH  10  12
ENDBRANCH   7   9
ENDBRANCH   5   7
BRANCH   6  22
HETATM   22  C10 UNL     1     -50.325  -4.514 -24.395  1.00  0.00     0.081 A 
HETATM   23  C11 UNL     1     -51.635  -4.146 -24.616  1.00  0.00     0.035 A 
HETATM   24  C12 UNL     1     -52.040  -3.577 -25.827  1.00  0.00     0.039 A 
HETATM   25  C13 UNL     1     -51.080  -3.395 -26.793  1.00  0.00     0.076 A 
HETATM   26  C15 UNL     1     -49.753  -3.773 -26.551  1.00  0.00     0.063 A 
HETATM   27  C16 UNL     1     -49.370  -4.332 -25.355  1.00  0.00     0.064 A 
HETATM   28 CL2  UNL     1     -47.735  -4.808 -25.036  1.00  0.00    -0.082 Cl
BRANCH  25  29
HETATM   29  O3  UNL     1     -51.428  -2.839 -27.998  1.00  0.00    -0.290 OA
BRANCH  29  30
HETATM   30  C14 UNL     1     -51.753  -1.483 -28.169  1.00  0.00     0.505 C 
HETATM   31  F1  UNL     1     -50.899  -0.610 -27.539  1.00  0.00    -0.184 F 
HETATM   32  F2  UNL     1     -53.077  -1.226 -27.791  1.00  0.00    -0.184 F 
ENDBRANCH  29  30
ENDBRANCH  25  29
ENDBRANCH   6  22
BRANCH   1  33
HETATM   33  N1  UNL     1     -50.637  -7.251 -23.648  1.00  0.00    -0.233 N 
ATOM     34  H12 UNL     1     -50.370  -8.236 -23.639  1.00  0.00     0.174 HD
ATOM     35  H11 UNL     1     -51.300  -6.937 -24.356  1.00  0.00     0.174 HD
ENDBRANCH   1  33
TORSDOF 8
ENDMDL
