MODEL 1
REMARK VINA RESULT: -6.517434820      0.000      0.000
REMARK  7 active torsions:
REMARK  status: ('A' for Active; 'I' for Inactive)
REMARK    1  A    between atoms: C2_2  and  O1_3 
REMARK    2  A    between atoms: O1_3  and  C3_4 
REMARK    3  A    between atoms: C3_4  and  C4_6 
REMARK    4  A    between atoms: C6_8  and  N1_9 
REMARK    5  A    between atoms: N1_9  and  S1_11 
REMARK    6  A    between atoms: S1_11  and  C7_14 
REMARK    7  A    between atoms: C10_20  and  N3_21 
ROOT
HETATM    1  N1  UNL     1     -51.260  -0.987 -26.307  1.00  0.00    -0.279 N 
ATOM      2  H1  UNL     1     -51.112  -0.213 -26.956  1.00  0.00     0.179 HD
ENDROOT
BRANCH   1   3
HETATM    3  C6  UNL     1     -51.373  -0.690 -24.926  1.00  0.00     0.065 A 
HETATM    4  C5  UNL     1     -50.348  -0.854 -24.018  1.00  0.00     0.051 A 
HETATM    5  C4  UNL     1     -50.521  -0.533 -22.687  1.00  0.00     0.063 A 
HETATM    6  C13 UNL     1     -51.740  -0.044 -22.274  1.00  0.00     0.052 A 
HETATM    7  C12 UNL     1     -52.795   0.135 -23.156  1.00  0.00     0.051 A 
HETATM    8 CL3  UNL     1     -51.955   0.363 -20.567  1.00  0.00    -0.083 Cl
HETATM    9  C11 UNL     1     -52.604  -0.190 -24.483  1.00  0.00     0.063 A 
HETATM   10 CL2  UNL     1     -53.905   0.010 -25.636  1.00  0.00    -0.082 Cl
BRANCH   5  11
HETATM   11  C3  UNL     1     -49.451  -0.694 -21.695  1.00  0.00     0.295 C 
HETATM   12  O2  UNL     1     -48.513   0.119 -21.538  1.00  0.00    -0.259 OA
BRANCH  11  13
HETATM   13  O1  UNL     1     -49.469  -1.824 -20.862  1.00  0.00    -0.318 OA
BRANCH  13  14
HETATM   14  C2  UNL     1     -49.804  -3.113 -21.317  1.00  0.00     0.174 C 
HETATM   15  C1  UNL     1     -51.017  -3.557 -20.495  1.00  0.00     0.034 C 
ENDBRANCH  13  14
ENDBRANCH  11  13
ENDBRANCH   5  11
ENDBRANCH   1   3
BRANCH   1  16
HETATM   16  S1  UNL     1     -51.358  -2.560 -26.945  1.00  0.00     0.268 S 
HETATM   17  O3  UNL     1     -52.742  -3.099 -26.913  1.00  0.00    -0.200 OA
HETATM   18  O4  UNL     1     -50.906  -2.570 -28.400  1.00  0.00    -0.200 OA
BRANCH  16  19
HETATM   19  C7  UNL     1     -50.331  -3.704 -26.035  1.00  0.00     0.143 A 
HETATM   20  C8  UNL     1     -49.000  -3.844 -26.352  1.00  0.00     0.102 A 
HETATM   21 CL1  UNL     1     -48.098  -2.991 -27.623  1.00  0.00    -0.074 Cl
HETATM   22  S2  UNL     1     -48.454  -5.012 -25.239  1.00  0.00    -0.059 SA
HETATM   23  C9  UNL     1     -49.908  -5.296 -24.405  1.00  0.00     0.123 A 
HETATM   24  N2  UNL     1     -50.127  -6.208 -23.307  1.00  0.00    -0.092 NA
HETATM   25  C10 UNL     1     -50.797  -4.458 -25.027  1.00  0.00     0.159 A 
BRANCH  25  26
HETATM   26  N3  UNL     1     -52.173  -4.445 -24.547  1.00  0.00    -0.111 N 
HETATM   27  O5  UNL     1     -52.941  -5.313 -24.973  1.00  0.00    -0.532 OA
HETATM   28  O6  UNL     1     -52.607  -3.514 -23.646  1.00  0.00    -0.532 OA
ENDBRANCH  25  26
ENDBRANCH  16  19
ENDBRANCH   1  16
TORSDOF 7
ENDMDL
MODEL 2
REMARK VINA RESULT: -6.496961375      1.831      2.513
REMARK  7 active torsions:
REMARK  status: ('A' for Active; 'I' for Inactive)
REMARK    1  A    between atoms: C2_2  and  O1_3 
REMARK    2  A    between atoms: O1_3  and  C3_4 
REMARK    3  A    between atoms: C3_4  and  C4_6 
REMARK    4  A    between atoms: C6_8  and  N1_9 
REMARK    5  A    between atoms: N1_9  and  S1_11 
REMARK    6  A    between atoms: S1_11  and  C7_14 
REMARK    7  A    between atoms: C10_20  and  N3_21 
ROOT
HETATM    1  N1  UNL     1     -51.352  -0.898 -26.256  1.00  0.00    -0.279 N 
ATOM      2  H1  UNL     1     -51.125  -0.132 -26.891  1.00  0.00     0.179 HD
ENDROOT
BRANCH   1   3
HETATM    3  C6  UNL     1     -51.455  -0.611 -24.872  1.00  0.00     0.065 A 
HETATM    4  C5  UNL     1     -50.433  -0.809 -23.968  1.00  0.00     0.051 A 
HETATM    5  C4  UNL     1     -50.595  -0.496 -22.634  1.00  0.00     0.063 A 
HETATM    6  C13 UNL     1     -51.801   0.019 -22.213  1.00  0.00     0.052 A 
HETATM    7  C12 UNL     1     -52.853   0.232 -23.091  1.00  0.00     0.051 A 
HETATM    8 CL3  UNL     1     -52.002   0.415 -20.502  1.00  0.00    -0.083 Cl
HETATM    9  C11 UNL     1     -52.673  -0.086 -24.422  1.00  0.00     0.063 A 
HETATM   10 CL2  UNL     1     -53.971   0.158 -25.571  1.00  0.00    -0.082 Cl
BRANCH   5  11
HETATM   11  C3  UNL     1     -49.527  -0.692 -21.645  1.00  0.00     0.295 C 
HETATM   12  O2  UNL     1     -48.569   0.096 -21.483  1.00  0.00    -0.259 OA
BRANCH  11  13
HETATM   13  O1  UNL     1     -49.571  -1.830 -20.823  1.00  0.00    -0.318 OA
BRANCH  13  14
HETATM   14  C2  UNL     1     -50.015  -3.088 -21.269  1.00  0.00     0.174 C 
HETATM   15  C1  UNL     1     -51.319  -3.375 -20.519  1.00  0.00     0.034 C 
ENDBRANCH  13  14
ENDBRANCH  11  13
ENDBRANCH   5  11
ENDBRANCH   1   3
BRANCH   1  16
HETATM   16  S1  UNL     1     -51.587  -2.447 -26.919  1.00  0.00     0.268 S 
HETATM   17  O3  UNL     1     -52.996  -2.903 -26.807  1.00  0.00    -0.200 OA
HETATM   18  O4  UNL     1     -51.231  -2.447 -28.401  1.00  0.00    -0.200 OA
BRANCH  16  19
HETATM   19  C7  UNL     1     -50.575  -3.672 -26.102  1.00  0.00     0.143 A 
HETATM   20  C8  UNL     1     -51.001  -4.254 -24.931  1.00  0.00     0.102 A 
HETATM   21 CL1  UNL     1     -52.516  -3.939 -24.058  1.00  0.00    -0.074 Cl
HETATM   22  S2  UNL     1     -49.736  -5.329 -24.546  1.00  0.00    -0.059 SA
HETATM   23  C9  UNL     1     -48.706  -5.020 -25.862  1.00  0.00     0.123 A 
HETATM   24  N2  UNL     1     -47.423  -5.626 -26.135  1.00  0.00    -0.092 NA
HETATM   25  C10 UNL     1     -49.387  -4.070 -26.580  1.00  0.00     0.159 A 
BRANCH  25  26
HETATM   26  N3  UNL     1     -48.773  -3.571 -27.804  1.00  0.00    -0.111 N 
HETATM   27  O5  UNL     1     -48.108  -2.532 -27.735  1.00  0.00    -0.532 OA
HETATM   28  O6  UNL     1     -48.912  -4.229 -28.994  1.00  0.00    -0.532 OA
ENDBRANCH  25  26
ENDBRANCH  16  19
ENDBRANCH   1  16
TORSDOF 7
ENDMDL
MODEL 3
REMARK VINA RESULT: -6.468430371      2.804      5.145
REMARK  7 active torsions:
REMARK  status: ('A' for Active; 'I' for Inactive)
REMARK    1  A    between atoms: C2_2  and  O1_3 
REMARK    2  A    between atoms: O1_3  and  C3_4 
REMARK    3  A    between atoms: C3_4  and  C4_6 
REMARK    4  A    between atoms: C6_8  and  N1_9 
REMARK    5  A    between atoms: N1_9  and  S1_11 
REMARK    6  A    between atoms: S1_11  and  C7_14 
REMARK    7  A    between atoms: C10_20  and  N3_21 
ROOT
HETATM    1  N1  UNL     1     -51.293  -0.206 -20.440  1.00  0.00    -0.279 N 
ATOM      2  H1  UNL     1     -51.765  -0.093 -19.542  1.00  0.00     0.179 HD
ENDROOT
BRANCH   1   3
HETATM    3  C6  UNL     1     -52.018   0.098 -21.619  1.00  0.00     0.065 A 
HETATM    4  C5  UNL     1     -51.791  -0.504 -22.838  1.00  0.00     0.051 A 
HETATM    5  C4  UNL     1     -52.543  -0.169 -23.946  1.00  0.00     0.063 A 
HETATM    6  C13 UNL     1     -53.530   0.783 -23.817  1.00  0.00     0.052 A 
HETATM    7  C12 UNL     1     -53.788   1.411 -22.609  1.00  0.00     0.051 A 
HETATM    8 CL3  UNL     1     -54.487   1.208 -25.242  1.00  0.00    -0.083 Cl
HETATM    9  C11 UNL     1     -53.028   1.063 -21.512  1.00  0.00     0.063 A 
HETATM   10 CL2  UNL     1     -53.309   1.831 -19.964  1.00  0.00    -0.082 Cl
BRANCH   5  11
HETATM   11  C3  UNL     1     -52.328  -0.792 -25.258  1.00  0.00     0.295 C 
HETATM   12  O2  UNL     1     -53.095  -1.642 -25.764  1.00  0.00    -0.259 OA
BRANCH  11  13
HETATM   13  O1  UNL     1     -51.198  -0.420 -26.004  1.00  0.00    -0.318 OA
BRANCH  13  14
HETATM   14  C2  UNL     1     -50.598  -1.255 -26.964  1.00  0.00     0.174 C 
HETATM   15  C1  UNL     1     -49.414  -1.930 -26.266  1.00  0.00     0.034 C 
ENDBRANCH  13  14
ENDBRANCH  11  13
ENDBRANCH   5  11
ENDBRANCH   1   3
BRANCH   1  16
HETATM   16  S1  UNL     1     -49.682  -0.749 -20.436  1.00  0.00     0.268 S 
HETATM   17  O3  UNL     1     -48.786   0.133 -21.227  1.00  0.00    -0.200 OA
HETATM   18  O4  UNL     1     -49.138  -0.781 -19.013  1.00  0.00    -0.200 OA
BRANCH  16  19
HETATM   19  C7  UNL     1     -49.539  -2.391 -21.125  1.00  0.00     0.143 A 
HETATM   20  C8  UNL     1     -48.656  -2.639 -22.150  1.00  0.00     0.102 A 
HETATM   21 CL1  UNL     1     -47.565  -1.479 -22.938  1.00  0.00    -0.074 Cl
HETATM   22  S2  UNL     1     -48.871  -4.300 -22.458  1.00  0.00    -0.059 SA
HETATM   23  C9  UNL     1     -50.063  -4.642 -21.295  1.00  0.00     0.123 A 
HETATM   24  N2  UNL     1     -50.695  -5.914 -21.032  1.00  0.00    -0.092 NA
HETATM   25  C10 UNL     1     -50.266  -3.430 -20.686  1.00  0.00     0.159 A 
BRANCH  25  26
HETATM   26  N3  UNL     1     -51.247  -3.363 -19.610  1.00  0.00    -0.111 N 
HETATM   27  O5  UNL     1     -52.383  -2.968 -19.889  1.00  0.00    -0.532 OA
HETATM   28  O6  UNL     1     -50.934  -3.734 -18.333  1.00  0.00    -0.532 OA
ENDBRANCH  25  26
ENDBRANCH  16  19
ENDBRANCH   1  16
TORSDOF 7
ENDMDL
MODEL 4
REMARK VINA RESULT: -6.412338511      2.631      4.394
REMARK  7 active torsions:
REMARK  status: ('A' for Active; 'I' for Inactive)
REMARK    1  A    between atoms: C2_2  and  O1_3 
REMARK    2  A    between atoms: O1_3  and  C3_4 
REMARK    3  A    between atoms: C3_4  and  C4_6 
REMARK    4  A    between atoms: C6_8  and  N1_9 
REMARK    5  A    between atoms: N1_9  and  S1_11 
REMARK    6  A    between atoms: S1_11  and  C7_14 
REMARK    7  A    between atoms: C10_20  and  N3_21 
ROOT
HETATM    1  N1  UNL     1     -49.906  -1.193 -23.689  1.00  0.00    -0.279 N 
ATOM      2  H1  UNL     1     -49.140  -0.747 -24.194  1.00  0.00     0.179 HD
ENDROOT
BRANCH   1   3
HETATM    3  C6  UNL     1     -50.800  -0.367 -22.963  1.00  0.00     0.065 A 
HETATM    4  C5  UNL     1     -51.996   0.099 -23.466  1.00  0.00     0.051 A 
HETATM    5  C4  UNL     1     -52.828   0.892 -22.700  1.00  0.00     0.063 A 
HETATM    6  C13 UNL     1     -52.443   1.213 -21.417  1.00  0.00     0.052 A 
HETATM    7  C12 UNL     1     -51.248   0.764 -20.877  1.00  0.00     0.051 A 
HETATM    8 CL3  UNL     1     -53.512   2.230 -20.443  1.00  0.00    -0.083 Cl
HETATM    9  C11 UNL     1     -50.430  -0.027 -21.656  1.00  0.00     0.063 A 
HETATM   10 CL2  UNL     1     -48.908  -0.615 -21.023  1.00  0.00    -0.082 Cl
BRANCH   5  11
HETATM   11  C3  UNL     1     -54.108   1.403 -23.204  1.00  0.00     0.295 C 
HETATM   12  O2  UNL     1     -55.059   1.757 -22.471  1.00  0.00    -0.259 OA
BRANCH  11  13
HETATM   13  O1  UNL     1     -54.292   1.510 -24.592  1.00  0.00    -0.318 OA
BRANCH  13  14
HETATM   14  C2  UNL     1     -55.289   0.810 -25.294  1.00  0.00     0.174 C 
HETATM   15  C1  UNL     1     -54.574  -0.314 -26.050  1.00  0.00     0.034 C 
ENDBRANCH  13  14
ENDBRANCH  11  13
ENDBRANCH   5  11
ENDBRANCH   1   3
BRANCH   1  16
HETATM   16  S1  UNL     1     -50.038  -2.887 -23.767  1.00  0.00     0.268 S 
HETATM   17  O3  UNL     1     -49.300  -3.563 -22.670  1.00  0.00    -0.200 OA
HETATM   18  O4  UNL     1     -51.498  -3.309 -23.653  1.00  0.00    -0.200 OA
BRANCH  16  19
HETATM   19  C7  UNL     1     -49.391  -3.527 -25.304  1.00  0.00     0.143 A 
HETATM   20  C8  UNL     1     -48.276  -4.333 -25.305  1.00  0.00     0.102 A 
HETATM   21 CL1  UNL     1     -47.326  -4.862 -23.899  1.00  0.00    -0.074 Cl
HETATM   22  S2  UNL     1     -48.050  -4.686 -26.956  1.00  0.00    -0.059 SA
HETATM   23  C9  UNL     1     -49.357  -3.813 -27.603  1.00  0.00     0.123 A 
HETATM   24  N2  UNL     1     -49.735  -3.699 -28.993  1.00  0.00    -0.092 NA
HETATM   25  C10 UNL     1     -49.947  -3.260 -26.495  1.00  0.00     0.159 A 
BRANCH  25  26
HETATM   26  N3  UNL     1     -51.129  -2.431 -26.694  1.00  0.00    -0.111 N 
HETATM   27  O5  UNL     1     -52.211  -3.000 -26.870  1.00  0.00    -0.532 OA
HETATM   28  O6  UNL     1     -51.057  -1.066 -26.677  1.00  0.00    -0.532 OA
ENDBRANCH  25  26
ENDBRANCH  16  19
ENDBRANCH   1  16
TORSDOF 7
ENDMDL
MODEL 5
REMARK VINA RESULT: -6.364476443      1.186      1.302
REMARK  7 active torsions:
REMARK  status: ('A' for Active; 'I' for Inactive)
REMARK    1  A    between atoms: C2_2  and  O1_3 
REMARK    2  A    between atoms: O1_3  and  C3_4 
REMARK    3  A    between atoms: C3_4  and  C4_6 
REMARK    4  A    between atoms: C6_8  and  N1_9 
REMARK    5  A    between atoms: N1_9  and  S1_11 
REMARK    6  A    between atoms: S1_11  and  C7_14 
REMARK    7  A    between atoms: C10_20  and  N3_21 
ROOT
HETATM    1  N1  UNL     1     -52.434  -2.301 -25.528  1.00  0.00    -0.279 N 
ATOM      2  H1  UNL     1     -53.273  -2.877 -25.605  1.00  0.00     0.179 HD
ENDROOT
BRANCH   1   3
HETATM    3  C6  UNL     1     -52.408  -1.286 -24.540  1.00  0.00     0.065 A 
HETATM    4  C5  UNL     1     -51.548  -1.284 -23.462  1.00  0.00     0.051 A 
HETATM    5  C4  UNL     1     -51.567  -0.256 -22.541  1.00  0.00     0.063 A 
HETATM    6  C13 UNL     1     -52.463   0.775 -22.713  1.00  0.00     0.052 A 
HETATM    7  C12 UNL     1     -53.344   0.809 -23.784  1.00  0.00     0.051 A 
HETATM    8 CL3  UNL     1     -52.483   2.087 -21.528  1.00  0.00    -0.083 Cl
HETATM    9  C11 UNL     1     -53.310  -0.226 -24.695  1.00  0.00     0.063 A 
HETATM   10 CL2  UNL     1     -54.405  -0.235 -26.061  1.00  0.00    -0.082 Cl
BRANCH   5  11
HETATM   11  C3  UNL     1     -50.665  -0.222 -21.383  1.00  0.00     0.295 C 
HETATM   12  O2  UNL     1     -49.463   0.121 -21.441  1.00  0.00    -0.259 OA
BRANCH  11  13
HETATM   13  O1  UNL     1     -51.168  -0.594 -20.125  1.00  0.00    -0.318 OA
BRANCH  13  14
HETATM   14  C2  UNL     1     -52.201  -1.534 -19.955  1.00  0.00     0.174 C 
HETATM   15  C1  UNL     1     -51.528  -2.909 -19.914  1.00  0.00     0.034 C 
ENDBRANCH  13  14
ENDBRANCH  11  13
ENDBRANCH   5  11
ENDBRANCH   1   3
BRANCH   1  16
HETATM   16  S1  UNL     1     -51.145  -2.615 -26.593  1.00  0.00     0.268 S 
HETATM   17  O3  UNL     1     -51.612  -3.009 -27.946  1.00  0.00    -0.200 OA
HETATM   18  O4  UNL     1     -50.283  -1.370 -26.760  1.00  0.00    -0.200 OA
BRANCH  16  19
HETATM   19  C7  UNL     1     -50.104  -3.938 -25.993  1.00  0.00     0.143 A 
HETATM   20  C8  UNL     1     -48.824  -4.085 -26.474  1.00  0.00     0.102 A 
HETATM   21 CL1  UNL     1     -48.005  -3.078 -27.687  1.00  0.00    -0.074 Cl
HETATM   22  S2  UNL     1     -48.242  -5.443 -25.627  1.00  0.00    -0.059 SA
HETATM   23  C9  UNL     1     -49.618  -5.792 -24.692  1.00  0.00     0.123 A 
HETATM   24  N2  UNL     1     -49.781  -6.861 -23.734  1.00  0.00    -0.092 NA
HETATM   25  C10 UNL     1     -50.512  -4.824 -25.072  1.00  0.00     0.159 A 
BRANCH  25  26
HETATM   26  N3  UNL     1     -51.828  -4.827 -24.447  1.00  0.00    -0.111 N 
HETATM   27  O5  UNL     1     -52.792  -5.180 -25.132  1.00  0.00    -0.532 OA
HETATM   28  O6  UNL     1     -52.000  -4.465 -23.140  1.00  0.00    -0.532 OA
ENDBRANCH  25  26
ENDBRANCH  16  19
ENDBRANCH   1  16
TORSDOF 7
ENDMDL
