MODEL 1
REMARK VINA RESULT: -7.986335793      0.000      0.000
REMARK  7 active torsions:
REMARK  status: ('A' for Active; 'I' for Inactive)
REMARK    1  A    between atoms: C3_4  and  N2_5 
REMARK    2  A    between atoms: N2_5  and  N3_7 
REMARK    3  A    between atoms: C4_9  and  C5_10 
REMARK    4  A    between atoms: C7_15  and  C8_16 
REMARK    5  A    between atoms: C12_24  and  S3_25 
REMARK    6  A    between atoms: S3_25  and  C13_26 
REMARK    7  A    between atoms: C13_26  and  C14_27 
REMARK       I    between atoms: C14_27  and  N4_29 
ROOT
HETATM    1  N1  UNL     1     -54.825   2.089 -21.884  1.00  0.00    -0.191 NA
HETATM    2  C1  UNL     1     -53.870   1.544 -21.539  1.00  0.00     0.103 C 
HETATM    3  C2  UNL     1     -52.683   0.862 -21.142  1.00  0.00     0.091 A 
HETATM    4  C3  UNL     1     -52.443   0.779 -19.771  1.00  0.00     0.070 A 
HETATM    5  C9  UNL     1     -51.287   0.178 -19.287  1.00  0.00     0.034 A 
HETATM    6  C10 UNL     1     -50.402  -0.325 -20.205  1.00  0.00     0.028 A 
HETATM    7  C11 UNL     1     -50.655  -0.237 -21.551  1.00  0.00     0.052 A 
HETATM    8 CL1  UNL     1     -49.520  -0.881 -22.700  1.00  0.00    -0.083 Cl
HETATM    9  C12 UNL     1     -51.814   0.363 -22.078  1.00  0.00     0.049 A 
ENDROOT
BRANCH   4  10
HETATM   10  N2  UNL     1     -53.376   1.324 -18.849  1.00  0.00    -0.300 N 
ATOM     11  H2  UNL     1     -54.320   1.547 -19.163  1.00  0.00     0.187 HD
BRANCH  10  12
HETATM   12  N3  UNL     1     -53.028   1.555 -17.536  1.00  0.00    -0.309 N 
HETATM   13  C4  UNL     1     -53.086   2.640 -16.886  1.00  0.00     0.145 C 
ATOM     14  H3  UNL     1     -52.679   0.747 -17.021  1.00  0.00     0.186 HD
BRANCH  13  15
HETATM   15  C5  UNL     1     -52.657   2.683 -15.456  1.00  0.00     0.116 A 
HETATM   16  O1  UNL     1     -52.278   1.661 -14.822  1.00  0.00    -0.290 OA
HETATM   17  C6  UNL     1     -51.915   1.729 -13.593  1.00  0.00     0.185 A 
HETATM   18  S1  UNL     1     -51.390   0.506 -12.603  1.00  0.00    -0.044 SA
HETATM   19  S2  UNL     1     -52.109   3.391 -13.241  1.00  0.00    -0.046 SA
HETATM   20  C7  UNL     1     -52.668   3.883 -14.779  1.00  0.00     0.127 A 
BRANCH  20  21
HETATM   21  C8  UNL     1     -53.068   5.240 -15.291  1.00  0.00     0.426 C 
HETATM   22  F1  UNL     1     -52.171   5.575 -16.296  1.00  0.00    -0.165 F 
HETATM   23  F2  UNL     1     -52.945   6.109 -14.214  1.00  0.00    -0.165 F 
HETATM   24  F3  UNL     1     -54.358   5.239 -15.731  1.00  0.00    -0.165 F 
ENDBRANCH  20  21
ENDBRANCH  13  15
ENDBRANCH  10  12
ENDBRANCH   4  10
BRANCH   9  25
HETATM   25  S3  UNL     1     -52.114   0.383 -23.816  1.00  0.00    -0.093 SA
BRANCH  25  26
HETATM   26  C13 UNL     1     -52.756  -1.065 -24.566  1.00  0.00     0.124 C 
BRANCH  26  27
HETATM   27  C14 UNL     1     -53.319  -1.058 -25.892  1.00  0.00     0.253 C 
HETATM   28  O2  UNL     1     -54.493  -0.834 -26.202  1.00  0.00    -0.268 OA
HETATM   29  N4  UNL     1     -52.374  -1.352 -26.969  1.00  0.00    -0.300 N 
HETATM   30  C15 UNL     1     -52.055  -2.580 -27.231  1.00  0.00     0.203 C 
ATOM     31  H4  UNL     1     -51.967  -0.591 -27.514  1.00  0.00     0.171 HD
HETATM   32  N5  UNL     1     -52.620  -3.645 -26.479  1.00  0.00    -0.066 NA
HETATM   33  N6  UNL     1     -51.138  -2.903 -28.272  1.00  0.00    -0.066 NA
ENDBRANCH  26  27
ENDBRANCH  25  26
ENDBRANCH   9  25
TORSDOF 7
ENDMDL
MODEL 2
REMARK VINA RESULT: -7.789919736      1.095      1.246
REMARK  7 active torsions:
REMARK  status: ('A' for Active; 'I' for Inactive)
REMARK    1  A    between atoms: C3_4  and  N2_5 
REMARK    2  A    between atoms: N2_5  and  N3_7 
REMARK    3  A    between atoms: C4_9  and  C5_10 
REMARK    4  A    between atoms: C7_15  and  C8_16 
REMARK    5  A    between atoms: C12_24  and  S3_25 
REMARK    6  A    between atoms: S3_25  and  C13_26 
REMARK    7  A    between atoms: C13_26  and  C14_27 
REMARK       I    between atoms: C14_27  and  N4_29 
ROOT
HETATM    1  N1  UNL     1     -54.599   2.292 -21.644  1.00  0.00    -0.191 NA
HETATM    2  C1  UNL     1     -53.659   1.681 -21.377  1.00  0.00     0.103 C 
HETATM    3  C2  UNL     1     -52.493   0.919 -21.076  1.00  0.00     0.091 A 
HETATM    4  C3  UNL     1     -52.152   0.810 -19.729  1.00  0.00     0.070 A 
HETATM    5  C9  UNL     1     -51.005   0.129 -19.339  1.00  0.00     0.034 A 
HETATM    6  C10 UNL     1     -50.230  -0.425 -20.324  1.00  0.00     0.028 A 
HETATM    7  C11 UNL     1     -50.581  -0.309 -21.646  1.00  0.00     0.052 A 
HETATM    8 CL1  UNL     1     -49.585  -1.019 -22.883  1.00  0.00    -0.083 Cl
HETATM    9  C12 UNL     1     -51.735   0.371 -22.079  1.00  0.00     0.049 A 
ENDROOT
BRANCH   4  10
HETATM   10  N2  UNL     1     -52.972   1.408 -18.734  1.00  0.00    -0.300 N 
ATOM     11  H2  UNL     1     -53.700   2.065 -19.013  1.00  0.00     0.187 HD
BRANCH  10  12
HETATM   12  N3  UNL     1     -52.801   1.115 -17.399  1.00  0.00    -0.309 N 
HETATM   13  C4  UNL     1     -52.754   1.913 -16.418  1.00  0.00     0.145 C 
ATOM     14  H3  UNL     1     -52.698   0.126 -17.172  1.00  0.00     0.186 HD
BRANCH  13  15
HETATM   15  C5  UNL     1     -52.559   1.391 -15.033  1.00  0.00     0.116 A 
HETATM   16  O1  UNL     1     -52.646   0.167 -14.742  1.00  0.00    -0.290 OA
HETATM   17  C6  UNL     1     -52.472  -0.252 -13.542  1.00  0.00     0.185 A 
HETATM   18  S1  UNL     1     -52.544  -1.809 -12.972  1.00  0.00    -0.044 SA
HETATM   19  S2  UNL     1     -52.150   1.193 -12.687  1.00  0.00    -0.046 SA
HETATM   20  C7  UNL     1     -52.271   2.268 -14.009  1.00  0.00     0.127 A 
BRANCH  20  21
HETATM   21  C8  UNL     1     -52.111   3.763 -14.078  1.00  0.00     0.426 C 
HETATM   22  F1  UNL     1     -50.910   4.012 -14.729  1.00  0.00    -0.165 F 
HETATM   23  F2  UNL     1     -52.057   4.205 -12.763  1.00  0.00    -0.165 F 
HETATM   24  F3  UNL     1     -53.170   4.342 -14.711  1.00  0.00    -0.165 F 
ENDBRANCH  20  21
ENDBRANCH  13  15
ENDBRANCH  10  12
ENDBRANCH   4  10
BRANCH   9  25
HETATM   25  S3  UNL     1     -52.168   0.424 -23.788  1.00  0.00    -0.093 SA
BRANCH  25  26
HETATM   26  C13 UNL     1     -52.807  -1.029 -24.530  1.00  0.00     0.124 C 
BRANCH  26  27
HETATM   27  C14 UNL     1     -53.343  -1.037 -25.867  1.00  0.00     0.253 C 
HETATM   28  O2  UNL     1     -54.518  -0.853 -26.200  1.00  0.00    -0.268 OA
HETATM   29  N4  UNL     1     -52.367  -1.294 -26.926  1.00  0.00    -0.300 N 
HETATM   30  C15 UNL     1     -52.001  -2.509 -27.185  1.00  0.00     0.203 C 
ATOM     31  H4  UNL     1     -51.976  -0.517 -27.460  1.00  0.00     0.171 HD
HETATM   32  N5  UNL     1     -52.542  -3.596 -26.448  1.00  0.00    -0.066 NA
HETATM   33  N6  UNL     1     -51.052  -2.797 -28.208  1.00  0.00    -0.066 NA
ENDBRANCH  26  27
ENDBRANCH  25  26
ENDBRANCH   9  25
TORSDOF 7
ENDMDL
MODEL 3
REMARK VINA RESULT: -7.698566374      2.053      2.531
REMARK  7 active torsions:
REMARK  status: ('A' for Active; 'I' for Inactive)
REMARK    1  A    between atoms: C3_4  and  N2_5 
REMARK    2  A    between atoms: N2_5  and  N3_7 
REMARK    3  A    between atoms: C4_9  and  C5_10 
REMARK    4  A    between atoms: C7_15  and  C8_16 
REMARK    5  A    between atoms: C12_24  and  S3_25 
REMARK    6  A    between atoms: S3_25  and  C13_26 
REMARK    7  A    between atoms: C13_26  and  C14_27 
REMARK       I    between atoms: C14_27  and  N4_29 
ROOT
HETATM    1  N1  UNL     1     -54.776   2.085 -21.807  1.00  0.00    -0.191 NA
HETATM    2  C1  UNL     1     -53.822   1.528 -21.481  1.00  0.00     0.103 C 
HETATM    3  C2  UNL     1     -52.636   0.832 -21.108  1.00  0.00     0.091 A 
HETATM    4  C3  UNL     1     -52.379   0.729 -19.742  1.00  0.00     0.070 A 
HETATM    5  C9  UNL     1     -51.222   0.113 -19.281  1.00  0.00     0.034 A 
HETATM    6  C10 UNL     1     -50.353  -0.385 -20.216  1.00  0.00     0.028 A 
HETATM    7  C11 UNL     1     -50.622  -0.277 -21.557  1.00  0.00     0.052 A 
HETATM    8 CL1  UNL     1     -49.506  -0.915 -22.729  1.00  0.00    -0.083 Cl
HETATM    9  C12 UNL     1     -51.782   0.339 -22.062  1.00  0.00     0.049 A 
ENDROOT
BRANCH   4  10
HETATM   10  N2  UNL     1     -53.297   1.269 -18.801  1.00  0.00    -0.300 N 
ATOM     11  H2  UNL     1     -54.297   1.131 -18.940  1.00  0.00     0.187 HD
BRANCH  10  12
HETATM   12  N3  UNL     1     -52.858   1.975 -17.702  1.00  0.00    -0.309 N 
HETATM   13  C4  UNL     1     -52.816   1.604 -16.494  1.00  0.00     0.145 C 
ATOM     14  H3  UNL     1     -52.523   2.921 -17.888  1.00  0.00     0.186 HD
BRANCH  13  15
HETATM   15  C5  UNL     1     -52.300   2.528 -15.440  1.00  0.00     0.116 A 
HETATM   16  O1  UNL     1     -52.890   3.593 -15.113  1.00  0.00    -0.290 OA
HETATM   17  C6  UNL     1     -52.422   4.368 -14.203  1.00  0.00     0.185 A 
HETATM   18  S1  UNL     1     -53.051   5.797 -13.641  1.00  0.00    -0.044 SA
HETATM   19  S2  UNL     1     -50.995   3.556 -13.723  1.00  0.00    -0.046 SA
HETATM   20  C7  UNL     1     -51.126   2.224 -14.784  1.00  0.00     0.127 A 
BRANCH  20  21
HETATM   21  C8  UNL     1     -50.232   1.029 -14.975  1.00  0.00     0.426 C 
HETATM   22  F1  UNL     1     -49.205   1.138 -14.047  1.00  0.00    -0.165 F 
HETATM   23  F2  UNL     1     -49.737   1.123 -16.269  1.00  0.00    -0.165 F 
HETATM   24  F3  UNL     1     -50.930  -0.134 -14.837  1.00  0.00    -0.165 F 
ENDBRANCH  20  21
ENDBRANCH  13  15
ENDBRANCH  10  12
ENDBRANCH   4  10
BRANCH   9  25
HETATM   25  S3  UNL     1     -52.103   0.384 -23.796  1.00  0.00    -0.093 SA
BRANCH  25  26
HETATM   26  C13 UNL     1     -52.710  -1.068 -24.568  1.00  0.00     0.124 C 
BRANCH  26  27
HETATM   27  C14 UNL     1     -53.281  -1.054 -25.889  1.00  0.00     0.253 C 
HETATM   28  O2  UNL     1     -54.458  -0.830 -26.191  1.00  0.00    -0.268 OA
HETATM   29  N4  UNL     1     -52.343  -1.340 -26.974  1.00  0.00    -0.300 N 
HETATM   30  C15 UNL     1     -52.024  -2.566 -27.246  1.00  0.00     0.203 C 
ATOM     31  H4  UNL     1     -51.940  -0.575 -27.517  1.00  0.00     0.171 HD
HETATM   32  N5  UNL     1     -52.583  -3.636 -26.497  1.00  0.00    -0.066 NA
HETATM   33  N6  UNL     1     -51.113  -2.882 -28.294  1.00  0.00    -0.066 NA
ENDBRANCH  26  27
ENDBRANCH  25  26
ENDBRANCH   9  25
TORSDOF 7
ENDMDL
MODEL 4
REMARK VINA RESULT: -7.689161469      2.494      3.065
REMARK  7 active torsions:
REMARK  status: ('A' for Active; 'I' for Inactive)
REMARK    1  A    between atoms: C3_4  and  N2_5 
REMARK    2  A    between atoms: N2_5  and  N3_7 
REMARK    3  A    between atoms: C4_9  and  C5_10 
REMARK    4  A    between atoms: C7_15  and  C8_16 
REMARK    5  A    between atoms: C12_24  and  S3_25 
REMARK    6  A    between atoms: S3_25  and  C13_26 
REMARK    7  A    between atoms: C13_26  and  C14_27 
REMARK       I    between atoms: C14_27  and  N4_29 
ROOT
HETATM    1  N1  UNL     1     -49.051  -0.658 -21.691  1.00  0.00    -0.191 NA
HETATM    2  C1  UNL     1     -50.099  -0.202 -21.548  1.00  0.00     0.103 C 
HETATM    3  C2  UNL     1     -51.400   0.363 -21.403  1.00  0.00     0.091 A 
HETATM    4  C3  UNL     1     -51.799   0.678 -20.105  1.00  0.00     0.070 A 
HETATM    5  C9  UNL     1     -53.068   1.186 -19.856  1.00  0.00     0.034 A 
HETATM    6  C10 UNL     1     -53.902   1.364 -20.929  1.00  0.00     0.028 A 
HETATM    7  C11 UNL     1     -53.493   1.050 -22.200  1.00  0.00     0.052 A 
HETATM    8 CL1  UNL     1     -54.566   1.282 -23.550  1.00  0.00    -0.083 Cl
HETATM    9  C12 UNL     1     -52.216   0.534 -22.492  1.00  0.00     0.049 A 
ENDROOT
BRANCH   4  10
HETATM   10  N2  UNL     1     -50.912   0.469 -19.015  1.00  0.00    -0.300 N 
ATOM     11  H2  UNL     1     -49.906   0.534 -19.167  1.00  0.00     0.187 HD
BRANCH  10  12
HETATM   12  N3  UNL     1     -51.388   0.180 -17.755  1.00  0.00    -0.309 N 
HETATM   13  C4  UNL     1     -50.784   0.266 -16.647  1.00  0.00     0.145 C 
ATOM     14  H3  UNL     1     -52.354  -0.146 -17.710  1.00  0.00     0.186 HD
BRANCH  13  15
HETATM   15  C5  UNL     1     -51.484  -0.098 -15.378  1.00  0.00     0.116 A 
HETATM   16  O1  UNL     1     -51.598  -1.287 -14.975  1.00  0.00    -0.290 OA
HETATM   17  C6  UNL     1     -52.205  -1.569 -13.880  1.00  0.00     0.185 A 
HETATM   18  S1  UNL     1     -52.454  -3.059 -13.192  1.00  0.00    -0.044 SA
HETATM   19  S2  UNL     1     -52.688  -0.029 -13.316  1.00  0.00    -0.046 SA
HETATM   20  C7  UNL     1     -52.037   0.894 -14.598  1.00  0.00     0.127 A 
BRANCH  20  21
HETATM   21  C8  UNL     1     -52.043   2.379 -14.841  1.00  0.00     0.426 C 
HETATM   22  F1  UNL     1     -50.718   2.795 -14.838  1.00  0.00    -0.165 F 
HETATM   23  F2  UNL     1     -52.735   2.940 -13.776  1.00  0.00    -0.165 F 
HETATM   24  F3  UNL     1     -52.677   2.684 -16.009  1.00  0.00    -0.165 F 
ENDBRANCH  20  21
ENDBRANCH  13  15
ENDBRANCH  10  12
ENDBRANCH   4  10
BRANCH   9  25
HETATM   25  S3  UNL     1     -51.725   0.217 -24.156  1.00  0.00    -0.093 SA
BRANCH  25  26
HETATM   26  C13 UNL     1     -51.501  -1.448 -24.654  1.00  0.00     0.124 C 
BRANCH  26  27
HETATM   27  C14 UNL     1     -52.610  -2.336 -24.891  1.00  0.00     0.253 C 
HETATM   28  O2  UNL     1     -52.922  -3.333 -24.233  1.00  0.00    -0.268 OA
HETATM   29  N4  UNL     1     -53.443  -1.994 -26.044  1.00  0.00    -0.300 N 
HETATM   30  C15 UNL     1     -53.063  -2.330 -27.237  1.00  0.00     0.203 C 
ATOM     31  H4  UNL     1     -54.321  -1.492 -25.910  1.00  0.00     0.171 HD
HETATM   32  N5  UNL     1     -51.843  -3.031 -27.432  1.00  0.00    -0.066 NA
HETATM   33  N6  UNL     1     -53.848  -2.014 -28.383  1.00  0.00    -0.066 NA
ENDBRANCH  26  27
ENDBRANCH  25  26
ENDBRANCH   9  25
TORSDOF 7
ENDMDL
MODEL 5
REMARK VINA RESULT: -7.633813902      2.350      2.861
REMARK  7 active torsions:
REMARK  status: ('A' for Active; 'I' for Inactive)
REMARK    1  A    between atoms: C3_4  and  N2_5 
REMARK    2  A    between atoms: N2_5  and  N3_7 
REMARK    3  A    between atoms: C4_9  and  C5_10 
REMARK    4  A    between atoms: C7_15  and  C8_16 
REMARK    5  A    between atoms: C12_24  and  S3_25 
REMARK    6  A    between atoms: S3_25  and  C13_26 
REMARK    7  A    between atoms: C13_26  and  C14_27 
REMARK       I    between atoms: C14_27  and  N4_29 
ROOT
HETATM    1  N1  UNL     1     -54.481   2.225 -21.434  1.00  0.00    -0.191 NA
HETATM    2  C1  UNL     1     -53.521   1.605 -21.289  1.00  0.00     0.103 C 
HETATM    3  C2  UNL     1     -52.333   0.832 -21.140  1.00  0.00     0.091 A 
HETATM    4  C3  UNL     1     -51.849   0.679 -19.842  1.00  0.00     0.070 A 
HETATM    5  C9  UNL     1     -50.670  -0.015 -19.599  1.00  0.00     0.034 A 
HETATM    6  C10 UNL     1     -50.009  -0.538 -20.680  1.00  0.00     0.028 A 
HETATM    7  C11 UNL     1     -50.500  -0.380 -21.952  1.00  0.00     0.052 A 
HETATM    8 CL1  UNL     1     -49.647  -1.051 -23.311  1.00  0.00    -0.083 Cl
HETATM    9  C12 UNL     1     -51.691   0.315 -22.236  1.00  0.00     0.049 A 
ENDROOT
BRANCH   4  10
HETATM   10  N2  UNL     1     -52.554   1.247 -18.746  1.00  0.00    -0.300 N 
ATOM     11  H2  UNL     1     -53.190   2.027 -18.909  1.00  0.00     0.187 HD
BRANCH  10  12
HETATM   12  N3  UNL     1     -52.394   0.760 -17.467  1.00  0.00    -0.309 N 
HETATM   13  C4  UNL     1     -52.206   1.408 -16.397  1.00  0.00     0.145 C 
ATOM     14  H3  UNL     1     -52.432  -0.254 -17.371  1.00  0.00     0.186 HD
BRANCH  13  15
HETATM   15  C5  UNL     1     -52.054   0.686 -15.098  1.00  0.00     0.116 A 
HETATM   16  O1  UNL     1     -52.995   0.561 -14.269  1.00  0.00    -0.290 OA
HETATM   17  C6  UNL     1     -52.835  -0.065 -13.160  1.00  0.00     0.185 A 
HETATM   18  S1  UNL     1     -53.945  -0.332 -11.955  1.00  0.00    -0.044 SA
HETATM   19  S2  UNL     1     -51.198  -0.551 -13.243  1.00  0.00    -0.046 SA
HETATM   20  C7  UNL     1     -50.839   0.125 -14.770  1.00  0.00     0.127 A 
BRANCH  20  21
HETATM   21  C8  UNL     1     -49.564   0.124 -15.569  1.00  0.00     0.426 C 
HETATM   22  F1  UNL     1     -49.725  -0.806 -16.588  1.00  0.00    -0.165 F 
HETATM   23  F2  UNL     1     -48.562  -0.274 -14.695  1.00  0.00    -0.165 F 
HETATM   24  F3  UNL     1     -49.284   1.369 -16.048  1.00  0.00    -0.165 F 
ENDBRANCH  20  21
ENDBRANCH  13  15
ENDBRANCH  10  12
ENDBRANCH   4  10
BRANCH   9  25
HETATM   25  S3  UNL     1     -52.305   0.423 -23.886  1.00  0.00    -0.093 SA
BRANCH  25  26
HETATM   26  C13 UNL     1     -52.909  -1.035 -24.646  1.00  0.00     0.124 C 
BRANCH  26  27
HETATM   27  C14 UNL     1     -53.424  -1.045 -25.991  1.00  0.00     0.253 C 
HETATM   28  O2  UNL     1     -54.591  -0.852 -26.344  1.00  0.00    -0.268 OA
HETATM   29  N4  UNL     1     -52.433  -1.314 -27.033  1.00  0.00    -0.300 N 
HETATM   30  C15 UNL     1     -52.073  -2.533 -27.281  1.00  0.00     0.203 C 
ATOM     31  H4  UNL     1     -52.026  -0.543 -27.563  1.00  0.00     0.171 HD
HETATM   32  N5  UNL     1     -52.636  -3.612 -26.549  1.00  0.00    -0.066 NA
HETATM   33  N6  UNL     1     -51.110  -2.833 -28.287  1.00  0.00    -0.066 NA
ENDBRANCH  26  27
ENDBRANCH  25  26
ENDBRANCH   9  25
TORSDOF 7
ENDMDL
