MODEL 1
REMARK VINA RESULT: -8.889051006      0.000      0.000
REMARK  8 active torsions:
REMARK  status: ('A' for Active; 'I' for Inactive)
REMARK    1  A    between atoms: O1_1  and  N1_3 
REMARK    2  A    between atoms: N1_3  and  C1_5 
REMARK    3  A    between atoms: C2_6  and  O2_7 
REMARK    4  A    between atoms: C3_11  and  C4_12 
REMARK    5  A    between atoms: C10_23  and  C11_25 
REMARK    6  A    between atoms: C19_35  and  C20_36 
REMARK    7  A    between atoms: C20_36  and  C21_37 
REMARK    8  A    between atoms: C21_37  and  O3_38 
ROOT
HETATM    1  C4  UNL     1     -51.111  -0.576 -19.665  1.00  0.00    -0.006 C 
HETATM    2  C5  UNL     1     -50.264   0.175 -20.542  1.00  0.00     0.058 C 
HETATM    3  C6  UNL     1     -49.798  -0.597 -21.635  1.00  0.00     0.144 C 
HETATM    4  F1  UNL     1     -48.361  -0.943 -21.411  1.00  0.00    -0.204 F 
HETATM    5  C7  UNL     1     -50.269  -0.711 -22.994  1.00  0.00     0.109 C 
HETATM    6  N3  UNL     1     -49.474  -1.761 -23.557  1.00  0.00    -0.298 N 
ATOM      7  H3  UNL     1     -48.652  -1.795 -24.160  1.00  0.00     0.187 HD
HETATM    8  N4  UNL     1     -50.357  -2.801 -22.889  1.00  0.00    -0.304 N 
ATOM      9  H4  UNL     1     -50.124  -3.793 -22.844  1.00  0.00     0.186 HD
HETATM   10  C8  UNL     1     -51.540  -2.248 -22.333  1.00  0.00     0.029 C 
HETATM   11  C9  UNL     1     -52.208  -1.113 -22.352  1.00  0.00     0.114 C 
HETATM   12  C10 UNL     1     -51.382  -0.105 -23.408  1.00  0.00     0.182 C 
HETATM   13  F2  UNL     1     -51.880   1.077 -23.172  1.00  0.00    -0.230 F 
HETATM   14  C17 UNL     1     -51.678  -2.849 -20.849  1.00  0.00     0.027 C 
HETATM   15  C18 UNL     1     -51.456  -1.983 -19.854  1.00  0.00     0.016 C 
ENDROOT
BRANCH   1  16
HETATM   16  C3  UNL     1     -51.643   0.149 -18.501  1.00  0.00     0.057 A 
HETATM   17  N2  UNL     1     -52.464   1.249 -18.833  1.00  0.00    -0.334 N 
HETATM   18  C2  UNL     1     -52.871   1.879 -17.745  1.00  0.00     0.170 A 
ATOM     19  H2  UNL     1     -52.709   1.521 -19.785  1.00  0.00     0.168 HD
HETATM   20  C1  UNL     1     -52.323   1.205 -16.687  1.00  0.00     0.117 A 
HETATM   21  C19 UNL     1     -51.551   0.120 -17.157  1.00  0.00     0.049 A 
BRANCH  18  22
HETATM   22  O2  UNL     1     -53.691   2.998 -17.716  1.00  0.00    -0.344 OA
ATOM     23  H2  UNL     1     -54.639   3.030 -17.675  1.00  0.00     0.219 HD
ENDBRANCH  18  22
BRANCH  20  24
HETATM   24  N1  UNL     1     -52.477   1.627 -15.349  1.00  0.00    -0.264 N 
ATOM     25  H1  UNL     1     -51.949   2.433 -15.016  1.00  0.00     0.194 HD
BRANCH  24  26
HETATM   26  O1  UNL     1     -53.240   1.037 -14.572  1.00  0.00    -0.289 OA
ATOM     27  H1  UNL     1     -53.722   1.507 -13.903  1.00  0.00     0.244 HD
ENDBRANCH  24  26
ENDBRANCH  20  24
BRANCH  21  28
HETATM   28  C20 UNL     1     -50.860  -0.803 -16.262  1.00  0.00     0.210 A 
HETATM   29  O4  UNL     1     -51.473  -1.181 -15.029  1.00  0.00    -0.289 OA
HETATM   30  C22 UNL     1     -51.291  -2.171 -15.987  1.00  0.00     0.303 A 
HETATM   31  O5  UNL     1     -51.451  -3.389 -16.264  1.00  0.00    -0.261 OA
BRANCH  28  32
HETATM   32  C21 UNL     1     -49.362  -0.521 -15.965  1.00  0.00     0.218 C 
BRANCH  32  33
HETATM   33  O3  UNL     1     -48.892   0.708 -16.066  1.00  0.00    -0.397 OA
ATOM     34  H3  UNL     1     -48.727   1.218 -15.282  1.00  0.00     0.209 HD
ENDBRANCH  32  33
ENDBRANCH  28  32
ENDBRANCH  21  28
ENDBRANCH   1  16
BRANCH  12  35
HETATM   35  C11 UNL     1     -51.849  -0.665 -24.741  1.00  0.00    -0.009 A 
HETATM   36  C12 UNL     1     -53.162  -1.017 -24.953  1.00  0.00     0.014 A 
HETATM   37  C13 UNL     1     -53.605  -1.510 -26.161  1.00  0.00     0.046 A 
HETATM   38  C14 UNL     1     -52.720  -1.666 -27.213  1.00  0.00     0.154 A 
HETATM   39  F3  UNL     1     -53.176  -2.156 -28.400  1.00  0.00    -0.203 F 
HETATM   40  C15 UNL     1     -51.407  -1.319 -27.017  1.00  0.00     0.155 A 
HETATM   41  F4  UNL     1     -50.494  -1.446 -27.995  1.00  0.00    -0.203 F 
HETATM   42  C16 UNL     1     -50.967  -0.819 -25.784  1.00  0.00     0.056 A 
ENDBRANCH  12  35
TORSDOF 8
ENDMDL
MODEL 2
REMARK VINA RESULT: -8.526245559      3.690      5.281
REMARK  8 active torsions:
REMARK  status: ('A' for Active; 'I' for Inactive)
REMARK    1  A    between atoms: O1_1  and  N1_3 
REMARK    2  A    between atoms: N1_3  and  C1_5 
REMARK    3  A    between atoms: C2_6  and  O2_7 
REMARK    4  A    between atoms: C3_11  and  C4_12 
REMARK    5  A    between atoms: C10_23  and  C11_25 
REMARK    6  A    between atoms: C19_35  and  C20_36 
REMARK    7  A    between atoms: C20_36  and  C21_37 
REMARK    8  A    between atoms: C21_37  and  O3_38 
ROOT
HETATM    1  C4  UNL     1     -51.475  -2.860 -21.879  1.00  0.00    -0.006 C 
HETATM    2  C5  UNL     1     -50.470  -3.856 -21.664  1.00  0.00     0.058 C 
HETATM    3  C6  UNL     1     -50.474  -4.853 -22.670  1.00  0.00     0.144 C 
HETATM    4  F1  UNL     1     -51.076  -6.104 -22.115  1.00  0.00    -0.204 F 
HETATM    5  C7  UNL     1     -49.676  -5.014 -23.860  1.00  0.00     0.109 C 
HETATM    6  N3  UNL     1     -50.263  -6.133 -24.534  1.00  0.00    -0.298 N 
ATOM      7  H3  UNL     1     -50.036  -7.123 -24.615  1.00  0.00     0.187 HD
HETATM    8  N4  UNL     1     -51.364  -5.237 -25.080  1.00  0.00    -0.304 N 
ATOM      9  H4  UNL     1     -52.199  -5.591 -25.545  1.00  0.00     0.186 HD
HETATM   10  C8  UNL     1     -51.107  -3.857 -24.873  1.00  0.00     0.029 C 
HETATM   11  C9  UNL     1     -50.116  -3.079 -24.489  1.00  0.00     0.114 C 
HETATM   12  C10 UNL     1     -48.798  -4.089 -24.251  1.00  0.00     0.182 C 
HETATM   13  F2  UNL     1     -47.948  -3.349 -23.594  1.00  0.00    -0.230 F 
HETATM   14  C17 UNL     1     -52.459  -3.219 -24.286  1.00  0.00     0.027 C 
HETATM   15  C18 UNL     1     -52.416  -2.862 -22.997  1.00  0.00     0.016 C 
ENDROOT
BRANCH   1  16
HETATM   16  C3  UNL     1     -51.542  -1.781 -20.881  1.00  0.00     0.057 A 
HETATM   17  N2  UNL     1     -51.070  -2.149 -19.602  1.00  0.00    -0.334 N 
HETATM   18  C2  UNL     1     -51.199  -1.151 -18.746  1.00  0.00     0.170 A 
ATOM     19  H2  UNL     1     -50.681  -3.063 -19.370  1.00  0.00     0.168 HD
HETATM   20  C1  UNL     1     -51.759  -0.117 -19.448  1.00  0.00     0.117 A 
HETATM   21  C19 UNL     1     -51.976  -0.509 -20.788  1.00  0.00     0.049 A 
BRANCH  18  22
HETATM   22  O2  UNL     1     -50.831  -1.177 -17.408  1.00  0.00    -0.344 OA
ATOM     23  H2  UNL     1     -49.981  -1.383 -17.038  1.00  0.00     0.219 HD
ENDBRANCH  18  22
BRANCH  20  24
HETATM   24  N1  UNL     1     -52.116   1.110 -18.849  1.00  0.00    -0.264 N 
ATOM     25  H1  UNL     1     -51.592   1.952 -19.084  1.00  0.00     0.194 HD
BRANCH  24  26
HETATM   26  O1  UNL     1     -53.054   1.183 -18.043  1.00  0.00    -0.289 OA
ATOM     27  H1  UNL     1     -52.943   1.592 -17.193  1.00  0.00     0.244 HD
ENDBRANCH  24  26
ENDBRANCH  20  24
BRANCH  21  28
HETATM   28  C20 UNL     1     -52.539   0.389 -21.791  1.00  0.00     0.210 A 
HETATM   29  O4  UNL     1     -51.829   1.573 -22.155  1.00  0.00    -0.289 OA
HETATM   30  C22 UNL     1     -51.986   0.592 -23.127  1.00  0.00     0.303 A 
HETATM   31  O5  UNL     1     -51.745   0.264 -24.319  1.00  0.00    -0.261 OA
BRANCH  28  32
HETATM   32  C21 UNL     1     -54.036   0.777 -21.641  1.00  0.00     0.218 C 
BRANCH  32  33
HETATM   33  O3  UNL     1     -54.393   1.685 -20.751  1.00  0.00    -0.397 OA
ATOM     34  H3  UNL     1     -54.461   2.597 -21.007  1.00  0.00     0.209 HD
ENDBRANCH  32  33
ENDBRANCH  28  32
ENDBRANCH  21  28
ENDBRANCH   1  16
BRANCH  12  35
HETATM   35  C11 UNL     1     -48.364  -4.315 -25.690  1.00  0.00    -0.009 A 
HETATM   36  C12 UNL     1     -48.580  -3.368 -26.664  1.00  0.00     0.014 A 
HETATM   37  C13 UNL     1     -48.178  -3.552 -27.969  1.00  0.00     0.046 A 
HETATM   38  C14 UNL     1     -47.532  -4.718 -28.338  1.00  0.00     0.154 A 
HETATM   39  F3  UNL     1     -47.142  -4.881 -29.634  1.00  0.00    -0.203 F 
HETATM   40  C15 UNL     1     -47.309  -5.672 -27.378  1.00  0.00     0.155 A 
HETATM   41  F4  UNL     1     -46.688  -6.828 -27.667  1.00  0.00    -0.203 F 
HETATM   42  C16 UNL     1     -47.723  -5.476 -26.053  1.00  0.00     0.056 A 
ENDBRANCH  12  35
TORSDOF 8
ENDMDL
MODEL 3
REMARK VINA RESULT: -8.470765702      0.674      1.438
REMARK  8 active torsions:
REMARK  status: ('A' for Active; 'I' for Inactive)
REMARK    1  A    between atoms: O1_1  and  N1_3 
REMARK    2  A    between atoms: N1_3  and  C1_5 
REMARK    3  A    between atoms: C2_6  and  O2_7 
REMARK    4  A    between atoms: C3_11  and  C4_12 
REMARK    5  A    between atoms: C10_23  and  C11_25 
REMARK    6  A    between atoms: C19_35  and  C20_36 
REMARK    7  A    between atoms: C20_36  and  C21_37 
REMARK    8  A    between atoms: C21_37  and  O3_38 
ROOT
HETATM    1  C4  UNL     1     -50.851  -0.938 -19.765  1.00  0.00    -0.006 C 
HETATM    2  C5  UNL     1     -50.052  -0.134 -20.639  1.00  0.00     0.058 C 
HETATM    3  C6  UNL     1     -49.631  -0.843 -21.791  1.00  0.00     0.144 C 
HETATM    4  F1  UNL     1     -48.183  -1.185 -21.652  1.00  0.00    -0.204 F 
HETATM    5  C7  UNL     1     -50.163  -0.890 -23.131  1.00  0.00     0.109 C 
HETATM    6  N3  UNL     1     -49.387  -1.901 -23.785  1.00  0.00    -0.298 N 
ATOM      7  H3  UNL     1     -48.594  -1.895 -24.426  1.00  0.00     0.187 HD
HETATM    8  N4  UNL     1     -50.231  -2.984 -23.133  1.00  0.00    -0.304 N 
ATOM      9  H4  UNL     1     -49.989  -3.974 -23.152  1.00  0.00     0.186 HD
HETATM   10  C8  UNL     1     -51.391  -2.472 -22.495  1.00  0.00     0.029 C 
HETATM   11  C9  UNL     1     -52.068  -1.344 -22.424  1.00  0.00     0.114 C 
HETATM   12  C10 UNL     1     -51.299  -0.274 -23.461  1.00  0.00     0.182 C 
HETATM   13  F2  UNL     1     -51.794   0.889 -23.140  1.00  0.00    -0.230 F 
HETATM   14  C17 UNL     1     -51.455  -3.152 -21.041  1.00  0.00     0.027 C 
HETATM   15  C18 UNL     1     -51.195  -2.337 -20.012  1.00  0.00     0.016 C 
ENDROOT
BRANCH   1  16
HETATM   16  C3  UNL     1     -51.335  -0.281 -18.541  1.00  0.00     0.057 A 
HETATM   17  N2  UNL     1     -52.216   0.797 -18.776  1.00  0.00    -0.334 N 
HETATM   18  C2  UNL     1     -52.576   1.368 -17.639  1.00  0.00     0.170 A 
ATOM     19  H2  UNL     1     -52.532   1.096 -19.699  1.00  0.00     0.168 HD
HETATM   20  C1  UNL     1     -51.936   0.676 -16.646  1.00  0.00     0.117 A 
HETATM   21  C19 UNL     1     -51.156  -0.359 -17.208  1.00  0.00     0.049 A 
BRANCH  18  22
HETATM   22  O2  UNL     1     -53.433   2.452 -17.513  1.00  0.00    -0.344 OA
ATOM     23  H2  UNL     1     -53.276   3.276 -17.068  1.00  0.00     0.219 HD
ENDBRANCH  18  22
BRANCH  20  24
HETATM   24  N1  UNL     1     -52.020   1.039 -15.285  1.00  0.00    -0.264 N 
ATOM     25  H1  UNL     1     -51.181   1.357 -14.800  1.00  0.00     0.194 HD
BRANCH  24  26
HETATM   26  O1  UNL     1     -53.092   0.978 -14.668  1.00  0.00    -0.289 OA
ATOM     27  H1  UNL     1     -53.902   1.287 -15.056  1.00  0.00     0.244 HD
ENDBRANCH  24  26
ENDBRANCH  20  24
BRANCH  21  28
HETATM   28  C20 UNL     1     -50.375  -1.288 -16.396  1.00  0.00     0.210 A 
HETATM   29  O4  UNL     1     -49.108  -1.744 -16.870  1.00  0.00    -0.289 OA
HETATM   30  C22 UNL     1     -49.122  -0.953 -15.728  1.00  0.00     0.303 A 
HETATM   31  O5  UNL     1     -48.420  -0.408 -14.835  1.00  0.00    -0.261 OA
BRANCH  28  32
HETATM   32  C21 UNL     1     -51.118  -2.518 -15.808  1.00  0.00     0.218 C 
BRANCH  32  33
HETATM   33  O3  UNL     1     -51.416  -3.541 -16.588  1.00  0.00    -0.397 OA
ATOM     34  H3  UNL     1     -52.234  -4.009 -16.463  1.00  0.00     0.209 HD
ENDBRANCH  32  33
ENDBRANCH  28  32
ENDBRANCH  21  28
ENDBRANCH   1  16
BRANCH  12  35
HETATM   35  C11 UNL     1     -51.823  -0.768 -24.800  1.00  0.00    -0.009 A 
HETATM   36  C12 UNL     1     -53.143  -1.116 -24.971  1.00  0.00     0.014 A 
HETATM   37  C13 UNL     1     -53.637  -1.549 -26.182  1.00  0.00     0.046 A 
HETATM   38  C14 UNL     1     -52.799  -1.646 -27.279  1.00  0.00     0.154 A 
HETATM   39  F3  UNL     1     -53.306  -2.077 -28.468  1.00  0.00    -0.203 F 
HETATM   40  C15 UNL     1     -51.480  -1.302 -27.123  1.00  0.00     0.155 A 
HETATM   41  F4  UNL     1     -50.611  -1.373 -28.146  1.00  0.00    -0.203 F 
HETATM   42  C16 UNL     1     -50.987  -0.863 -25.887  1.00  0.00     0.056 A 
ENDBRANCH  12  35
TORSDOF 8
ENDMDL
MODEL 4
REMARK VINA RESULT: -8.403667437      3.257      4.319
REMARK  8 active torsions:
REMARK  status: ('A' for Active; 'I' for Inactive)
REMARK    1  A    between atoms: O1_1  and  N1_3 
REMARK    2  A    between atoms: N1_3  and  C1_5 
REMARK    3  A    between atoms: C2_6  and  O2_7 
REMARK    4  A    between atoms: C3_11  and  C4_12 
REMARK    5  A    between atoms: C10_23  and  C11_25 
REMARK    6  A    between atoms: C19_35  and  C20_36 
REMARK    7  A    between atoms: C20_36  and  C21_37 
REMARK    8  A    between atoms: C21_37  and  O3_38 
ROOT
HETATM    1  C4  UNL     1     -52.389  -1.822 -22.505  1.00  0.00    -0.006 C 
HETATM    2  C5  UNL     1     -51.795  -3.081 -22.171  1.00  0.00     0.058 C 
HETATM    3  C6  UNL     1     -51.796  -3.985 -23.262  1.00  0.00     0.144 C 
HETATM    4  F1  UNL     1     -52.846  -5.025 -23.034  1.00  0.00    -0.204 F 
HETATM    5  C7  UNL     1     -50.777  -4.322 -24.225  1.00  0.00     0.109 C 
HETATM    6  N3  UNL     1     -51.440  -5.183 -25.158  1.00  0.00    -0.298 N 
ATOM      7  H3  UNL     1     -51.479  -6.192 -25.300  1.00  0.00     0.187 HD
HETATM    8  N4  UNL     1     -52.059  -3.978 -25.845  1.00  0.00    -0.304 N 
ATOM      9  H4  UNL     1     -52.798  -4.046 -26.544  1.00  0.00     0.186 HD
HETATM   10  C8  UNL     1     -51.501  -2.746 -25.413  1.00  0.00     0.029 C 
HETATM   11  C9  UNL     1     -50.479  -2.316 -24.700  1.00  0.00     0.114 C 
HETATM   12  C10 UNL     1     -49.607  -3.682 -24.267  1.00  0.00     0.182 C 
HETATM   13  F2  UNL     1     -48.801  -3.259 -23.333  1.00  0.00    -0.230 F 
HETATM   14  C17 UNL     1     -52.734  -1.763 -25.107  1.00  0.00     0.027 C 
HETATM   15  C18 UNL     1     -52.950  -1.494 -23.814  1.00  0.00     0.016 C 
ENDROOT
BRANCH   1  16
HETATM   16  C3  UNL     1     -52.429  -0.819 -21.430  1.00  0.00     0.057 A 
HETATM   17  N2  UNL     1     -53.368   0.215 -21.642  1.00  0.00    -0.334 N 
HETATM   18  C2  UNL     1     -53.321   1.102 -20.664  1.00  0.00     0.170 A 
ATOM     19  H2  UNL     1     -53.998   0.269 -22.443  1.00  0.00     0.168 HD
HETATM   20  C1  UNL     1     -52.351   0.667 -19.801  1.00  0.00     0.117 A 
HETATM   21  C19 UNL     1     -51.789  -0.538 -20.279  1.00  0.00     0.049 A 
BRANCH  18  22
HETATM   22  O2  UNL     1     -54.111   2.239 -20.563  1.00  0.00    -0.344 OA
ATOM     23  H2  UNL     1     -55.005   2.360 -20.858  1.00  0.00     0.219 HD
ENDBRANCH  18  22
BRANCH  20  24
HETATM   24  N1  UNL     1     -51.960   1.397 -18.659  1.00  0.00    -0.264 N 
ATOM     25  H1  UNL     1     -50.974   1.617 -18.520  1.00  0.00     0.194 HD
BRANCH  24  26
HETATM   26  O1  UNL     1     -52.791   1.776 -17.822  1.00  0.00    -0.289 OA
ATOM     27  H1  UNL     1     -52.545   2.355 -17.110  1.00  0.00     0.244 HD
ENDBRANCH  24  26
ENDBRANCH  20  24
BRANCH  21  28
HETATM   28  C20 UNL     1     -50.744  -1.261 -19.559  1.00  0.00     0.210 A 
HETATM   29  O4  UNL     1     -50.602  -1.076 -18.151  1.00  0.00    -0.289 OA
HETATM   30  C22 UNL     1     -50.989  -2.332 -18.599  1.00  0.00     0.303 A 
HETATM   31  O5  UNL     1     -51.302  -3.505 -18.259  1.00  0.00    -0.261 OA
BRANCH  28  32
HETATM   32  C21 UNL     1     -49.318  -1.250 -20.173  1.00  0.00     0.218 C 
BRANCH  32  33
HETATM   33  O3  UNL     1     -48.956  -0.267 -20.977  1.00  0.00    -0.397 OA
ATOM     34  H3  UNL     1     -48.580   0.527 -20.613  1.00  0.00     0.209 HD
ENDBRANCH  32  33
ENDBRANCH  28  32
ENDBRANCH  21  28
ENDBRANCH   1  16
BRANCH  12  35
HETATM   35  C11 UNL     1     -48.873  -3.962 -25.568  1.00  0.00    -0.009 A 
HETATM   36  C12 UNL     1     -48.802  -3.021 -26.570  1.00  0.00     0.014 A 
HETATM   37  C13 UNL     1     -48.127  -3.253 -27.749  1.00  0.00     0.046 A 
HETATM   38  C14 UNL     1     -47.491  -4.464 -27.957  1.00  0.00     0.154 A 
HETATM   39  F3  UNL     1     -46.828  -4.675 -29.129  1.00  0.00    -0.203 F 
HETATM   40  C15 UNL     1     -47.553  -5.412 -26.967  1.00  0.00     0.155 A 
HETATM   41  F4  UNL     1     -46.959  -6.609 -27.104  1.00  0.00    -0.203 F 
HETATM   42  C16 UNL     1     -48.243  -5.166 -25.772  1.00  0.00     0.056 A 
ENDBRANCH  12  35
TORSDOF 8
ENDMDL
MODEL 5
REMARK VINA RESULT: -8.357903062      3.821      5.271
REMARK  8 active torsions:
REMARK  status: ('A' for Active; 'I' for Inactive)
REMARK    1  A    between atoms: O1_1  and  N1_3 
REMARK    2  A    between atoms: N1_3  and  C1_5 
REMARK    3  A    between atoms: C2_6  and  O2_7 
REMARK    4  A    between atoms: C3_11  and  C4_12 
REMARK    5  A    between atoms: C10_23  and  C11_25 
REMARK    6  A    between atoms: C19_35  and  C20_36 
REMARK    7  A    between atoms: C20_36  and  C21_37 
REMARK    8  A    between atoms: C21_37  and  O3_38 
ROOT
HETATM    1  C4  UNL     1     -50.979  -4.002 -21.339  1.00  0.00    -0.006 C 
HETATM    2  C5  UNL     1     -49.959  -5.003 -21.416  1.00  0.00     0.058 C 
HETATM    3  C6  UNL     1     -50.052  -5.780 -22.597  1.00  0.00     0.144 C 
HETATM    4  F1  UNL     1     -50.602  -7.127 -22.253  1.00  0.00    -0.204 F 
HETATM    5  C7  UNL     1     -49.362  -5.686 -23.860  1.00  0.00     0.109 C 
HETATM    6  N3  UNL     1     -50.007  -6.658 -24.690  1.00  0.00    -0.298 N 
ATOM      7  H3  UNL     1     -49.788  -7.609 -24.986  1.00  0.00     0.187 HD
HETATM    8  N4  UNL     1     -51.152  -5.693 -24.948  1.00  0.00    -0.304 N 
ATOM      9  H4  UNL     1     -52.026  -5.963 -25.400  1.00  0.00     0.186 HD
HETATM   10  C8  UNL     1     -50.879  -4.376 -24.493  1.00  0.00     0.029 C 
HETATM   11  C9  UNL     1     -49.858  -3.672 -24.049  1.00  0.00     0.114 C 
HETATM   12  C10 UNL     1     -48.523  -4.685 -24.133  1.00  0.00     0.182 C 
HETATM   13  F2  UNL     1     -47.619  -4.076 -23.418  1.00  0.00    -0.230 F 
HETATM   14  C17 UNL     1     -52.174  -3.893 -23.675  1.00  0.00     0.027 C 
HETATM   15  C18 UNL     1     -52.016  -3.798 -22.349  1.00  0.00     0.016 C 
ENDROOT
BRANCH   1  16
HETATM   16  C3  UNL     1     -50.958  -3.144 -20.144  1.00  0.00     0.057 A 
HETATM   17  N2  UNL     1     -50.571  -3.813 -18.962  1.00  0.00    -0.334 N 
HETATM   18  C2  UNL     1     -50.616  -2.999 -17.923  1.00  0.00     0.170 A 
ATOM     19  H2  UNL     1     -50.294  -4.794 -18.917  1.00  0.00     0.168 HD
HETATM   20  C1  UNL     1     -51.034  -1.788 -18.406  1.00  0.00     0.117 A 
HETATM   21  C19 UNL     1     -51.251  -1.876 -19.799  1.00  0.00     0.049 A 
BRANCH  18  22
HETATM   22  O2  UNL     1     -50.295  -3.335 -16.615  1.00  0.00    -0.344 OA
ATOM     23  H2  UNL     1     -49.910  -4.142 -16.295  1.00  0.00     0.219 HD
ENDBRANCH  18  22
BRANCH  20  24
HETATM   24  N1  UNL     1     -51.272  -0.673 -17.574  1.00  0.00    -0.264 N 
ATOM     25  H1  UNL     1     -52.085  -0.674 -16.958  1.00  0.00     0.194 HD
BRANCH  24  26
HETATM   26  O1  UNL     1     -50.513   0.306 -17.577  1.00  0.00    -0.289 OA
ATOM     27  H1  UNL     1     -49.995   0.530 -16.813  1.00  0.00     0.244 HD
ENDBRANCH  24  26
ENDBRANCH  20  24
BRANCH  21  28
HETATM   28  C20 UNL     1     -51.679  -0.736 -20.604  1.00  0.00     0.210 A 
HETATM   29  O4  UNL     1     -50.905   0.463 -20.595  1.00  0.00    -0.289 OA
HETATM   30  C22 UNL     1     -50.978  -0.246 -21.787  1.00  0.00     0.303 A 
HETATM   31  O5  UNL     1     -50.615  -0.290 -22.993  1.00  0.00    -0.261 OA
BRANCH  28  32
HETATM   32  C21 UNL     1     -53.173  -0.321 -20.516  1.00  0.00     0.218 C 
BRANCH  32  33
HETATM   33  O3  UNL     1     -53.597   0.392 -19.489  1.00  0.00    -0.397 OA
ATOM     34  H3  UNL     1     -53.021   0.546 -18.749  1.00  0.00     0.209 HD
ENDBRANCH  32  33
ENDBRANCH  28  32
ENDBRANCH  21  28
ENDBRANCH   1  16
BRANCH  12  35
HETATM   35  C11 UNL     1     -48.219  -4.613 -25.620  1.00  0.00    -0.009 A 
HETATM   36  C12 UNL     1     -48.562  -3.514 -26.372  1.00  0.00     0.014 A 
HETATM   37  C13 UNL     1     -48.278  -3.426 -27.717  1.00  0.00     0.046 A 
HETATM   38  C14 UNL     1     -47.626  -4.465 -28.358  1.00  0.00     0.154 A 
HETATM   39  F3  UNL     1     -47.354  -4.360 -29.689  1.00  0.00    -0.203 F 
HETATM   40  C15 UNL     1     -47.277  -5.568 -27.621  1.00  0.00     0.155 A 
HETATM   41  F4  UNL     1     -46.644  -6.613 -28.180  1.00  0.00    -0.203 F 
HETATM   42  C16 UNL     1     -47.571  -5.648 -26.253  1.00  0.00     0.056 A 
ENDBRANCH  12  35
TORSDOF 8
ENDMDL
