MODEL 1
REMARK VINA RESULT: -5.745646618      0.000      0.000
REMARK  7 active torsions:
REMARK  status: ('A' for Active; 'I' for Inactive)
REMARK       I    between atoms: C2_4  and  N2_5 
REMARK       I    between atoms: C2_4  and  N4_9 
REMARK    1  A    between atoms: N4_9  and  C4_11 
REMARK    2  A    between atoms: C4_11  and  C5_12 
REMARK    3  A    between atoms: N5_16  and  C9_17 
REMARK    4  A    between atoms: C9_17  and  C10_18 
REMARK    5  A    between atoms: C10_18  and  C11_19 
REMARK    6  A    between atoms: C11_19  and  C12_20 
REMARK    7  A    between atoms: C12_20  and  N6_21 
ROOT
HETATM    1  C1  UNL     1     174.240  14.594  85.458  1.00  0.00     0.165 C 
HETATM    2  N1  UNL     1     174.932  14.796  84.192  1.00  0.00    -0.230 N 
ATOM      3  H1  UNL     1     174.437  14.614  83.319  1.00  0.00     0.177 HD
HETATM    4  C2  UNL     1     176.151  15.198  84.148  1.00  0.00     0.682 C 
HETATM    5  N2  UNL     1     176.814  15.390  82.926  1.00  0.00    -0.126 N 
ATOM      6  H2  UNL     1     176.341  15.075  82.079  1.00  0.00     0.197 HD
HETATM    7  C3  UNL     1     178.066  15.977  82.784  1.00  0.00     0.196 C 
HETATM    8  N3  UNL     1     179.091  16.455  82.658  1.00  0.00    -0.171 NA
HETATM    9  N4  UNL     1     176.792  15.444  85.386  1.00  0.00    -0.224 N 
ATOM     10  H4  UNL     1     177.181  14.688  85.949  1.00  0.00     0.177 HD
ENDROOT
BRANCH   9  11
HETATM   11  C4  UNL     1     176.864  16.810  85.804  1.00  0.00     0.173 C 
BRANCH  11  12
HETATM   12  C5  UNL     1     177.943  17.182  86.746  1.00  0.00     0.241 C 
HETATM   13  C6  UNL     1     179.237  16.484  86.658  1.00  0.00     0.039 C 
HETATM   14  C7  UNL     1     180.135  17.407  85.838  1.00  0.00     0.032 C 
HETATM   15  C8  UNL     1     179.241  18.534  85.405  1.00  0.00     0.273 C 
HETATM   16  N5  UNL     1     178.258  18.595  86.451  1.00  0.00     0.094 N 
BRANCH  16  17
HETATM   17  C9  UNL     1     178.776  19.164  87.678  1.00  0.00     0.273 C 
BRANCH  17  18
HETATM   18  C10 UNL     1     177.698  19.331  88.708  1.00  0.00     0.032 C 
BRANCH  18  19
HETATM   19  C11 UNL     1     178.266  19.107  90.082  1.00  0.00     0.029 C 
BRANCH  19  20
HETATM   20  C12 UNL     1     177.426  19.629  91.203  1.00  0.00     0.229 C 
BRANCH  20  21
HETATM   21  N6  UNL     1     176.191  18.858  91.215  1.00  0.00    -0.079 N 
ATOM     22  H63 UNL     1     176.124  18.200  90.438  1.00  0.00     0.274 HD
ATOM     23  H62 UNL     1     176.155  18.174  91.971  1.00  0.00     0.274 HD
ATOM     24  H61 UNL     1     175.418  19.523  91.243  1.00  0.00     0.274 HD
ENDBRANCH  20  21
ENDBRANCH  19  20
ENDBRANCH  18  19
ENDBRANCH  17  18
ENDBRANCH  16  17
ENDBRANCH  11  12
ENDBRANCH   9  11
TORSDOF 7
ENDMDL
MODEL 2
REMARK VINA RESULT: -5.611998489      3.331      4.961
REMARK  7 active torsions:
REMARK  status: ('A' for Active; 'I' for Inactive)
REMARK       I    between atoms: C2_4  and  N2_5 
REMARK       I    between atoms: C2_4  and  N4_9 
REMARK    1  A    between atoms: N4_9  and  C4_11 
REMARK    2  A    between atoms: C4_11  and  C5_12 
REMARK    3  A    between atoms: N5_16  and  C9_17 
REMARK    4  A    between atoms: C9_17  and  C10_18 
REMARK    5  A    between atoms: C10_18  and  C11_19 
REMARK    6  A    between atoms: C11_19  and  C12_20 
REMARK    7  A    between atoms: C12_20  and  N6_21 
ROOT
HETATM    1  C1  UNL     1     174.181  14.404  85.421  1.00  0.00     0.165 C 
HETATM    2  N1  UNL     1     174.618  13.137  84.849  1.00  0.00    -0.230 N 
ATOM      3  H1  UNL     1     173.921  12.428  84.621  1.00  0.00     0.177 HD
HETATM    4  C2  UNL     1     175.858  12.893  84.624  1.00  0.00     0.682 C 
HETATM    5  N2  UNL     1     176.273  11.670  84.073  1.00  0.00    -0.126 N 
ATOM      6  H2  UNL     1     175.575  10.933  83.980  1.00  0.00     0.197 HD
HETATM    7  C3  UNL     1     177.567  11.389  83.646  1.00  0.00     0.196 C 
HETATM    8  N3  UNL     1     178.622  11.149  83.295  1.00  0.00    -0.171 NA
HETATM    9  N4  UNL     1     176.784  13.912  84.949  1.00  0.00    -0.224 N 
ATOM     10  H4  UNL     1     177.105  14.061  85.906  1.00  0.00     0.177 HD
ENDROOT
BRANCH   9  11
HETATM   11  C4  UNL     1     177.246  14.722  83.864  1.00  0.00     0.173 C 
BRANCH  11  12
HETATM   12  C5  UNL     1     177.340  16.181  84.091  1.00  0.00     0.241 C 
HETATM   13  C6  UNL     1     177.697  16.673  85.432  1.00  0.00     0.039 C 
HETATM   14  C7  UNL     1     179.196  16.956  85.369  1.00  0.00     0.032 C 
HETATM   15  C8  UNL     1     179.623  16.487  84.007  1.00  0.00     0.273 C 
HETATM   16  N5  UNL     1     178.434  16.650  83.216  1.00  0.00     0.094 N 
BRANCH  16  17
HETATM   17  C9  UNL     1     178.148  18.035  82.907  1.00  0.00     0.273 C 
BRANCH  17  18
HETATM   18  C10 UNL     1     176.841  18.182  82.184  1.00  0.00     0.032 C 
BRANCH  18  19
HETATM   19  C11 UNL     1     176.427  19.627  82.168  1.00  0.00     0.029 C 
BRANCH  19  20
HETATM   20  C12 UNL     1     177.531  20.601  82.426  1.00  0.00     0.229 C 
BRANCH  20  21
HETATM   21  N6  UNL     1     177.827  21.264  81.164  1.00  0.00    -0.079 N 
ATOM     22  H63 UNL     1     177.888  20.616  80.378  1.00  0.00     0.274 HD
ATOM     23  H62 UNL     1     177.049  21.823  80.814  1.00  0.00     0.274 HD
ATOM     24  H61 UNL     1     178.680  21.807  81.300  1.00  0.00     0.274 HD
ENDBRANCH  20  21
ENDBRANCH  19  20
ENDBRANCH  18  19
ENDBRANCH  17  18
ENDBRANCH  16  17
ENDBRANCH  11  12
ENDBRANCH   9  11
TORSDOF 7
ENDMDL
MODEL 3
REMARK VINA RESULT: -5.579454547      2.390      3.806
REMARK  7 active torsions:
REMARK  status: ('A' for Active; 'I' for Inactive)
REMARK       I    between atoms: C2_4  and  N2_5 
REMARK       I    between atoms: C2_4  and  N4_9 
REMARK    1  A    between atoms: N4_9  and  C4_11 
REMARK    2  A    between atoms: C4_11  and  C5_12 
REMARK    3  A    between atoms: N5_16  and  C9_17 
REMARK    4  A    between atoms: C9_17  and  C10_18 
REMARK    5  A    between atoms: C10_18  and  C11_19 
REMARK    6  A    between atoms: C11_19  and  C12_20 
REMARK    7  A    between atoms: C12_20  and  N6_21 
ROOT
HETATM    1  C1  UNL     1     178.625  16.061  84.438  1.00  0.00     0.165 C 
HETATM    2  N1  UNL     1     177.955  14.772  84.544  1.00  0.00    -0.230 N 
ATOM      3  H1  UNL     1     178.518  13.922  84.593  1.00  0.00     0.177 HD
HETATM    4  C2  UNL     1     176.675  14.679  84.576  1.00  0.00     0.682 C 
HETATM    5  N2  UNL     1     176.036  13.433  84.677  1.00  0.00    -0.126 N 
ATOM      6  H2  UNL     1     176.614  12.598  84.590  1.00  0.00     0.197 HD
HETATM    7  C3  UNL     1     174.672  13.254  84.885  1.00  0.00     0.196 C 
HETATM    8  N3  UNL     1     173.558  13.097  85.053  1.00  0.00    -0.171 NA
HETATM    9  N4  UNL     1     175.941  15.886  84.513  1.00  0.00    -0.224 N 
ATOM     10  H4  UNL     1     175.769  16.365  83.629  1.00  0.00     0.177 HD
ENDROOT
BRANCH   9  11
HETATM   11  C4  UNL     1     175.452  16.399  85.756  1.00  0.00     0.173 C 
BRANCH  11  12
HETATM   12  C5  UNL     1     175.759  17.809  86.083  1.00  0.00     0.241 C 
HETATM   13  C6  UNL     1     176.082  18.741  84.990  1.00  0.00     0.039 C 
HETATM   14  C7  UNL     1     174.778  19.477  84.692  1.00  0.00     0.032 C 
HETATM   15  C8  UNL     1     173.752  18.820  85.572  1.00  0.00     0.273 C 
HETATM   16  N5  UNL     1     174.526  18.355  86.689  1.00  0.00     0.094 N 
BRANCH  16  17
HETATM   17  C9  UNL     1     174.942  19.424  87.571  1.00  0.00     0.273 C 
BRANCH  17  18
HETATM   18  C10 UNL     1     174.089  19.488  88.804  1.00  0.00     0.032 C 
BRANCH  18  19
HETATM   19  C11 UNL     1     174.800  20.263  89.877  1.00  0.00     0.029 C 
BRANCH  19  20
HETATM   20  C12 UNL     1     176.228  19.876  90.092  1.00  0.00     0.229 C 
BRANCH  20  21
HETATM   21  N6  UNL     1     176.259  18.932  91.199  1.00  0.00    -0.079 N 
ATOM     22  H63 UNL     1     176.577  19.351  92.073  1.00  0.00     0.274 HD
ATOM     23  H62 UNL     1     175.329  18.657  91.515  1.00  0.00     0.274 HD
ATOM     24  H61 UNL     1     176.831  18.139  90.906  1.00  0.00     0.274 HD
ENDBRANCH  20  21
ENDBRANCH  19  20
ENDBRANCH  18  19
ENDBRANCH  17  18
ENDBRANCH  16  17
ENDBRANCH  11  12
ENDBRANCH   9  11
TORSDOF 7
ENDMDL
MODEL 4
REMARK VINA RESULT: -5.555484944      3.706      5.876
REMARK  7 active torsions:
REMARK  status: ('A' for Active; 'I' for Inactive)
REMARK       I    between atoms: C2_4  and  N2_5 
REMARK       I    between atoms: C2_4  and  N4_9 
REMARK    1  A    between atoms: N4_9  and  C4_11 
REMARK    2  A    between atoms: C4_11  and  C5_12 
REMARK    3  A    between atoms: N5_16  and  C9_17 
REMARK    4  A    between atoms: C9_17  and  C10_18 
REMARK    5  A    between atoms: C10_18  and  C11_19 
REMARK    6  A    between atoms: C11_19  and  C12_20 
REMARK    7  A    between atoms: C12_20  and  N6_21 
ROOT
HETATM    1  C1  UNL     1     170.163  16.093  82.937  1.00  0.00     0.165 C 
HETATM    2  N1  UNL     1     171.287  15.184  82.754  1.00  0.00    -0.230 N 
ATOM      3  H1  UNL     1     171.555  14.907  81.810  1.00  0.00     0.177 HD
HETATM    4  C2  UNL     1     171.948  14.722  83.753  1.00  0.00     0.682 C 
HETATM    5  N2  UNL     1     173.029  13.845  83.572  1.00  0.00    -0.126 N 
ATOM      6  H2  UNL     1     173.190  13.483  82.632  1.00  0.00     0.197 HD
HETATM    7  C3  UNL     1     173.897  13.434  84.578  1.00  0.00     0.196 C 
HETATM    8  N3  UNL     1     174.611  13.091  85.394  1.00  0.00    -0.171 NA
HETATM    9  N4  UNL     1     171.543  15.143  85.042  1.00  0.00    -0.224 N 
ATOM     10  H4  UNL     1     170.747  14.719  85.520  1.00  0.00     0.177 HD
ENDROOT
BRANCH   9  11
HETATM   11  C4  UNL     1     172.309  16.193  85.639  1.00  0.00     0.173 C 
BRANCH  11  12
HETATM   12  C5  UNL     1     173.029  17.115  84.733  1.00  0.00     0.241 C 
HETATM   13  C6  UNL     1     172.664  18.542  84.729  1.00  0.00     0.039 C 
HETATM   14  C7  UNL     1     173.687  19.220  85.637  1.00  0.00     0.032 C 
HETATM   15  C8  UNL     1     174.511  18.096  86.200  1.00  0.00     0.273 C 
HETATM   16  N5  UNL     1     174.438  17.090  85.177  1.00  0.00     0.094 N 
BRANCH  16  17
HETATM   17  C9  UNL     1     175.240  17.409  84.015  1.00  0.00     0.273 C 
BRANCH  17  18
HETATM   18  C10 UNL     1     176.052  16.231  83.563  1.00  0.00     0.032 C 
BRANCH  18  19
HETATM   19  C11 UNL     1     176.962  15.782  84.672  1.00  0.00     0.029 C 
BRANCH  19  20
HETATM   20  C12 UNL     1     178.041  14.834  84.256  1.00  0.00     0.229 C 
BRANCH  20  21
HETATM   21  N6  UNL     1     177.396  13.591  83.861  1.00  0.00    -0.079 N 
ATOM     22  H63 UNL     1     176.577  13.736  83.270  1.00  0.00     0.274 HD
ATOM     23  H62 UNL     1     177.946  13.050  83.193  1.00  0.00     0.274 HD
ATOM     24  H61 UNL     1     177.184  13.074  84.715  1.00  0.00     0.274 HD
ENDBRANCH  20  21
ENDBRANCH  19  20
ENDBRANCH  18  19
ENDBRANCH  17  18
ENDBRANCH  16  17
ENDBRANCH  11  12
ENDBRANCH   9  11
TORSDOF 7
ENDMDL
MODEL 5
REMARK VINA RESULT: -5.552565652      4.312      6.224
REMARK  7 active torsions:
REMARK  status: ('A' for Active; 'I' for Inactive)
REMARK       I    between atoms: C2_4  and  N2_5 
REMARK       I    between atoms: C2_4  and  N4_9 
REMARK    1  A    between atoms: N4_9  and  C4_11 
REMARK    2  A    between atoms: C4_11  and  C5_12 
REMARK    3  A    between atoms: N5_16  and  C9_17 
REMARK    4  A    between atoms: C9_17  and  C10_18 
REMARK    5  A    between atoms: C10_18  and  C11_19 
REMARK    6  A    between atoms: C11_19  and  C12_20 
REMARK    7  A    between atoms: C12_20  and  N6_21 
ROOT
HETATM    1  C1  UNL     1     170.069  16.305  83.088  1.00  0.00     0.165 C 
HETATM    2  N1  UNL     1     170.902  15.111  83.026  1.00  0.00    -0.230 N 
ATOM      3  H1  UNL     1     170.786  14.464  82.246  1.00  0.00     0.177 HD
HETATM    4  C2  UNL     1     171.778  14.854  83.928  1.00  0.00     0.682 C 
HETATM    5  N2  UNL     1     172.576  13.701  83.864  1.00  0.00    -0.126 N 
ATOM      6  H2  UNL     1     172.349  13.009  83.151  1.00  0.00     0.197 HD
HETATM    7  C3  UNL     1     173.654  13.433  84.701  1.00  0.00     0.196 C 
HETATM    8  N3  UNL     1     174.536  13.204  85.382  1.00  0.00    -0.171 NA
HETATM    9  N4  UNL     1     171.906  15.787  84.985  1.00  0.00    -0.224 N 
ATOM     10  H4  UNL     1     171.261  15.795  85.775  1.00  0.00     0.177 HD
ENDROOT
BRANCH   9  11
HETATM   11  C4  UNL     1     172.989  16.717  84.885  1.00  0.00     0.173 C 
BRANCH  11  12
HETATM   12  C5  UNL     1     172.668  18.156  85.003  1.00  0.00     0.241 C 
HETATM   13  C6  UNL     1     171.756  18.598  86.072  1.00  0.00     0.039 C 
HETATM   14  C7  UNL     1     172.665  19.082  87.199  1.00  0.00     0.032 C 
HETATM   15  C8  UNL     1     174.059  18.769  86.735  1.00  0.00     0.273 C 
HETATM   16  N5  UNL     1     173.950  18.826  85.304  1.00  0.00     0.094 N 
BRANCH  16  17
HETATM   17  C9  UNL     1     173.834  20.178  84.801  1.00  0.00     0.273 C 
BRANCH  17  18
HETATM   18  C10 UNL     1     174.451  20.318  83.440  1.00  0.00     0.032 C 
BRANCH  18  19
HETATM   19  C11 UNL     1     175.657  19.428  83.333  1.00  0.00     0.029 C 
BRANCH  19  20
HETATM   20  C12 UNL     1     176.479  19.626  82.100  1.00  0.00     0.229 C 
BRANCH  20  21
HETATM   21  N6  UNL     1     176.816  18.307  81.587  1.00  0.00    -0.079 N 
ATOM     22  H63 UNL     1     177.548  17.844  82.127  1.00  0.00     0.274 HD
ATOM     23  H62 UNL     1     176.081  17.617  81.743  1.00  0.00     0.274 HD
ATOM     24  H61 UNL     1     177.057  18.417  80.602  1.00  0.00     0.274 HD
ENDBRANCH  20  21
ENDBRANCH  19  20
ENDBRANCH  18  19
ENDBRANCH  17  18
ENDBRANCH  16  17
ENDBRANCH  11  12
ENDBRANCH   9  11
TORSDOF 7
ENDMDL
