MODEL 1
REMARK VINA RESULT: -7.824749688      0.000      0.000
REMARK  5 active torsions:
REMARK  status: ('A' for Active; 'I' for Inactive)
REMARK    1  A    between atoms: N1_1  and  C1_5 
REMARK    2  A    between atoms: C8_12  and  N2_13 
REMARK       I    between atoms: N2_13  and  C9_15 
REMARK    3  A    between atoms: C9_15  and  C10_17 
REMARK    4  A    between atoms: C10_17  and  N3_18 
REMARK    5  A    between atoms: N3_18  and  C11_21 
ROOT
HETATM    1  N2  UNL     1       8.042  15.328  48.477  1.00  0.00    -0.350 N 
ATOM      2  H2  UNL     1       8.087  14.510  47.871  1.00  0.00     0.163 HD
HETATM    3  C9  UNL     1       7.533  16.516  47.916  1.00  0.00     0.244 C 
HETATM    4  O1  UNL     1       7.419  17.602  48.540  1.00  0.00    -0.272 OA
ENDROOT
BRANCH   1   5
HETATM    5  C8  UNL     1       8.501  15.170  49.819  1.00  0.00     0.036 C 
HETATM    6  C7  UNL     1       7.472  15.686  50.802  1.00  0.00     0.035 C 
HETATM    7  C5  UNL     1       7.999  15.627  52.218  1.00  0.00    -0.009 C 
HETATM    8  C4  UNL     1       8.207  14.171  52.572  1.00  0.00     0.009 C 
HETATM    9  C6  UNL     1       9.256  16.427  52.304  1.00  0.00     0.043 C 
HETATM   10  C3  UNL     1       9.186  13.590  51.609  1.00  0.00    -0.009 C 
HETATM   11  C2  UNL     1      10.509  14.321  51.783  1.00  0.00     0.043 C 
HETATM   12  C16 UNL     1       8.777  13.714  50.176  1.00  0.00     0.035 C 
HETATM   13  C1  UNL     1      10.295  15.774  51.427  1.00  0.00     0.126 C 
HETATM   14  C17 UNL     1       9.833  15.884  50.002  1.00  0.00     0.069 C 
BRANCH  13  15
HETATM   15  N1  UNL     1      11.568  16.449  51.565  1.00  0.00    -0.070 N 
ATOM     16  H13 UNL     1      12.301  15.844  51.934  1.00  0.00     0.275 HD
ATOM     17  H12 UNL     1      12.006  16.659  50.668  1.00  0.00     0.275 HD
ATOM     18  H11 UNL     1      11.415  17.281  52.135  1.00  0.00     0.275 HD
ENDBRANCH  13  15
ENDBRANCH   1   5
BRANCH   3  19
HETATM   19  C10 UNL     1       7.079  16.546  46.484  1.00  0.00     0.335 C 
BRANCH  19  20
HETATM   20  N3  UNL     1       6.994  17.889  45.972  1.00  0.00    -0.062 N 
ATOM     21  H32 UNL     1       6.031  18.201  45.844  1.00  0.00     0.278 HD
ATOM     22  H31 UNL     1       7.274  18.591  46.657  1.00  0.00     0.278 HD
BRANCH  20  23
HETATM   23  C11 UNL     1       7.772  17.957  44.750  1.00  0.00     0.192 C 
HETATM   24  C12 UNL     1       8.827  19.052  44.834  1.00  0.00     0.039 C 
HETATM   25  C13 UNL     1       7.982  20.282  44.634  1.00  0.00     0.081 C 
HETATM   26  C14 UNL     1       7.113  19.912  43.474  1.00  0.00     0.245 C 
HETATM   27  F1  UNL     1       7.770  20.217  42.296  1.00  0.00    -0.206 F 
HETATM   28  F2  UNL     1       5.898  20.607  43.507  1.00  0.00    -0.206 F 
HETATM   29  C15 UNL     1       6.879  18.428  43.620  1.00  0.00     0.112 C 
ENDBRANCH  20  23
ENDBRANCH  19  20
ENDBRANCH   3  19
TORSDOF 5
ENDMDL
MODEL 2
REMARK VINA RESULT: -7.572782537      1.102      1.994
REMARK  5 active torsions:
REMARK  status: ('A' for Active; 'I' for Inactive)
REMARK    1  A    between atoms: N1_1  and  C1_5 
REMARK    2  A    between atoms: C8_12  and  N2_13 
REMARK       I    between atoms: N2_13  and  C9_15 
REMARK    3  A    between atoms: C9_15  and  C10_17 
REMARK    4  A    between atoms: C10_17  and  N3_18 
REMARK    5  A    between atoms: N3_18  and  C11_21 
ROOT
HETATM    1  N2  UNL     1       7.863  15.313  48.421  1.00  0.00    -0.350 N 
ATOM      2  H2  UNL     1       7.806  14.427  47.919  1.00  0.00     0.163 HD
HETATM    3  C9  UNL     1       7.439  16.468  47.734  1.00  0.00     0.244 C 
HETATM    4  O1  UNL     1       7.452  17.627  48.222  1.00  0.00    -0.272 OA
ENDROOT
BRANCH   1   5
HETATM    5  C8  UNL     1       8.365  15.274  49.756  1.00  0.00     0.036 C 
HETATM    6  C7  UNL     1       9.064  13.959  50.027  1.00  0.00     0.035 C 
HETATM    7  C5  UNL     1       9.497  13.864  51.473  1.00  0.00    -0.009 C 
HETATM    8  C4  UNL     1      10.538  14.935  51.712  1.00  0.00     0.009 C 
HETATM    9  C6  UNL     1       8.301  14.014  52.352  1.00  0.00     0.043 C 
HETATM   10  C3  UNL     1       9.921  16.261  51.421  1.00  0.00    -0.009 C 
HETATM   11  C2  UNL     1       8.777  16.474  52.402  1.00  0.00     0.043 C 
HETATM   12  C16 UNL     1       9.369  16.385  50.036  1.00  0.00     0.035 C 
HETATM   13  C1  UNL     1       7.741  15.402  52.156  1.00  0.00     0.126 C 
HETATM   14  C17 UNL     1       7.232  15.501  50.746  1.00  0.00     0.069 C 
BRANCH  13  15
HETATM   15  N1  UNL     1       6.644  15.636  53.072  1.00  0.00    -0.070 N 
ATOM     16  H13 UNL     1       5.989  16.343  52.736  1.00  0.00     0.275 HD
ATOM     17  H12 UNL     1       5.988  14.856  53.114  1.00  0.00     0.275 HD
ATOM     18  H11 UNL     1       7.046  15.867  53.980  1.00  0.00     0.275 HD
ENDBRANCH  13  15
ENDBRANCH   1   5
BRANCH   3  19
HETATM   19  C10 UNL     1       6.927  16.369  46.325  1.00  0.00     0.335 C 
BRANCH  19  20
HETATM   20  N3  UNL     1       6.676  17.664  45.749  1.00  0.00    -0.062 N 
ATOM     21  H32 UNL     1       5.687  17.827  45.561  1.00  0.00     0.278 HD
ATOM     22  H31 UNL     1       6.816  18.425  46.413  1.00  0.00     0.278 HD
BRANCH  20  23
HETATM   23  C11 UNL     1       7.501  17.797  44.562  1.00  0.00     0.192 C 
HETATM   24  C12 UNL     1       8.642  18.778  44.797  1.00  0.00     0.039 C 
HETATM   25  C13 UNL     1       7.913  20.093  44.716  1.00  0.00     0.081 C 
HETATM   26  C14 UNL     1       7.058  19.932  43.500  1.00  0.00     0.245 C 
HETATM   27  F1  UNL     1       7.780  20.307  42.382  1.00  0.00    -0.206 F 
HETATM   28  F2  UNL     1       5.907  20.725  43.580  1.00  0.00    -0.206 F 
HETATM   29  C15 UNL     1       6.692  18.469  43.470  1.00  0.00     0.112 C 
ENDBRANCH  20  23
ENDBRANCH  19  20
ENDBRANCH   3  19
TORSDOF 5
ENDMDL
MODEL 3
REMARK VINA RESULT: -7.563770495      1.002      1.832
REMARK  5 active torsions:
REMARK  status: ('A' for Active; 'I' for Inactive)
REMARK    1  A    between atoms: N1_1  and  C1_5 
REMARK    2  A    between atoms: C8_12  and  N2_13 
REMARK       I    between atoms: N2_13  and  C9_15 
REMARK    3  A    between atoms: C9_15  and  C10_17 
REMARK    4  A    between atoms: C10_17  and  N3_18 
REMARK    5  A    between atoms: N3_18  and  C11_21 
ROOT
HETATM    1  N2  UNL     1       7.893  15.365  48.486  1.00  0.00    -0.350 N 
ATOM      2  H2  UNL     1       7.860  14.496  47.954  1.00  0.00     0.163 HD
HETATM    3  C9  UNL     1       7.490  16.540  47.821  1.00  0.00     0.244 C 
HETATM    4  O1  UNL     1       7.478  17.682  48.347  1.00  0.00    -0.272 OA
ENDROOT
BRANCH   1   5
HETATM    5  C8  UNL     1       8.343  15.285  49.838  1.00  0.00     0.036 C 
HETATM    6  C7  UNL     1       9.609  16.093  50.030  1.00  0.00     0.035 C 
HETATM    7  C5  UNL     1      10.155  15.920  51.430  1.00  0.00    -0.009 C 
HETATM    8  C4  UNL     1       9.146  16.506  52.393  1.00  0.00     0.009 C 
HETATM    9  C6  UNL     1      10.414  14.471  51.676  1.00  0.00     0.043 C 
HETATM   10  C3  UNL     1       7.857  15.775  52.224  1.00  0.00    -0.009 C 
HETATM   11  C2  UNL     1       8.089  14.318  52.597  1.00  0.00     0.043 C 
HETATM   12  C16 UNL     1       7.314  15.813  50.830  1.00  0.00     0.035 C 
HETATM   13  C1  UNL     1       9.095  13.739  51.630  1.00  0.00     0.126 C 
HETATM   14  C17 UNL     1       8.564  13.830  50.229  1.00  0.00     0.069 C 
BRANCH  13  15
HETATM   15  N1  UNL     1       9.281  12.345  51.975  1.00  0.00    -0.070 N 
ATOM     16  H13 UNL     1       9.976  12.206  52.709  1.00  0.00     0.275 HD
ATOM     17  H12 UNL     1       8.482  11.949  52.471  1.00  0.00     0.275 HD
ATOM     18  H11 UNL     1       9.503  11.842  51.116  1.00  0.00     0.275 HD
ENDBRANCH  13  15
ENDBRANCH   1   5
BRANCH   3  19
HETATM   19  C10 UNL     1       7.033  16.485  46.391  1.00  0.00     0.335 C 
BRANCH  19  20
HETATM   20  N3  UNL     1       6.815  17.798  45.842  1.00  0.00    -0.062 N 
ATOM     21  H32 UNL     1       5.829  17.999  45.682  1.00  0.00     0.278 HD
ATOM     22  H31 UNL     1       7.000  18.542  46.515  1.00  0.00     0.278 HD
BRANCH  20  23
HETATM   23  C11 UNL     1       7.615  17.921  44.637  1.00  0.00     0.192 C 
HETATM   24  C12 UNL     1       8.739  18.930  44.829  1.00  0.00     0.039 C 
HETATM   25  C13 UNL     1       7.982  20.228  44.733  1.00  0.00     0.081 C 
HETATM   26  C14 UNL     1       7.107  20.023  43.538  1.00  0.00     0.245 C 
HETATM   27  F1  UNL     1       7.800  20.387  42.398  1.00  0.00    -0.206 F 
HETATM   28  F2  UNL     1       5.942  20.794  43.623  1.00  0.00    -0.206 F 
HETATM   29  C15 UNL     1       6.771  18.552  43.547  1.00  0.00     0.112 C 
ENDBRANCH  20  23
ENDBRANCH  19  20
ENDBRANCH   3  19
TORSDOF 5
ENDMDL
MODEL 4
REMARK VINA RESULT: -7.480099263      2.961      3.676
REMARK  5 active torsions:
REMARK  status: ('A' for Active; 'I' for Inactive)
REMARK    1  A    between atoms: N1_1  and  C1_5 
REMARK    2  A    between atoms: C8_12  and  N2_13 
REMARK       I    between atoms: N2_13  and  C9_15 
REMARK    3  A    between atoms: C9_15  and  C10_17 
REMARK    4  A    between atoms: C10_17  and  N3_18 
REMARK    5  A    between atoms: N3_18  and  C11_21 
ROOT
HETATM    1  N2  UNL     1       8.642  16.634  49.973  1.00  0.00    -0.350 N 
ATOM      2  H2  UNL     1       9.586  16.614  49.588  1.00  0.00     0.163 HD
HETATM    3  C9  UNL     1       7.602  17.015  49.102  1.00  0.00     0.244 C 
HETATM    4  O1  UNL     1       6.391  17.086  49.434  1.00  0.00    -0.272 OA
ENDROOT
BRANCH   1   5
HETATM    5  C8  UNL     1       8.490  16.273  51.345  1.00  0.00     0.036 C 
HETATM    6  C7  UNL     1       8.023  14.839  51.474  1.00  0.00     0.035 C 
HETATM    7  C5  UNL     1       7.750  14.486  52.919  1.00  0.00    -0.009 C 
HETATM    8  C4  UNL     1       9.064  14.556  53.665  1.00  0.00     0.009 C 
HETATM    9  C6  UNL     1       6.725  15.423  53.465  1.00  0.00     0.043 C 
HETATM   10  C3  UNL     1       9.600  15.941  53.543  1.00  0.00    -0.009 C 
HETATM   11  C2  UNL     1       8.615  16.889  54.212  1.00  0.00     0.043 C 
HETATM   12  C16 UNL     1       9.790  16.397  52.130  1.00  0.00     0.035 C 
HETATM   13  C1  UNL     1       7.306  16.816  53.460  1.00  0.00     0.126 C 
HETATM   14  C17 UNL     1       7.519  17.224  52.030  1.00  0.00     0.069 C 
BRANCH  13  15
HETATM   15  N1  UNL     1       6.390  17.746  54.086  1.00  0.00    -0.070 N 
ATOM     16  H13 UNL     1       6.647  17.971  55.047  1.00  0.00     0.275 HD
ATOM     17  H12 UNL     1       6.460  18.689  53.704  1.00  0.00     0.275 HD
ATOM     18  H11 UNL     1       5.452  17.354  54.007  1.00  0.00     0.275 HD
ENDBRANCH  13  15
ENDBRANCH   1   5
BRANCH   3  19
HETATM   19  C10 UNL     1       7.899  17.369  47.673  1.00  0.00     0.335 C 
BRANCH  19  20
HETATM   20  N3  UNL     1       9.214  17.934  47.518  1.00  0.00    -0.062 N 
ATOM     21  H32 UNL     1       9.712  18.021  48.403  1.00  0.00     0.278 HD
ATOM     22  H31 UNL     1       9.864  17.297  47.057  1.00  0.00     0.278 HD
BRANCH  20  23
HETATM   23  C11 UNL     1       9.082  19.200  46.822  1.00  0.00     0.192 C 
HETATM   24  C12 UNL     1      10.095  19.310  45.690  1.00  0.00     0.039 C 
HETATM   25  C13 UNL     1      11.356  19.603  46.459  1.00  0.00     0.081 C 
HETATM   26  C14 UNL     1      10.925  20.656  47.429  1.00  0.00     0.245 C 
HETATM   27  F1  UNL     1      11.043  21.899  46.835  1.00  0.00    -0.206 F 
HETATM   28  F2  UNL     1      11.711  20.633  48.587  1.00  0.00    -0.206 F 
HETATM   29  C15 UNL     1       9.490  20.322  47.756  1.00  0.00     0.112 C 
ENDBRANCH  20  23
ENDBRANCH  19  20
ENDBRANCH   3  19
TORSDOF 5
ENDMDL
MODEL 5
REMARK VINA RESULT: -7.426587763      3.917      4.814
REMARK  5 active torsions:
REMARK  status: ('A' for Active; 'I' for Inactive)
REMARK    1  A    between atoms: N1_1  and  C1_5 
REMARK    2  A    between atoms: C8_12  and  N2_13 
REMARK       I    between atoms: N2_13  and  C9_15 
REMARK    3  A    between atoms: C9_15  and  C10_17 
REMARK    4  A    between atoms: C10_17  and  N3_18 
REMARK    5  A    between atoms: N3_18  and  C11_21 
ROOT
HETATM    1  N2  UNL     1      11.565  16.413  51.513  1.00  0.00    -0.350 N 
ATOM      2  H2  UNL     1      12.373  16.427  52.133  1.00  0.00     0.163 HD
HETATM    3  C9  UNL     1      11.626  17.222  50.361  1.00  0.00     0.244 C 
HETATM    4  O1  UNL     1      10.707  17.308  49.507  1.00  0.00    -0.272 OA
ENDROOT
BRANCH   1   5
HETATM    5  C8  UNL     1      10.470  15.578  51.888  1.00  0.00     0.036 C 
HETATM    6  C7  UNL     1      10.090  14.651  50.753  1.00  0.00     0.035 C 
HETATM    7  C5  UNL     1       8.859  13.844  51.101  1.00  0.00    -0.009 C 
HETATM    8  C4  UNL     1       9.215  12.943  52.262  1.00  0.00     0.009 C 
HETATM    9  C6  UNL     1       7.738  14.777  51.417  1.00  0.00     0.043 C 
HETATM   10  C3  UNL     1       9.639  13.797  53.408  1.00  0.00    -0.009 C 
HETATM   11  C2  UNL     1       8.456  14.662  53.815  1.00  0.00     0.043 C 
HETATM   12  C16 UNL     1      10.787  14.705  53.096  1.00  0.00     0.035 C 
HETATM   13  C1  UNL     1       8.107  15.562  52.651  1.00  0.00     0.126 C 
HETATM   14  C17 UNL     1       9.284  16.431  52.312  1.00  0.00     0.069 C 
BRANCH  13  15
HETATM   15  N1  UNL     1       7.002  16.402  53.064  1.00  0.00    -0.070 N 
ATOM     16  H13 UNL     1       7.298  17.203  53.621  1.00  0.00     0.275 HD
ATOM     17  H12 UNL     1       6.588  16.921  52.290  1.00  0.00     0.275 HD
ATOM     18  H11 UNL     1       6.329  15.808  53.549  1.00  0.00     0.275 HD
ENDBRANCH  13  15
ENDBRANCH   1   5
BRANCH   3  19
HETATM   19  C10 UNL     1      12.844  18.056  50.081  1.00  0.00     0.335 C 
BRANCH  19  20
HETATM   20  N3  UNL     1      12.625  19.449  50.373  1.00  0.00    -0.062 N 
ATOM     21  H32 UNL     1      11.644  19.664  50.550  1.00  0.00     0.278 HD
ATOM     22  H31 UNL     1      12.992  19.723  51.285  1.00  0.00     0.278 HD
BRANCH  20  23
HETATM   23  C11 UNL     1      13.183  20.230  49.286  1.00  0.00     0.192 C 
HETATM   24  C12 UNL     1      12.443  21.552  49.126  1.00  0.00     0.039 C 
HETATM   25  C13 UNL     1      11.177  21.093  48.451  1.00  0.00     0.081 C 
HETATM   26  C14 UNL     1      11.677  20.171  47.386  1.00  0.00     0.245 C 
HETATM   27  F1  UNL     1      11.973  20.902  46.251  1.00  0.00    -0.206 F 
HETATM   28  F2  UNL     1      10.718  19.203  47.061  1.00  0.00    -0.206 F 
HETATM   29  C15 UNL     1      12.906  19.522  47.975  1.00  0.00     0.112 C 
ENDBRANCH  20  23
ENDBRANCH  19  20
ENDBRANCH   3  19
TORSDOF 5
ENDMDL
