MODEL 1
REMARK VINA RESULT: -6.096254470      0.000      0.000
REMARK  6 active torsions:
REMARK  status: ('A' for Active; 'I' for Inactive)
REMARK    1  A    between atoms: C2_2  and  C3_3 
REMARK    2  A    between atoms: C3_3  and  C4_4 
REMARK    3  A    between atoms: C4_4  and  N1_5 
REMARK    4  A    between atoms: N1_5  and  C5_7 
REMARK    5  A    between atoms: C5_7  and  N2_9 
REMARK    6  A    between atoms: N2_9  and  C6_11 
ROOT
HETATM    1  C6  UNL     1      60.878   1.529  40.809  1.00  0.00     0.290 C 
HETATM    2  C7  UNL     1      61.180   0.991  42.177  1.00  0.00     0.090 C 
HETATM    3  C8  UNL     1      61.958   2.036  42.937  1.00  0.00     0.229 C 
HETATM    4  C9  UNL     1      61.104   3.294  42.972  1.00  0.00     0.040 C 
HETATM    5  C10 UNL     1      61.617   4.084  41.803  1.00  0.00     0.067 C 
HETATM    6  C11 UNL     1      62.600   3.177  41.112  1.00  0.00     0.422 C 
HETATM    7  N3  UNL     1      61.952   2.265  40.217  1.00  0.00    -0.022 N 
ATOM      8  H31 UNL     1      61.633   2.752  39.381  1.00  0.00     0.282 HD
ATOM      9  H32 UNL     1      62.633   1.630  39.800  1.00  0.00     0.282 HD
HETATM   10  N4  UNL     1      63.152   2.385  42.213  1.00  0.00     0.120 N 
HETATM   11  C12 UNL     1      64.062   3.146  43.013  1.00  0.00     0.313 C 
ENDROOT
BRANCH   1  12
HETATM   12  N2  UNL     1      60.452   0.486  39.922  1.00  0.00    -0.340 N 
ATOM     13  H2  UNL     1      61.070   0.160  39.179  1.00  0.00     0.164 HD
BRANCH  12  14
HETATM   14  C5  UNL     1      59.161  -0.096  40.083  1.00  0.00     0.169 C 
HETATM   15  S1  UNL     1      59.000  -1.542  40.841  1.00  0.00    -0.041 SA
BRANCH  14  16
HETATM   16  N1  UNL     1      57.987   0.534  39.605  1.00  0.00    -0.367 N 
ATOM     17  H1  UNL     1      57.936   1.550  39.521  1.00  0.00     0.161 HD
BRANCH  16  18
HETATM   18  C4  UNL     1      56.858  -0.299  39.238  1.00  0.00     0.122 C 
BRANCH  18  19
HETATM   19  C3  UNL     1      56.893  -0.716  37.802  1.00  0.00     0.019 C 
BRANCH  19  20
HETATM   20  C2  UNL     1      56.339  -2.127  37.714  1.00  0.00    -0.003 C 
HETATM   21  C1  UNL     1      57.470  -3.057  38.119  1.00  0.00     0.005 C 
ENDBRANCH  19  20
ENDBRANCH  18  19
ENDBRANCH  16  18
ENDBRANCH  14  16
ENDBRANCH  12  14
ENDBRANCH   1  12
TORSDOF 6
ENDMDL
MODEL 2
REMARK VINA RESULT: -6.059080873      6.021      8.273
REMARK  6 active torsions:
REMARK  status: ('A' for Active; 'I' for Inactive)
REMARK    1  A    between atoms: C2_2  and  C3_3 
REMARK    2  A    between atoms: C3_3  and  C4_4 
REMARK    3  A    between atoms: C4_4  and  N1_5 
REMARK    4  A    between atoms: N1_5  and  C5_7 
REMARK    5  A    between atoms: C5_7  and  N2_9 
REMARK    6  A    between atoms: N2_9  and  C6_11 
ROOT
HETATM    1  C6  UNL     1      58.824  -6.186  42.145  1.00  0.00     0.290 C 
HETATM    2  C7  UNL     1      59.350  -6.055  43.544  1.00  0.00     0.090 C 
HETATM    3  C8  UNL     1      60.127  -7.304  43.877  1.00  0.00     0.229 C 
HETATM    4  C9  UNL     1      61.232  -7.435  42.840  1.00  0.00     0.040 C 
HETATM    5  C10 UNL     1      60.629  -8.352  41.816  1.00  0.00     0.067 C 
HETATM    6  C11 UNL     1      59.203  -8.555  42.257  1.00  0.00     0.422 C 
HETATM    7  N3  UNL     1      58.349  -7.494  41.816  1.00  0.00    -0.022 N 
ATOM      8  H31 UNL     1      58.175  -7.569  40.814  1.00  0.00     0.282 HD
ATOM      9  H32 UNL     1      57.401  -7.628  42.167  1.00  0.00     0.282 HD
HETATM   10  N4  UNL     1      59.290  -8.463  43.715  1.00  0.00     0.120 N 
HETATM   11  C12 UNL     1      59.878  -9.635  44.289  1.00  0.00     0.313 C 
ENDROOT
BRANCH   1  12
HETATM   12  N2  UNL     1      57.804  -5.213  41.880  1.00  0.00    -0.340 N 
ATOM     13  H2  UNL     1      56.915  -5.254  42.378  1.00  0.00     0.164 HD
BRANCH  12  14
HETATM   14  C5  UNL     1      58.037  -4.186  40.919  1.00  0.00     0.169 C 
HETATM   15  S1  UNL     1      58.611  -4.569  39.431  1.00  0.00    -0.041 SA
BRANCH  14  16
HETATM   16  N1  UNL     1      57.787  -2.822  41.201  1.00  0.00    -0.367 N 
ATOM     17  H1  UNL     1      57.188  -2.550  41.980  1.00  0.00     0.161 HD
BRANCH  16  18
HETATM   18  C4  UNL     1      58.405  -1.820  40.354  1.00  0.00     0.122 C 
BRANCH  18  19
HETATM   19  C3  UNL     1      57.405  -0.917  39.704  1.00  0.00     0.019 C 
BRANCH  19  20
HETATM   20  C2  UNL     1      57.589  -1.024  38.201  1.00  0.00    -0.003 C 
HETATM   21  C1  UNL     1      56.482  -1.937  37.698  1.00  0.00     0.005 C 
ENDBRANCH  19  20
ENDBRANCH  18  19
ENDBRANCH  16  18
ENDBRANCH  14  16
ENDBRANCH  12  14
ENDBRANCH   1  12
TORSDOF 6
ENDMDL
MODEL 3
REMARK VINA RESULT: -5.962467228      4.263      6.110
REMARK  6 active torsions:
REMARK  status: ('A' for Active; 'I' for Inactive)
REMARK    1  A    between atoms: C2_2  and  C3_3 
REMARK    2  A    between atoms: C3_3  and  C4_4 
REMARK    3  A    between atoms: C4_4  and  N1_5 
REMARK    4  A    between atoms: N1_5  and  C5_7 
REMARK    5  A    between atoms: C5_7  and  N2_9 
REMARK    6  A    between atoms: N2_9  and  C6_11 
ROOT
HETATM    1  C6  UNL     1      61.902   3.898  40.902  1.00  0.00     0.290 C 
HETATM    2  C7  UNL     1      61.275   4.089  42.252  1.00  0.00     0.090 C 
HETATM    3  C8  UNL     1      61.531   2.851  43.074  1.00  0.00     0.229 C 
HETATM    4  C9  UNL     1      63.038   2.663  43.144  1.00  0.00     0.040 C 
HETATM    5  C10 UNL     1      63.313   1.704  42.022  1.00  0.00     0.067 C 
HETATM    6  C11 UNL     1      61.995   1.533  41.315  1.00  0.00     0.422 C 
HETATM    7  N3  UNL     1      61.755   2.580  40.367  1.00  0.00    -0.022 N 
ATOM      8  H31 UNL     1      62.346   2.460  39.546  1.00  0.00     0.282 HD
ATOM      9  H32 UNL     1      60.836   2.470  39.938  1.00  0.00     0.282 HD
HETATM   10  N4  UNL     1      61.017   1.692  42.393  1.00  0.00     0.120 N 
HETATM   11  C12 UNL     1      60.972   0.544  43.246  1.00  0.00     0.313 C 
ENDROOT
BRANCH   1  12
HETATM   12  N2  UNL     1      61.417   4.866  39.962  1.00  0.00    -0.340 N 
ATOM     13  H2  UNL     1      60.418   4.935  39.768  1.00  0.00     0.164 HD
BRANCH  12  14
HETATM   14  C5  UNL     1      62.334   5.732  39.299  1.00  0.00     0.169 C 
HETATM   15  S1  UNL     1      63.875   5.241  39.024  1.00  0.00    -0.041 SA
BRANCH  14  16
HETATM   16  N1  UNL     1      61.964   7.026  38.860  1.00  0.00    -0.367 N 
ATOM     17  H1  UNL     1      62.235   7.855  39.389  1.00  0.00     0.161 HD
BRANCH  16  18
HETATM   18  C4  UNL     1      61.190   7.143  37.639  1.00  0.00     0.122 C 
BRANCH  18  19
HETATM   19  C3  UNL     1      59.740   7.401  37.898  1.00  0.00     0.019 C 
BRANCH  19  20
HETATM   20  C2  UNL     1      58.980   7.119  36.614  1.00  0.00    -0.003 C 
HETATM   21  C1  UNL     1      58.978   8.417  35.824  1.00  0.00     0.005 C 
ENDBRANCH  19  20
ENDBRANCH  18  19
ENDBRANCH  16  18
ENDBRANCH  14  16
ENDBRANCH  12  14
ENDBRANCH   1  12
TORSDOF 6
ENDMDL
MODEL 4
REMARK VINA RESULT: -5.957865450      4.515      6.974
REMARK  6 active torsions:
REMARK  status: ('A' for Active; 'I' for Inactive)
REMARK    1  A    between atoms: C2_2  and  C3_3 
REMARK    2  A    between atoms: C3_3  and  C4_4 
REMARK    3  A    between atoms: C4_4  and  N1_5 
REMARK    4  A    between atoms: N1_5  and  C5_7 
REMARK    5  A    between atoms: C5_7  and  N2_9 
REMARK    6  A    between atoms: N2_9  and  C6_11 
ROOT
HETATM    1  C6  UNL     1      58.847  -3.418  38.802  1.00  0.00     0.290 C 
HETATM    2  C7  UNL     1      57.401  -3.411  38.398  1.00  0.00     0.090 C 
HETATM    3  C8  UNL     1      56.957  -1.978  38.249  1.00  0.00     0.229 C 
HETATM    4  C9  UNL     1      57.863  -1.332  37.212  1.00  0.00     0.040 C 
HETATM    5  C10 UNL     1      58.927  -0.682  38.049  1.00  0.00     0.067 C 
HETATM    6  C11 UNL     1      58.641  -1.117  39.462  1.00  0.00     0.422 C 
HETATM    7  N3  UNL     1      59.197  -2.406  39.749  1.00  0.00    -0.022 N 
ATOM      8  H31 UNL     1      60.210  -2.343  39.847  1.00  0.00     0.282 HD
ATOM      9  H32 UNL     1      58.949  -2.699  40.694  1.00  0.00     0.282 HD
HETATM   10  N4  UNL     1      57.185  -1.261  39.477  1.00  0.00     0.120 N 
HETATM   11  C12 UNL     1      56.523   0.008  39.488  1.00  0.00     0.313 C 
ENDROOT
BRANCH   1  12
HETATM   12  N2  UNL     1      59.244  -4.706  39.292  1.00  0.00    -0.340 N 
ATOM     13  H2  UNL     1      60.135  -5.111  39.004  1.00  0.00     0.164 HD
BRANCH  12  14
HETATM   14  C5  UNL     1      58.389  -5.420  40.181  1.00  0.00     0.169 C 
HETATM   15  S1  UNL     1      58.141  -4.864  41.704  1.00  0.00    -0.041 SA
BRANCH  14  16
HETATM   16  N1  UNL     1      57.732  -6.613  39.797  1.00  0.00    -0.367 N 
ATOM     17  H1  UNL     1      57.301  -6.699  38.876  1.00  0.00     0.161 HD
BRANCH  16  18
HETATM   18  C4  UNL     1      57.686  -7.710  40.745  1.00  0.00     0.122 C 
BRANCH  18  19
HETATM   19  C3  UNL     1      58.939  -8.526  40.743  1.00  0.00     0.019 C 
BRANCH  19  20
HETATM   20  C2  UNL     1      59.478  -8.556  42.162  1.00  0.00    -0.003 C 
HETATM   21  C1  UNL     1      60.697  -7.649  42.177  1.00  0.00     0.005 C 
ENDBRANCH  19  20
ENDBRANCH  18  19
ENDBRANCH  16  18
ENDBRANCH  14  16
ENDBRANCH  12  14
ENDBRANCH   1  12
TORSDOF 6
ENDMDL
MODEL 5
REMARK VINA RESULT: -5.825266469      1.832      2.589
REMARK  6 active torsions:
REMARK  status: ('A' for Active; 'I' for Inactive)
REMARK    1  A    between atoms: C2_2  and  C3_3 
REMARK    2  A    between atoms: C3_3  and  C4_4 
REMARK    3  A    between atoms: C4_4  and  N1_5 
REMARK    4  A    between atoms: N1_5  and  C5_7 
REMARK    5  A    between atoms: C5_7  and  N2_9 
REMARK    6  A    between atoms: N2_9  and  C6_11 
ROOT
HETATM    1  C6  UNL     1      62.464   1.741  39.942  1.00  0.00     0.290 C 
HETATM    2  C7  UNL     1      63.611   1.818  38.977  1.00  0.00     0.090 C 
HETATM    3  C8  UNL     1      64.478   2.989  39.363  1.00  0.00     0.229 C 
HETATM    4  C9  UNL     1      64.927   2.763  40.798  1.00  0.00     0.040 C 
HETATM    5  C10 UNL     1      63.916   3.534  41.595  1.00  0.00     0.067 C 
HETATM    6  C11 UNL     1      62.900   4.012  40.592  1.00  0.00     0.422 C 
HETATM    7  N3  UNL     1      61.917   3.010  40.305  1.00  0.00    -0.022 N 
ATOM      8  H31 UNL     1      61.271   2.910  41.088  1.00  0.00     0.282 HD
ATOM      9  H32 UNL     1      61.271   3.340  39.588  1.00  0.00     0.282 HD
HETATM   10  N4  UNL     1      63.695   4.198  39.377  1.00  0.00     0.120 N 
HETATM   11  C12 UNL     1      64.516   5.368  39.451  1.00  0.00     0.313 C 
ENDROOT
BRANCH   1  12
HETATM   12  N2  UNL     1      61.426   0.883  39.448  1.00  0.00    -0.340 N 
ATOM     13  H2  UNL     1      61.448   0.558  38.481  1.00  0.00     0.164 HD
BRANCH  12  14
HETATM   14  C5  UNL     1      60.365   0.485  40.312  1.00  0.00     0.169 C 
HETATM   15  S1  UNL     1      60.700  -0.137  41.792  1.00  0.00    -0.041 SA
BRANCH  14  16
HETATM   16  N1  UNL     1      59.005   0.606  39.938  1.00  0.00    -0.367 N 
ATOM     17  H1  UNL     1      58.510   1.491  40.047  1.00  0.00     0.161 HD
BRANCH  16  18
HETATM   18  C4  UNL     1      58.334  -0.559  39.395  1.00  0.00     0.122 C 
BRANCH  18  19
HETATM   19  C3  UNL     1      56.868  -0.340  39.197  1.00  0.00     0.019 C 
BRANCH  19  20
HETATM   20  C2  UNL     1      56.512  -0.808  37.796  1.00  0.00    -0.003 C 
HETATM   21  C1  UNL     1      56.782  -2.303  37.764  1.00  0.00     0.005 C 
ENDBRANCH  19  20
ENDBRANCH  18  19
ENDBRANCH  16  18
ENDBRANCH  14  16
ENDBRANCH  12  14
ENDBRANCH   1  12
TORSDOF 6
ENDMDL
