MODEL 1
REMARK VINA RESULT: -4.668308298      0.000      0.000
REMARK  4 active torsions:
REMARK  status: ('A' for Active; 'I' for Inactive)
REMARK    1  A    between atoms: C2_2  and  C3_3 
REMARK    2  A    between atoms: C3_3  and  N1_4 
REMARK    3  A    between atoms: N1_4  and  C4_7 
REMARK    4  A    between atoms: C6_11  and  N4_12 
ROOT
HETATM    1  C4  UNL     1     115.366  31.557  27.471  1.00  0.00     0.325 C 
HETATM    2  N2  UNL     1     115.734  30.143  27.387  1.00  0.00    -0.113 NA
HETATM    3  N3  UNL     1     115.181  29.610  26.250  1.00  0.00    -0.144 NA
HETATM    4  C5  UNL     1     114.532  30.673  25.517  1.00  0.00     0.166 C 
HETATM    5  C6  UNL     1     115.332  31.876  25.975  1.00  0.00     0.246 C 
ENDROOT
BRANCH   1   6
HETATM    6  N1  UNL     1     116.387  32.317  28.148  1.00  0.00    -0.051 N 
ATOM      7  H12 UNL     1     117.293  32.253  27.682  1.00  0.00     0.279 HD
ATOM      8  H11 UNL     1     116.655  31.901  29.040  1.00  0.00     0.279 HD
BRANCH   6   9
HETATM    9  C3  UNL     1     115.940  33.676  28.289  1.00  0.00     0.261 C 
BRANCH   9  10
HETATM   10  C2  UNL     1     116.993  34.616  28.736  1.00  0.00    -0.010 C 
HETATM   11  C1  UNL     1     117.361  35.601  27.948  1.00  0.00     0.008 C 
ENDBRANCH   9  10
ENDBRANCH   6   9
ENDBRANCH   1   6
BRANCH   5  12
HETATM   12  N4  UNL     1     116.631  31.807  25.380  1.00  0.00    -0.070 N 
ATOM     13  H43 UNL     1     117.201  31.085  25.820  1.00  0.00     0.274 HD
ATOM     14  H42 UNL     1     116.585  31.423  24.437  1.00  0.00     0.274 HD
ATOM     15  H41 UNL     1     117.106  32.710  25.389  1.00  0.00     0.274 HD
ENDBRANCH   5  12
TORSDOF 4
ENDMDL
MODEL 2
REMARK VINA RESULT: -4.457827079      3.495      4.292
REMARK  4 active torsions:
REMARK  status: ('A' for Active; 'I' for Inactive)
REMARK    1  A    between atoms: C2_2  and  C3_3 
REMARK    2  A    between atoms: C3_3  and  N1_4 
REMARK    3  A    between atoms: N1_4  and  C4_7 
REMARK    4  A    between atoms: C6_11  and  N4_12 
ROOT
HETATM    1  C4  UNL     1     113.842  34.762  27.574  1.00  0.00     0.325 C 
HETATM    2  N2  UNL     1     114.261  34.737  26.172  1.00  0.00    -0.113 NA
HETATM    3  N3  UNL     1     113.282  35.321  25.408  1.00  0.00    -0.144 NA
HETATM    4  C5  UNL     1     112.257  35.828  26.291  1.00  0.00     0.166 C 
HETATM    5  C6  UNL     1     113.054  36.074  27.556  1.00  0.00     0.246 C 
ENDROOT
BRANCH   1   6
HETATM    6  N1  UNL     1     114.982  34.845  28.453  1.00  0.00    -0.051 N 
ATOM      7  H12 UNL     1     114.853  34.307  29.309  1.00  0.00     0.279 HD
ATOM      8  H11 UNL     1     115.080  35.768  28.877  1.00  0.00     0.279 HD
BRANCH   6   9
HETATM    9  C3  UNL     1     116.158  34.449  27.728  1.00  0.00     0.261 C 
BRANCH   9  10
HETATM   10  C2  UNL     1     117.335  35.316  27.965  1.00  0.00    -0.010 C 
HETATM   11  C1  UNL     1     117.184  36.456  28.600  1.00  0.00     0.008 C 
ENDBRANCH   9  10
ENDBRANCH   6   9
ENDBRANCH   1   6
BRANCH   5  12
HETATM   12  N4  UNL     1     113.901  37.207  27.342  1.00  0.00    -0.070 N 
ATOM     13  H43 UNL     1     114.395  37.137  26.453  1.00  0.00     0.274 HD
ATOM     14  H42 UNL     1     113.353  38.047  27.156  1.00  0.00     0.274 HD
ATOM     15  H41 UNL     1     114.550  37.352  28.115  1.00  0.00     0.274 HD
ENDBRANCH   5  12
TORSDOF 4
ENDMDL
MODEL 3
REMARK VINA RESULT: -4.431338408      0.939      1.043
REMARK  4 active torsions:
REMARK  status: ('A' for Active; 'I' for Inactive)
REMARK    1  A    between atoms: C2_2  and  C3_3 
REMARK    2  A    between atoms: C3_3  and  N1_4 
REMARK    3  A    between atoms: N1_4  and  C4_7 
REMARK    4  A    between atoms: C6_11  and  N4_12 
ROOT
HETATM    1  C4  UNL     1     115.507  32.293  26.750  1.00  0.00     0.325 C 
HETATM    2  N2  UNL     1     116.004  31.323  27.726  1.00  0.00    -0.113 NA
HETATM    3  N3  UNL     1     115.686  30.060  27.293  1.00  0.00    -0.144 NA
HETATM    4  C5  UNL     1     115.071  30.167  25.989  1.00  0.00     0.166 C 
HETATM    5  C6  UNL     1     115.682  31.457  25.482  1.00  0.00     0.246 C 
ENDROOT
BRANCH   1   6
HETATM    6  N1  UNL     1     116.339  33.471  26.723  1.00  0.00    -0.051 N 
ATOM      7  H12 UNL     1     116.196  34.028  25.881  1.00  0.00     0.279 HD
ATOM      8  H11 UNL     1     117.324  33.248  26.582  1.00  0.00     0.279 HD
BRANCH   6   9
HETATM    9  C3  UNL     1     116.115  34.228  27.924  1.00  0.00     0.261 C 
BRANCH   9  10
HETATM   10  C2  UNL     1     117.281  35.030  28.360  1.00  0.00    -0.010 C 
HETATM   11  C1  UNL     1     117.299  36.324  28.134  1.00  0.00     0.008 C 
ENDBRANCH   9  10
ENDBRANCH   6   9
ENDBRANCH   1   6
BRANCH   5  12
HETATM   12  N4  UNL     1     117.060  31.217  25.181  1.00  0.00    -0.070 N 
ATOM     13  H43 UNL     1     117.537  32.079  24.923  1.00  0.00     0.274 HD
ATOM     14  H42 UNL     1     117.586  30.986  26.023  1.00  0.00     0.274 HD
ATOM     15  H41 UNL     1     117.177  30.501  24.464  1.00  0.00     0.274 HD
ENDBRANCH   5  12
TORSDOF 4
ENDMDL
MODEL 4
REMARK VINA RESULT: -4.331640756      2.030      2.581
REMARK  4 active torsions:
REMARK  status: ('A' for Active; 'I' for Inactive)
REMARK    1  A    between atoms: C2_2  and  C3_3 
REMARK    2  A    between atoms: C3_3  and  N1_4 
REMARK    3  A    between atoms: N1_4  and  C4_7 
REMARK    4  A    between atoms: C6_11  and  N4_12 
ROOT
HETATM    1  C4  UNL     1     115.912  33.369  27.384  1.00  0.00     0.325 C 
HETATM    2  N2  UNL     1     115.753  32.857  26.022  1.00  0.00    -0.113 NA
HETATM    3  N3  UNL     1     114.489  32.339  25.890  1.00  0.00    -0.144 NA
HETATM    4  C5  UNL     1     113.764  32.590  27.115  1.00  0.00     0.166 C 
HETATM    5  C6  UNL     1     114.473  33.826  27.629  1.00  0.00     0.246 C 
ENDROOT
BRANCH   1   6
HETATM    6  N1  UNL     1     116.830  34.481  27.414  1.00  0.00    -0.051 N 
ATOM      7  H12 UNL     1     116.479  35.288  26.899  1.00  0.00     0.279 HD
ATOM      8  H11 UNL     1     117.667  34.309  26.857  1.00  0.00     0.279 HD
BRANCH   6   9
HETATM    9  C3  UNL     1     117.138  34.794  28.782  1.00  0.00     0.261 C 
BRANCH   9  10
HETATM   10  C2  UNL     1     117.021  36.233  29.114  1.00  0.00    -0.010 C 
HETATM   11  C1  UNL     1     117.089  37.127  28.155  1.00  0.00     0.008 C 
ENDBRANCH   9  10
ENDBRANCH   6   9
ENDBRANCH   1   6
BRANCH   5  12
HETATM   12  N4  UNL     1     114.111  34.932  26.796  1.00  0.00    -0.070 N 
ATOM     13  H43 UNL     1     113.775  34.615  25.887  1.00  0.00     0.274 HD
ATOM     14  H42 UNL     1     113.262  35.385  27.133  1.00  0.00     0.274 HD
ATOM     15  H41 UNL     1     114.874  35.602  26.695  1.00  0.00     0.274 HD
ENDBRANCH   5  12
TORSDOF 4
ENDMDL
MODEL 5
REMARK VINA RESULT: -4.330332995      1.130      1.216
REMARK  4 active torsions:
REMARK  status: ('A' for Active; 'I' for Inactive)
REMARK    1  A    between atoms: C2_2  and  C3_3 
REMARK    2  A    between atoms: C3_3  and  N1_4 
REMARK    3  A    between atoms: N1_4  and  C4_7 
REMARK    4  A    between atoms: C6_11  and  N4_12 
ROOT
HETATM    1  C4  UNL     1     115.331  32.468  26.834  1.00  0.00     0.325 C 
HETATM    2  N2  UNL     1     114.506  31.552  27.624  1.00  0.00    -0.113 NA
HETATM    3  N3  UNL     1     114.056  30.547  26.805  1.00  0.00    -0.144 NA
HETATM    4  C5  UNL     1     114.652  30.721  25.500  1.00  0.00     0.166 C 
HETATM    5  C6  UNL     1     115.929  31.455  25.856  1.00  0.00     0.246 C 
ENDROOT
BRANCH   1   6
HETATM    6  N1  UNL     1     116.353  33.077  27.650  1.00  0.00    -0.051 N 
ATOM      7  H12 UNL     1     117.294  32.857  27.323  1.00  0.00     0.279 HD
ATOM      8  H11 UNL     1     116.419  32.650  28.574  1.00  0.00     0.279 HD
BRANCH   6   9
HETATM    9  C3  UNL     1     116.113  34.492  27.717  1.00  0.00     0.261 C 
BRANCH   9  10
HETATM   10  C2  UNL     1     117.326  35.300  27.979  1.00  0.00    -0.010 C 
HETATM   11  C1  UNL     1     117.208  36.580  28.247  1.00  0.00     0.008 C 
ENDBRANCH   9  10
ENDBRANCH   6   9
ENDBRANCH   1   6
BRANCH   5  12
HETATM   12  N4  UNL     1     116.812  30.536  26.505  1.00  0.00    -0.070 N 
ATOM     13  H43 UNL     1     117.785  30.735  26.277  1.00  0.00     0.274 HD
ATOM     14  H42 UNL     1     116.844  30.702  27.510  1.00  0.00     0.274 HD
ATOM     15  H41 UNL     1     116.575  29.565  26.298  1.00  0.00     0.274 HD
ENDBRANCH   5  12
TORSDOF 4
ENDMDL
