MODEL 1
REMARK VINA RESULT: -6.999159685      0.000      0.000
REMARK  5 active torsions:
REMARK  status: ('A' for Active; 'I' for Inactive)
REMARK    1  A    between atoms: C2_2  and  C3_3 
REMARK    2  A    between atoms: C3_3  and  C4_4 
REMARK    3  A    between atoms: C4_4  and  C5_5 
REMARK    4  A    between atoms: C10_11  and  O1_12 
REMARK    5  A    between atoms: C11_14  and  O2_15 
ROOT
HETATM    1  C5  UNL     1      10.640  -0.277  33.362  1.00  0.00     0.149 C 
HETATM    2  C6  UNL     1       9.540   0.503  33.965  1.00  0.00     0.098 C 
HETATM    3  N1  UNL     1       8.676   1.107  34.451  1.00  0.00    -0.194 NA
HETATM    4  C7  UNL     1      11.982   0.319  33.741  1.00  0.00     0.061 C 
HETATM    5  C8  UNL     1      12.763  -0.958  34.022  1.00  0.00     0.021 C 
HETATM    6  C9  UNL     1      13.930  -0.722  34.928  1.00  0.00     0.041 C 
HETATM    7  C10 UNL     1      13.890  -1.712  36.098  1.00  0.00     0.147 C 
HETATM    8  C11 UNL     1      12.654  -1.311  36.912  1.00  0.00     0.149 C 
HETATM    9  C12 UNL     1      11.423  -1.357  36.067  1.00  0.00     0.066 C 
HETATM   10  C13 UNL     1      11.673  -1.789  34.652  1.00  0.00     0.130 C 
HETATM   11  O3  UNL     1      10.584  -1.545  33.857  1.00  0.00    -0.360 OA
ENDROOT
BRANCH   1  12
HETATM   12  C4  UNL     1      10.495  -0.173  31.880  1.00  0.00     0.053 C 
BRANCH  12  13
HETATM   13  C3  UNL     1      10.887   1.154  31.314  1.00  0.00     0.004 C 
BRANCH  13  14
HETATM   14  C2  UNL     1      10.441   1.163  29.847  1.00  0.00    -0.004 C 
HETATM   15  C1  UNL     1      11.019   2.377  29.133  1.00  0.00     0.005 C 
ENDBRANCH  13  14
ENDBRANCH  12  13
ENDBRANCH   1  12
BRANCH   7  16
HETATM   16  O1  UNL     1      15.033  -1.529  36.854  1.00  0.00    -0.393 OA
ATOM     17  H1  UNL     1      15.606  -2.273  36.709  1.00  0.00     0.210 HD
ENDBRANCH   7  16
BRANCH   8  18
HETATM   18  O2  UNL     1      12.558  -2.099  38.060  1.00  0.00    -0.393 OA
ATOM     19  H2  UNL     1      12.192  -1.592  38.776  1.00  0.00     0.210 HD
ENDBRANCH   8  18
TORSDOF 5
ENDMDL
MODEL 2
REMARK VINA RESULT: -6.778401730      2.878      3.474
REMARK  5 active torsions:
REMARK  status: ('A' for Active; 'I' for Inactive)
REMARK    1  A    between atoms: C2_2  and  C3_3 
REMARK    2  A    between atoms: C3_3  and  C4_4 
REMARK    3  A    between atoms: C4_4  and  C5_5 
REMARK    4  A    between atoms: C10_11  and  O1_12 
REMARK    5  A    between atoms: C11_14  and  O2_15 
ROOT
HETATM    1  C5  UNL     1      10.533   0.186  32.150  1.00  0.00     0.149 C 
HETATM    2  C6  UNL     1      11.888   0.764  32.266  1.00  0.00     0.098 C 
HETATM    3  N1  UNL     1      12.948   1.224  32.371  1.00  0.00    -0.194 NA
HETATM    4  C7  UNL     1      10.501  -1.213  32.735  1.00  0.00     0.061 C 
HETATM    5  C8  UNL     1       9.169  -1.155  33.470  1.00  0.00     0.021 C 
HETATM    6  C9  UNL     1       9.091  -2.154  34.581  1.00  0.00     0.041 C 
HETATM    7  C10 UNL     1       8.665  -1.459  35.879  1.00  0.00     0.147 C 
HETATM    8  C11 UNL     1       9.840  -0.540  36.238  1.00  0.00     0.149 C 
HETATM    9  C12 UNL     1      10.123   0.418  35.128  1.00  0.00     0.066 C 
HETATM   10  C13 UNL     1       9.205   0.275  33.951  1.00  0.00     0.130 C 
HETATM   11  O3  UNL     1       9.675   0.965  32.865  1.00  0.00    -0.360 OA
ENDROOT
BRANCH   1  12
HETATM   12  C4  UNL     1      10.222   0.080  30.693  1.00  0.00     0.053 C 
BRANCH  12  13
HETATM   13  C3  UNL     1      10.324   1.370  29.946  1.00  0.00     0.004 C 
BRANCH  13  14
HETATM   14  C2  UNL     1       9.469   1.221  28.681  1.00  0.00    -0.004 C 
HETATM   15  C1  UNL     1      10.078   2.027  27.541  1.00  0.00     0.005 C 
ENDBRANCH  13  14
ENDBRANCH  12  13
ENDBRANCH   1  12
BRANCH   7  16
HETATM   16  O1  UNL     1       8.507  -2.427  36.854  1.00  0.00    -0.393 OA
ATOM     17  H1  UNL     1       8.079  -2.027  37.601  1.00  0.00     0.210 HD
ENDBRANCH   7  16
BRANCH   8  18
HETATM   18  O2  UNL     1       9.600   0.093  37.459  1.00  0.00    -0.393 OA
ATOM     19  H2  UNL     1       9.853  -0.475  38.178  1.00  0.00     0.210 HD
ENDBRANCH   8  18
TORSDOF 5
ENDMDL
MODEL 3
REMARK VINA RESULT: -6.308659191      2.556      5.092
REMARK  5 active torsions:
REMARK  status: ('A' for Active; 'I' for Inactive)
REMARK    1  A    between atoms: C2_2  and  C3_3 
REMARK    2  A    between atoms: C3_3  and  C4_4 
REMARK    3  A    between atoms: C4_4  and  C5_5 
REMARK    4  A    between atoms: C10_11  and  O1_12 
REMARK    5  A    between atoms: C11_14  and  O2_15 
ROOT
HETATM    1  C5  UNL     1      11.939  -0.415  33.959  1.00  0.00     0.149 C 
HETATM    2  C6  UNL     1      11.822   0.354  32.703  1.00  0.00     0.098 C 
HETATM    3  N1  UNL     1      11.719   0.950  31.712  1.00  0.00    -0.194 NA
HETATM    4  C7  UNL     1      10.984   0.127  35.004  1.00  0.00     0.061 C 
HETATM    5  C8  UNL     1      10.474  -1.182  35.592  1.00  0.00     0.021 C 
HETATM    6  C9  UNL     1       9.141  -1.026  36.254  1.00  0.00     0.041 C 
HETATM    7  C10 UNL     1       8.166  -2.080  35.717  1.00  0.00     0.147 C 
HETATM    8  C11 UNL     1       7.940  -1.698  34.249  1.00  0.00     0.149 C 
HETATM    9  C12 UNL     1       9.234  -1.666  33.504  1.00  0.00     0.066 C 
HETATM   10  C13 UNL     1      10.427  -2.023  34.340  1.00  0.00     0.130 C 
HETATM   11  O3  UNL     1      11.597  -1.708  33.699  1.00  0.00    -0.360 OA
ENDROOT
BRANCH   1  12
HETATM   12  C4  UNL     1      13.330  -0.223  34.467  1.00  0.00     0.053 C 
BRANCH  12  13
HETATM   13  C3  UNL     1      13.963  -1.460  35.015  1.00  0.00     0.004 C 
BRANCH  13  14
HETATM   14  C2  UNL     1      15.233  -1.022  35.754  1.00  0.00    -0.004 C 
HETATM   15  C1  UNL     1      16.465  -1.572  35.046  1.00  0.00     0.005 C 
ENDBRANCH  13  14
ENDBRANCH  12  13
ENDBRANCH   1  12
BRANCH   7  16
HETATM   16  O1  UNL     1       6.982  -1.967  36.423  1.00  0.00    -0.393 OA
ATOM     17  H1  UNL     1       6.267  -1.935  35.797  1.00  0.00     0.210 HD
ENDBRANCH   7  16
BRANCH   8  18
HETATM   18  O2  UNL     1       6.996  -2.548  33.671  1.00  0.00    -0.393 OA
ATOM     19  H2  UNL     1       7.111  -3.434  33.995  1.00  0.00     0.210 HD
ENDBRANCH   8  18
TORSDOF 5
ENDMDL
MODEL 4
REMARK VINA RESULT: -6.165126499      2.673      3.873
REMARK  5 active torsions:
REMARK  status: ('A' for Active; 'I' for Inactive)
REMARK    1  A    between atoms: C2_2  and  C3_3 
REMARK    2  A    between atoms: C3_3  and  C4_4 
REMARK    3  A    between atoms: C4_4  and  C5_5 
REMARK    4  A    between atoms: C10_11  and  O1_12 
REMARK    5  A    between atoms: C11_14  and  O2_15 
ROOT
HETATM    1  C5  UNL     1      11.102   0.182  33.130  1.00  0.00     0.149 C 
HETATM    2  C6  UNL     1      12.459  -0.030  33.675  1.00  0.00     0.098 C 
HETATM    3  N1  UNL     1      13.519  -0.196  34.118  1.00  0.00    -0.194 NA
HETATM    4  C7  UNL     1      10.414  -1.148  32.888  1.00  0.00     0.061 C 
HETATM    5  C8  UNL     1       9.019  -0.813  33.398  1.00  0.00     0.021 C 
HETATM    6  C9  UNL     1       8.256  -2.035  33.806  1.00  0.00     0.041 C 
HETATM    7  C10 UNL     1       7.698  -1.852  35.221  1.00  0.00     0.147 C 
HETATM    8  C11 UNL     1       8.932  -1.819  36.131  1.00  0.00     0.149 C 
HETATM    9  C12 UNL     1       9.862  -0.724  35.725  1.00  0.00     0.066 C 
HETATM   10  C13 UNL     1       9.379   0.083  34.557  1.00  0.00     0.130 C 
HETATM   11  O3  UNL     1      10.377   0.875  34.051  1.00  0.00    -0.360 OA
ENDROOT
BRANCH   1  12
HETATM   12  C4  UNL     1      11.258   0.862  31.810  1.00  0.00     0.053 C 
BRANCH  12  13
HETATM   13  C3  UNL     1      10.285   0.415  30.768  1.00  0.00     0.004 C 
BRANCH  13  14
HETATM   14  C2  UNL     1      10.485   1.327  29.550  1.00  0.00    -0.004 C 
HETATM   15  C1  UNL     1       9.379   1.087  28.531  1.00  0.00     0.005 C 
ENDBRANCH  13  14
ENDBRANCH  12  13
ENDBRANCH   1  12
BRANCH   7  16
HETATM   16  O1  UNL     1       6.919  -2.955  35.521  1.00  0.00    -0.393 OA
ATOM     17  H1  UNL     1       7.362  -3.455  36.196  1.00  0.00     0.210 HD
ENDBRANCH   7  16
BRANCH   8  18
HETATM   18  O2  UNL     1       8.542  -1.737  37.468  1.00  0.00    -0.393 OA
ATOM     19  H2  UNL     1       8.937  -2.442  37.969  1.00  0.00     0.210 HD
ENDBRANCH   8  18
TORSDOF 5
ENDMDL
MODEL 5
REMARK VINA RESULT: -6.017934272      2.535      4.849
REMARK  5 active torsions:
REMARK  status: ('A' for Active; 'I' for Inactive)
REMARK    1  A    between atoms: C2_2  and  C3_3 
REMARK    2  A    between atoms: C3_3  and  C4_4 
REMARK    3  A    between atoms: C4_4  and  C5_5 
REMARK    4  A    between atoms: C10_11  and  O1_12 
REMARK    5  A    between atoms: C11_14  and  O2_15 
ROOT
HETATM    1  C5  UNL     1      10.944  -0.253  32.919  1.00  0.00     0.149 C 
HETATM    2  C6  UNL     1      10.495  -0.001  31.535  1.00  0.00     0.098 C 
HETATM    3  N1  UNL     1      10.132   0.185  30.448  1.00  0.00    -0.194 NA
HETATM    4  C7  UNL     1      10.080   0.510  33.905  1.00  0.00     0.061 C 
HETATM    5  C8  UNL     1       9.916  -0.553  34.982  1.00  0.00     0.021 C 
HETATM    6  C9  UNL     1       8.696  -0.328  35.819  1.00  0.00     0.041 C 
HETATM    7  C10 UNL     1       7.859  -1.611  35.875  1.00  0.00     0.147 C 
HETATM    8  C11 UNL     1       7.342  -1.808  34.444  1.00  0.00     0.149 C 
HETATM    9  C12 UNL     1       8.476  -1.892  33.477  1.00  0.00     0.066 C 
HETATM   10  C13 UNL     1       9.829  -1.784  34.114  1.00  0.00     0.130 C 
HETATM   11  O3  UNL     1      10.808  -1.583  33.176  1.00  0.00    -0.360 OA
ENDROOT
BRANCH   1  12
HETATM   12  C4  UNL     1      12.338   0.270  33.033  1.00  0.00     0.053 C 
BRANCH  12  13
HETATM   13  C3  UNL     1      12.846   0.371  34.435  1.00  0.00     0.004 C 
BRANCH  13  14
HETATM   14  C2  UNL     1      13.892  -0.737  34.611  1.00  0.00    -0.004 C 
HETATM   15  C1  UNL     1      13.413  -1.748  35.645  1.00  0.00     0.005 C 
ENDBRANCH  13  14
ENDBRANCH  12  13
ENDBRANCH   1  12
BRANCH   7  16
HETATM   16  O1  UNL     1       6.798  -1.394  36.735  1.00  0.00    -0.393 OA
ATOM     17  H1  UNL     1       7.146  -1.290  37.613  1.00  0.00     0.210 HD
ENDBRANCH   7  16
BRANCH   8  18
HETATM   18  O2  UNL     1       6.491  -2.912  34.388  1.00  0.00    -0.393 OA
ATOM     19  H2  UNL     1       5.863  -2.806  33.682  1.00  0.00     0.210 HD
ENDBRANCH   8  18
TORSDOF 5
ENDMDL
