MODEL 1
REMARK VINA RESULT: -5.690659794      0.000      0.000
REMARK  1 active torsions:
REMARK  status: ('A' for Active; 'I' for Inactive)
REMARK    1  A    between atoms: C2_2  and  C5_5 
ROOT
HETATM    1  C5  UNL     1      -5.932 -31.548 -18.224  1.00  0.00     0.115 C 
HETATM    2  C6  UNL     1      -5.329 -32.761 -18.817  1.00  0.00     0.098 C 
HETATM    3  C7  UNL     1      -5.100 -32.580 -20.272  1.00  0.00     0.110 C 
HETATM    4  N1  UNL     1      -4.256 -33.552 -20.896  1.00  0.00    -0.086 NA
HETATM    5  N2  UNL     1      -5.621 -31.614 -20.938  1.00  0.00    -0.280 N 
ATOM      6  H2  UNL     1      -5.443 -31.518 -21.938  1.00  0.00     0.189 HD
HETATM    7  N3  UNL     1      -6.430 -30.705 -20.278  1.00  0.00    -0.245 N 
ATOM      8  H3  UNL     1      -6.570 -29.760 -20.635  1.00  0.00     0.203 HD
HETATM    9  N4  UNL     1      -7.046 -31.140 -19.100  1.00  0.00    -0.119 NA
ENDROOT
BRANCH   1  10
HETATM   10  C2  UNL     1      -6.472 -31.705 -16.843  1.00  0.00    -0.032 C 
HETATM   11  C1  UNL     1      -7.980 -31.825 -16.815  1.00  0.00     0.016 C 
HETATM   12  C3  UNL     1      -6.140 -30.407 -16.087  1.00  0.00     0.016 C 
HETATM   13  C4  UNL     1      -5.873 -32.802 -16.043  1.00  0.00     0.016 C 
ENDBRANCH   1  10
TORSDOF 1
ENDMDL
MODEL 2
REMARK VINA RESULT: -5.664365496      1.252      1.858
REMARK  1 active torsions:
REMARK  status: ('A' for Active; 'I' for Inactive)
REMARK    1  A    between atoms: C2_2  and  C5_5 
ROOT
HETATM    1  C5  UNL     1      -6.250 -32.212 -18.323  1.00  0.00     0.115 C 
HETATM    2  C6  UNL     1      -6.319 -31.132 -19.331  1.00  0.00     0.098 C 
HETATM    3  C7  UNL     1      -5.608 -31.523 -20.574  1.00  0.00     0.110 C 
HETATM    4  N1  UNL     1      -5.856 -30.702 -21.719  1.00  0.00    -0.086 NA
HETATM    5  N2  UNL     1      -4.818 -32.534 -20.628  1.00  0.00    -0.280 N 
ATOM      6  H2  UNL     1      -4.346 -32.777 -21.499  1.00  0.00     0.189 HD
HETATM    7  N3  UNL     1      -4.618 -33.290 -19.486  1.00  0.00    -0.245 N 
ATOM      8  H3  UNL     1      -4.318 -34.263 -19.537  1.00  0.00     0.203 HD
HETATM    9  N4  UNL     1      -4.846 -32.660 -18.259  1.00  0.00    -0.119 NA
ENDROOT
BRANCH   1  10
HETATM   10  C2  UNL     1      -6.672 -31.833 -16.943  1.00  0.00    -0.032 C 
HETATM   11  C1  UNL     1      -8.172 -31.871 -16.760  1.00  0.00     0.016 C 
HETATM   12  C3  UNL     1      -6.260 -30.365 -16.742  1.00  0.00     0.016 C 
HETATM   13  C4  UNL     1      -6.019 -32.590 -15.845  1.00  0.00     0.016 C 
ENDBRANCH   1  10
TORSDOF 1
ENDMDL
MODEL 3
REMARK VINA RESULT: -5.638960937      2.092      4.349
REMARK  1 active torsions:
REMARK  status: ('A' for Active; 'I' for Inactive)
REMARK    1  A    between atoms: C2_2  and  C5_5 
ROOT
HETATM    1  C5  UNL     1      -5.274 -31.697 -19.490  1.00  0.00     0.115 C 
HETATM    2  C6  UNL     1      -6.548 -31.440 -18.785  1.00  0.00     0.098 C 
HETATM    3  C7  UNL     1      -6.439 -31.799 -17.349  1.00  0.00     0.110 C 
HETATM    4  N1  UNL     1      -7.490 -31.320 -16.505  1.00  0.00    -0.086 NA
HETATM    5  N2  UNL     1      -5.465 -32.495 -16.884  1.00  0.00    -0.280 N 
ATOM      6  H2  UNL     1      -5.420 -32.723 -15.891  1.00  0.00     0.189 HD
HETATM    7  N3  UNL     1      -4.478 -32.929 -17.751  1.00  0.00    -0.245 N 
ATOM      8  H3  UNL     1      -3.540 -33.154 -17.420  1.00  0.00     0.203 HD
HETATM    9  N4  UNL     1      -4.824 -33.046 -19.101  1.00  0.00    -0.119 NA
ENDROOT
BRANCH   1  10
HETATM   10  C2  UNL     1      -5.341 -31.651 -20.980  1.00  0.00    -0.032 C 
HETATM   11  C1  UNL     1      -4.347 -30.681 -21.579  1.00  0.00     0.016 C 
HETATM   12  C3  UNL     1      -6.733 -31.106 -21.344  1.00  0.00     0.016 C 
HETATM   13  C4  UNL     1      -5.228 -32.963 -21.666  1.00  0.00     0.016 C 
ENDBRANCH   1  10
TORSDOF 1
ENDMDL
MODEL 4
REMARK VINA RESULT: -5.628043939      1.241      2.215
REMARK  1 active torsions:
REMARK  status: ('A' for Active; 'I' for Inactive)
REMARK    1  A    between atoms: C2_2  and  C5_5 
ROOT
HETATM    1  C5  UNL     1      -6.277 -32.152 -18.315  1.00  0.00     0.115 C 
HETATM    2  C6  UNL     1      -6.323 -31.094 -19.348  1.00  0.00     0.098 C 
HETATM    3  C7  UNL     1      -5.599 -31.520 -20.571  1.00  0.00     0.110 C 
HETATM    4  N1  UNL     1      -5.825 -30.722 -21.738  1.00  0.00    -0.086 NA
HETATM    5  N2  UNL     1      -4.818 -32.539 -20.592  1.00  0.00    -0.280 N 
ATOM      6  H2  UNL     1      -4.337 -32.805 -21.451  1.00  0.00     0.189 HD
HETATM    7  N3  UNL     1      -4.641 -33.271 -19.432  1.00  0.00    -0.245 N 
ATOM      8  H3  UNL     1      -4.349 -34.248 -19.457  1.00  0.00     0.203 HD
HETATM    9  N4  UNL     1      -4.879 -32.611 -18.222  1.00  0.00    -0.119 NA
ENDROOT
BRANCH   1  10
HETATM   10  C2  UNL     1      -6.713 -31.739 -16.949  1.00  0.00    -0.032 C 
HETATM   11  C1  UNL     1      -6.256 -30.343 -16.587  1.00  0.00     0.016 C 
HETATM   12  C3  UNL     1      -6.012 -32.682 -15.957  1.00  0.00     0.016 C 
HETATM   13  C4  UNL     1      -8.166 -31.871 -16.675  1.00  0.00     0.016 C 
ENDBRANCH   1  10
TORSDOF 1
ENDMDL
MODEL 5
REMARK VINA RESULT: -5.621115287      1.238      2.250
REMARK  1 active torsions:
REMARK  status: ('A' for Active; 'I' for Inactive)
REMARK    1  A    between atoms: C2_2  and  C5_5 
ROOT
HETATM    1  C5  UNL     1      -6.204 -32.174 -18.283  1.00  0.00     0.115 C 
HETATM    2  C6  UNL     1      -6.280 -31.108 -19.305  1.00  0.00     0.098 C 
HETATM    3  C7  UNL     1      -5.621 -31.535 -20.564  1.00  0.00     0.110 C 
HETATM    4  N1  UNL     1      -5.887 -30.725 -21.713  1.00  0.00    -0.086 NA
HETATM    5  N2  UNL     1      -4.859 -32.567 -20.629  1.00  0.00    -0.280 N 
ATOM      6  H2  UNL     1      -4.422 -32.834 -21.511  1.00  0.00     0.189 HD
HETATM    7  N3  UNL     1      -4.640 -33.311 -19.483  1.00  0.00    -0.245 N 
ATOM      8  H3  UNL     1      -4.367 -34.292 -19.529  1.00  0.00     0.203 HD
HETATM    9  N4  UNL     1      -4.811 -32.657 -18.258  1.00  0.00    -0.119 NA
ENDROOT
BRANCH   1  10
HETATM   10  C2  UNL     1      -6.569 -31.765 -16.896  1.00  0.00    -0.032 C 
HETATM   11  C1  UNL     1      -6.018 -32.704 -15.846  1.00  0.00     0.016 C 
HETATM   12  C3  UNL     1      -8.100 -31.870 -16.792  1.00  0.00     0.016 C 
HETATM   13  C4  UNL     1      -6.235 -30.365 -16.533  1.00  0.00     0.016 C 
ENDBRANCH   1  10
TORSDOF 1
ENDMDL
