MODEL 1
REMARK VINA RESULT: -7.475060517      0.000      0.000
REMARK  2 active torsions:
REMARK  status: ('A' for Active; 'I' for Inactive)
REMARK    1  A    between atoms: O1_2  and  C2_3 
REMARK    2  A    between atoms: C6_8  and  N1_9 
ROOT
HETATM    1  N1  UNL     1     -26.500   2.672  -4.746  1.00  0.00    -0.329 N 
HETATM    2  C7  UNL     1     -27.798   3.021  -4.806  1.00  0.00     0.128 A 
HETATM    3  C8  UNL     1     -28.628   1.944  -4.580  1.00  0.00     0.078 A 
HETATM    4  N2  UNL     1     -29.896   1.506  -4.481  1.00  0.00    -0.297 N 
ATOM      5  H2  UNL     1     -30.735   2.076  -4.589  1.00  0.00     0.187 HD
HETATM    6  N3  UNL     1     -29.869   0.219  -4.220  1.00  0.00    -0.289 N 
ATOM      7  H3  UNL     1     -30.694  -0.368  -4.094  1.00  0.00     0.188 HD
HETATM    8  C9  UNL     1     -28.598  -0.214  -4.143  1.00  0.00     0.129 A 
HETATM    9  S1  UNL     1     -28.049  -1.733  -3.841  1.00  0.00    -0.058 SA
HETATM   10  C10 UNL     1     -27.764   0.863  -4.369  1.00  0.00     0.049 A 
HETATM   11  C11 UNL     1     -26.487   1.355  -4.479  1.00  0.00     0.113 A 
ENDROOT
BRANCH   1  12
HETATM   12  C6  UNL     1     -25.363   3.538  -4.932  1.00  0.00     0.043 A 
HETATM   13  C5  UNL     1     -24.088   3.028  -5.080  1.00  0.00     0.072 A 
HETATM   14  C4  UNL     1     -22.982   3.817  -5.260  1.00  0.00     0.121 A 
HETATM   15  C3  UNL     1     -23.186   5.188  -5.289  1.00  0.00     0.079 A 
HETATM   16  F1  UNL     1     -21.723   3.321  -5.407  1.00  0.00    -0.206 F 
HETATM   17  C2  UNL     1     -24.439   5.757  -5.146  1.00  0.00     0.073 A 
HETATM   18  C12 UNL     1     -25.527   4.901  -4.966  1.00  0.00     0.066 A 
BRANCH  17  19
HETATM   19  O1  UNL     1     -24.570   7.120  -5.183  1.00  0.00    -0.356 OA
HETATM   20  C1  UNL     1     -25.728   7.751  -4.682  1.00  0.00     0.210 C 
ENDBRANCH  17  19
ENDBRANCH   1  12
TORSDOF 2
ENDMDL
MODEL 2
REMARK VINA RESULT: -7.168919932      1.542      1.851
REMARK  2 active torsions:
REMARK  status: ('A' for Active; 'I' for Inactive)
REMARK    1  A    between atoms: O1_2  and  C2_3 
REMARK    2  A    between atoms: C6_8  and  N1_9 
ROOT
HETATM    1  N1  UNL     1     -26.082   1.750  -4.827  1.00  0.00    -0.329 N 
HETATM    2  C7  UNL     1     -25.762   0.598  -4.211  1.00  0.00     0.128 A 
HETATM    3  C8  UNL     1     -26.787  -0.320  -4.280  1.00  0.00     0.078 A 
HETATM    4  N2  UNL     1     -27.212  -1.555  -3.955  1.00  0.00    -0.297 N 
ATOM      5  H2  UNL     1     -26.679  -2.253  -3.435  1.00  0.00     0.187 HD
HETATM    6  N3  UNL     1     -28.429  -1.709  -4.423  1.00  0.00    -0.289 N 
ATOM      7  H3  UNL     1     -28.991  -2.554  -4.319  1.00  0.00     0.188 HD
HETATM    8  C9  UNL     1     -28.829  -0.593  -5.058  1.00  0.00     0.129 A 
HETATM    9  S1  UNL     1     -30.262  -0.297  -5.806  1.00  0.00    -0.058 SA
HETATM   10  C10 UNL     1     -27.803   0.329  -4.990  1.00  0.00     0.049 A 
HETATM   11  C11 UNL     1     -27.328   1.580  -5.300  1.00  0.00     0.113 A 
ENDROOT
BRANCH   1  12
HETATM   12  C6  UNL     1     -25.253   2.924  -4.949  1.00  0.00     0.043 A 
HETATM   13  C5  UNL     1     -23.888   2.824  -5.134  1.00  0.00     0.072 A 
HETATM   14  C4  UNL     1     -23.067   3.913  -5.256  1.00  0.00     0.121 A 
HETATM   15  C3  UNL     1     -23.666   5.162  -5.185  1.00  0.00     0.079 A 
HETATM   16  F1  UNL     1     -21.721   3.822  -5.439  1.00  0.00    -0.206 F 
HETATM   17  C2  UNL     1     -25.027   5.326  -5.001  1.00  0.00     0.073 A 
HETATM   18  C12 UNL     1     -25.811   4.177  -4.884  1.00  0.00     0.066 A 
BRANCH  17  19
HETATM   19  O1  UNL     1     -25.553   6.589  -4.939  1.00  0.00    -0.356 OA
HETATM   20  C1  UNL     1     -25.011   7.638  -5.711  1.00  0.00     0.210 C 
ENDBRANCH  17  19
ENDBRANCH   1  12
TORSDOF 2
ENDMDL
MODEL 3
REMARK VINA RESULT: -6.976236952      1.808      2.562
REMARK  2 active torsions:
REMARK  status: ('A' for Active; 'I' for Inactive)
REMARK    1  A    between atoms: O1_2  and  C2_3 
REMARK    2  A    between atoms: C6_8  and  N1_9 
ROOT
HETATM    1  N1  UNL     1     -27.049   3.147  -4.711  1.00  0.00    -0.329 N 
HETATM    2  C7  UNL     1     -28.386   3.179  -4.853  1.00  0.00     0.128 A 
HETATM    3  C8  UNL     1     -28.946   1.930  -4.692  1.00  0.00     0.078 A 
HETATM    4  N2  UNL     1     -30.077   1.200  -4.680  1.00  0.00    -0.297 N 
ATOM      5  H2  UNL     1     -31.020   1.556  -4.838  1.00  0.00     0.187 HD
HETATM    6  N3  UNL     1     -29.759  -0.049  -4.429  1.00  0.00    -0.289 N 
ATOM      7  H3  UNL     1     -30.425  -0.819  -4.363  1.00  0.00     0.188 HD
HETATM    8  C9  UNL     1     -28.428  -0.169  -4.273  1.00  0.00     0.129 A 
HETATM    9  S1  UNL     1     -27.552  -1.521  -3.948  1.00  0.00    -0.058 SA
HETATM   10  C10 UNL     1     -27.864   1.081  -4.434  1.00  0.00     0.049 A 
HETATM   11  C11 UNL     1     -26.737   1.865  -4.456  1.00  0.00     0.113 A 
ENDROOT
BRANCH   1  12
HETATM   12  C6  UNL     1     -26.142   4.263  -4.814  1.00  0.00     0.043 A 
HETATM   13  C5  UNL     1     -26.574   5.560  -4.614  1.00  0.00     0.072 A 
HETATM   14  C4  UNL     1     -25.745   6.647  -4.701  1.00  0.00     0.121 A 
HETATM   15  C3  UNL     1     -24.415   6.400  -5.009  1.00  0.00     0.079 A 
HETATM   16  F1  UNL     1     -26.163   7.928  -4.505  1.00  0.00    -0.206 F 
HETATM   17  C2  UNL     1     -23.925   5.124  -5.220  1.00  0.00     0.073 A 
HETATM   18  C12 UNL     1     -24.818   4.057  -5.116  1.00  0.00     0.066 A 
BRANCH  17  19
HETATM   19  O1  UNL     1     -22.599   4.951  -5.520  1.00  0.00    -0.356 OA
HETATM   20  C1  UNL     1     -21.944   3.736  -5.229  1.00  0.00     0.210 C 
ENDBRANCH  17  19
ENDBRANCH   1  12
TORSDOF 2
ENDMDL
MODEL 4
REMARK VINA RESULT: -6.757196828      4.215      6.844
REMARK  2 active torsions:
REMARK  status: ('A' for Active; 'I' for Inactive)
REMARK    1  A    between atoms: O1_2  and  C2_3 
REMARK    2  A    between atoms: C6_8  and  N1_9 
ROOT
HETATM    1  N1  UNL     1     -26.401   2.452  -5.445  1.00  0.00    -0.329 N 
HETATM    2  C7  UNL     1     -25.092   2.261  -5.690  1.00  0.00     0.128 A 
HETATM    3  C8  UNL     1     -24.365   3.417  -5.509  1.00  0.00     0.078 A 
HETATM    4  N2  UNL     1     -23.151   3.997  -5.547  1.00  0.00    -0.297 N 
ATOM      5  H2  UNL     1     -22.275   3.535  -5.794  1.00  0.00     0.187 HD
HETATM    6  N3  UNL     1     -23.286   5.260  -5.211  1.00  0.00    -0.289 N 
ATOM      7  H3  UNL     1     -22.522   5.933  -5.158  1.00  0.00     0.188 HD
HETATM    8  C9  UNL     1     -24.576   5.536  -4.949  1.00  0.00     0.129 A 
HETATM    9  S1  UNL     1     -25.244   6.966  -4.491  1.00  0.00    -0.058 SA
HETATM   10  C10 UNL     1     -25.307   4.379  -5.128  1.00  0.00     0.049 A 
HETATM   11  C11 UNL     1     -26.526   3.746  -5.103  1.00  0.00     0.113 A 
ENDROOT
BRANCH   1  12
HETATM   12  C6  UNL     1     -27.450   1.467  -5.535  1.00  0.00     0.043 A 
HETATM   13  C5  UNL     1     -28.263   1.382  -6.647  1.00  0.00     0.072 A 
HETATM   14  C4  UNL     1     -29.269   0.460  -6.772  1.00  0.00     0.121 A 
HETATM   15  C3  UNL     1     -29.454  -0.415  -5.712  1.00  0.00     0.079 A 
HETATM   16  F1  UNL     1     -30.075   0.371  -7.866  1.00  0.00    -0.206 F 
HETATM   17  C2  UNL     1     -28.671  -0.379  -4.572  1.00  0.00     0.073 A 
HETATM   18  C12 UNL     1     -27.662   0.583  -4.505  1.00  0.00     0.066 A 
BRANCH  17  19
HETATM   19  O1  UNL     1     -28.907  -1.273  -3.561  1.00  0.00    -0.356 OA
HETATM   20  C1  UNL     1     -29.726  -2.402  -3.770  1.00  0.00     0.210 C 
ENDBRANCH  17  19
ENDBRANCH   1  12
TORSDOF 2
ENDMDL
MODEL 5
REMARK VINA RESULT: -6.747465578      4.053      6.551
REMARK  2 active torsions:
REMARK  status: ('A' for Active; 'I' for Inactive)
REMARK    1  A    between atoms: O1_2  and  C2_3 
REMARK    2  A    between atoms: C6_8  and  N1_9 
ROOT
HETATM    1  N1  UNL     1     -26.239   2.446  -4.926  1.00  0.00    -0.329 N 
HETATM    2  C7  UNL     1     -24.943   2.355  -5.274  1.00  0.00     0.128 A 
HETATM    3  C8  UNL     1     -24.345   3.595  -5.341  1.00  0.00     0.078 A 
HETATM    4  N2  UNL     1     -23.216   4.284  -5.588  1.00  0.00    -0.297 N 
ATOM      5  H2  UNL     1     -22.316   3.883  -5.853  1.00  0.00     0.187 HD
HETATM    6  N3  UNL     1     -23.470   5.563  -5.430  1.00  0.00    -0.289 N 
ATOM      7  H3  UNL     1     -22.789   6.312  -5.555  1.00  0.00     0.188 HD
HETATM    8  C9  UNL     1     -24.756   5.742  -5.079  1.00  0.00     0.129 A 
HETATM    9  S1  UNL     1     -25.547   7.149  -4.770  1.00  0.00    -0.058 SA
HETATM   10  C10 UNL     1     -25.358   4.502  -5.011  1.00  0.00     0.049 A 
HETATM   11  C11 UNL     1     -26.486   3.757  -4.767  1.00  0.00     0.113 A 
ENDROOT
BRANCH   1  12
HETATM   12  C6  UNL     1     -27.168   1.355  -4.762  1.00  0.00     0.043 A 
HETATM   13  C5  UNL     1     -27.027   0.441  -3.736  1.00  0.00     0.072 A 
HETATM   14  C4  UNL     1     -27.888  -0.608  -3.544  1.00  0.00     0.121 A 
HETATM   15  C3  UNL     1     -28.940  -0.729  -4.441  1.00  0.00     0.079 A 
HETATM   16  F1  UNL     1     -27.755  -1.514  -2.537  1.00  0.00    -0.206 F 
HETATM   17  C2  UNL     1     -29.132   0.155  -5.486  1.00  0.00     0.073 A 
HETATM   18  C12 UNL     1     -28.222   1.204  -5.629  1.00  0.00     0.066 A 
BRANCH  17  19
HETATM   19  O1  UNL     1     -30.193  -0.023  -6.335  1.00  0.00    -0.356 OA
HETATM   20  C1  UNL     1     -30.016   0.025  -7.734  1.00  0.00     0.210 C 
ENDBRANCH  17  19
ENDBRANCH   1  12
TORSDOF 2
ENDMDL
