MODEL 1
REMARK VINA RESULT: -7.655652017      0.000      0.000
REMARK  5 active torsions:
REMARK  status: ('A' for Active; 'I' for Inactive)
REMARK    1  A    between atoms: N2_6  and  C4_8 
REMARK    2  A    between atoms: N3_11  and  C7_12 
REMARK    3  A    between atoms: C7_12  and  C8_13 
REMARK    4  A    between atoms: C10_15  and  N4_16 
REMARK       I    between atoms: N4_16  and  C11_18 
REMARK    5  A    between atoms: C11_18  and  C12_20 
ROOT
HETATM    1  C8  UNL     1      71.944  35.104  -1.967  1.00  0.00     0.142 C 
HETATM    2  C9  UNL     1      71.048  36.129  -1.301  1.00  0.00     0.061 C 
HETATM    3  C10 UNL     1      71.025  35.577   0.130  1.00  0.00     0.110 C 
HETATM    4  C18 UNL     1      71.216  34.116  -0.103  1.00  0.00     0.193 C 
HETATM    5  O2  UNL     1      71.400  33.908  -1.455  1.00  0.00    -0.382 OA
ENDROOT
BRANCH   1   6
HETATM    6  C7  UNL     1      71.807  35.138  -3.471  1.00  0.00     0.179 C 
BRANCH   6   7
HETATM    7  N3  UNL     1      72.924  34.432  -4.060  1.00  0.00    -0.183 N 
HETATM    8  C3  UNL     1      72.930  33.149  -4.428  1.00  0.00     0.681 A 
HETATM    9  N1  UNL     1      74.142  32.873  -4.926  1.00  0.00    -0.194 N 
HETATM   10  N2  UNL     1      71.960  32.305  -4.333  1.00  0.00    -0.222 N 
HETATM   11  C2  UNL     1      74.895  33.992  -4.868  1.00  0.00     0.045 A 
ATOM     12  H1  UNL     1      74.446  31.969  -5.288  1.00  0.00     0.184 HD
HETATM   13  C1  UNL     1      76.309  34.124  -5.319  1.00  0.00     0.071 C 
HETATM   14  C19 UNL     1      74.134  34.985  -4.321  1.00  0.00     0.048 A 
HETATM   15  C20 UNL     1      74.558  36.386  -4.069  1.00  0.00     0.071 C 
ATOM     16  H2  UNL     1      71.079  32.632  -3.935  1.00  0.00     0.178 HD
BRANCH  10  17
HETATM   17  C4  UNL     1      72.040  30.939  -4.749  1.00  0.00     0.091 C 
HETATM   18  C5  UNL     1      71.563  30.702  -6.152  1.00  0.00     0.032 C 
HETATM   19  C6  UNL     1      71.289  29.993  -3.827  1.00  0.00     0.032 C 
ENDBRANCH  10  17
ENDBRANCH   6   7
ENDBRANCH   1   6
BRANCH   3  20
HETATM   20  N4  UNL     1      69.819  35.920   0.812  1.00  0.00    -0.354 N 
HETATM   21  C11 UNL     1      69.676  35.951   2.219  1.00  0.00     0.222 C 
HETATM   22  O1  UNL     1      70.678  35.655   2.920  1.00  0.00    -0.273 OA
ATOM     23  H4  UNL     1      69.005  36.160   0.247  1.00  0.00     0.162 HD
BRANCH  21  24
HETATM   24  C12 UNL     1      68.431  36.307   2.913  1.00  0.00     0.078 C 
HETATM   25  C13 UNL     1      67.321  36.685   1.963  1.00  0.00     0.014 C 
HETATM   26  C14 UNL     1      66.027  36.646   2.748  1.00  0.00     0.001 C 
HETATM   27  C15 UNL     1      66.112  37.778   3.769  1.00  0.00     0.000 C 
HETATM   28  C16 UNL     1      67.282  37.526   4.686  1.00  0.00     0.001 C 
HETATM   29  C17 UNL     1      68.590  37.391   3.921  1.00  0.00     0.014 C 
ENDBRANCH  21  24
ENDBRANCH   3  20
TORSDOF 5
ENDMDL
MODEL 2
REMARK VINA RESULT: -7.420307248      2.476      4.093
REMARK  5 active torsions:
REMARK  status: ('A' for Active; 'I' for Inactive)
REMARK    1  A    between atoms: N2_6  and  C4_8 
REMARK    2  A    between atoms: N3_11  and  C7_12 
REMARK    3  A    between atoms: C7_12  and  C8_13 
REMARK    4  A    between atoms: C10_15  and  N4_16 
REMARK       I    between atoms: N4_16  and  C11_18 
REMARK    5  A    between atoms: C11_18  and  C12_20 
ROOT
HETATM    1  C8  UNL     1      71.725  36.089  -2.270  1.00  0.00     0.142 C 
HETATM    2  C9  UNL     1      71.407  35.787  -0.819  1.00  0.00     0.061 C 
HETATM    3  C10 UNL     1      69.885  35.980  -0.832  1.00  0.00     0.110 C 
HETATM    4  C18 UNL     1      69.714  36.990  -1.916  1.00  0.00     0.193 C 
HETATM    5  O2  UNL     1      70.950  37.250  -2.472  1.00  0.00    -0.382 OA
ENDROOT
BRANCH   1   6
HETATM    6  C7  UNL     1      73.191  36.399  -2.466  1.00  0.00     0.179 C 
BRANCH   6   7
HETATM    7  N3  UNL     1      73.492  36.364  -3.879  1.00  0.00    -0.183 N 
HETATM    8  C3  UNL     1      73.278  37.355  -4.747  1.00  0.00     0.681 A 
HETATM    9  N1  UNL     1      73.687  36.938  -5.953  1.00  0.00    -0.194 N 
HETATM   10  N2  UNL     1      72.771  38.514  -4.500  1.00  0.00    -0.222 N 
HETATM   11  C2  UNL     1      74.160  35.678  -5.834  1.00  0.00     0.045 A 
ATOM     12  H1  UNL     1      73.648  37.479  -6.816  1.00  0.00     0.184 HD
HETATM   13  C1  UNL     1      74.713  34.841  -6.934  1.00  0.00     0.071 C 
HETATM   14  C19 UNL     1      74.040  35.306  -4.526  1.00  0.00     0.048 A 
HETATM   15  C20 UNL     1      74.437  33.999  -3.940  1.00  0.00     0.071 C 
ATOM     16  H2  UNL     1      72.495  38.720  -3.539  1.00  0.00     0.178 HD
BRANCH  10  17
HETATM   17  C4  UNL     1      72.570  39.530  -5.486  1.00  0.00     0.091 C 
HETATM   18  C5  UNL     1      72.979  40.902  -5.037  1.00  0.00     0.032 C 
HETATM   19  C6  UNL     1      71.134  39.602  -5.979  1.00  0.00     0.032 C 
ENDBRANCH  10  17
ENDBRANCH   6   7
ENDBRANCH   1   6
BRANCH   3  20
HETATM   20  N4  UNL     1      69.391  36.385   0.444  1.00  0.00    -0.354 N 
HETATM   21  C11 UNL     1      68.180  35.927   1.016  1.00  0.00     0.222 C 
HETATM   22  O1  UNL     1      67.490  35.108   0.358  1.00  0.00    -0.273 OA
ATOM     23  H4  UNL     1      69.948  37.050   0.981  1.00  0.00     0.162 HD
BRANCH  21  24
HETATM   24  C12 UNL     1      67.680  36.349   2.332  1.00  0.00     0.078 C 
HETATM   25  C13 UNL     1      66.182  36.526   2.359  1.00  0.00     0.014 C 
HETATM   26  C14 UNL     1      65.761  36.571   3.813  1.00  0.00     0.001 C 
HETATM   27  C15 UNL     1      66.348  37.857   4.388  1.00  0.00     0.000 C 
HETATM   28  C16 UNL     1      67.851  37.800   4.285  1.00  0.00     0.001 C 
HETATM   29  C17 UNL     1      68.320  37.588   2.853  1.00  0.00     0.014 C 
ENDBRANCH  21  24
ENDBRANCH   3  20
TORSDOF 5
ENDMDL
MODEL 3
REMARK VINA RESULT: -7.341195308      1.988      3.837
REMARK  5 active torsions:
REMARK  status: ('A' for Active; 'I' for Inactive)
REMARK    1  A    between atoms: N2_6  and  C4_8 
REMARK    2  A    between atoms: N3_11  and  C7_12 
REMARK    3  A    between atoms: C7_12  and  C8_13 
REMARK    4  A    between atoms: C10_15  and  N4_16 
REMARK       I    between atoms: N4_16  and  C11_18 
REMARK    5  A    between atoms: C11_18  and  C12_20 
ROOT
HETATM    1  C8  UNL     1      71.774  35.717  -2.292  1.00  0.00     0.142 C 
HETATM    2  C9  UNL     1      70.922  36.670  -1.478  1.00  0.00     0.061 C 
HETATM    3  C10 UNL     1      70.907  35.935  -0.132  1.00  0.00     0.110 C 
HETATM    4  C18 UNL     1      71.049  34.513  -0.559  1.00  0.00     0.193 C 
HETATM    5  O2  UNL     1      71.203  34.480  -1.930  1.00  0.00    -0.382 OA
ENDROOT
BRANCH   1   6
HETATM    6  C7  UNL     1      71.612  35.953  -3.776  1.00  0.00     0.179 C 
BRANCH   6   7
HETATM    7  N3  UNL     1      72.917  36.155  -4.364  1.00  0.00    -0.183 N 
HETATM    8  C3  UNL     1      73.354  37.284  -4.925  1.00  0.00     0.681 A 
HETATM    9  N1  UNL     1      74.607  37.071  -5.351  1.00  0.00    -0.194 N 
HETATM   10  N2  UNL     1      72.710  38.394  -5.050  1.00  0.00    -0.222 N 
HETATM   11  C2  UNL     1      74.951  35.800  -5.051  1.00  0.00     0.045 A 
ATOM     12  H1  UNL     1      75.200  37.753  -5.822  1.00  0.00     0.184 HD
HETATM   13  C1  UNL     1      76.258  35.152  -5.350  1.00  0.00     0.071 C 
HETATM   14  C19 UNL     1      73.889  35.212  -4.427  1.00  0.00     0.048 A 
HETATM   15  C20 UNL     1      73.825  33.816  -3.922  1.00  0.00     0.071 C 
ATOM     16  H2  UNL     1      71.758  38.438  -4.686  1.00  0.00     0.178 HD
BRANCH  10  17
HETATM   17  C4  UNL     1      73.246  39.568  -5.666  1.00  0.00     0.091 C 
HETATM   18  C5  UNL     1      72.981  40.832  -4.901  1.00  0.00     0.032 C 
HETATM   19  C6  UNL     1      72.754  39.766  -7.091  1.00  0.00     0.032 C 
ENDBRANCH  10  17
ENDBRANCH   6   7
ENDBRANCH   1   6
BRANCH   3  20
HETATM   20  N4  UNL     1      69.724  36.219   0.615  1.00  0.00    -0.354 N 
HETATM   21  C11 UNL     1      69.594  36.029   2.011  1.00  0.00     0.222 C 
HETATM   22  O1  UNL     1      70.586  35.578   2.639  1.00  0.00    -0.273 OA
ATOM     23  H4  UNL     1      68.918  36.585   0.108  1.00  0.00     0.162 HD
BRANCH  21  24
HETATM   24  C12 UNL     1      68.373  36.326   2.772  1.00  0.00     0.078 C 
HETATM   25  C13 UNL     1      67.225  36.754   1.891  1.00  0.00     0.014 C 
HETATM   26  C14 UNL     1      65.961  36.650   2.719  1.00  0.00     0.001 C 
HETATM   27  C15 UNL     1      66.075  37.713   3.807  1.00  0.00     0.000 C 
HETATM   28  C16 UNL     1      67.281  37.414   4.662  1.00  0.00     0.001 C 
HETATM   29  C17 UNL     1      68.561  37.343   3.843  1.00  0.00     0.014 C 
ENDBRANCH  21  24
ENDBRANCH   3  20
TORSDOF 5
ENDMDL
MODEL 4
REMARK VINA RESULT: -7.267428050      4.504      6.059
REMARK  5 active torsions:
REMARK  status: ('A' for Active; 'I' for Inactive)
REMARK    1  A    between atoms: N2_6  and  C4_8 
REMARK    2  A    between atoms: N3_11  and  C7_12 
REMARK    3  A    between atoms: C7_12  and  C8_13 
REMARK    4  A    between atoms: C10_15  and  N4_16 
REMARK       I    between atoms: N4_16  and  C11_18 
REMARK    5  A    between atoms: C11_18  and  C12_20 
ROOT
HETATM    1  C8  UNL     1      67.097  38.078  -3.461  1.00  0.00     0.142 C 
HETATM    2  C9  UNL     1      67.992  37.869  -2.256  1.00  0.00     0.061 C 
HETATM    3  C10 UNL     1      67.097  36.952  -1.412  1.00  0.00     0.110 C 
HETATM    4  C18 UNL     1      65.734  37.381  -1.838  1.00  0.00     0.193 C 
HETATM    5  O2  UNL     1      65.863  38.332  -2.830  1.00  0.00    -0.382 OA
ENDROOT
BRANCH   1   6
HETATM    6  C7  UNL     1      67.527  39.278  -4.272  1.00  0.00     0.179 C 
BRANCH   6   7
HETATM    7  N3  UNL     1      68.220  38.821  -5.456  1.00  0.00    -0.183 N 
HETATM    8  C3  UNL     1      69.541  38.661  -5.573  1.00  0.00     0.681 A 
HETATM    9  N1  UNL     1      69.790  38.226  -6.816  1.00  0.00    -0.194 N 
HETATM   10  N2  UNL     1      70.437  38.880  -4.673  1.00  0.00    -0.222 N 
HETATM   11  C2  UNL     1      68.616  38.113  -7.475  1.00  0.00     0.045 A 
ATOM     12  H1  UNL     1      70.711  38.015  -7.200  1.00  0.00     0.184 HD
HETATM   13  C1  UNL     1      68.440  37.661  -8.883  1.00  0.00     0.071 C 
HETATM   14  C19 UNL     1      67.617  38.488  -6.623  1.00  0.00     0.048 A 
HETATM   15  C20 UNL     1      66.163  38.518  -6.927  1.00  0.00     0.071 C 
ATOM     16  H2  UNL     1      70.126  39.211  -3.760  1.00  0.00     0.178 HD
BRANCH  10  17
HETATM   17  C4  UNL     1      71.840  38.686  -4.873  1.00  0.00     0.091 C 
HETATM   18  C5  UNL     1      72.491  37.828  -3.829  1.00  0.00     0.032 C 
HETATM   19  C6  UNL     1      72.612  39.992  -4.961  1.00  0.00     0.032 C 
ENDBRANCH  10  17
ENDBRANCH   6   7
ENDBRANCH   1   6
BRANCH   3  20
HETATM   20  N4  UNL     1      67.358  37.094  -0.016  1.00  0.00    -0.354 N 
HETATM   21  C11 UNL     1      66.935  36.177   0.975  1.00  0.00     0.222 C 
HETATM   22  O1  UNL     1      66.285  35.167   0.603  1.00  0.00    -0.273 OA
ATOM     23  H4  UNL     1      67.885  37.913   0.288  1.00  0.00     0.162 HD
BRANCH  21  24
HETATM   24  C12 UNL     1      67.211  36.330   2.410  1.00  0.00     0.078 C 
HETATM   25  C13 UNL     1      65.963  36.585   3.220  1.00  0.00     0.014 C 
HETATM   26  C14 UNL     1      66.314  36.337   4.672  1.00  0.00     0.001 C 
HETATM   27  C15 UNL     1      67.302  37.431   5.066  1.00  0.00     0.000 C 
HETATM   28  C16 UNL     1      68.536  37.310   4.208  1.00  0.00     0.001 C 
HETATM   29  C17 UNL     1      68.211  37.388   2.723  1.00  0.00     0.014 C 
ENDBRANCH  21  24
ENDBRANCH   3  20
TORSDOF 5
ENDMDL
MODEL 5
REMARK VINA RESULT: -7.248891305      4.709      8.957
REMARK  5 active torsions:
REMARK  status: ('A' for Active; 'I' for Inactive)
REMARK    1  A    between atoms: N2_6  and  C4_8 
REMARK    2  A    between atoms: N3_11  and  C7_12 
REMARK    3  A    between atoms: C7_12  and  C8_13 
REMARK    4  A    between atoms: C10_15  and  N4_16 
REMARK       I    between atoms: N4_16  and  C11_18 
REMARK    5  A    between atoms: C11_18  and  C12_20 
ROOT
HETATM    1  C8  UNL     1      66.209  36.493  -0.379  1.00  0.00     0.142 C 
HETATM    2  C9  UNL     1      67.309  37.102  -1.226  1.00  0.00     0.061 C 
HETATM    3  C10 UNL     1      66.464  37.827  -2.282  1.00  0.00     0.110 C 
HETATM    4  C18 UNL     1      65.239  36.977  -2.329  1.00  0.00     0.193 C 
HETATM    5  O2  UNL     1      65.359  35.982  -1.380  1.00  0.00    -0.382 OA
ENDROOT
BRANCH   1   6
HETATM    6  C7  UNL     1      66.731  35.370   0.487  1.00  0.00     0.179 C 
BRANCH   6   7
HETATM    7  N3  UNL     1      67.421  35.937   1.625  1.00  0.00    -0.183 N 
HETATM    8  C3  UNL     1      68.744  35.961   1.802  1.00  0.00     0.681 A 
HETATM    9  N1  UNL     1      68.988  36.568   2.971  1.00  0.00    -0.194 N 
HETATM   10  N2  UNL     1      69.647  35.494   1.009  1.00  0.00    -0.222 N 
HETATM   11  C2  UNL     1      67.809  36.923   3.525  1.00  0.00     0.045 A 
ATOM     12  H1  UNL     1      69.909  36.733   3.376  1.00  0.00     0.184 HD
HETATM   13  C1  UNL     1      67.626  37.622   4.828  1.00  0.00     0.071 C 
HETATM   14  C19 UNL     1      66.811  36.528   2.681  1.00  0.00     0.048 A 
HETATM   15  C20 UNL     1      65.352  36.716   2.890  1.00  0.00     0.071 C 
ATOM     16  H2  UNL     1      69.339  35.052   0.143  1.00  0.00     0.178 HD
BRANCH  10  17
HETATM   17  C4  UNL     1      71.052  35.556   1.267  1.00  0.00     0.091 C 
HETATM   18  C5  UNL     1      71.897  35.591   0.028  1.00  0.00     0.032 C 
HETATM   19  C6  UNL     1      71.545  34.416   2.144  1.00  0.00     0.032 C 
ENDBRANCH  10  17
ENDBRANCH   6   7
ENDBRANCH   1   6
BRANCH   3  20
HETATM   20  N4  UNL     1      67.155  37.947  -3.524  1.00  0.00    -0.354 N 
HETATM   21  C11 UNL     1      67.100  39.083  -4.365  1.00  0.00     0.222 C 
HETATM   22  O1  UNL     1      66.393  40.056  -3.996  1.00  0.00    -0.273 OA
ATOM     23  H4  UNL     1      67.729  37.160  -3.827  1.00  0.00     0.162 HD
BRANCH  21  24
HETATM   24  C12 UNL     1      67.817  39.198  -5.643  1.00  0.00     0.078 C 
HETATM   25  C13 UNL     1      69.299  38.951  -5.505  1.00  0.00     0.014 C 
HETATM   26  C14 UNL     1      69.845  38.712  -6.897  1.00  0.00     0.001 C 
HETATM   27  C15 UNL     1      69.707  40.037  -7.642  1.00  0.00     0.000 C 
HETATM   28  C16 UNL     1      68.248  40.410  -7.716  1.00  0.00     0.001 C 
HETATM   29  C17 UNL     1      67.610  40.499  -6.337  1.00  0.00     0.014 C 
ENDBRANCH  21  24
ENDBRANCH   3  20
TORSDOF 5
ENDMDL
