MODEL 1
REMARK VINA RESULT: -6.355251361      0.000      0.000
REMARK  12 active torsions:
REMARK  status: ('A' for Active; 'I' for Inactive)
REMARK    1  A    between atoms: N1_1  and  C1_4 
REMARK    2  A    between atoms: C3_9  and  C4_10 
REMARK    3  A    between atoms: C4_10  and  N4_11 
REMARK    4  A    between atoms: N4_11  and  C5_14 
REMARK    5  A    between atoms: C5_14  and  C6_15 
REMARK    6  A    between atoms: C6_15  and  N5_16 
REMARK    7  A    between atoms: N5_16  and  C7_17 
REMARK    8  A    between atoms: N5_16  and  C10_24 
REMARK    9  A    between atoms: C7_17  and  C8_18 
REMARK   10  A    between atoms: C8_18  and  C9_19 
REMARK   11  A    between atoms: C9_19  and  N6_20 
REMARK   12  A    between atoms: N6_20  and  O1_22 
ROOT
HETATM    1  C6  UNL     1      46.316-404.635  16.786  1.00  0.00     0.094 C 
ENDROOT
BRANCH   1   2
HETATM    2  C5  UNL     1      46.220-405.967  16.163  1.00  0.00     0.277 C 
BRANCH   2   3
HETATM    3  N4  UNL     1      45.683-406.989  16.982  1.00  0.00    -0.065 N 
ATOM      4  H42 UNL     1      45.033-406.622  17.677  1.00  0.00     0.277 HD
ATOM      5  H41 UNL     1      46.379-407.375  17.621  1.00  0.00     0.277 HD
BRANCH   3   6
HETATM    6  C4  UNL     1      45.054-408.050  16.122  1.00  0.00     0.301 C 
BRANCH   6   7
HETATM    7  C3  UNL     1      43.617-407.823  15.985  1.00  0.00     0.123 A 
HETATM    8  C2  UNL     1      42.700-407.939  17.041  1.00  0.00     0.151 A 
HETATM    9  N2  UNL     1      41.493-407.673  16.569  1.00  0.00    -0.308 N 
HETATM   10  N3  UNL     1      43.071-408.275  18.375  1.00  0.00    -0.080 NA
HETATM   11  C1  UNL     1      41.635-407.397  15.250  1.00  0.00     0.223 A 
ATOM     12  H2  UNL     1      40.620-407.676  17.099  1.00  0.00     0.170 HD
HETATM   13  O2  UNL     1      42.921-407.495  14.936  1.00  0.00    -0.279 OA
BRANCH  11  14
HETATM   14  N1  UNL     1      40.670-407.097  14.462  1.00  0.00    -0.365 N 
ATOM     15  H12 UNL     1      39.834-406.560  14.694  1.00  0.00     0.159 HD
ATOM     16  H11 UNL     1      40.621-407.364  13.479  1.00  0.00     0.159 HD
ENDBRANCH  11  14
ENDBRANCH   6   7
ENDBRANCH   3   6
ENDBRANCH   2   3
ENDBRANCH   1   2
BRANCH   1  17
HETATM   17  N5  UNL     1      45.235-403.744  16.867  1.00  0.00    -0.329 N 
BRANCH  17  18
HETATM   18  C7  UNL     1      45.340-402.491  17.556  1.00  0.00     0.133 C 
BRANCH  18  19
HETATM   19  C8  UNL     1      45.159-401.267  16.790  1.00  0.00     0.042 C 
BRANCH  19  20
HETATM   20  C9  UNL     1      43.915-400.468  16.952  1.00  0.00     0.148 C 
BRANCH  20  21
HETATM   21  N6  UNL     1      43.183-400.357  15.716  1.00  0.00    -0.305 N 
ATOM     22  H6  UNL     1      42.987-399.450  15.293  1.00  0.00     0.187 HD
BRANCH  21  23
HETATM   23  O1  UNL     1      42.817-401.370  15.211  1.00  0.00    -0.295 OA
ATOM     24  H1  UNL     1      41.880-401.508  15.147  1.00  0.00     0.244 HD
ENDBRANCH  21  23
ENDBRANCH  20  21
ENDBRANCH  19  20
ENDBRANCH  18  19
ENDBRANCH  17  18
BRANCH  17  25
HETATM   25  C10 UNL     1      43.931-404.030  16.315  1.00  0.00     0.211 C 
HETATM   26  N7  UNL     1      42.815-404.036  17.005  1.00  0.00    -0.256 N 
HETATM   27  N8  UNL     1      41.757-404.355  16.159  1.00  0.00    -0.006 NA
ATOM     28  H7  UNL     1      42.735-403.839  18.003  1.00  0.00     0.187 HD
HETATM   29  N9  UNL     1      42.165-404.113  14.831  1.00  0.00    -0.006 NA
HETATM   30  N10 UNL     1      43.567-404.311  14.985  1.00  0.00    -0.256 N 
ATOM     31  H10 UNL     1      44.207-404.610  14.248  1.00  0.00     0.187 HD
ENDBRANCH  17  25
ENDBRANCH   1  17
TORSDOF 12
ENDMDL
MODEL 2
REMARK VINA RESULT: -6.249208834      1.695      2.692
REMARK  12 active torsions:
REMARK  status: ('A' for Active; 'I' for Inactive)
REMARK    1  A    between atoms: N1_1  and  C1_4 
REMARK    2  A    between atoms: C3_9  and  C4_10 
REMARK    3  A    between atoms: C4_10  and  N4_11 
REMARK    4  A    between atoms: N4_11  and  C5_14 
REMARK    5  A    between atoms: C5_14  and  C6_15 
REMARK    6  A    between atoms: C6_15  and  N5_16 
REMARK    7  A    between atoms: N5_16  and  C7_17 
REMARK    8  A    between atoms: N5_16  and  C10_24 
REMARK    9  A    between atoms: C7_17  and  C8_18 
REMARK   10  A    between atoms: C8_18  and  C9_19 
REMARK   11  A    between atoms: C9_19  and  N6_20 
REMARK   12  A    between atoms: N6_20  and  O1_22 
ROOT
HETATM    1  C6  UNL     1      43.934-404.578  16.644  1.00  0.00     0.094 C 
ENDROOT
BRANCH   1   2
HETATM    2  C5  UNL     1      45.139-405.317  16.229  1.00  0.00     0.277 C 
BRANCH   2   3
HETATM    3  N4  UNL     1      45.384-406.526  16.922  1.00  0.00    -0.065 N 
ATOM      4  H42 UNL     1      44.889-406.566  17.812  1.00  0.00     0.277 HD
ATOM      5  H41 UNL     1      46.338-406.577  17.282  1.00  0.00     0.277 HD
BRANCH   3   6
HETATM    6  C4  UNL     1      45.052-407.695  16.036  1.00  0.00     0.301 C 
BRANCH   6   7
HETATM    7  C3  UNL     1      43.605-407.868  15.925  1.00  0.00     0.123 A 
HETATM    8  C2  UNL     1      42.768-408.188  17.005  1.00  0.00     0.151 A 
HETATM    9  N2  UNL     1      41.527-408.274  16.553  1.00  0.00    -0.308 N 
HETATM   10  N3  UNL     1      43.234-408.365  18.339  1.00  0.00    -0.080 NA
HETATM   11  C1  UNL     1      41.571-408.017  15.223  1.00  0.00     0.223 A 
ATOM     12  H2  UNL     1      40.695-408.492  17.102  1.00  0.00     0.170 HD
HETATM   13  O2  UNL     1      42.832-407.776  14.883  1.00  0.00    -0.279 OA
BRANCH  11  14
HETATM   14  N1  UNL     1      40.551-408.015  14.449  1.00  0.00    -0.365 N 
ATOM     15  H12 UNL     1      40.551-408.120  13.434  1.00  0.00     0.159 HD
ATOM     16  H11 UNL     1      39.586-407.907  14.763  1.00  0.00     0.159 HD
ENDBRANCH  11  14
ENDBRANCH   6   7
ENDBRANCH   3   6
ENDBRANCH   2   3
ENDBRANCH   1   2
BRANCH   1  17
HETATM   17  N5  UNL     1      43.871-403.177  16.697  1.00  0.00    -0.329 N 
BRANCH  17  18
HETATM   18  C7  UNL     1      42.968-402.430  15.870  1.00  0.00     0.133 C 
BRANCH  18  19
HETATM   19  C8  UNL     1      42.271-401.297  16.460  1.00  0.00     0.042 C 
BRANCH  19  20
HETATM   20  C9  UNL     1      42.371-399.955  15.829  1.00  0.00     0.148 C 
BRANCH  20  21
HETATM   21  N6  UNL     1      43.722-399.456  15.836  1.00  0.00    -0.305 N 
ATOM     22  H6  UNL     1      44.213-399.236  14.969  1.00  0.00     0.187 HD
BRANCH  21  23
HETATM   23  O1  UNL     1      44.240-399.312  16.897  1.00  0.00    -0.295 OA
ATOM     24  H1  UNL     1      45.118-398.950  16.903  1.00  0.00     0.244 HD
ENDBRANCH  21  23
ENDBRANCH  20  21
ENDBRANCH  19  20
ENDBRANCH  18  19
ENDBRANCH  17  18
BRANCH  17  25
HETATM   25  C10 UNL     1      44.732-402.378  17.538  1.00  0.00     0.211 C 
HETATM   26  N7  UNL     1      45.885-401.878  17.163  1.00  0.00    -0.256 N 
HETATM   27  N8  UNL     1      46.442-401.169  18.223  1.00  0.00    -0.006 NA
ATOM     28  H7  UNL     1      46.307-401.990  16.241  1.00  0.00     0.187 HD
HETATM   29  N9  UNL     1      45.412-400.856  19.135  1.00  0.00    -0.006 NA
HETATM   30  N10 UNL     1      44.529-401.939  18.860  1.00  0.00    -0.256 N 
ATOM     31  H10 UNL     1      43.857-402.335  19.518  1.00  0.00     0.187 HD
ENDBRANCH  17  25
ENDBRANCH   1  17
TORSDOF 12
ENDMDL
MODEL 3
REMARK VINA RESULT: -5.932334749      1.735      2.258
REMARK  12 active torsions:
REMARK  status: ('A' for Active; 'I' for Inactive)
REMARK    1  A    between atoms: N1_1  and  C1_4 
REMARK    2  A    between atoms: C3_9  and  C4_10 
REMARK    3  A    between atoms: C4_10  and  N4_11 
REMARK    4  A    between atoms: N4_11  and  C5_14 
REMARK    5  A    between atoms: C5_14  and  C6_15 
REMARK    6  A    between atoms: C6_15  and  N5_16 
REMARK    7  A    between atoms: N5_16  and  C7_17 
REMARK    8  A    between atoms: N5_16  and  C10_24 
REMARK    9  A    between atoms: C7_17  and  C8_18 
REMARK   10  A    between atoms: C8_18  and  C9_19 
REMARK   11  A    between atoms: C9_19  and  N6_20 
REMARK   12  A    between atoms: N6_20  and  O1_22 
ROOT
HETATM    1  C6  UNL     1      44.562-404.361  16.648  1.00  0.00     0.094 C 
ENDROOT
BRANCH   1   2
HETATM    2  C5  UNL     1      45.550-405.389  16.277  1.00  0.00     0.277 C 
BRANCH   2   3
HETATM    3  N4  UNL     1      45.490-406.593  17.020  1.00  0.00    -0.065 N 
ATOM      4  H42 UNL     1      44.860-406.520  17.819  1.00  0.00     0.277 HD
ATOM      5  H41 UNL     1      46.355-406.773  17.531  1.00  0.00     0.277 HD
BRANCH   3   6
HETATM    6  C4  UNL     1      45.122-407.733  16.111  1.00  0.00     0.301 C 
BRANCH   6   7
HETATM    7  C3  UNL     1      43.671-407.843  15.978  1.00  0.00     0.123 A 
HETATM    8  C2  UNL     1      42.807-408.146  17.040  1.00  0.00     0.151 A 
HETATM    9  N2  UNL     1      41.570-408.173  16.571  1.00  0.00    -0.308 N 
HETATM   10  N3  UNL     1      43.246-408.364  18.378  1.00  0.00    -0.080 NA
HETATM   11  C1  UNL     1      41.643-407.896  15.246  1.00  0.00     0.223 A 
ATOM     12  H2  UNL     1      40.722-408.365  17.105  1.00  0.00     0.170 HD
HETATM   13  O2  UNL     1      42.917-407.703  14.926  1.00  0.00    -0.279 OA
BRANCH  11  14
HETATM   14  N1  UNL     1      40.635-407.839  14.458  1.00  0.00    -0.365 N 
ATOM     15  H12 UNL     1      40.436-407.115  13.767  1.00  0.00     0.159 HD
ATOM     16  H11 UNL     1      39.887-408.532  14.425  1.00  0.00     0.159 HD
ENDBRANCH  11  14
ENDBRANCH   6   7
ENDBRANCH   3   6
ENDBRANCH   2   3
ENDBRANCH   1   2
BRANCH   1  17
HETATM   17  N5  UNL     1      44.761-402.990  16.430  1.00  0.00    -0.329 N 
BRANCH  17  18
HETATM   18  C7  UNL     1      46.075-402.425  16.325  1.00  0.00     0.133 C 
BRANCH  18  19
HETATM   19  C8  UNL     1      46.705-401.917  17.535  1.00  0.00     0.042 C 
BRANCH  19  20
HETATM   20  C9  UNL     1      46.774-400.451  17.775  1.00  0.00     0.148 C 
BRANCH  20  21
HETATM   21  N6  UNL     1      46.081-400.070  18.979  1.00  0.00    -0.305 N 
ATOM     22  H6  UNL     1      46.315-399.213  19.479  1.00  0.00     0.187 HD
BRANCH  21  23
HETATM   23  O1  UNL     1      45.224-400.800  19.364  1.00  0.00    -0.295 OA
ATOM     24  H1  UNL     1      45.450-401.399  20.065  1.00  0.00     0.244 HD
ENDBRANCH  21  23
ENDBRANCH  20  21
ENDBRANCH  19  20
ENDBRANCH  18  19
ENDBRANCH  17  18
BRANCH  17  25
HETATM   25  C10 UNL     1      43.679-402.036  16.346  1.00  0.00     0.211 C 
HETATM   26  N7  UNL     1      43.207-401.353  17.361  1.00  0.00    -0.256 N 
HETATM   27  N8  UNL     1      42.170-400.537  16.919  1.00  0.00    -0.006 NA
ATOM     28  H7  UNL     1      43.547-401.410  18.321  1.00  0.00     0.187 HD
HETATM   29  N9  UNL     1      42.289-400.388  15.521  1.00  0.00    -0.006 NA
HETATM   30  N10 UNL     1      42.950-401.613  15.218  1.00  0.00    -0.256 N 
ATOM     31  H10 UNL     1      42.903-402.105  14.326  1.00  0.00     0.187 HD
ENDBRANCH  17  25
ENDBRANCH   1  17
TORSDOF 12
ENDMDL
MODEL 4
REMARK VINA RESULT: -5.877012643      1.759      5.944
REMARK  12 active torsions:
REMARK  status: ('A' for Active; 'I' for Inactive)
REMARK    1  A    between atoms: N1_1  and  C1_4 
REMARK    2  A    between atoms: C3_9  and  C4_10 
REMARK    3  A    between atoms: C4_10  and  N4_11 
REMARK    4  A    between atoms: N4_11  and  C5_14 
REMARK    5  A    between atoms: C5_14  and  C6_15 
REMARK    6  A    between atoms: C6_15  and  N5_16 
REMARK    7  A    between atoms: N5_16  and  C7_17 
REMARK    8  A    between atoms: N5_16  and  C10_24 
REMARK    9  A    between atoms: C7_17  and  C8_18 
REMARK   10  A    between atoms: C8_18  and  C9_19 
REMARK   11  A    between atoms: C9_19  and  N6_20 
REMARK   12  A    between atoms: N6_20  and  O1_22 
ROOT
HETATM    1  C6  UNL     1      42.811-405.379  16.630  1.00  0.00     0.094 C 
ENDROOT
BRANCH   1   2
HETATM    2  C5  UNL     1      43.997-404.902  15.899  1.00  0.00     0.277 C 
BRANCH   2   3
HETATM    3  N4  UNL     1      45.094-404.508  16.703  1.00  0.00    -0.065 N 
ATOM      4  H42 UNL     1      45.849-405.193  16.685  1.00  0.00     0.277 HD
ATOM      5  H41 UNL     1      44.877-404.554  17.699  1.00  0.00     0.277 HD
BRANCH   3   6
HETATM    6  C4  UNL     1      45.561-403.140  16.288  1.00  0.00     0.301 C 
BRANCH   6   7
HETATM    7  C3  UNL     1      44.579-402.122  16.655  1.00  0.00     0.123 A 
HETATM    8  C2  UNL     1      44.468-401.565  17.938  1.00  0.00     0.151 A 
HETATM    9  N2  UNL     1      43.478-400.686  17.921  1.00  0.00    -0.308 N 
HETATM   10  N3  UNL     1      45.315-401.917  19.027  1.00  0.00    -0.080 NA
HETATM   11  C1  UNL     1      42.972-400.683  16.664  1.00  0.00     0.223 A 
ATOM     12  H2  UNL     1      43.158-400.118  18.706  1.00  0.00     0.170 HD
HETATM   13  O2  UNL     1      43.657-401.555  15.933  1.00  0.00    -0.279 OA
BRANCH  11  14
HETATM   14  N1  UNL     1      41.994-399.953  16.276  1.00  0.00    -0.365 N 
ATOM     15  H12 UNL     1      41.788-398.997  16.569  1.00  0.00     0.159 HD
ATOM     16  H11 UNL     1      41.282-400.247  15.606  1.00  0.00     0.159 HD
ENDBRANCH  11  14
ENDBRANCH   6   7
ENDBRANCH   3   6
ENDBRANCH   2   3
ENDBRANCH   1   2
BRANCH   1  17
HETATM   17  N5  UNL     1      42.225-406.635  16.408  1.00  0.00    -0.329 N 
BRANCH  17  18
HETATM   18  C7  UNL     1      42.285-407.679  17.388  1.00  0.00     0.133 C 
BRANCH  18  19
HETATM   19  C8  UNL     1      43.267-408.737  17.207  1.00  0.00     0.042 C 
BRANCH  19  20
HETATM   20  C9  UNL     1      44.707-408.396  17.062  1.00  0.00     0.148 C 
BRANCH  20  21
HETATM   21  N6  UNL     1      45.115-408.365  15.680  1.00  0.00    -0.305 N 
ATOM     22  H6  UNL     1      45.040-407.514  15.122  1.00  0.00     0.187 HD
BRANCH  21  23
HETATM   23  O1  UNL     1      45.544-409.374  15.220  1.00  0.00    -0.295 OA
ATOM     24  H1  UNL     1      45.810-409.355  14.309  1.00  0.00     0.244 HD
ENDBRANCH  21  23
ENDBRANCH  20  21
ENDBRANCH  19  20
ENDBRANCH  18  19
ENDBRANCH  17  18
BRANCH  17  25
HETATM   25  C10 UNL     1      41.566-406.993  15.173  1.00  0.00     0.211 C 
HETATM   26  N7  UNL     1      41.480-406.215  14.121  1.00  0.00    -0.256 N 
HETATM   27  N8  UNL     1      40.778-406.878  13.119  1.00  0.00    -0.006 NA
ATOM     28  H7  UNL     1      41.866-405.273  14.048  1.00  0.00     0.187 HD
HETATM   29  N9  UNL     1      40.807-408.260  13.399  1.00  0.00    -0.006 NA
HETATM   30  N10 UNL     1      40.938-408.201  14.816  1.00  0.00    -0.256 N 
ATOM     31  H10 UNL     1      40.627-408.921  15.468  1.00  0.00     0.187 HD
ENDBRANCH  17  25
ENDBRANCH   1  17
TORSDOF 12
ENDMDL
MODEL 5
REMARK VINA RESULT: -5.771170823      2.057      2.812
REMARK  12 active torsions:
REMARK  status: ('A' for Active; 'I' for Inactive)
REMARK    1  A    between atoms: N1_1  and  C1_4 
REMARK    2  A    between atoms: C3_9  and  C4_10 
REMARK    3  A    between atoms: C4_10  and  N4_11 
REMARK    4  A    between atoms: N4_11  and  C5_14 
REMARK    5  A    between atoms: C5_14  and  C6_15 
REMARK    6  A    between atoms: C6_15  and  N5_16 
REMARK    7  A    between atoms: N5_16  and  C7_17 
REMARK    8  A    between atoms: N5_16  and  C10_24 
REMARK    9  A    between atoms: C7_17  and  C8_18 
REMARK   10  A    between atoms: C8_18  and  C9_19 
REMARK   11  A    between atoms: C9_19  and  N6_20 
REMARK   12  A    between atoms: N6_20  and  O1_22 
ROOT
HETATM    1  C6  UNL     1      45.327-404.425  16.589  1.00  0.00     0.094 C 
ENDROOT
BRANCH   1   2
HETATM    2  C5  UNL     1      46.049-405.682  16.326  1.00  0.00     0.277 C 
BRANCH   2   3
HETATM    3  N4  UNL     1      45.590-406.813  17.043  1.00  0.00    -0.065 N 
ATOM      4  H42 UNL     1      44.866-406.571  17.719  1.00  0.00     0.277 HD
ATOM      5  H41 UNL     1      46.290-407.165  17.696  1.00  0.00     0.277 HD
BRANCH   3   6
HETATM    6  C4  UNL     1      45.132-407.873  16.079  1.00  0.00     0.301 C 
BRANCH   6   7
HETATM    7  C3  UNL     1      43.676-407.871  15.957  1.00  0.00     0.123 A 
HETATM    8  C2  UNL     1      42.800-408.114  17.025  1.00  0.00     0.151 A 
HETATM    9  N2  UNL     1      41.561-408.042  16.566  1.00  0.00    -0.308 N 
HETATM   10  N3  UNL     1      43.231-408.374  18.358  1.00  0.00    -0.080 NA
HETATM   11  C1  UNL     1      41.645-407.763  15.242  1.00  0.00     0.223 A 
ATOM     12  H2  UNL     1      40.705-408.173  17.106  1.00  0.00     0.170 HD
HETATM   13  O2  UNL     1      42.927-407.666  14.913  1.00  0.00    -0.279 OA
BRANCH  11  14
HETATM   14  N1  UNL     1      40.637-407.623  14.463  1.00  0.00    -0.365 N 
ATOM     15  H12 UNL     1      40.517-406.917  13.737  1.00  0.00     0.159 HD
ATOM     16  H11 UNL     1      39.810-408.220  14.475  1.00  0.00     0.159 HD
ENDBRANCH  11  14
ENDBRANCH   6   7
ENDBRANCH   3   6
ENDBRANCH   2   3
ENDBRANCH   1   2
BRANCH   1  17
HETATM   17  N5  UNL     1      45.971-403.193  16.775  1.00  0.00    -0.329 N 
BRANCH  17  18
HETATM   18  C7  UNL     1      47.384-403.042  16.579  1.00  0.00     0.133 C 
BRANCH  18  19
HETATM   19  C8  UNL     1      47.841-402.259  15.441  1.00  0.00     0.042 C 
BRANCH  19  20
HETATM   20  C9  UNL     1      48.472-400.931  15.660  1.00  0.00     0.148 C 
BRANCH  20  21
HETATM   21  N6  UNL     1      47.601-399.851  15.271  1.00  0.00    -0.305 N 
ATOM     22  H6  UNL     1      47.661-399.426  14.345  1.00  0.00     0.187 HD
BRANCH  21  23
HETATM   23  O1  UNL     1      46.810-399.477  16.076  1.00  0.00    -0.295 OA
ATOM     24  H1  UNL     1      46.946-398.614  16.447  1.00  0.00     0.244 HD
ENDBRANCH  21  23
ENDBRANCH  20  21
ENDBRANCH  19  20
ENDBRANCH  18  19
ENDBRANCH  17  18
BRANCH  17  25
HETATM   25  C10 UNL     1      45.287-402.002  17.223  1.00  0.00     0.211 C 
HETATM   26  N7  UNL     1      45.513-401.397  18.365  1.00  0.00    -0.256 N 
HETATM   27  N8  UNL     1      44.676-400.291  18.469  1.00  0.00    -0.006 NA
ATOM     28  H7  UNL     1      46.194-401.692  19.065  1.00  0.00     0.187 HD
HETATM   29  N9  UNL     1      44.230-399.950  17.175  1.00  0.00    -0.006 NA
HETATM   30  N10 UNL     1      44.309-401.234  16.563  1.00  0.00    -0.256 N 
ATOM     31  H10 UNL     1      43.746-401.548  15.773  1.00  0.00     0.187 HD
ENDBRANCH  17  25
ENDBRANCH   1  17
TORSDOF 12
ENDMDL
