MODEL 1
REMARK VINA RESULT: -9.899111223      0.000      0.000
REMARK  3 active torsions:
REMARK  status: ('A' for Active; 'I' for Inactive)
REMARK    1  A    between atoms: C5_6  and  O2_7 
REMARK    2  A    between atoms: O2_7  and  C6_8 
REMARK    3  A    between atoms: C14_17  and  C15_18 
ROOT
HETATM    1  C6  UNL     1      -3.548 -15.671  26.329  1.00  0.00     0.095 A 
HETATM    2  C7  UNL     1      -3.305 -16.405  25.195  1.00  0.00    -0.021 A 
HETATM    3  C8  UNL     1      -2.778 -17.817  25.245  1.00  0.00     0.052 C 
HETATM    4  C9  UNL     1      -3.566 -15.826  23.970  1.00  0.00    -0.046 A 
HETATM    5  C10 UNL     1      -3.311 -16.589  22.720  1.00  0.00     0.049 C 
HETATM    6  C11 UNL     1      -4.057 -14.553  23.838  1.00  0.00    -0.033 A 
HETATM    7  C12 UNL     1      -4.292 -13.949  22.495  1.00  0.00     0.050 C 
HETATM    8  C13 UNL     1      -4.295 -13.833  25.010  1.00  0.00     0.053 A 
HETATM    9 CL1  UNL     1      -4.924 -12.208  24.749  1.00  0.00    -0.083 Cl
HETATM   10  C14 UNL     1      -4.057 -14.346  26.277  1.00  0.00     0.022 A 
ENDROOT
BRANCH   1  11
HETATM   11  O2  UNL     1      -3.337 -16.157  27.545  1.00  0.00    -0.301 OA
BRANCH  11  12
HETATM   12  C5  UNL     1      -3.341 -17.207  28.321  1.00  0.00     0.174 A 
HETATM   13  C4  UNL     1      -4.436 -17.813  28.863  1.00  0.00     0.211 A 
HETATM   14  C3  UNL     1      -4.293 -18.936  29.670  1.00  0.00     0.090 A 
HETATM   15  O1  UNL     1      -5.595 -17.410  28.676  1.00  0.00    -0.285 OA
HETATM   16  C2  UNL     1      -3.044 -19.444  29.929  1.00  0.00     0.055 A 
HETATM   17  C1  UNL     1      -2.838 -20.626  30.766  1.00  0.00     0.077 C 
HETATM   18  O3  UNL     1      -2.009 -18.856  29.410  1.00  0.00    -0.298 OA
HETATM   19  C18 UNL     1      -2.117 -17.808  28.653  1.00  0.00     0.195 A 
HETATM   20  N1  UNL     1      -0.897 -17.248  28.129  1.00  0.00    -0.071 NA
ENDBRANCH  11  12
ENDBRANCH   1  11
BRANCH  10  21
HETATM   21  C15 UNL     1      -4.183 -13.491  27.428  1.00  0.00    -0.073 C 
HETATM   22  C16 UNL     1      -3.176 -12.423  27.684  1.00  0.00     0.044 C 
HETATM   23  C17 UNL     1      -5.535 -13.177  27.965  1.00  0.00     0.044 C 
ENDBRANCH  10  21
TORSDOF 3
ENDMDL
MODEL 2
REMARK VINA RESULT: -9.700860273      1.204      1.704
REMARK  3 active torsions:
REMARK  status: ('A' for Active; 'I' for Inactive)
REMARK    1  A    between atoms: C5_6  and  O2_7 
REMARK    2  A    between atoms: O2_7  and  C6_8 
REMARK    3  A    between atoms: C14_17  and  C15_18 
ROOT
HETATM    1  C6  UNL     1      -3.548 -15.704  26.340  1.00  0.00     0.095 A 
HETATM    2  C7  UNL     1      -3.295 -16.443  25.212  1.00  0.00    -0.021 A 
HETATM    3  C8  UNL     1      -2.769 -17.855  25.273  1.00  0.00     0.052 C 
HETATM    4  C9  UNL     1      -3.545 -15.870  23.982  1.00  0.00    -0.046 A 
HETATM    5  C10 UNL     1      -3.279 -16.639  22.738  1.00  0.00     0.049 C 
HETATM    6  C11 UNL     1      -4.035 -14.598  23.840  1.00  0.00    -0.033 A 
HETATM    7  C12 UNL     1      -4.258 -13.999  22.492  1.00  0.00     0.050 C 
HETATM    8  C13 UNL     1      -4.283 -13.872  25.007  1.00  0.00     0.053 A 
HETATM    9 CL1  UNL     1      -4.910 -12.248  24.733  1.00  0.00    -0.083 Cl
HETATM   10  C14 UNL     1      -4.056 -14.379  26.278  1.00  0.00     0.022 A 
ENDROOT
BRANCH   1  11
HETATM   11  O2  UNL     1      -3.348 -16.185  27.561  1.00  0.00    -0.301 OA
BRANCH  11  12
HETATM   12  C5  UNL     1      -3.072 -17.228  28.295  1.00  0.00     0.174 A 
HETATM   13  C4  UNL     1      -1.833 -17.738  28.549  1.00  0.00     0.211 A 
HETATM   14  C3  UNL     1      -1.686 -18.857  29.362  1.00  0.00     0.090 A 
HETATM   15  O1  UNL     1      -0.791 -17.251  28.083  1.00  0.00    -0.285 OA
HETATM   16  C2  UNL     1      -2.789 -19.458  29.915  1.00  0.00     0.055 A 
HETATM   17  C1  UNL     1      -2.688 -20.634  30.781  1.00  0.00     0.077 C 
HETATM   18  O3  UNL     1      -3.962 -18.965  29.662  1.00  0.00    -0.298 OA
HETATM   19  C18 UNL     1      -4.127 -17.922  28.909  1.00  0.00     0.195 A 
HETATM   20  N1  UNL     1      -5.477 -17.462  28.708  1.00  0.00    -0.071 NA
ENDBRANCH  11  12
ENDBRANCH   1  11
BRANCH  10  21
HETATM   21  C15 UNL     1      -4.192 -13.519  27.424  1.00  0.00    -0.073 C 
HETATM   22  C16 UNL     1      -3.192 -12.444  27.678  1.00  0.00     0.044 C 
HETATM   23  C17 UNL     1      -5.548 -13.211  27.953  1.00  0.00     0.044 C 
ENDBRANCH  10  21
TORSDOF 3
ENDMDL
MODEL 3
REMARK VINA RESULT: -9.480611579      1.028      1.278
REMARK  3 active torsions:
REMARK  status: ('A' for Active; 'I' for Inactive)
REMARK    1  A    between atoms: C5_6  and  O2_7 
REMARK    2  A    between atoms: O2_7  and  C6_8 
REMARK    3  A    between atoms: C14_17  and  C15_18 
ROOT
HETATM    1  C6  UNL     1      -3.367 -16.335  26.816  1.00  0.00     0.095 A 
HETATM    2  C7  UNL     1      -3.155 -16.916  25.590  1.00  0.00    -0.021 A 
HETATM    3  C8  UNL     1      -2.628 -18.321  25.443  1.00  0.00     0.052 C 
HETATM    4  C9  UNL     1      -3.449 -16.184  24.458  1.00  0.00    -0.046 A 
HETATM    5  C10 UNL     1      -3.229 -16.778  23.113  1.00  0.00     0.049 C 
HETATM    6  C11 UNL     1      -3.942 -14.906  24.505  1.00  0.00    -0.033 A 
HETATM    7  C12 UNL     1      -4.213 -14.133  23.258  1.00  0.00     0.050 C 
HETATM    8  C13 UNL     1      -4.147 -14.345  25.767  1.00  0.00     0.053 A 
HETATM    9 CL1  UNL     1      -4.782 -12.701  25.736  1.00  0.00    -0.083 Cl
HETATM   10  C14 UNL     1      -3.875 -15.016  26.950  1.00  0.00     0.022 A 
ENDROOT
BRANCH   1  11
HETATM   11  O2  UNL     1      -3.123 -16.975  27.953  1.00  0.00    -0.301 OA
BRANCH  11  12
HETATM   12  C5  UNL     1      -3.374 -18.015  28.700  1.00  0.00     0.174 A 
HETATM   13  C4  UNL     1      -4.604 -18.458  29.088  1.00  0.00     0.211 A 
HETATM   14  C3  UNL     1      -4.725 -19.592  29.884  1.00  0.00     0.090 A 
HETATM   15  O1  UNL     1      -5.661 -17.893  28.765  1.00  0.00    -0.285 OA
HETATM   16  C2  UNL     1      -3.604 -20.274  30.287  1.00  0.00     0.055 A 
HETATM   17  C1  UNL     1      -3.677 -21.476  31.120  1.00  0.00     0.077 C 
HETATM   18  O3  UNL     1      -2.440 -19.840  29.914  1.00  0.00    -0.298 OA
HETATM   19  C18 UNL     1      -2.300 -18.786  29.171  1.00  0.00     0.195 A 
HETATM   20  N1  UNL     1      -0.957 -18.406  28.816  1.00  0.00    -0.071 NA
ENDBRANCH  11  12
ENDBRANCH   1  11
BRANCH  10  21
HETATM   21  C15 UNL     1      -3.968 -14.318  28.205  1.00  0.00    -0.073 C 
HETATM   22  C16 UNL     1      -5.056 -14.647  29.168  1.00  0.00     0.044 C 
HETATM   23  C17 UNL     1      -2.730 -13.808  28.854  1.00  0.00     0.044 C 
ENDBRANCH  10  21
TORSDOF 3
ENDMDL
MODEL 4
REMARK VINA RESULT: -9.382911730      2.556      5.060
REMARK  3 active torsions:
REMARK  status: ('A' for Active; 'I' for Inactive)
REMARK    1  A    between atoms: C5_6  and  O2_7 
REMARK    2  A    between atoms: O2_7  and  C6_8 
REMARK    3  A    between atoms: C14_17  and  C15_18 
ROOT
HETATM    1  C6  UNL     1      -3.745 -14.842  26.181  1.00  0.00     0.095 A 
HETATM    2  C7  UNL     1      -4.032 -14.147  25.033  1.00  0.00    -0.021 A 
HETATM    3  C8  UNL     1      -4.476 -12.706  25.052  1.00  0.00     0.052 C 
HETATM    4  C9  UNL     1      -3.892 -14.794  23.822  1.00  0.00    -0.046 A 
HETATM    5  C10 UNL     1      -4.197 -14.074  22.557  1.00  0.00     0.049 C 
HETATM    6  C11 UNL     1      -3.482 -16.097  23.718  1.00  0.00    -0.033 A 
HETATM    7  C12 UNL     1      -3.379 -16.774  22.392  1.00  0.00     0.050 C 
HETATM    8  C13 UNL     1      -3.198 -16.777  24.904  1.00  0.00     0.053 A 
HETATM    9 CL1  UNL     1      -2.678 -18.446  24.679  1.00  0.00    -0.083 Cl
HETATM   10  C14 UNL     1      -3.314 -16.195  26.158  1.00  0.00     0.022 A 
ENDROOT
BRANCH   1  11
HETATM   11  O2  UNL     1      -3.840 -14.290  27.384  1.00  0.00    -0.301 OA
BRANCH  11  12
HETATM   12  C5  UNL     1      -4.164 -13.237  28.084  1.00  0.00     0.174 A 
HETATM   13  C4  UNL     1      -5.391 -12.644  28.138  1.00  0.00     0.211 A 
HETATM   14  C3  UNL     1      -5.597 -11.525  28.937  1.00  0.00     0.090 A 
HETATM   15  O1  UNL     1      -6.370 -13.053  27.494  1.00  0.00    -0.285 OA
HETATM   16  C2  UNL     1      -4.564 -11.007  29.678  1.00  0.00     0.055 A 
HETATM   17  C1  UNL     1      -4.730  -9.835  30.539  1.00  0.00     0.077 C 
HETATM   18  O3  UNL     1      -3.401 -11.579  29.616  1.00  0.00    -0.298 OA
HETATM   19  C18 UNL     1      -3.183 -12.625  28.879  1.00  0.00     0.195 A 
HETATM   20  N1  UNL     1      -1.852 -13.175  28.897  1.00  0.00    -0.071 NA
ENDBRANCH  11  12
ENDBRANCH   1  11
BRANCH  10  21
HETATM   21  C15 UNL     1      -3.151 -17.003  27.337  1.00  0.00    -0.073 C 
HETATM   22  C16 UNL     1      -1.902 -16.910  28.145  1.00  0.00     0.044 C 
HETATM   23  C17 UNL     1      -4.348 -17.391  28.132  1.00  0.00     0.044 C 
ENDBRANCH  10  21
TORSDOF 3
ENDMDL
MODEL 5
REMARK VINA RESULT: -9.351979639      1.506      2.149
REMARK  3 active torsions:
REMARK  status: ('A' for Active; 'I' for Inactive)
REMARK    1  A    between atoms: C5_6  and  O2_7 
REMARK    2  A    between atoms: O2_7  and  C6_8 
REMARK    3  A    between atoms: C14_17  and  C15_18 
ROOT
HETATM    1  C6  UNL     1      -3.410 -16.264  26.755  1.00  0.00     0.095 A 
HETATM    2  C7  UNL     1      -3.190 -16.853  25.535  1.00  0.00    -0.021 A 
HETATM    3  C8  UNL     1      -2.693 -18.271  25.402  1.00  0.00     0.052 C 
HETATM    4  C9  UNL     1      -3.447 -16.118  24.396  1.00  0.00    -0.046 A 
HETATM    5  C10 UNL     1      -3.216 -16.723  23.057  1.00  0.00     0.049 C 
HETATM    6  C11 UNL     1      -3.911 -14.830  24.430  1.00  0.00    -0.033 A 
HETATM    7  C12 UNL     1      -4.142 -14.055  23.176  1.00  0.00     0.050 C 
HETATM    8  C13 UNL     1      -4.126 -14.259  25.686  1.00  0.00     0.053 A 
HETATM    9 CL1  UNL     1      -4.722 -12.601  25.638  1.00  0.00    -0.083 Cl
HETATM   10  C14 UNL     1      -3.891 -14.933  26.876  1.00  0.00     0.022 A 
ENDROOT
BRANCH   1  11
HETATM   11  O2  UNL     1      -3.202 -16.905  27.898  1.00  0.00    -0.301 OA
BRANCH  11  12
HETATM   12  C5  UNL     1      -2.587 -17.880  28.511  1.00  0.00     0.174 A 
HETATM   13  C4  UNL     1      -1.238 -18.031  28.648  1.00  0.00     0.211 A 
HETATM   14  C3  UNL     1      -0.719 -19.121  29.337  1.00  0.00     0.090 A 
HETATM   15  O1  UNL     1      -0.415 -17.230  28.178  1.00  0.00    -0.285 OA
HETATM   16  C2  UNL     1      -1.562 -20.056  29.886  1.00  0.00     0.055 A 
HETATM   17  C1  UNL     1      -1.067 -21.217  30.625  1.00  0.00     0.077 C 
HETATM   18  O3  UNL     1      -2.843 -19.902  29.745  1.00  0.00    -0.298 OA
HETATM   19  C18 UNL     1      -3.352 -18.893  29.108  1.00  0.00     0.195 A 
HETATM   20  N1  UNL     1      -4.789 -18.827  29.025  1.00  0.00    -0.071 NA
ENDBRANCH  11  12
ENDBRANCH   1  11
BRANCH  10  21
HETATM   21  C15 UNL     1      -3.990 -14.228  28.127  1.00  0.00    -0.073 C 
HETATM   22  C16 UNL     1      -5.139 -14.480  29.041  1.00  0.00     0.044 C 
HETATM   23  C17 UNL     1      -2.749 -13.805  28.831  1.00  0.00     0.044 C 
ENDBRANCH  10  21
TORSDOF 3
ENDMDL
