MODEL 1
REMARK VINA RESULT: -7.658701292      0.000      0.000
REMARK  5 active torsions:
REMARK  status: ('A' for Active; 'I' for Inactive)
REMARK    1  A    between atoms: C2_2  and  O1_3 
REMARK    2  A    between atoms: O1_3  and  C3_4 
REMARK    3  A    between atoms: C3_4  and  C4_6 
REMARK    4  A    between atoms: C7_10  and  O3_11 
REMARK    5  A    between atoms: C12_17  and  C13_18 
ROOT
HETATM    1  C4  UNL     1      -1.367 -18.902  28.055  1.00  0.00     0.092 A 
HETATM    2  S1  UNL     1      -1.452 -20.303  29.019  1.00  0.00    -0.083 SA
HETATM    3  C5  UNL     1      -3.060 -20.759  28.708  1.00  0.00     0.019 A 
HETATM    4  C6  UNL     1      -3.863 -21.824  29.149  1.00  0.00     0.056 A 
HETATM    5  C7  UNL     1      -5.163 -21.937  28.716  1.00  0.00     0.072 A 
HETATM    6  C8  UNL     1      -5.629 -20.980  27.851  1.00  0.00    -0.028 A 
HETATM    7  C9  UNL     1      -7.052 -21.107  27.379  1.00  0.00     0.051 C 
HETATM    8  C10 UNL     1      -4.835 -19.957  27.436  1.00  0.00     0.023 A 
HETATM    9  C11 UNL     1      -3.501 -19.797  27.849  1.00  0.00    -0.006 A 
HETATM   10  C12 UNL     1      -2.625 -18.821  27.501  1.00  0.00     0.013 A 
ENDROOT
BRANCH  10  11
HETATM   11  C13 UNL     1      -2.966 -17.699  26.567  1.00  0.00     0.021 A 
HETATM   12  C14 UNL     1      -2.806 -17.925  25.230  1.00  0.00    -0.045 A 
HETATM   13  C15 UNL     1      -2.321 -19.213  24.720  1.00  0.00     0.049 C 
HETATM   14  C16 UNL     1      -3.118 -16.892  24.340  1.00  0.00     0.050 A 
HETATM   15  C17 UNL     1      -3.576 -15.671  24.808  1.00  0.00     0.119 A 
HETATM   16  F1  UNL     1      -3.885 -14.652  23.942  1.00  0.00    -0.206 F 
HETATM   17  C18 UNL     1      -3.735 -15.451  26.159  1.00  0.00     0.085 A 
HETATM   18  C19 UNL     1      -3.421 -16.486  27.020  1.00  0.00     0.131 A 
HETATM   19  F2  UNL     1      -3.572 -16.283  28.345  1.00  0.00    -0.205 F 
ENDBRANCH  10  11
BRANCH   1  20
HETATM   20  C3  UNL     1      -0.242 -17.989  27.850  1.00  0.00     0.301 C 
HETATM   21  O2  UNL     1      -0.212 -16.895  28.437  1.00  0.00    -0.259 OA
BRANCH  20  22
HETATM   22  O1  UNL     1       0.770 -18.352  27.007  1.00  0.00    -0.317 OA
BRANCH  22  23
HETATM   23  C2  UNL     1       2.036 -18.773  27.414  1.00  0.00     0.174 C 
HETATM   24  C1  UNL     1       2.740 -19.452  26.273  1.00  0.00     0.034 C 
ENDBRANCH  22  23
ENDBRANCH  20  22
ENDBRANCH   1  20
BRANCH   5  25
HETATM   25  O3  UNL     1      -5.949 -22.987  29.153  1.00  0.00    -0.360 OA
ATOM     26  H3  UNL     1      -6.418 -22.919  29.977  1.00  0.00     0.217 HD
ENDBRANCH   5  25
TORSDOF 5
ENDMDL
MODEL 2
REMARK VINA RESULT: -7.600514737      4.146      6.798
REMARK  5 active torsions:
REMARK  status: ('A' for Active; 'I' for Inactive)
REMARK    1  A    between atoms: C2_2  and  O1_3 
REMARK    2  A    between atoms: O1_3  and  C3_4 
REMARK    3  A    between atoms: C3_4  and  C4_6 
REMARK    4  A    between atoms: C7_10  and  O3_11 
REMARK    5  A    between atoms: C12_17  and  C13_18 
ROOT
HETATM    1  C4  UNL     1      -4.315 -13.968  25.141  1.00  0.00     0.092 A 
HETATM    2  S1  UNL     1      -3.904 -15.284  24.141  1.00  0.00    -0.083 SA
HETATM    3  C5  UNL     1      -3.291 -16.348  25.317  1.00  0.00     0.019 A 
HETATM    4  C6  UNL     1      -2.755 -17.644  25.258  1.00  0.00     0.056 A 
HETATM    5  C7  UNL     1      -2.329 -18.271  26.405  1.00  0.00     0.072 A 
HETATM    6  C8  UNL     1      -2.450 -17.583  27.586  1.00  0.00    -0.028 A 
HETATM    7  C9  UNL     1      -1.983 -18.271  28.839  1.00  0.00     0.051 C 
HETATM    8  C10 UNL     1      -2.972 -16.328  27.621  1.00  0.00     0.023 A 
HETATM    9  C11 UNL     1      -3.421 -15.645  26.477  1.00  0.00    -0.006 A 
HETATM   10  C12 UNL     1      -3.954 -14.399  26.398  1.00  0.00     0.013 A 
ENDROOT
BRANCH  10  11
HETATM   11  C13 UNL     1      -4.158 -13.510  27.588  1.00  0.00     0.021 A 
HETATM   12  C14 UNL     1      -5.150 -13.850  28.462  1.00  0.00    -0.045 A 
HETATM   13  C15 UNL     1      -5.987 -15.038  28.253  1.00  0.00     0.049 C 
HETATM   14  C16 UNL     1      -5.359 -13.034  29.579  1.00  0.00     0.050 A 
HETATM   15  C17 UNL     1      -4.577 -11.910  29.787  1.00  0.00     0.119 A 
HETATM   16  F1  UNL     1      -4.775 -11.104  30.881  1.00  0.00    -0.206 F 
HETATM   17  C18 UNL     1      -3.578 -11.574  28.900  1.00  0.00     0.085 A 
HETATM   18  C19 UNL     1      -3.389 -12.394  27.804  1.00  0.00     0.131 A 
HETATM   19  F2  UNL     1      -2.415 -12.076  26.928  1.00  0.00    -0.205 F 
ENDBRANCH  10  11
BRANCH   1  20
HETATM   20  C3  UNL     1      -4.907 -12.680  24.777  1.00  0.00     0.301 C 
HETATM   21  O2  UNL     1      -4.255 -11.862  24.107  1.00  0.00    -0.259 OA
BRANCH  20  22
HETATM   22  O1  UNL     1      -6.179 -12.389  25.181  1.00  0.00    -0.317 OA
BRANCH  22  23
HETATM   23  C2  UNL     1      -6.692 -11.101  25.338  1.00  0.00     0.174 C 
HETATM   24  C1  UNL     1      -6.414 -10.606  26.728  1.00  0.00     0.034 C 
ENDBRANCH  22  23
ENDBRANCH  20  22
ENDBRANCH   1  20
BRANCH   5  25
HETATM   25  O3  UNL     1      -1.802 -19.547  26.342  1.00  0.00    -0.360 OA
ATOM     26  H3  UNL     1      -2.359 -20.280  26.107  1.00  0.00     0.217 HD
ENDBRANCH   5  25
TORSDOF 5
ENDMDL
MODEL 3
REMARK VINA RESULT: -7.591600183      3.572      6.330
REMARK  5 active torsions:
REMARK  status: ('A' for Active; 'I' for Inactive)
REMARK    1  A    between atoms: C2_2  and  O1_3 
REMARK    2  A    between atoms: O1_3  and  C3_4 
REMARK    3  A    between atoms: C3_4  and  C4_6 
REMARK    4  A    between atoms: C7_10  and  O3_11 
REMARK    5  A    between atoms: C12_17  and  C13_18 
ROOT
HETATM    1  C4  UNL     1      -3.557 -16.188  27.822  1.00  0.00     0.092 A 
HETATM    2  S1  UNL     1      -3.259 -17.342  26.606  1.00  0.00    -0.083 SA
HETATM    3  C5  UNL     1      -3.457 -16.359  25.233  1.00  0.00     0.019 A 
HETATM    4  C6  UNL     1      -3.368 -16.602  23.853  1.00  0.00     0.056 A 
HETATM    5  C7  UNL     1      -3.585 -15.583  22.954  1.00  0.00     0.072 A 
HETATM    6  C8  UNL     1      -3.888 -14.345  23.461  1.00  0.00    -0.028 A 
HETATM    7  C9  UNL     1      -4.125 -13.233  22.476  1.00  0.00     0.051 C 
HETATM    8  C10 UNL     1      -3.969 -14.131  24.801  1.00  0.00     0.023 A 
HETATM    9  C11 UNL     1      -3.755 -15.138  25.759  1.00  0.00    -0.006 A 
HETATM   10  C12 UNL     1      -3.811 -15.035  27.111  1.00  0.00     0.013 A 
ENDROOT
BRANCH  10  11
HETATM   11  C13 UNL     1      -4.127 -13.759  27.832  1.00  0.00     0.021 A 
HETATM   12  C14 UNL     1      -3.094 -13.119  28.454  1.00  0.00    -0.045 A 
HETATM   13  C15 UNL     1      -1.727 -13.651  28.423  1.00  0.00     0.049 C 
HETATM   14  C16 UNL     1      -3.366 -11.926  29.133  1.00  0.00     0.050 A 
HETATM   15  C17 UNL     1      -4.651 -11.413  29.172  1.00  0.00     0.119 A 
HETATM   16  F1  UNL     1      -4.927 -10.243  29.836  1.00  0.00    -0.206 F 
HETATM   17  C18 UNL     1      -5.688 -12.066  28.541  1.00  0.00     0.085 A 
HETATM   18  C19 UNL     1      -5.397 -13.242  27.876  1.00  0.00     0.131 A 
HETATM   19  F2  UNL     1      -6.403 -13.890  27.255  1.00  0.00    -0.205 F 
ENDBRANCH  10  11
BRANCH   1  20
HETATM   20  C3  UNL     1      -3.552 -16.355  29.276  1.00  0.00     0.301 C 
HETATM   21  O2  UNL     1      -4.187 -15.566  29.996  1.00  0.00    -0.259 OA
BRANCH  20  22
HETATM   22  O1  UNL     1      -2.843 -17.383  29.830  1.00  0.00    -0.317 OA
BRANCH  22  23
HETATM   23  C2  UNL     1      -3.393 -18.410  30.596  1.00  0.00     0.174 C 
HETATM   24  C1  UNL     1      -4.370 -19.197  29.769  1.00  0.00     0.034 C 
ENDBRANCH  22  23
ENDBRANCH  20  22
ENDBRANCH   1  20
BRANCH   5  25
HETATM   25  O3  UNL     1      -3.497 -15.828  21.597  1.00  0.00    -0.360 OA
ATOM     26  H3  UNL     1      -4.236 -16.201  21.132  1.00  0.00     0.217 HD
ENDBRANCH   5  25
TORSDOF 5
ENDMDL
MODEL 4
REMARK VINA RESULT: -7.548494875      1.570      2.081
REMARK  5 active torsions:
REMARK  status: ('A' for Active; 'I' for Inactive)
REMARK    1  A    between atoms: C2_2  and  O1_3 
REMARK    2  A    between atoms: O1_3  and  C3_4 
REMARK    3  A    between atoms: C3_4  and  C4_6 
REMARK    4  A    between atoms: C7_10  and  O3_11 
REMARK    5  A    between atoms: C12_17  and  C13_18 
ROOT
HETATM    1  C4  UNL     1      -1.244 -19.784  27.353  1.00  0.00     0.092 A 
HETATM    2  S1  UNL     1      -1.429 -21.123  28.388  1.00  0.00    -0.083 SA
HETATM    3  C5  UNL     1      -3.112 -21.332  28.277  1.00  0.00     0.019 A 
HETATM    4  C6  UNL     1      -4.010 -22.244  28.855  1.00  0.00     0.056 A 
HETATM    5  C7  UNL     1      -5.354 -22.167  28.572  1.00  0.00     0.072 A 
HETATM    6  C8  UNL     1      -5.766 -21.176  27.717  1.00  0.00    -0.028 A 
HETATM    7  C9  UNL     1      -7.237 -21.094  27.410  1.00  0.00     0.051 C 
HETATM    8  C10 UNL     1      -4.880 -20.304  27.168  1.00  0.00     0.023 A 
HETATM    9  C11 UNL     1      -3.498 -20.341  27.425  1.00  0.00    -0.006 A 
HETATM   10  C12 UNL     1      -2.531 -19.525  26.936  1.00  0.00     0.013 A 
ENDROOT
BRANCH  10  11
HETATM   11  C13 UNL     1      -2.803 -18.393  25.990  1.00  0.00     0.021 A 
HETATM   12  C14 UNL     1      -3.168 -17.196  26.535  1.00  0.00    -0.045 A 
HETATM   13  C15 UNL     1      -3.291 -17.016  27.986  1.00  0.00     0.049 C 
HETATM   14  C16 UNL     1      -3.429 -16.127  25.672  1.00  0.00     0.050 A 
HETATM   15  C17 UNL     1      -3.317 -16.283  24.300  1.00  0.00     0.119 A 
HETATM   16  F1  UNL     1      -3.570 -15.239  23.446  1.00  0.00    -0.206 F 
HETATM   17  C18 UNL     1      -2.948 -17.495  23.759  1.00  0.00     0.085 A 
HETATM   18  C19 UNL     1      -2.696 -18.538  24.630  1.00  0.00     0.131 A 
HETATM   19  F2  UNL     1      -2.334 -19.729  24.112  1.00  0.00    -0.205 F 
ENDBRANCH  10  11
BRANCH   1  20
HETATM   20  C3  UNL     1      -0.025 -19.065  26.981  1.00  0.00     0.301 C 
HETATM   21  O2  UNL     1       0.227 -17.960  27.491  1.00  0.00    -0.259 OA
BRANCH  20  22
HETATM   22  O1  UNL     1       0.829 -19.619  26.070  1.00  0.00    -0.317 OA
BRANCH  22  23
HETATM   23  C2  UNL     1       0.592 -20.803  25.371  1.00  0.00     0.174 C 
HETATM   24  C1  UNL     1       0.844 -20.590  23.906  1.00  0.00     0.034 C 
ENDBRANCH  22  23
ENDBRANCH  20  22
ENDBRANCH   1  20
BRANCH   5  25
HETATM   25  O3  UNL     1      -6.235 -23.066  29.144  1.00  0.00    -0.360 OA
ATOM     26  H3  UNL     1      -6.754 -22.810  29.897  1.00  0.00     0.217 HD
ENDBRANCH   5  25
TORSDOF 5
ENDMDL
MODEL 5
REMARK VINA RESULT: -7.482960151      3.084      5.840
REMARK  5 active torsions:
REMARK  status: ('A' for Active; 'I' for Inactive)
REMARK    1  A    between atoms: C2_2  and  O1_3 
REMARK    2  A    between atoms: O1_3  and  C3_4 
REMARK    3  A    between atoms: C3_4  and  C4_6 
REMARK    4  A    between atoms: C7_10  and  O3_11 
REMARK    5  A    between atoms: C12_17  and  C13_18 
ROOT
HETATM    1  C4  UNL     1      -2.726 -18.304  28.430  1.00  0.00     0.092 A 
HETATM    2  S1  UNL     1      -3.247 -16.687  28.547  1.00  0.00    -0.083 SA
HETATM    3  C5  UNL     1      -3.378 -16.315  26.893  1.00  0.00     0.019 A 
HETATM    4  C6  UNL     1      -3.756 -15.159  26.192  1.00  0.00     0.056 A 
HETATM    5  C7  UNL     1      -3.767 -15.154  24.817  1.00  0.00     0.072 A 
HETATM    6  C8  UNL     1      -3.398 -16.310  24.176  1.00  0.00    -0.028 A 
HETATM    7  C9  UNL     1      -3.410 -16.301  22.672  1.00  0.00     0.051 C 
HETATM    8  C10 UNL     1      -3.035 -17.419  24.873  1.00  0.00     0.023 A 
HETATM    9  C11 UNL     1      -3.008 -17.474  26.278  1.00  0.00    -0.006 A 
HETATM   10  C12 UNL     1      -2.665 -18.520  27.071  1.00  0.00     0.013 A 
ENDROOT
BRANCH  10  11
HETATM   11  C13 UNL     1      -2.237 -19.856  26.539  1.00  0.00     0.021 A 
HETATM   12  C14 UNL     1      -0.898 -20.068  26.383  1.00  0.00    -0.045 A 
HETATM   13  C15 UNL     1       0.090 -19.037  26.721  1.00  0.00     0.049 C 
HETATM   14  C16 UNL     1      -0.477 -21.307  25.887  1.00  0.00     0.050 A 
HETATM   15  C17 UNL     1      -1.398 -22.288  25.564  1.00  0.00     0.119 A 
HETATM   16  F1  UNL     1      -0.993 -23.507  25.077  1.00  0.00    -0.206 F 
HETATM   17  C18 UNL     1      -2.748 -22.065  25.725  1.00  0.00     0.085 A 
HETATM   18  C19 UNL     1      -3.142 -20.835  26.216  1.00  0.00     0.131 A 
HETATM   19  F2  UNL     1      -4.461 -20.605  26.377  1.00  0.00    -0.205 F 
ENDBRANCH  10  11
BRANCH   1  20
HETATM   20  C3  UNL     1      -2.413 -19.253  29.498  1.00  0.00     0.301 C 
HETATM   21  O2  UNL     1      -1.292 -19.241  30.034  1.00  0.00    -0.259 OA
BRANCH  20  22
HETATM   22  O1  UNL     1      -3.363 -20.150  29.898  1.00  0.00    -0.317 OA
BRANCH  22  23
HETATM   23  C2  UNL     1      -4.590 -19.812  30.468  1.00  0.00     0.174 C 
HETATM   24  C1  UNL     1      -5.700 -20.089  29.494  1.00  0.00     0.034 C 
ENDBRANCH  22  23
ENDBRANCH  20  22
ENDBRANCH   1  20
BRANCH   5  25
HETATM   25  O3  UNL     1      -4.139 -14.013  24.131  1.00  0.00    -0.360 OA
ATOM     26  H3  UNL     1      -4.109 -13.997  23.182  1.00  0.00     0.217 HD
ENDBRANCH   5  25
TORSDOF 5
ENDMDL
