MODEL 1
REMARK VINA RESULT: -9.509313309      0.000      0.000
REMARK  5 active torsions:
REMARK  status: ('A' for Active; 'I' for Inactive)
REMARK    1  A    between atoms: C2_2  and  C3_3 
REMARK    2  A    between atoms: C3_3  and  C4_4 
REMARK    3  A    between atoms: C5_5  and  C6_6 
REMARK    4  A    between atoms: C7_7  and  C8_8 
REMARK    5  A    between atoms: C14_16  and  C15_17 
ROOT
HETATM    1  C6  UNL     1      -3.500 -15.749  26.260  1.00  0.00     0.075 A 
HETATM    2  C7  UNL     1      -3.582 -15.362  27.557  1.00  0.00     0.041 A 
HETATM    3  S1  UNL     1      -3.213 -16.883  28.376  1.00  0.00    -0.081 SA
HETATM    4  C14 UNL     1      -2.979 -17.876  27.040  1.00  0.00     0.091 A 
HETATM    5  C17 UNL     1      -3.189 -17.033  25.989  1.00  0.00     0.157 A 
HETATM    6  F2  UNL     1      -3.062 -17.571  24.703  1.00  0.00    -0.203 F 
ENDROOT
BRANCH   4   7
HETATM    7  C15 UNL     1      -2.635 -19.295  27.065  1.00  0.00     0.148 A 
HETATM    8  N1  UNL     1      -3.263 -20.315  26.452  1.00  0.00    -0.309 N 
HETATM    9  C16 UNL     1      -2.587 -21.431  26.765  1.00  0.00     0.241 A 
ATOM     10  H1  UNL     1      -4.094 -20.252  25.864  1.00  0.00     0.170 HD
HETATM   11  S2  UNL     1      -2.918 -22.944  26.288  1.00  0.00    -0.031 SA
HETATM   12  O1  UNL     1      -1.566 -21.122  27.549  1.00  0.00    -0.206 OA
HETATM   13  N2  UNL     1      -1.603 -19.858  27.720  1.00  0.00    -0.240 N 
ATOM     14  H2  UNL     1      -0.931 -19.338  28.284  1.00  0.00     0.196 HD
ENDBRANCH   4   7
BRANCH   2  15
HETATM   15  C8  UNL     1      -3.945 -14.148  28.268  1.00  0.00     0.021 A 
HETATM   16  C9  UNL     1      -2.920 -13.561  29.035  1.00  0.00     0.016 A 
HETATM   17  C10 UNL     1      -3.081 -12.372  29.705  1.00  0.00     0.001 A 
HETATM   18  C11 UNL     1      -4.285 -11.711  29.636  1.00  0.00     0.003 A 
HETATM   19  C12 UNL     1      -5.298 -12.252  28.899  1.00  0.00     0.043 A 
HETATM   20  C13 UNL     1      -5.103 -13.460  28.230  1.00  0.00     0.128 A 
HETATM   21  F1  UNL     1      -6.130 -13.863  27.454  1.00  0.00    -0.205 F 
ENDBRANCH   2  15
BRANCH   1  22
HETATM   22  C5  UNL     1      -3.847 -14.839  25.138  1.00  0.00    -0.062 C 
HETATM   23  C4  UNL     1      -4.145 -14.123  24.180  1.00  0.00    -0.101 C 
BRANCH  23  24
HETATM   24  C3  UNL     1      -4.518 -13.268  23.062  1.00  0.00     0.094 C 
BRANCH  24  25
HETATM   25  C2  UNL     1      -3.657 -13.697  21.888  1.00  0.00     0.007 C 
HETATM   26  C1  UNL     1      -3.840 -15.183  21.707  1.00  0.00     0.006 C 
ENDBRANCH  24  25
ENDBRANCH  23  24
ENDBRANCH   1  22
TORSDOF 5
ENDMDL
MODEL 2
REMARK VINA RESULT: -9.373043336      1.038      1.123
REMARK  5 active torsions:
REMARK  status: ('A' for Active; 'I' for Inactive)
REMARK    1  A    between atoms: C2_2  and  C3_3 
REMARK    2  A    between atoms: C3_3  and  C4_4 
REMARK    3  A    between atoms: C5_5  and  C6_6 
REMARK    4  A    between atoms: C7_7  and  C8_8 
REMARK    5  A    between atoms: C14_16  and  C15_17 
ROOT
HETATM    1  C6  UNL     1      -3.357 -16.107  26.081  1.00  0.00     0.075 A 
HETATM    2  C7  UNL     1      -3.371 -15.860  27.414  1.00  0.00     0.041 A 
HETATM    3  S1  UNL     1      -2.930 -17.450  28.046  1.00  0.00    -0.081 SA
HETATM    4  C14 UNL     1      -2.758 -18.292  26.601  1.00  0.00     0.091 A 
HETATM    5  C17 UNL     1      -3.041 -17.349  25.659  1.00  0.00     0.157 A 
HETATM    6  F2  UNL     1      -2.980 -17.746  24.319  1.00  0.00    -0.203 F 
ENDROOT
BRANCH   4   7
HETATM    7  C15 UNL     1      -2.390 -19.698  26.457  1.00  0.00     0.148 A 
HETATM    8  N1  UNL     1      -1.265 -20.214  25.931  1.00  0.00    -0.309 N 
HETATM    9  C16 UNL     1      -1.375 -21.550  26.013  1.00  0.00     0.241 A 
ATOM     10  H1  UNL     1      -0.480 -19.691  25.544  1.00  0.00     0.170 HD
HETATM   11  S2  UNL     1      -0.296 -22.654  25.523  1.00  0.00    -0.031 SA
HETATM   12  O1  UNL     1      -2.533 -21.861  26.574  1.00  0.00    -0.206 OA
HETATM   13  N2  UNL     1      -3.125 -20.762  26.833  1.00  0.00    -0.240 N 
ATOM     14  H2  UNL     1      -4.044 -20.696  27.272  1.00  0.00     0.196 HD
ENDBRANCH   4   7
BRANCH   2  15
HETATM   15  C8  UNL     1      -3.712 -14.735  28.268  1.00  0.00     0.021 A 
HETATM   16  C9  UNL     1      -2.675 -13.811  28.504  1.00  0.00     0.016 A 
HETATM   17  C10 UNL     1      -2.857 -12.658  29.227  1.00  0.00     0.001 A 
HETATM   18  C11 UNL     1      -4.097 -12.374  29.752  1.00  0.00     0.003 A 
HETATM   19  C12 UNL     1      -5.123 -13.247  29.540  1.00  0.00     0.043 A 
HETATM   20  C13 UNL     1      -4.906 -14.409  28.800  1.00  0.00     0.128 A 
HETATM   21  F1  UNL     1      -6.003 -15.158  28.566  1.00  0.00    -0.205 F 
ENDBRANCH   2  15
BRANCH   1  22
HETATM   22  C5  UNL     1      -3.782 -15.093  25.083  1.00  0.00    -0.062 C 
HETATM   23  C4  UNL     1      -4.141 -14.219  24.290  1.00  0.00    -0.101 C 
BRANCH  23  24
HETATM   24  C3  UNL     1      -4.541 -13.187  23.344  1.00  0.00     0.094 C 
BRANCH  24  25
HETATM   25  C2  UNL     1      -3.801 -13.480  22.051  1.00  0.00     0.007 C 
HETATM   26  C1  UNL     1      -3.899 -14.963  21.797  1.00  0.00     0.006 C 
ENDBRANCH  24  25
ENDBRANCH  23  24
ENDBRANCH   1  22
TORSDOF 5
ENDMDL
MODEL 3
REMARK VINA RESULT: -9.219193427      1.762      2.194
REMARK  5 active torsions:
REMARK  status: ('A' for Active; 'I' for Inactive)
REMARK    1  A    between atoms: C2_2  and  C3_3 
REMARK    2  A    between atoms: C3_3  and  C4_4 
REMARK    3  A    between atoms: C5_5  and  C6_6 
REMARK    4  A    between atoms: C7_7  and  C8_8 
REMARK    5  A    between atoms: C14_16  and  C15_17 
ROOT
HETATM    1  C6  UNL     1      -3.296 -16.474  25.529  1.00  0.00     0.075 A 
HETATM    2  C7  UNL     1      -3.302 -16.508  26.885  1.00  0.00     0.041 A 
HETATM    3  S1  UNL     1      -2.848 -18.192  27.170  1.00  0.00    -0.081 SA
HETATM    4  C14 UNL     1      -2.682 -18.715  25.582  1.00  0.00     0.091 A 
HETATM    5  C17 UNL     1      -2.977 -17.599  24.857  1.00  0.00     0.157 A 
HETATM    6  F2  UNL     1      -2.922 -17.709  23.463  1.00  0.00    -0.203 F 
ENDROOT
BRANCH   4   7
HETATM    7  C15 UNL     1      -2.308 -20.058  25.147  1.00  0.00     0.148 A 
HETATM    8  N1  UNL     1      -2.849 -21.233  25.515  1.00  0.00    -0.309 N 
HETATM    9  C16 UNL     1      -2.178 -22.193  24.858  1.00  0.00     0.241 A 
ATOM     10  H1  UNL     1      -3.620 -21.369  26.169  1.00  0.00     0.170 HD
HETATM   11  S2  UNL     1      -2.426 -23.792  24.937  1.00  0.00    -0.031 SA
HETATM   12  O1  UNL     1      -1.245 -21.637  24.101  1.00  0.00    -0.206 OA
HETATM   13  N2  UNL     1      -1.330 -20.376  24.278  1.00  0.00    -0.240 N 
ATOM     14  H2  UNL     1      -0.730 -19.692  23.817  1.00  0.00     0.196 HD
ENDBRANCH   4   7
BRANCH   2  15
HETATM   15  C8  UNL     1      -3.643 -15.588  27.955  1.00  0.00     0.021 A 
HETATM   16  C9  UNL     1      -2.748 -14.517  28.148  1.00  0.00     0.016 A 
HETATM   17  C10 UNL     1      -2.968 -13.521  29.068  1.00  0.00     0.001 A 
HETATM   18  C11 UNL     1      -4.103 -13.552  29.844  1.00  0.00     0.003 A 
HETATM   19  C12 UNL     1      -4.991 -14.574  29.681  1.00  0.00     0.043 A 
HETATM   20  C13 UNL     1      -4.740 -15.569  28.737  1.00  0.00     0.128 A 
HETATM   21  F1  UNL     1      -5.721 -16.483  28.586  1.00  0.00    -0.205 F 
ENDBRANCH   2  15
BRANCH   1  22
HETATM   22  C5  UNL     1      -3.734 -15.278  24.765  1.00  0.00    -0.062 C 
HETATM   23  C4  UNL     1      -4.110 -14.264  24.173  1.00  0.00    -0.101 C 
BRANCH  23  24
HETATM   24  C3  UNL     1      -4.530 -13.061  23.467  1.00  0.00     0.094 C 
BRANCH  24  25
HETATM   25  C2  UNL     1      -5.462 -12.317  24.405  1.00  0.00     0.007 C 
HETATM   26  C1  UNL     1      -5.067 -12.670  25.816  1.00  0.00     0.006 C 
ENDBRANCH  24  25
ENDBRANCH  23  24
ENDBRANCH   1  22
TORSDOF 5
ENDMDL
MODEL 4
REMARK VINA RESULT: -9.065795937      2.516      3.119
REMARK  5 active torsions:
REMARK  status: ('A' for Active; 'I' for Inactive)
REMARK    1  A    between atoms: C2_2  and  C3_3 
REMARK    2  A    between atoms: C3_3  and  C4_4 
REMARK    3  A    between atoms: C5_5  and  C6_6 
REMARK    4  A    between atoms: C7_7  and  C8_8 
REMARK    5  A    between atoms: C14_16  and  C15_17 
ROOT
HETATM    1  C6  UNL     1      -4.040 -14.750  26.175  1.00  0.00     0.075 A 
HETATM    2  C7  UNL     1      -4.629 -13.842  26.993  1.00  0.00     0.041 A 
HETATM    3  S1  UNL     1      -4.531 -14.686  28.542  1.00  0.00    -0.081 SA
HETATM    4  C14 UNL     1      -3.761 -16.096  28.050  1.00  0.00     0.091 A 
HETATM    5  C17 UNL     1      -3.592 -15.904  26.711  1.00  0.00     0.157 A 
HETATM    6  F2  UNL     1      -2.959 -16.925  25.994  1.00  0.00    -0.203 F 
ENDROOT
BRANCH   4   7
HETATM    7  C15 UNL     1      -3.389 -17.222  28.902  1.00  0.00     0.148 A 
HETATM    8  N1  UNL     1      -4.122 -17.821  29.857  1.00  0.00    -0.309 N 
HETATM    9  C16 UNL     1      -3.365 -18.805  30.369  1.00  0.00     0.241 A 
ATOM     10  H1  UNL     1      -5.071 -17.575  30.139  1.00  0.00     0.170 HD
HETATM   11  S2  UNL     1      -3.767 -19.838  31.551  1.00  0.00    -0.031 SA
HETATM   12  O1  UNL     1      -2.193 -18.822  29.754  1.00  0.00    -0.206 OA
HETATM   13  N2  UNL     1      -2.217 -17.885  28.889  1.00  0.00    -0.240 N 
ATOM     14  H2  UNL     1      -1.442 -17.664  28.263  1.00  0.00     0.196 HD
ENDBRANCH   4   7
BRANCH   2  15
HETATM   15  C8  UNL     1      -5.290 -12.559  26.831  1.00  0.00     0.021 A 
HETATM   16  C9  UNL     1      -5.947 -12.362  25.601  1.00  0.00     0.016 A 
HETATM   17  C10 UNL     1      -6.681 -11.234  25.322  1.00  0.00     0.001 A 
HETATM   18  C11 UNL     1      -6.791 -10.244  26.271  1.00  0.00     0.003 A 
HETATM   19  C12 UNL     1      -6.168 -10.404  27.473  1.00  0.00     0.043 A 
HETATM   20  C13 UNL     1      -5.432 -11.561  27.726  1.00  0.00     0.128 A 
HETATM   21  F1  UNL     1      -4.934 -11.669  28.975  1.00  0.00    -0.205 F 
ENDBRANCH   2  15
BRANCH   1  22
HETATM   22  C5  UNL     1      -3.974 -14.564  24.704  1.00  0.00    -0.062 C 
HETATM   23  C4  UNL     1      -3.937 -14.455  23.476  1.00  0.00    -0.101 C 
BRANCH  23  24
HETATM   24  C3  UNL     1      -3.912 -14.307  22.028  1.00  0.00     0.094 C 
BRANCH  24  25
HETATM   25  C2  UNL     1      -3.754 -15.704  21.456  1.00  0.00     0.007 C 
HETATM   26  C1  UNL     1      -3.372 -16.620  22.591  1.00  0.00     0.006 C 
ENDBRANCH  24  25
ENDBRANCH  23  24
ENDBRANCH   1  22
TORSDOF 5
ENDMDL
MODEL 5
REMARK VINA RESULT: -9.042941967      1.012      1.383
REMARK  5 active torsions:
REMARK  status: ('A' for Active; 'I' for Inactive)
REMARK    1  A    between atoms: C2_2  and  C3_3 
REMARK    2  A    between atoms: C3_3  and  C4_4 
REMARK    3  A    between atoms: C5_5  and  C6_6 
REMARK    4  A    between atoms: C7_7  and  C8_8 
REMARK    5  A    between atoms: C14_16  and  C15_17 
ROOT
HETATM    1  C6  UNL     1      -3.429 -15.895  26.114  1.00  0.00     0.075 A 
HETATM    2  C7  UNL     1      -3.452 -15.481  27.405  1.00  0.00     0.041 A 
HETATM    3  S1  UNL     1      -3.108 -16.999  28.240  1.00  0.00    -0.081 SA
HETATM    4  C14 UNL     1      -2.958 -18.024  26.917  1.00  0.00     0.091 A 
HETATM    5  C17 UNL     1      -3.174 -17.194  25.858  1.00  0.00     0.157 A 
HETATM    6  F2  UNL     1      -3.111 -17.760  24.579  1.00  0.00    -0.203 F 
ENDROOT
BRANCH   4   7
HETATM    7  C15 UNL     1      -2.664 -19.454  26.958  1.00  0.00     0.148 A 
HETATM    8  N1  UNL     1      -3.440 -20.476  26.555  1.00  0.00    -0.309 N 
HETATM    9  C16 UNL     1      -2.751 -21.604  26.789  1.00  0.00     0.241 A 
ATOM     10  H1  UNL     1      -4.374 -20.407  26.149  1.00  0.00     0.170 HD
HETATM   11  S2  UNL     1      -3.225 -23.124  26.486  1.00  0.00    -0.031 SA
HETATM   12  O1  UNL     1      -1.578 -21.299  27.322  1.00  0.00    -0.206 OA
HETATM   13  N2  UNL     1      -1.536 -20.028  27.418  1.00  0.00    -0.240 N 
ATOM     14  H2  UNL     1      -0.743 -19.509  27.796  1.00  0.00     0.196 HD
ENDBRANCH   4   7
BRANCH   2  15
HETATM   15  C8  UNL     1      -3.746 -14.242  28.104  1.00  0.00     0.021 A 
HETATM   16  C9  UNL     1      -5.105 -13.871  28.143  1.00  0.00     0.016 A 
HETATM   17  C10 UNL     1      -5.555 -12.768  28.828  1.00  0.00     0.001 A 
HETATM   18  C11 UNL     1      -4.658 -11.981  29.512  1.00  0.00     0.003 A 
HETATM   19  C12 UNL     1      -3.336 -12.314  29.496  1.00  0.00     0.043 A 
HETATM   20  C13 UNL     1      -2.910 -13.440  28.792  1.00  0.00     0.128 A 
HETATM   21  F1  UNL     1      -1.601 -13.739  28.916  1.00  0.00    -0.205 F 
ENDBRANCH   2  15
BRANCH   1  22
HETATM   22  C5  UNL     1      -3.783 -14.994  24.987  1.00  0.00    -0.062 C 
HETATM   23  C4  UNL     1      -4.111 -14.227  24.079  1.00  0.00    -0.101 C 
BRANCH  23  24
HETATM   24  C3  UNL     1      -4.477 -13.309  23.010  1.00  0.00     0.094 C 
BRANCH  24  25
HETATM   25  C2  UNL     1      -3.687 -13.738  21.787  1.00  0.00     0.007 C 
HETATM   26  C1  UNL     1      -3.868 -15.225  21.626  1.00  0.00     0.006 C 
ENDBRANCH  24  25
ENDBRANCH  23  24
ENDBRANCH   1  22
TORSDOF 5
ENDMDL
