MODEL 1
REMARK VINA RESULT: -4.887519309      0.000      0.000
REMARK  9 active torsions:
REMARK  status: ('A' for Active; 'I' for Inactive)
REMARK    1  A    between atoms: N1_2  and  C2_4 
REMARK    2  A    between atoms: C2_4  and  N2_6 
REMARK    3  A    between atoms: N2_6  and  C3_8 
REMARK    4  A    between atoms: C3_8  and  C4_9 
REMARK    5  A    between atoms: C3_8  and  C5_12 
REMARK    6  A    between atoms: C5_12  and  N3_13 
REMARK    7  A    between atoms: C5_12  and  N6_18 
REMARK    8  A    between atoms: N6_18  and  C7_19 
REMARK    9  A    between atoms: C7_19  and  O3_20 
ROOT
HETATM    1  C3  UNL     1      -0.034  25.646 -10.556  1.00  0.00     0.241 C 
ENDROOT
BRANCH   1   2
HETATM    2  N2  UNL     1      -0.872  26.615  -9.881  1.00  0.00    -0.349 N 
ATOM      3  H2  UNL     1      -0.469  27.002  -9.027  1.00  0.00     0.163 HD
BRANCH   2   4
HETATM    4  C2  UNL     1      -2.126  27.105 -10.198  1.00  0.00     0.168 C 
HETATM    5  S1  UNL     1      -3.452  26.162 -10.186  1.00  0.00    -0.041 SA
BRANCH   4   6
HETATM    6  N1  UNL     1      -2.277  28.475 -10.575  1.00  0.00    -0.372 N 
HETATM    7  C1  UNL     1      -3.495  28.931 -11.203  1.00  0.00     0.148 C 
ATOM      8  H1  UNL     1      -1.520  29.135 -10.400  1.00  0.00     0.161 HD
ENDBRANCH   4   6
ENDBRANCH   2   4
ENDBRANCH   1   2
BRANCH   1   9
HETATM    9  C4  UNL     1       1.393  25.964 -10.318  1.00  0.00     0.201 C 
HETATM   10  O1  UNL     1       1.683  26.898  -9.519  1.00  0.00    -0.646 OA
HETATM   11  O2  UNL     1       2.442  25.288 -10.929  1.00  0.00    -0.646 OA
ENDBRANCH   1   9
BRANCH   1  12
HETATM   12  C5  UNL     1      -0.311  24.235 -10.028  1.00  0.00     0.299 C 
BRANCH  12  13
HETATM   13  N3  UNL     1       0.526  23.258 -10.607  1.00  0.00    -0.333 N 
HETATM   14  C6  UNL     1       0.403  22.014 -10.636  1.00  0.00     0.199 C 
HETATM   15  N4  UNL     1      -0.622  21.234 -10.086  1.00  0.00    -0.067 NA
HETATM   16  N5  UNL     1       1.424  21.211 -11.308  1.00  0.00    -0.067 NA
ATOM     17  H3  UNL     1       1.358  23.622 -11.072  1.00  0.00     0.165 HD
ENDBRANCH  12  13
BRANCH  12  18
HETATM   18  N6  UNL     1      -0.367  24.193  -8.645  1.00  0.00    -0.408 NA
BRANCH  18  19
HETATM   19  C7  UNL     1      -0.422  24.153  -7.316  1.00  0.00     0.312 C 
BRANCH  19  20
HETATM   20  O3  UNL     1      -0.444  23.132  -6.511  1.00  0.00    -0.346 OA
ATOM     21  H3  UNL     1      -1.001  22.959  -5.760  1.00  0.00     0.219 HD
ENDBRANCH  19  20
ENDBRANCH  18  19
ENDBRANCH  12  18
ENDBRANCH   1  12
TORSDOF 9
ENDMDL
MODEL 2
REMARK VINA RESULT: -4.763646338      2.576      4.307
REMARK  9 active torsions:
REMARK  status: ('A' for Active; 'I' for Inactive)
REMARK    1  A    between atoms: N1_2  and  C2_4 
REMARK    2  A    between atoms: C2_4  and  N2_6 
REMARK    3  A    between atoms: N2_6  and  C3_8 
REMARK    4  A    between atoms: C3_8  and  C4_9 
REMARK    5  A    between atoms: C3_8  and  C5_12 
REMARK    6  A    between atoms: C5_12  and  N3_13 
REMARK    7  A    between atoms: C5_12  and  N6_18 
REMARK    8  A    between atoms: N6_18  and  C7_19 
REMARK    9  A    between atoms: C7_19  and  O3_20 
ROOT
HETATM    1  C3  UNL     1      -1.261  25.454 -10.743  1.00  0.00     0.241 C 
ENDROOT
BRANCH   1   2
HETATM    2  N2  UNL     1      -2.124  24.333 -11.052  1.00  0.00    -0.349 N 
ATOM      3  H2  UNL     1      -3.075  24.419 -10.692  1.00  0.00     0.163 HD
BRANCH   2   4
HETATM    4  C2  UNL     1      -1.878  23.165 -11.752  1.00  0.00     0.168 C 
HETATM    5  S1  UNL     1      -1.608  23.158 -13.356  1.00  0.00    -0.041 SA
BRANCH   4   6
HETATM    6  N1  UNL     1      -1.882  21.913 -11.064  1.00  0.00    -0.372 N 
HETATM    7  C1  UNL     1      -0.656  21.367 -10.530  1.00  0.00     0.148 C 
ATOM      8  H1  UNL     1      -2.756  21.400 -10.949  1.00  0.00     0.161 HD
ENDBRANCH   4   6
ENDBRANCH   2   4
ENDBRANCH   1   2
BRANCH   1   9
HETATM    9  C4  UNL     1      -2.030  26.500 -10.031  1.00  0.00     0.201 C 
HETATM   10  O1  UNL     1      -1.614  27.692 -10.067  1.00  0.00    -0.646 OA
HETATM   11  O2  UNL     1      -3.194  26.244  -9.317  1.00  0.00    -0.646 OA
ENDBRANCH   1   9
BRANCH   1  12
HETATM   12  C5  UNL     1      -0.102  25.008  -9.846  1.00  0.00     0.299 C 
BRANCH  12  13
HETATM   13  N3  UNL     1       0.910  25.985  -9.731  1.00  0.00    -0.333 N 
HETATM   14  C6  UNL     1       1.965  26.126 -10.387  1.00  0.00     0.199 C 
HETATM   15  N4  UNL     1       2.442  25.331 -11.437  1.00  0.00    -0.067 NA
HETATM   16  N5  UNL     1       2.862  27.236 -10.066  1.00  0.00    -0.067 NA
ATOM     17  H3  UNL     1       0.757  26.681  -9.001  1.00  0.00     0.165 HD
ENDBRANCH  12  13
BRANCH  12  18
HETATM   18  N6  UNL     1      -0.541  24.495  -8.637  1.00  0.00    -0.408 NA
BRANCH  18  19
HETATM   19  C7  UNL     1      -0.963  24.001  -7.475  1.00  0.00     0.312 C 
BRANCH  19  20
HETATM   20  O3  UNL     1      -0.346  23.248  -6.613  1.00  0.00    -0.346 OA
ATOM     21  H3  UNL     1      -0.316  23.303  -5.665  1.00  0.00     0.219 HD
ENDBRANCH  19  20
ENDBRANCH  18  19
ENDBRANCH  12  18
ENDBRANCH   1  12
TORSDOF 9
ENDMDL
MODEL 3
REMARK VINA RESULT: -4.762480465      1.676      2.069
REMARK  9 active torsions:
REMARK  status: ('A' for Active; 'I' for Inactive)
REMARK    1  A    between atoms: N1_2  and  C2_4 
REMARK    2  A    between atoms: C2_4  and  N2_6 
REMARK    3  A    between atoms: N2_6  and  C3_8 
REMARK    4  A    between atoms: C3_8  and  C4_9 
REMARK    5  A    between atoms: C3_8  and  C5_12 
REMARK    6  A    between atoms: C5_12  and  N3_13 
REMARK    7  A    between atoms: C5_12  and  N6_18 
REMARK    8  A    between atoms: N6_18  and  C7_19 
REMARK    9  A    between atoms: C7_19  and  O3_20 
ROOT
HETATM    1  C3  UNL     1      -0.639  23.837 -11.122  1.00  0.00     0.241 C 
ENDROOT
BRANCH   1   2
HETATM    2  N2  UNL     1      -1.876  24.312 -10.537  1.00  0.00    -0.349 N 
ATOM      3  H2  UNL     1      -2.287  23.684  -9.846  1.00  0.00     0.163 HD
BRANCH   2   4
HETATM    4  C2  UNL     1      -2.595  25.474 -10.757  1.00  0.00     0.168 C 
HETATM    5  S1  UNL     1      -3.658  25.615 -11.980  1.00  0.00    -0.041 SA
BRANCH   4   6
HETATM    6  N1  UNL     1      -2.390  26.605  -9.908  1.00  0.00    -0.372 N 
HETATM    7  C1  UNL     1      -2.320  27.935 -10.466  1.00  0.00     0.148 C 
ATOM      8  H1  UNL     1      -2.292  26.472  -8.902  1.00  0.00     0.161 HD
ENDBRANCH   4   6
ENDBRANCH   2   4
ENDBRANCH   1   2
BRANCH   1   9
HETATM    9  C4  UNL     1       0.130  24.979 -11.666  1.00  0.00     0.201 C 
HETATM   10  O1  UNL     1       0.311  25.051 -12.915  1.00  0.00    -0.646 OA
HETATM   11  O2  UNL     1       0.672  25.986 -10.877  1.00  0.00    -0.646 OA
ENDBRANCH   1   9
BRANCH   1  12
HETATM   12  C5  UNL     1       0.218  23.133 -10.065  1.00  0.00     0.299 C 
BRANCH  12  13
HETATM   13  N3  UNL     1       1.599  23.198 -10.347  1.00  0.00    -0.333 N 
HETATM   14  C6  UNL     1       2.418  22.276 -10.554  1.00  0.00     0.199 C 
HETATM   15  N4  UNL     1       2.182  20.896 -10.558  1.00  0.00    -0.067 NA
HETATM   16  N5  UNL     1       3.815  22.611 -10.827  1.00  0.00    -0.067 NA
ATOM     17  H3  UNL     1       1.988  24.140 -10.389  1.00  0.00     0.165 HD
ENDBRANCH  12  13
BRANCH  12  18
HETATM   18  N6  UNL     1      -0.120  23.512  -8.776  1.00  0.00    -0.408 NA
BRANCH  18  19
HETATM   19  C7  UNL     1      -0.445  23.875  -7.539  1.00  0.00     0.312 C 
BRANCH  19  20
HETATM   20  O3  UNL     1      -0.439  23.185  -6.436  1.00  0.00    -0.346 OA
ATOM     21  H3  UNL     1      -1.158  22.941  -5.865  1.00  0.00     0.219 HD
ENDBRANCH  19  20
ENDBRANCH  18  19
ENDBRANCH  12  18
ENDBRANCH   1  12
TORSDOF 9
ENDMDL
MODEL 4
REMARK VINA RESULT: -4.744751192      2.908      4.738
REMARK  9 active torsions:
REMARK  status: ('A' for Active; 'I' for Inactive)
REMARK    1  A    between atoms: N1_2  and  C2_4 
REMARK    2  A    between atoms: C2_4  and  N2_6 
REMARK    3  A    between atoms: N2_6  and  C3_8 
REMARK    4  A    between atoms: C3_8  and  C4_9 
REMARK    5  A    between atoms: C3_8  and  C5_12 
REMARK    6  A    between atoms: C5_12  and  N3_13 
REMARK    7  A    between atoms: C5_12  and  N6_18 
REMARK    8  A    between atoms: N6_18  and  C7_19 
REMARK    9  A    between atoms: C7_19  and  O3_20 
ROOT
HETATM    1  C3  UNL     1       0.077  25.708 -10.543  1.00  0.00     0.241 C 
ENDROOT
BRANCH   1   2
HETATM    2  N2  UNL     1       1.393  25.269 -10.128  1.00  0.00    -0.349 N 
ATOM      3  H2  UNL     1       1.520  25.209  -9.117  1.00  0.00     0.163 HD
BRANCH   2   4
HETATM    4  C2  UNL     1       2.507  24.919 -10.869  1.00  0.00     0.168 C 
HETATM    5  S1  UNL     1       3.159  23.430 -10.800  1.00  0.00    -0.041 SA
BRANCH   4   6
HETATM    6  N1  UNL     1       3.133  25.890 -11.709  1.00  0.00    -0.372 N 
HETATM    7  C1  UNL     1       3.828  27.017 -11.132  1.00  0.00     0.148 C 
ATOM      8  H1  UNL     1       3.090  25.788 -12.723  1.00  0.00     0.161 HD
ENDBRANCH   4   6
ENDBRANCH   2   4
ENDBRANCH   1   2
BRANCH   1   9
HETATM    9  C4  UNL     1      -0.419  24.843 -11.637  1.00  0.00     0.201 C 
HETATM   10  O1  UNL     1      -0.699  25.370 -12.751  1.00  0.00    -0.646 OA
HETATM   11  O2  UNL     1      -0.599  23.471 -11.510  1.00  0.00    -0.646 OA
ENDBRANCH   1   9
BRANCH   1  12
HETATM   12  C5  UNL     1      -0.910  25.627  -9.374  1.00  0.00     0.299 C 
BRANCH  12  13
HETATM   13  N3  UNL     1      -2.255  25.757  -9.782  1.00  0.00    -0.333 N 
HETATM   14  C6  UNL     1      -2.871  26.762 -10.198  1.00  0.00     0.199 C 
HETATM   15  N4  UNL     1      -2.383  28.064 -10.374  1.00  0.00    -0.067 NA
HETATM   16  N5  UNL     1      -4.282  26.635 -10.560  1.00  0.00    -0.067 NA
ATOM     17  H3  UNL     1      -2.808  24.902  -9.728  1.00  0.00     0.165 HD
ENDBRANCH  12  13
BRANCH  12  18
HETATM   18  N6  UNL     1      -0.665  24.538  -8.554  1.00  0.00    -0.408 NA
BRANCH  18  19
HETATM   19  C7  UNL     1      -0.429  23.492  -7.767  1.00  0.00     0.312 C 
BRANCH  19  20
HETATM   20  O3  UNL     1      -0.455  23.399  -6.470  1.00  0.00    -0.346 OA
ATOM     21  H3  UNL     1      -0.462  22.629  -5.913  1.00  0.00     0.219 HD
ENDBRANCH  19  20
ENDBRANCH  18  19
ENDBRANCH  12  18
ENDBRANCH   1  12
TORSDOF 9
ENDMDL
MODEL 5
REMARK VINA RESULT: -4.713133415      2.736      4.966
REMARK  9 active torsions:
REMARK  status: ('A' for Active; 'I' for Inactive)
REMARK    1  A    between atoms: N1_2  and  C2_4 
REMARK    2  A    between atoms: C2_4  and  N2_6 
REMARK    3  A    between atoms: N2_6  and  C3_8 
REMARK    4  A    between atoms: C3_8  and  C4_9 
REMARK    5  A    between atoms: C3_8  and  C5_12 
REMARK    6  A    between atoms: C5_12  and  N3_13 
REMARK    7  A    between atoms: C5_12  and  N6_18 
REMARK    8  A    between atoms: N6_18  and  C7_19 
REMARK    9  A    between atoms: C7_19  and  O3_20 
ROOT
HETATM    1  C3  UNL     1      -0.030  25.716 -10.631  1.00  0.00     0.241 C 
ENDROOT
BRANCH   1   2
HETATM    2  N2  UNL     1       1.284  25.200 -10.306  1.00  0.00    -0.349 N 
ATOM      3  H2  UNL     1       1.450  25.060  -9.309  1.00  0.00     0.163 HD
BRANCH   2   4
HETATM    4  C2  UNL     1       2.352  24.864 -11.119  1.00  0.00     0.168 C 
HETATM    5  S1  UNL     1       3.450  25.962 -11.603  1.00  0.00    -0.041 SA
BRANCH   4   6
HETATM    6  N1  UNL     1       2.496  23.519 -11.579  1.00  0.00    -0.372 N 
HETATM    7  C1  UNL     1       2.369  22.413 -10.658  1.00  0.00     0.148 C 
ATOM      8  H1  UNL     1       2.690  23.338 -12.564  1.00  0.00     0.161 HD
ENDBRANCH   4   6
ENDBRANCH   2   4
ENDBRANCH   1   2
BRANCH   1   9
HETATM    9  C4  UNL     1      -0.642  24.895 -11.700  1.00  0.00     0.201 C 
HETATM   10  O1  UNL     1      -1.042  25.468 -12.753  1.00  0.00    -0.646 OA
HETATM   11  O2  UNL     1      -0.805  23.519 -11.613  1.00  0.00    -0.646 OA
ENDBRANCH   1   9
BRANCH   1  12
HETATM   12  C5  UNL     1      -0.943  25.672  -9.402  1.00  0.00     0.299 C 
BRANCH  12  13
HETATM   13  N3  UNL     1      -2.305  25.845  -9.724  1.00  0.00    -0.333 N 
HETATM   14  C6  UNL     1      -2.908  26.861 -10.135  1.00  0.00     0.199 C 
HETATM   15  N4  UNL     1      -2.382  28.134 -10.389  1.00  0.00    -0.067 NA
HETATM   16  N5  UNL     1      -4.344  26.781 -10.398  1.00  0.00    -0.067 NA
ATOM     17  H3  UNL     1      -2.887  25.016  -9.604  1.00  0.00     0.165 HD
ENDBRANCH  12  13
BRANCH  12  18
HETATM   18  N6  UNL     1      -0.682  24.579  -8.592  1.00  0.00    -0.408 NA
BRANCH  18  19
HETATM   19  C7  UNL     1      -0.431  23.529  -7.815  1.00  0.00     0.312 C 
BRANCH  19  20
HETATM   20  O3  UNL     1      -0.452  23.423  -6.519  1.00  0.00    -0.346 OA
ATOM     21  H3  UNL     1       0.124  22.942  -5.936  1.00  0.00     0.219 HD
ENDBRANCH  19  20
ENDBRANCH  18  19
ENDBRANCH  12  18
ENDBRANCH   1  12
TORSDOF 9
ENDMDL
