MODEL 1
REMARK VINA RESULT: -7.337825958      0.000      0.000
REMARK  5 active torsions:
REMARK  status: ('A' for Active; 'I' for Inactive)
REMARK    1  A    between atoms: N1_2  and  C3_4 
REMARK    2  A    between atoms: C4_5  and  O1_6 
REMARK    3  A    between atoms: C5_12  and  C6_13 
REMARK       I    between atoms: C6_13  and  N4_15 
REMARK    4  A    between atoms: N4_15  and  N5_17 
REMARK    5  A    between atoms: N5_17  and  C7_19 
ROOT
HETATM    1  C6  UNL     1      21.247   6.653  -4.808  1.00  0.00     0.290 C 
HETATM    2  O2  UNL     1      20.103   6.188  -4.958  1.00  0.00    -0.264 OA
HETATM    3  N4  UNL     1      22.079   6.190  -3.778  1.00  0.00    -0.250 N 
ATOM      4  H4  UNL     1      23.016   6.574  -3.660  1.00  0.00     0.191 HD
ENDROOT
BRANCH   1   5
HETATM    5  C5  UNL     1      21.716   7.684  -5.712  1.00  0.00     0.148 A 
HETATM    6  C3  UNL     1      22.172   7.513  -7.017  1.00  0.00     0.116 A 
HETATM    7  C4  UNL     1      22.507   8.754  -7.475  1.00  0.00     0.184 A 
HETATM    8  N2  UNL     1      22.273   9.667  -6.504  1.00  0.00    -0.278 N 
HETATM    9  N3  UNL     1      21.810   9.012  -5.482  1.00  0.00    -0.292 N 
ATOM     10  H2  UNL     1      22.429  10.673  -6.563  1.00  0.00     0.189 HD
ATOM     11  H3  UNL     1      21.546   9.452  -4.601  1.00  0.00     0.187 HD
BRANCH   6  12
HETATM   12  N1  UNL     1      22.279   6.303  -7.751  1.00  0.00    -0.384 N 
HETATM   13  C1  UNL     1      23.399   5.380  -7.545  1.00  0.00     0.149 C 
HETATM   14  C2  UNL     1      21.301   5.896  -8.748  1.00  0.00     0.149 C 
ENDBRANCH   6  12
BRANCH   7  15
HETATM   15  O1  UNL     1      23.015   9.128  -8.722  1.00  0.00    -0.343 OA
ATOM     16  H1  UNL     1      22.631   9.694  -9.381  1.00  0.00     0.219 HD
ENDBRANCH   7  15
ENDBRANCH   1   5
BRANCH   3  17
HETATM   17  N5  UNL     1      21.610   5.200  -2.920  1.00  0.00    -0.127 N 
ATOM     18  H5  UNL     1      20.721   5.360  -2.446  1.00  0.00     0.206 HD
BRANCH  17  19
HETATM   19  C7  UNL     1      22.224   4.103  -2.688  1.00  0.00     0.728 A 
HETATM   20  N6  UNL     1      22.407   3.564  -1.487  1.00  0.00    -0.114 N 
HETATM   21  N7  UNL     1      23.078   2.445  -1.668  1.00  0.00    -0.213 N 
ATOM     22  H6  UNL     1      22.088   3.944  -0.595  1.00  0.00     0.207 HD
HETATM   23  N8  UNL     1      23.319   2.273  -2.950  1.00  0.00    -0.213 N 
ATOM     24  H7  UNL     1      23.368   1.809  -0.925  1.00  0.00     0.210 HD
HETATM   25  N9  UNL     1      22.788   3.302  -3.579  1.00  0.00    -0.114 N 
ATOM     26  H8  UNL     1      23.820   1.493  -3.376  1.00  0.00     0.210 HD
ATOM     27  H9  UNL     1      22.808   3.457  -4.587  1.00  0.00     0.207 HD
ENDBRANCH  17  19
ENDBRANCH   3  17
TORSDOF 5
ENDMDL
MODEL 2
REMARK VINA RESULT: -7.315661076      0.148      1.185
REMARK  5 active torsions:
REMARK  status: ('A' for Active; 'I' for Inactive)
REMARK    1  A    between atoms: N1_2  and  C3_4 
REMARK    2  A    between atoms: C4_5  and  O1_6 
REMARK    3  A    between atoms: C5_12  and  C6_13 
REMARK       I    between atoms: C6_13  and  N4_15 
REMARK    4  A    between atoms: N4_15  and  N5_17 
REMARK    5  A    between atoms: N5_17  and  C7_19 
ROOT
HETATM    1  C6  UNL     1      21.231   6.486  -4.913  1.00  0.00     0.290 C 
HETATM    2  O2  UNL     1      20.184   5.886  -5.216  1.00  0.00    -0.264 OA
HETATM    3  N4  UNL     1      21.953   6.129  -3.765  1.00  0.00    -0.250 N 
ATOM      4  H4  UNL     1      22.811   6.623  -3.520  1.00  0.00     0.191 HD
ENDROOT
BRANCH   1   5
HETATM    5  C5  UNL     1      21.701   7.563  -5.760  1.00  0.00     0.148 A 
HETATM    6  C3  UNL     1      22.167   7.460  -7.068  1.00  0.00     0.116 A 
HETATM    7  C4  UNL     1      22.499   8.724  -7.462  1.00  0.00     0.184 A 
HETATM    8  N2  UNL     1      22.253   9.586  -6.448  1.00  0.00    -0.278 N 
HETATM    9  N3  UNL     1      21.786   8.878  -5.463  1.00  0.00    -0.292 N 
ATOM     10  H2  UNL     1      22.404  10.595  -6.455  1.00  0.00     0.189 HD
ATOM     11  H3  UNL     1      21.514   9.272  -4.563  1.00  0.00     0.187 HD
BRANCH   6  12
HETATM   12  N1  UNL     1      22.286   6.289  -7.862  1.00  0.00    -0.384 N 
HETATM   13  C1  UNL     1      21.301   5.964  -8.897  1.00  0.00     0.149 C 
HETATM   14  C2  UNL     1      23.376   5.338  -7.707  1.00  0.00     0.149 C 
ENDBRANCH   6  12
BRANCH   7  15
HETATM   15  O1  UNL     1      23.013   9.163  -8.685  1.00  0.00    -0.343 OA
ATOM     16  H1  UNL     1      23.913   9.181  -8.985  1.00  0.00     0.219 HD
ENDBRANCH   7  15
ENDBRANCH   1   5
BRANCH   3  17
HETATM   17  N5  UNL     1      21.486   5.092  -2.963  1.00  0.00    -0.127 N 
ATOM     18  H5  UNL     1      20.549   5.179  -2.568  1.00  0.00     0.206 HD
BRANCH  17  19
HETATM   19  C7  UNL     1      22.157   4.039  -2.689  1.00  0.00     0.728 A 
HETATM   20  N6  UNL     1      22.763   3.261  -3.580  1.00  0.00    -0.114 N 
HETATM   21  N7  UNL     1      23.342   2.287  -2.907  1.00  0.00    -0.213 N 
ATOM     22  H6  UNL     1      22.777   3.392  -4.592  1.00  0.00     0.207 HD
HETATM   23  N8  UNL     1      23.112   2.439  -1.620  1.00  0.00    -0.213 N 
ATOM     24  H7  UNL     1      23.885   1.530  -3.322  1.00  0.00     0.210 HD
HETATM   25  N9  UNL     1      22.378   3.526  -1.489  1.00  0.00    -0.114 N 
ATOM     26  H8  UNL     1      23.440   1.832  -0.868  1.00  0.00     0.210 HD
ATOM     27  H9  UNL     1      22.036   3.908  -0.607  1.00  0.00     0.207 HD
ENDBRANCH  17  19
ENDBRANCH   3  17
TORSDOF 5
ENDMDL
MODEL 3
REMARK VINA RESULT: -6.935303846      1.030      1.498
REMARK  5 active torsions:
REMARK  status: ('A' for Active; 'I' for Inactive)
REMARK    1  A    between atoms: N1_2  and  C3_4 
REMARK    2  A    between atoms: C4_5  and  O1_6 
REMARK    3  A    between atoms: C5_12  and  C6_13 
REMARK       I    between atoms: C6_13  and  N4_15 
REMARK    4  A    between atoms: N4_15  and  N5_17 
REMARK    5  A    between atoms: N5_17  and  C7_19 
ROOT
HETATM    1  C6  UNL     1      21.890   5.956  -5.691  1.00  0.00     0.290 C 
HETATM    2  O2  UNL     1      20.738   5.493  -5.777  1.00  0.00    -0.264 OA
HETATM    3  N4  UNL     1      22.924   5.199  -5.121  1.00  0.00    -0.250 N 
ATOM      4  H4  UNL     1      23.866   5.581  -5.053  1.00  0.00     0.191 HD
ENDROOT
BRANCH   1   5
HETATM    5  C5  UNL     1      22.156   7.291  -6.187  1.00  0.00     0.148 A 
HETATM    6  C3  UNL     1      22.714   7.635  -7.416  1.00  0.00     0.116 A 
HETATM    7  C4  UNL     1      22.775   8.997  -7.445  1.00  0.00     0.184 A 
HETATM    8  N2  UNL     1      22.278   9.492  -6.288  1.00  0.00    -0.278 N 
HETATM    9  N3  UNL     1      21.923   8.469  -5.569  1.00  0.00    -0.292 N 
ATOM     10  H2  UNL     1      22.198  10.475  -6.030  1.00  0.00     0.189 HD
ATOM     11  H3  UNL     1      21.513   8.548  -4.639  1.00  0.00     0.187 HD
BRANCH   6  12
HETATM   12  N1  UNL     1      23.143   6.764  -8.452  1.00  0.00    -0.384 N 
HETATM   13  C1  UNL     1      22.201   6.221  -9.434  1.00  0.00     0.149 C 
HETATM   14  C2  UNL     1      24.529   6.352  -8.612  1.00  0.00     0.149 C 
ENDBRANCH   6  12
BRANCH   7  15
HETATM   15  O1  UNL     1      23.252   9.839  -8.454  1.00  0.00    -0.343 OA
ATOM     16  H1  UNL     1      23.913   9.670  -9.114  1.00  0.00     0.219 HD
ENDBRANCH   7  15
ENDBRANCH   1   5
BRANCH   3  17
HETATM   17  N5  UNL     1      22.649   3.919  -4.650  1.00  0.00    -0.127 N 
ATOM     18  H5  UNL     1      22.423   3.196  -5.333  1.00  0.00     0.206 HD
BRANCH  17  19
HETATM   19  C7  UNL     1      22.660   3.592  -3.414  1.00  0.00     0.728 A 
HETATM   20  N6  UNL     1      22.075   4.273  -2.434  1.00  0.00    -0.114 N 
HETATM   21  N7  UNL     1      22.313   3.617  -1.317  1.00  0.00    -0.213 N 
ATOM     22  H6  UNL     1      21.543   5.139  -2.529  1.00  0.00     0.207 HD
HETATM   23  N8  UNL     1      23.030   2.544  -1.575  1.00  0.00    -0.213 N 
ATOM     24  H7  UNL     1      21.989   3.898  -0.391  1.00  0.00     0.210 HD
HETATM   25  N9  UNL     1      23.243   2.533  -2.876  1.00  0.00    -0.114 N 
ATOM     26  H8  UNL     1      23.359   1.855  -0.899  1.00  0.00     0.210 HD
ATOM     27  H9  UNL     1      23.771   1.823  -3.385  1.00  0.00     0.207 HD
ENDBRANCH  17  19
ENDBRANCH   3  17
TORSDOF 5
ENDMDL
MODEL 4
REMARK VINA RESULT: -6.888089423      1.794      2.889
REMARK  5 active torsions:
REMARK  status: ('A' for Active; 'I' for Inactive)
REMARK    1  A    between atoms: N1_2  and  C3_4 
REMARK    2  A    between atoms: C4_5  and  O1_6 
REMARK    3  A    between atoms: C5_12  and  C6_13 
REMARK       I    between atoms: C6_13  and  N4_15 
REMARK    4  A    between atoms: N4_15  and  N5_17 
REMARK    5  A    between atoms: N5_17  and  C7_19 
ROOT
HETATM    1  C6  UNL     1      23.340   4.957  -6.652  1.00  0.00     0.290 C 
HETATM    2  O2  UNL     1      24.435   4.467  -6.984  1.00  0.00    -0.264 OA
HETATM    3  N4  UNL     1      22.672   4.506  -5.505  1.00  0.00    -0.250 N 
ATOM      4  H4  UNL     1      21.775   4.910  -5.237  1.00  0.00     0.191 HD
ENDROOT
BRANCH   1   5
HETATM    5  C5  UNL     1      22.757   6.004  -7.467  1.00  0.00     0.148 A 
HETATM    6  C3  UNL     1      22.742   7.370  -7.196  1.00  0.00     0.116 A 
HETATM    7  C4  UNL     1      22.087   7.963  -8.235  1.00  0.00     0.184 A 
HETATM    8  N2  UNL     1      21.705   7.016  -9.123  1.00  0.00    -0.278 N 
HETATM    9  N3  UNL     1      22.110   5.877  -8.647  1.00  0.00    -0.292 N 
ATOM     10  H2  UNL     1      21.198   7.166  -9.994  1.00  0.00     0.189 HD
ATOM     11  H3  UNL     1      21.958   4.983  -9.113  1.00  0.00     0.187 HD
BRANCH   6  12
HETATM   12  N1  UNL     1      23.291   8.041  -6.072  1.00  0.00    -0.384 N 
HETATM   13  C1  UNL     1      24.483   8.884  -6.192  1.00  0.00     0.149 C 
HETATM   14  C2  UNL     1      22.719   7.942  -4.738  1.00  0.00     0.149 C 
ENDBRANCH   6  12
BRANCH   7  15
HETATM   15  O1  UNL     1      21.805   9.316  -8.445  1.00  0.00    -0.343 OA
ATOM     16  H1  UNL     1      21.667   9.780  -9.261  1.00  0.00     0.219 HD
ENDBRANCH   7  15
ENDBRANCH   1   5
BRANCH   3  17
HETATM   17  N5  UNL     1      23.248   3.499  -4.735  1.00  0.00    -0.127 N 
ATOM     18  H5  UNL     1      23.958   2.911  -5.172  1.00  0.00     0.206 HD
BRANCH  17  19
HETATM   19  C7  UNL     1      22.942   3.266  -3.516  1.00  0.00     0.728 A 
HETATM   20  N6  UNL     1      22.266   4.089  -2.722  1.00  0.00    -0.114 N 
HETATM   21  N7  UNL     1      22.156   3.490  -1.554  1.00  0.00    -0.213 N 
ATOM     22  H6  UNL     1      21.903   5.010  -2.969  1.00  0.00     0.207 HD
HETATM   23  N8  UNL     1      22.745   2.314  -1.600  1.00  0.00    -0.213 N 
ATOM     24  H7  UNL     1      21.685   3.879  -0.737  1.00  0.00     0.210 HD
HETATM   25  N9  UNL     1      23.230   2.178  -2.818  1.00  0.00    -0.114 N 
ATOM     26  H8  UNL     1      22.812   1.637  -0.840  1.00  0.00     0.210 HD
ATOM     27  H9  UNL     1      23.744   1.368  -3.165  1.00  0.00     0.207 HD
ENDBRANCH  17  19
ENDBRANCH   3  17
TORSDOF 5
ENDMDL
MODEL 5
REMARK VINA RESULT: -6.864832110      1.572      1.927
REMARK  5 active torsions:
REMARK  status: ('A' for Active; 'I' for Inactive)
REMARK    1  A    between atoms: N1_2  and  C3_4 
REMARK    2  A    between atoms: C4_5  and  O1_6 
REMARK    3  A    between atoms: C5_12  and  C6_13 
REMARK       I    between atoms: C6_13  and  N4_15 
REMARK    4  A    between atoms: N4_15  and  N5_17 
REMARK    5  A    between atoms: N5_17  and  C7_19 
ROOT
HETATM    1  C6  UNL     1      23.263   5.677  -6.060  1.00  0.00     0.290 C 
HETATM    2  O2  UNL     1      24.103   5.017  -6.699  1.00  0.00    -0.264 OA
HETATM    3  N4  UNL     1      22.650   5.139  -4.918  1.00  0.00    -0.250 N 
ATOM      4  H4  UNL     1      21.963   5.683  -4.397  1.00  0.00     0.191 HD
ENDROOT
BRANCH   1   5
HETATM    5  C5  UNL     1      22.921   7.011  -6.507  1.00  0.00     0.148 A 
HETATM    6  C3  UNL     1      22.521   7.391  -7.786  1.00  0.00     0.116 A 
HETATM    7  C4  UNL     1      22.309   8.738  -7.740  1.00  0.00     0.184 A 
HETATM    8  N2  UNL     1      22.563   9.189  -6.490  1.00  0.00    -0.278 N 
HETATM    9  N3  UNL     1      22.920   8.155  -5.789  1.00  0.00    -0.292 N 
ATOM     10  H2  UNL     1      22.488  10.151  -6.162  1.00  0.00     0.189 HD
ATOM     11  H3  UNL     1      23.173   8.202  -4.802  1.00  0.00     0.187 HD
BRANCH   6  12
HETATM   12  N1  UNL     1      22.357   6.566  -8.929  1.00  0.00    -0.384 N 
HETATM   13  C1  UNL     1      21.100   5.859  -9.188  1.00  0.00     0.149 C 
HETATM   14  C2  UNL     1      23.410   6.363  -9.913  1.00  0.00     0.149 C 
ENDBRANCH   6  12
BRANCH   7  15
HETATM   15  O1  UNL     1      21.895   9.602  -8.758  1.00  0.00    -0.343 OA
ATOM     16  H1  UNL     1      21.329   9.428  -9.500  1.00  0.00     0.219 HD
ENDBRANCH   7  15
ENDBRANCH   1   5
BRANCH   3  17
HETATM   17  N5  UNL     1      22.990   3.855  -4.504  1.00  0.00    -0.127 N 
ATOM     18  H5  UNL     1      23.425   3.233  -5.186  1.00  0.00     0.206 HD
BRANCH  17  19
HETATM   19  C7  UNL     1      22.792   3.407  -3.324  1.00  0.00     0.728 A 
HETATM   20  N6  UNL     1      22.107   4.029  -2.370  1.00  0.00    -0.114 N 
HETATM   21  N7  UNL     1      22.130   3.247  -1.310  1.00  0.00    -0.213 N 
ATOM     22  H6  UNL     1      21.650   4.938  -2.445  1.00  0.00     0.207 HD
HETATM   23  N8  UNL     1      22.813   2.154  -1.578  1.00  0.00    -0.213 N 
ATOM     24  H7  UNL     1      21.687   3.458  -0.416  1.00  0.00     0.210 HD
HETATM   25  N9  UNL     1      23.221   2.256  -2.827  1.00  0.00    -0.114 N 
ATOM     26  H8  UNL     1      22.991   1.377  -0.942  1.00  0.00     0.210 HD
ATOM     27  H9  UNL     1      23.776   1.563  -3.329  1.00  0.00     0.207 HD
ENDBRANCH  17  19
ENDBRANCH   3  17
TORSDOF 5
ENDMDL
