MODEL 1
REMARK VINA RESULT: -7.536077382      0.000      0.000
REMARK  3 active torsions:
REMARK  status: ('A' for Active; 'I' for Inactive)
REMARK    1  A    between atoms: N1_1  and  N2_4 
REMARK    2  A    between atoms: N3_6  and  C1_8 
REMARK    3  A    between atoms: C4_17  and  C5_18 
REMARK       I    between atoms: C5_18  and  N6_20 
REMARK       I    between atoms: N6_20  and  C6_22 
ROOT
HETATM    1  C1  UNL     1      22.318   5.344  -3.347  1.00  0.00     0.146 A 
HETATM    2  N4  UNL     1      22.126   5.627  -2.061  1.00  0.00    -0.292 N 
ATOM      3  H4  UNL     1      22.166   4.872  -1.376  1.00  0.00     0.172 HD
HETATM    4  C2  UNL     1      21.884   6.866  -1.646  1.00  0.00     0.328 A 
HETATM    5  O1  UNL     1      21.704   7.110  -0.416  1.00  0.00    -0.247 OA
HETATM    6  N5  UNL     1      21.823   7.889  -2.510  1.00  0.00    -0.275 N 
ATOM      7  H5  UNL     1      21.637   8.841  -2.193  1.00  0.00     0.173 HD
HETATM    8  C3  UNL     1      22.021   7.605  -3.837  1.00  0.00     0.269 A 
HETATM    9  O2  UNL     1      21.950   8.604  -4.584  1.00  0.00    -0.267 OA
HETATM   10  C4  UNL     1      22.272   6.362  -4.323  1.00  0.00     0.145 A 
ENDROOT
BRANCH   1  11
HETATM   11  N3  UNL     1      22.572   4.034  -3.770  1.00  0.00    -0.270 N 
HETATM   12  N2  UNL     1      23.021   3.120  -3.021  1.00  0.00    -0.248 N 
ATOM     13  H2  UNL     1      23.222   3.317  -2.041  1.00  0.00     0.207 HD
ATOM     14  H3  UNL     1      22.383   3.802  -4.745  1.00  0.00     0.190 HD
BRANCH  12  15
HETATM   15  N1  UNL     1      23.242   1.844  -3.533  1.00  0.00    -0.331 N 
ATOM     16  H12 UNL     1      22.531   1.125  -3.393  1.00  0.00     0.178 HD
ATOM     17  H11 UNL     1      24.103   1.638  -4.039  1.00  0.00     0.178 HD
ENDBRANCH  12  15
ENDBRANCH   1  11
BRANCH  10  18
HETATM   18  C5  UNL     1      22.483   6.031  -5.711  1.00  0.00     0.268 C 
HETATM   19  O3  UNL     1      23.658   5.645  -6.059  1.00  0.00    -0.267 OA
HETATM   20  N6  UNL     1      21.533   6.089  -6.723  1.00  0.00    -0.277 N 
HETATM   21  C6  UNL     1      21.868   5.732  -8.076  1.00  0.00     0.335 C 
ATOM     22  H6  UNL     1      20.583   6.389  -6.503  1.00  0.00     0.173 HD
HETATM   23  N7  UNL     1      20.912   5.782  -9.131  1.00  0.00    -0.040 NA
HETATM   24  O4  UNL     1      23.031   5.373  -8.304  1.00  0.00    -0.251 OA
ENDBRANCH  10  18
TORSDOF 3
ENDMDL
MODEL 2
REMARK VINA RESULT: -7.406420723      1.384      1.417
REMARK  3 active torsions:
REMARK  status: ('A' for Active; 'I' for Inactive)
REMARK    1  A    between atoms: N1_1  and  N2_4 
REMARK    2  A    between atoms: N3_6  and  C1_8 
REMARK    3  A    between atoms: C4_17  and  C5_18 
REMARK       I    between atoms: C5_18  and  N6_20 
REMARK       I    between atoms: N6_20  and  C6_22 
ROOT
HETATM    1  C1  UNL     1      22.433   5.287  -3.554  1.00  0.00     0.146 A 
HETATM    2  N4  UNL     1      22.147   5.522  -2.277  1.00  0.00    -0.292 N 
ATOM      3  H4  UNL     1      22.117   4.740  -1.622  1.00  0.00     0.172 HD
HETATM    4  C2  UNL     1      21.898   6.750  -1.830  1.00  0.00     0.328 A 
HETATM    5  O1  UNL     1      21.627   6.948  -0.609  1.00  0.00    -0.247 OA
HETATM    6  N5  UNL     1      21.927   7.808  -2.653  1.00  0.00    -0.275 N 
ATOM      7  H5  UNL     1      21.736   8.750  -2.312  1.00  0.00     0.173 HD
HETATM    8  C3  UNL     1      22.222   7.572  -3.971  1.00  0.00     0.269 A 
HETATM    9  O2  UNL     1      22.231   8.602  -4.679  1.00  0.00    -0.267 OA
HETATM   10  C4  UNL     1      22.485   6.344  -4.488  1.00  0.00     0.145 A 
ENDROOT
BRANCH   1  11
HETATM   11  N3  UNL     1      22.693   3.989  -4.010  1.00  0.00    -0.270 N 
HETATM   12  N2  UNL     1      23.059   3.034  -3.267  1.00  0.00    -0.248 N 
ATOM     13  H2  UNL     1      23.182   3.186  -2.266  1.00  0.00     0.207 HD
ATOM     14  H3  UNL     1      22.580   3.802  -5.007  1.00  0.00     0.190 HD
BRANCH  12  15
HETATM   15  N1  UNL     1      23.293   1.775  -3.814  1.00  0.00    -0.331 N 
ATOM     16  H12 UNL     1      22.509   1.131  -3.927  1.00  0.00     0.178 HD
ATOM     17  H11 UNL     1      24.236   1.506  -4.094  1.00  0.00     0.178 HD
ENDBRANCH  12  15
ENDBRANCH   1  11
BRANCH  10  18
HETATM   18  C5  UNL     1      22.798   6.064  -5.867  1.00  0.00     0.268 C 
HETATM   19  O3  UNL     1      22.015   5.271  -6.507  1.00  0.00    -0.267 OA
HETATM   20  N6  UNL     1      23.876   6.570  -6.584  1.00  0.00    -0.277 N 
HETATM   21  C6  UNL     1      24.082   6.214  -7.962  1.00  0.00     0.335 C 
ATOM     22  H6  UNL     1      24.530   7.204  -6.125  1.00  0.00     0.173 HD
HETATM   23  N7  UNL     1      25.179   6.720  -8.720  1.00  0.00    -0.040 NA
HETATM   24  O4  UNL     1      23.267   5.442  -8.484  1.00  0.00    -0.251 OA
ENDBRANCH  10  18
TORSDOF 3
ENDMDL
MODEL 3
REMARK VINA RESULT: -7.174380705      3.568      6.469
REMARK  3 active torsions:
REMARK  status: ('A' for Active; 'I' for Inactive)
REMARK    1  A    between atoms: N1_1  and  N2_4 
REMARK    2  A    between atoms: N3_6  and  C1_8 
REMARK    3  A    between atoms: C4_17  and  C5_18 
REMARK       I    between atoms: C5_18  and  N6_20 
REMARK       I    between atoms: N6_20  and  C6_22 
ROOT
HETATM    1  C1  UNL     1      22.731   8.779  -9.139  1.00  0.00     0.146 A 
HETATM    2  N4  UNL     1      23.489   9.657  -9.790  1.00  0.00    -0.292 N 
ATOM      3  H4  UNL     1      23.352   9.784 -10.793  1.00  0.00     0.172 HD
HETATM    4  C2  UNL     1      24.422  10.372  -9.168  1.00  0.00     0.328 A 
HETATM    5  O1  UNL     1      25.133  11.201  -9.810  1.00  0.00    -0.247 OA
HETATM    6  N5  UNL     1      24.637  10.239  -7.851  1.00  0.00    -0.275 N 
ATOM      7  H5  UNL     1      25.352  10.787  -7.373  1.00  0.00     0.173 HD
HETATM    8  C3  UNL     1      23.858   9.337  -7.174  1.00  0.00     0.269 A 
HETATM    9  O2  UNL     1      24.112   9.265  -5.953  1.00  0.00    -0.267 OA
HETATM   10  C4  UNL     1      22.890   8.578  -7.751  1.00  0.00     0.145 A 
ENDROOT
BRANCH   1  11
HETATM   11  N3  UNL     1      21.752   8.033  -9.806  1.00  0.00    -0.270 N 
HETATM   12  N2  UNL     1      20.747   8.535 -10.386  1.00  0.00    -0.248 N 
ATOM     13  H2  UNL     1      20.610   9.546 -10.384  1.00  0.00     0.207 HD
ATOM     14  H3  UNL     1      21.858   7.018  -9.827  1.00  0.00     0.190 HD
BRANCH  12  15
HETATM   15  N1  UNL     1      19.826   7.710 -11.026  1.00  0.00    -0.331 N 
ATOM     16  H12 UNL     1      19.560   6.829 -10.584  1.00  0.00     0.178 HD
ATOM     17  H11 UNL     1      19.427   7.987 -11.923  1.00  0.00     0.178 HD
ENDBRANCH  12  15
ENDBRANCH   1  11
BRANCH  10  18
HETATM   18  C5  UNL     1      22.056   7.621  -7.068  1.00  0.00     0.268 C 
HETATM   19  O3  UNL     1      21.598   6.634  -7.750  1.00  0.00    -0.267 OA
HETATM   20  N6  UNL     1      21.690   7.660  -5.727  1.00  0.00    -0.277 N 
HETATM   21  C6  UNL     1      20.848   6.642  -5.159  1.00  0.00     0.335 C 
ATOM     22  H6  UNL     1      22.025   8.422  -5.137  1.00  0.00     0.173 HD
HETATM   23  N7  UNL     1      20.459   6.658  -3.787  1.00  0.00    -0.040 NA
HETATM   24  O4  UNL     1      20.461   5.733  -5.906  1.00  0.00    -0.251 OA
ENDBRANCH  10  18
TORSDOF 3
ENDMDL
MODEL 4
REMARK VINA RESULT: -7.165464600      2.027      3.794
REMARK  3 active torsions:
REMARK  status: ('A' for Active; 'I' for Inactive)
REMARK    1  A    between atoms: N1_1  and  N2_4 
REMARK    2  A    between atoms: N3_6  and  C1_8 
REMARK    3  A    between atoms: C4_17  and  C5_18 
REMARK       I    between atoms: C5_18  and  N6_20 
REMARK       I    between atoms: N6_20  and  C6_22 
ROOT
HETATM    1  C1  UNL     1      22.284   5.733  -3.096  1.00  0.00     0.146 A 
HETATM    2  N4  UNL     1      22.306   4.561  -2.466  1.00  0.00    -0.292 N 
ATOM      3  H4  UNL     1      21.997   4.514  -1.495  1.00  0.00     0.172 HD
HETATM    4  C2  UNL     1      22.721   3.450  -3.068  1.00  0.00     0.328 A 
HETATM    5  O1  UNL     1      22.734   2.347  -2.447  1.00  0.00    -0.247 OA
HETATM    6  N5  UNL     1      23.136   3.465  -4.343  1.00  0.00    -0.275 N 
ATOM      7  H5  UNL     1      23.454   2.614  -4.807  1.00  0.00     0.173 HD
HETATM    8  C3  UNL     1      23.115   4.669  -4.998  1.00  0.00     0.269 A 
HETATM    9  O2  UNL     1      23.514   4.609  -6.181  1.00  0.00    -0.267 OA
HETATM   10  C4  UNL     1      22.703   5.837  -4.439  1.00  0.00     0.145 A 
ENDROOT
BRANCH   1  11
HETATM   11  N3  UNL     1      21.844   6.894  -2.449  1.00  0.00    -0.270 N 
HETATM   12  N2  UNL     1      22.448   7.441  -1.483  1.00  0.00    -0.248 N 
ATOM     13  H2  UNL     1      23.314   7.036  -1.127  1.00  0.00     0.207 HD
ATOM     14  H3  UNL     1      20.981   7.326  -2.779  1.00  0.00     0.190 HD
BRANCH  12  15
HETATM   15  N1  UNL     1      21.933   8.598  -0.904  1.00  0.00    -0.331 N 
ATOM     16  H12 UNL     1      21.841   9.439  -1.475  1.00  0.00     0.178 HD
ATOM     17  H11 UNL     1      21.654   8.598   0.077  1.00  0.00     0.178 HD
ENDBRANCH  12  15
ENDBRANCH   1  11
BRANCH  10  18
HETATM   18  C5  UNL     1      22.669   7.117  -5.101  1.00  0.00     0.268 C 
HETATM   19  O3  UNL     1      23.007   8.151  -4.417  1.00  0.00    -0.267 OA
HETATM   20  N6  UNL     1      22.302   7.350  -6.421  1.00  0.00    -0.277 N 
HETATM   21  C6  UNL     1      22.308   8.680  -6.968  1.00  0.00     0.335 C 
ATOM     22  H6  UNL     1      22.024   6.566  -7.011  1.00  0.00     0.173 HD
HETATM   23  N7  UNL     1      21.938   8.946  -8.319  1.00  0.00    -0.040 NA
HETATM   24  O4  UNL     1      22.651   9.607  -6.222  1.00  0.00    -0.251 OA
ENDBRANCH  10  18
TORSDOF 3
ENDMDL
MODEL 5
REMARK VINA RESULT: -6.984430603      2.130      5.834
REMARK  3 active torsions:
REMARK  status: ('A' for Active; 'I' for Inactive)
REMARK    1  A    between atoms: N1_1  and  N2_4 
REMARK    2  A    between atoms: N3_6  and  C1_8 
REMARK    3  A    between atoms: C4_17  and  C5_18 
REMARK       I    between atoms: C5_18  and  N6_20 
REMARK       I    between atoms: N6_20  and  C6_22 
ROOT
HETATM    1  C1  UNL     1      23.302   6.674  -6.110  1.00  0.00     0.146 A 
HETATM    2  N4  UNL     1      23.638   5.900  -7.138  1.00  0.00    -0.292 N 
ATOM      3  H4  UNL     1      23.884   6.335  -8.027  1.00  0.00     0.172 HD
HETATM    4  C2  UNL     1      23.662   4.574  -7.038  1.00  0.00     0.328 A 
HETATM    5  O1  UNL     1      23.984   3.858  -8.031  1.00  0.00    -0.247 OA
HETATM    6  N5  UNL     1      23.348   3.958  -5.889  1.00  0.00    -0.275 N 
ATOM      7  H5  UNL     1      23.365   2.941  -5.810  1.00  0.00     0.173 HD
HETATM    8  C3  UNL     1      23.001   4.751  -4.824  1.00  0.00     0.269 A 
HETATM    9  O2  UNL     1      22.720   4.111  -3.788  1.00  0.00    -0.267 OA
HETATM   10  C4  UNL     1      22.958   6.108  -4.864  1.00  0.00     0.145 A 
ENDROOT
BRANCH   1  11
HETATM   11  N3  UNL     1      23.282   8.068  -6.230  1.00  0.00    -0.270 N 
HETATM   12  N2  UNL     1      22.317   8.726  -6.715  1.00  0.00    -0.248 N 
ATOM     13  H2  UNL     1      21.486   8.239  -7.050  1.00  0.00     0.207 HD
ATOM     14  H3  UNL     1      24.098   8.587  -5.904  1.00  0.00     0.190 HD
BRANCH  12  15
HETATM   15  N1  UNL     1      22.388  10.115  -6.792  1.00  0.00    -0.331 N 
ATOM     16  H12 UNL     1      22.372  10.659  -5.930  1.00  0.00     0.178 HD
ATOM     17  H11 UNL     1      22.455  10.573  -7.701  1.00  0.00     0.178 HD
ENDBRANCH  12  15
ENDBRANCH   1  11
BRANCH  10  18
HETATM   18  C5  UNL     1      22.598   6.967  -3.764  1.00  0.00     0.268 C 
HETATM   19  O3  UNL     1      22.662   8.236  -3.953  1.00  0.00    -0.267 OA
HETATM   20  N6  UNL     1      22.183   6.557  -2.502  1.00  0.00    -0.277 N 
HETATM   21  C6  UNL     1      21.850   7.516  -1.483  1.00  0.00     0.335 C 
ATOM     22  H6  UNL     1      22.113   5.560  -2.296  1.00  0.00     0.173 HD
HETATM   23  N7  UNL     1      21.420   7.121  -0.182  1.00  0.00    -0.040 NA
HETATM   24  O4  UNL     1      21.947   8.716  -1.770  1.00  0.00    -0.251 OA
ENDBRANCH  10  18
TORSDOF 3
ENDMDL
