MODEL 1
REMARK VINA RESULT: -6.383716660      0.000      0.000
REMARK  5 active torsions:
REMARK  status: ('A' for Active; 'I' for Inactive)
REMARK    1  A    between atoms: C2_2  and  N1_3 
REMARK    2  A    between atoms: C2_2  and  C3_7 
REMARK    3  A    between atoms: C4_8  and  N2_9 
REMARK    4  A    between atoms: N2_9  and  C5_11 
REMARK    5  A    between atoms: C5_11  and  C6_12 
ROOT
HETATM    1  C3  UNL     1      12.906  16.284  30.773  1.00  0.00     0.086 A 
HETATM    2  C4  UNL     1      14.219  15.968  31.069  1.00  0.00     0.130 A 
HETATM    3  N3  UNL     1      14.752  15.257  30.064  1.00  0.00    -0.282 N 
ATOM      4  H3  UNL     1      15.704  14.894  30.020  1.00  0.00     0.188 HD
HETATM    5  N4  UNL     1      13.804  15.111  29.132  1.00  0.00    -0.264 N 
ATOM      6  H4  UNL     1      13.919  14.613  28.250  1.00  0.00     0.190 HD
HETATM    7  C12 UNL     1      12.661  15.731  29.539  1.00  0.00     0.272 A 
HETATM    8  O1  UNL     1      11.600  15.755  28.855  1.00  0.00    -0.266 OA
ENDROOT
BRANCH   2   9
HETATM    9  N2  UNL     1      14.863  16.371  32.294  1.00  0.00    -0.370 N 
ATOM     10  H2  UNL     1      14.651  15.878  33.162  1.00  0.00     0.161 HD
BRANCH   9  11
HETATM   11  C5  UNL     1      15.809  17.468  32.305  1.00  0.00     0.160 C 
BRANCH  11  12
HETATM   12  C6  UNL     1      17.121  17.041  32.856  1.00  0.00    -0.041 A 
HETATM   13  C7  UNL     1      17.605  15.773  32.664  1.00  0.00     0.009 A 
HETATM   14  C8  UNL     1      18.822  15.404  33.197  1.00  0.00     0.001 A 
HETATM   15  C9  UNL     1      19.581  16.289  33.931  1.00  0.00     0.000 A 
HETATM   16  C10 UNL     1      19.105  17.570  34.131  1.00  0.00     0.001 A 
HETATM   17  C11 UNL     1      17.878  17.929  33.588  1.00  0.00     0.009 A 
ENDBRANCH  11  12
ENDBRANCH   9  11
ENDBRANCH   2   9
BRANCH   1  18
HETATM   18  C2  UNL     1      11.940  17.047  31.593  1.00  0.00     0.221 C 
HETATM   19  C1  UNL     1      11.818  18.477  31.177  1.00  0.00     0.045 C 
BRANCH  18  20
HETATM   20  N1  UNL     1      10.625  16.435  31.603  1.00  0.00    -0.071 N 
ATOM     21  H13 UNL     1       9.881  17.116  31.446  1.00  0.00     0.275 HD
ATOM     22  H12 UNL     1      10.464  15.852  30.782  1.00  0.00     0.275 HD
ATOM     23  H11 UNL     1      10.499  15.920  32.474  1.00  0.00     0.275 HD
ENDBRANCH  18  20
ENDBRANCH   1  18
TORSDOF 5
ENDMDL
MODEL 2
REMARK VINA RESULT: -6.381843556      0.062      1.151
REMARK  5 active torsions:
REMARK  status: ('A' for Active; 'I' for Inactive)
REMARK    1  A    between atoms: C2_2  and  N1_3 
REMARK    2  A    between atoms: C2_2  and  C3_7 
REMARK    3  A    between atoms: C4_8  and  N2_9 
REMARK    4  A    between atoms: N2_9  and  C5_11 
REMARK    5  A    between atoms: C5_11  and  C6_12 
ROOT
HETATM    1  C3  UNL     1      12.860  16.260  30.762  1.00  0.00     0.086 A 
HETATM    2  C4  UNL     1      14.176  15.955  31.050  1.00  0.00     0.130 A 
HETATM    3  N3  UNL     1      14.708  15.243  30.046  1.00  0.00    -0.282 N 
ATOM      4  H3  UNL     1      15.663  14.887  29.997  1.00  0.00     0.188 HD
HETATM    5  N4  UNL     1      13.756  15.087  29.119  1.00  0.00    -0.264 N 
ATOM      6  H4  UNL     1      13.870  14.586  28.239  1.00  0.00     0.190 HD
HETATM    7  C12 UNL     1      12.611  15.700  29.531  1.00  0.00     0.272 A 
HETATM    8  O1  UNL     1      11.546  15.714  28.854  1.00  0.00    -0.266 OA
ENDROOT
BRANCH   2   9
HETATM    9  N2  UNL     1      14.825  16.367  32.271  1.00  0.00    -0.370 N 
ATOM     10  H2  UNL     1      14.629  15.870  33.139  1.00  0.00     0.161 HD
BRANCH   9  11
HETATM   11  C5  UNL     1      15.752  17.480  32.273  1.00  0.00     0.160 C 
BRANCH  11  12
HETATM   12  C6  UNL     1      17.063  17.086  32.853  1.00  0.00    -0.041 A 
HETATM   13  C7  UNL     1      17.832  17.971  33.563  1.00  0.00     0.009 A 
HETATM   14  C8  UNL     1      19.047  17.578  34.080  1.00  0.00     0.001 A 
HETATM   15  C9  UNL     1      19.521  16.297  33.903  1.00  0.00     0.000 A 
HETATM   16  C10 UNL     1      18.756  15.395  33.191  1.00  0.00     0.001 A 
HETATM   17  C11 UNL     1      17.533  15.803  32.675  1.00  0.00     0.009 A 
ENDBRANCH  11  12
ENDBRANCH   9  11
ENDBRANCH   2   9
BRANCH   1  18
HETATM   18  C2  UNL     1      11.893  17.019  31.584  1.00  0.00     0.221 C 
HETATM   19  C1  UNL     1      11.776  18.452  31.179  1.00  0.00     0.045 C 
BRANCH  18  20
HETATM   20  N1  UNL     1      10.576  16.410  31.586  1.00  0.00    -0.071 N 
ATOM     21  H13 UNL     1      10.542  15.565  32.157  1.00  0.00     0.275 HD
ATOM     22  H12 UNL     1       9.895  16.964  32.105  1.00  0.00     0.275 HD
ATOM     23  H11 UNL     1      10.282  16.238  30.625  1.00  0.00     0.275 HD
ENDBRANCH  18  20
ENDBRANCH   1  18
TORSDOF 5
ENDMDL
MODEL 3
REMARK VINA RESULT: -6.275540074      2.478      3.637
REMARK  5 active torsions:
REMARK  status: ('A' for Active; 'I' for Inactive)
REMARK    1  A    between atoms: C2_2  and  N1_3 
REMARK    2  A    between atoms: C2_2  and  C3_7 
REMARK    3  A    between atoms: C4_8  and  N2_9 
REMARK    4  A    between atoms: N2_9  and  C5_11 
REMARK    5  A    between atoms: C5_11  and  C6_12 
ROOT
HETATM    1  C3  UNL     1      12.641  13.583  31.091  1.00  0.00     0.086 A 
HETATM    2  C4  UNL     1      12.548  14.657  30.226  1.00  0.00     0.130 A 
HETATM    3  N3  UNL     1      11.317  14.707  29.696  1.00  0.00    -0.282 N 
ATOM      4  H3  UNL     1      10.974  15.397  29.027  1.00  0.00     0.188 HD
HETATM    5  N4  UNL     1      10.621  13.685  30.206  1.00  0.00    -0.264 N 
ATOM      6  H4  UNL     1       9.649  13.468  29.986  1.00  0.00     0.190 HD
HETATM    7  C12 UNL     1      11.407  12.978  31.065  1.00  0.00     0.272 A 
HETATM    8  O1  UNL     1      11.010  11.958  31.694  1.00  0.00    -0.266 OA
ENDROOT
BRANCH   2   9
HETATM    9  N2  UNL     1      13.649  15.553  29.970  1.00  0.00    -0.370 N 
ATOM     10  H2  UNL     1      14.252  15.394  29.164  1.00  0.00     0.161 HD
BRANCH   9  11
HETATM   11  C5  UNL     1      13.904  16.677  30.848  1.00  0.00     0.160 C 
BRANCH  11  12
HETATM   12  C6  UNL     1      15.271  16.608  31.426  1.00  0.00    -0.041 A 
HETATM   13  C7  UNL     1      15.699  17.502  32.372  1.00  0.00     0.009 A 
HETATM   14  C8  UNL     1      16.977  17.417  32.882  1.00  0.00     0.001 A 
HETATM   15  C9  UNL     1      17.854  16.442  32.461  1.00  0.00     0.000 A 
HETATM   16  C10 UNL     1      17.435  15.535  31.507  1.00  0.00     0.001 A 
HETATM   17  C11 UNL     1      16.145  15.630  31.002  1.00  0.00     0.009 A 
ENDBRANCH  11  12
ENDBRANCH   9  11
ENDBRANCH   2   9
BRANCH   1  18
HETATM   18  C2  UNL     1      13.809  13.145  31.886  1.00  0.00     0.221 C 
HETATM   19  C1  UNL     1      13.756  13.604  33.308  1.00  0.00     0.045 C 
BRANCH  18  20
HETATM   20  N1  UNL     1      13.988  11.707  31.852  1.00  0.00    -0.071 N 
ATOM     21  H13 UNL     1      13.193  11.228  31.429  1.00  0.00     0.275 HD
ATOM     22  H12 UNL     1      14.702  11.422  31.181  1.00  0.00     0.275 HD
ATOM     23  H11 UNL     1      14.186  11.368  32.793  1.00  0.00     0.275 HD
ENDBRANCH  18  20
ENDBRANCH   1  18
TORSDOF 5
ENDMDL
MODEL 4
REMARK VINA RESULT: -6.271283519      2.473      3.457
REMARK  5 active torsions:
REMARK  status: ('A' for Active; 'I' for Inactive)
REMARK    1  A    between atoms: C2_2  and  N1_3 
REMARK    2  A    between atoms: C2_2  and  C3_7 
REMARK    3  A    between atoms: C4_8  and  N2_9 
REMARK    4  A    between atoms: N2_9  and  C5_11 
REMARK    5  A    between atoms: C5_11  and  C6_12 
ROOT
HETATM    1  C3  UNL     1      12.645  13.589  31.086  1.00  0.00     0.086 A 
HETATM    2  C4  UNL     1      12.542  14.672  30.233  1.00  0.00     0.130 A 
HETATM    3  N3  UNL     1      11.305  14.727  29.717  1.00  0.00    -0.282 N 
ATOM      4  H3  UNL     1      10.955  15.425  29.060  1.00  0.00     0.188 HD
HETATM    5  N4  UNL     1      10.615  13.700  30.224  1.00  0.00    -0.264 N 
ATOM      6  H4  UNL     1       9.641  13.485  30.012  1.00  0.00     0.190 HD
HETATM    7  C12 UNL     1      11.411  12.983  31.067  1.00  0.00     0.272 A 
HETATM    8  O1  UNL     1      11.021  11.957  31.688  1.00  0.00    -0.266 OA
ENDROOT
BRANCH   2   9
HETATM    9  N2  UNL     1      13.640  15.571  29.975  1.00  0.00    -0.370 N 
ATOM     10  H2  UNL     1      14.226  15.429  29.153  1.00  0.00     0.161 HD
BRANCH   9  11
HETATM   11  C5  UNL     1      13.916  16.674  30.873  1.00  0.00     0.160 C 
BRANCH  11  12
HETATM   12  C6  UNL     1      15.295  16.589  31.419  1.00  0.00    -0.041 A 
HETATM   13  C7  UNL     1      16.170  15.613  31.018  1.00  0.00     0.009 A 
HETATM   14  C8  UNL     1      17.440  15.555  31.550  1.00  0.00     0.001 A 
HETATM   15  C9  UNL     1      17.866  16.467  32.491  1.00  0.00     0.000 A 
HETATM   16  C10 UNL     1      16.994  17.456  32.904  1.00  0.00     0.001 A 
HETATM   17  C11 UNL     1      15.717  17.503  32.360  1.00  0.00     0.009 A 
ENDBRANCH  11  12
ENDBRANCH   9  11
ENDBRANCH   2   9
BRANCH   1  18
HETATM   18  C2  UNL     1      13.821  13.143  31.863  1.00  0.00     0.221 C 
HETATM   19  C1  UNL     1      13.808  13.626  33.277  1.00  0.00     0.045 C 
BRANCH  18  20
HETATM   20  N1  UNL     1      13.974  11.701  31.850  1.00  0.00    -0.071 N 
ATOM     21  H13 UNL     1      14.286  11.337  32.750  1.00  0.00     0.275 HD
ATOM     22  H12 UNL     1      13.077  11.218  31.801  1.00  0.00     0.275 HD
ATOM     23  H11 UNL     1      14.597  11.434  31.088  1.00  0.00     0.275 HD
ENDBRANCH  18  20
ENDBRANCH   1  18
TORSDOF 5
ENDMDL
MODEL 5
REMARK VINA RESULT: -6.259822551      1.785      2.404
REMARK  5 active torsions:
REMARK  status: ('A' for Active; 'I' for Inactive)
REMARK    1  A    between atoms: C2_2  and  N1_3 
REMARK    2  A    between atoms: C2_2  and  C3_7 
REMARK    3  A    between atoms: C4_8  and  N2_9 
REMARK    4  A    between atoms: N2_9  and  C5_11 
REMARK    5  A    between atoms: C5_11  and  C6_12 
ROOT
HETATM    1  C3  UNL     1      11.276  15.510  31.192  1.00  0.00     0.086 A 
HETATM    2  C4  UNL     1      12.284  14.603  30.924  1.00  0.00     0.130 A 
HETATM    3  N3  UNL     1      11.786  13.558  30.248  1.00  0.00    -0.282 N 
ATOM      4  H3  UNL     1      12.308  12.744  29.922  1.00  0.00     0.188 HD
HETATM    5  N4  UNL     1      10.477  13.779  30.078  1.00  0.00    -0.264 N 
ATOM      6  H4  UNL     1       9.833  13.152  29.596  1.00  0.00     0.190 HD
HETATM    7  C12 UNL     1      10.136  14.969  30.647  1.00  0.00     0.272 A 
HETATM    8  O1  UNL     1       8.962  15.434  30.639  1.00  0.00    -0.266 OA
ENDROOT
BRANCH   2   9
HETATM    9  N2  UNL     1      13.649  14.807  31.340  1.00  0.00    -0.370 N 
ATOM     10  H2  UNL     1      13.983  14.383  32.205  1.00  0.00     0.161 HD
BRANCH   9  11
HETATM   11  C5  UNL     1      14.552  15.609  30.539  1.00  0.00     0.160 C 
BRANCH  11  12
HETATM   12  C6  UNL     1      15.710  16.080  31.344  1.00  0.00    -0.041 A 
HETATM   13  C7  UNL     1      16.896  15.393  31.369  1.00  0.00     0.009 A 
HETATM   14  C8  UNL     1      17.948  15.850  32.133  1.00  0.00     0.001 A 
HETATM   15  C9  UNL     1      17.842  16.999  32.885  1.00  0.00     0.000 A 
HETATM   16  C10 UNL     1      16.653  17.701  32.868  1.00  0.00     0.001 A 
HETATM   17  C11 UNL     1      15.600  17.230  32.094  1.00  0.00     0.009 A 
ENDBRANCH  11  12
ENDBRANCH   9  11
ENDBRANCH   2   9
BRANCH   1  18
HETATM   18  C2  UNL     1      11.369  16.796  31.916  1.00  0.00     0.221 C 
HETATM   19  C1  UNL     1      11.825  17.926  31.051  1.00  0.00     0.045 C 
BRANCH  18  20
HETATM   20  N1  UNL     1      10.119  17.157  32.558  1.00  0.00    -0.071 N 
ATOM     21  H13 UNL     1      10.265  17.650  33.439  1.00  0.00     0.275 HD
ATOM     22  H12 UNL     1       9.627  17.897  32.057  1.00  0.00     0.275 HD
ATOM     23  H11 UNL     1       9.545  16.322  32.674  1.00  0.00     0.275 HD
ENDBRANCH  18  20
ENDBRANCH   1  18
TORSDOF 5
ENDMDL
