MODEL 1
REMARK VINA RESULT: -7.275891314      0.000      0.000
REMARK  15 active torsions:
REMARK  status: ('A' for Active; 'I' for Inactive)
REMARK    1  A    between atoms: C2_2  and  N1_3 
REMARK    2  A    between atoms: N1_3  and  C3_4 
REMARK    3  A    between atoms: N1_3  and  C17_32 
REMARK    4  A    between atoms: C3_4  and  C4_5 
REMARK    5  A    between atoms: C4_5  and  C5_6 
REMARK    6  A    between atoms: C5_6  and  N2_7 
REMARK    7  A    between atoms: N2_7  and  C6_9 
REMARK    8  A    between atoms: C9_15  and  N4_16 
REMARK    9  A    between atoms: N4_16  and  C10_18 
REMARK   10  A    between atoms: C10_18  and  C11_19 
REMARK   11  A    between atoms: C11_19  and  C12_20 
REMARK   12  A    between atoms: C12_20  and  N5_21 
REMARK   13  A    between atoms: N5_21  and  C13_23 
REMARK   14  A    between atoms: C13_23  and  N6_25 
REMARK   15  A    between atoms: N6_25  and  C14_27 
ROOT
HETATM    1  C6  UNL     1    -149.198-176.105 358.949  1.00  0.00     0.679 A 
HETATM    2  N3  UNL     1    -150.213-175.368 358.481  1.00  0.00    -0.201 N 
ATOM      3  H3  UNL     1    -150.873-175.774 357.819  1.00  0.00     0.183 HD
HETATM    4  C7  UNL     1    -150.366-174.075 358.888  1.00  0.00     0.129 A 
HETATM    5  C8  UNL     1    -149.468-173.529 359.785  1.00  0.00     0.071 A 
HETATM    6 BR1  UNL     1    -149.634-171.713 360.391  1.00  0.00    -0.046 Br
HETATM    7  C9  UNL     1    -148.417-174.279 360.274  1.00  0.00     0.135 A 
HETATM    8  N7  UNL     1    -148.319-175.540 359.840  1.00  0.00    -0.176 N 
ATOM      9  H7  UNL     1    -147.550-176.112 360.189  1.00  0.00     0.186 HD
ENDROOT
BRANCH   7  10
HETATM   10  N4  UNL     1    -147.594-173.745 361.110  1.00  0.00    -0.375 N 
ATOM     11  H4  UNL     1    -147.959-173.304 361.953  1.00  0.00     0.161 HD
BRANCH  10  12
HETATM   12  C10 UNL     1    -146.164-173.754 360.884  1.00  0.00     0.123 C 
BRANCH  12  13
HETATM   13  C11 UNL     1    -145.628-172.396 360.531  1.00  0.00     0.039 C 
BRANCH  13  14
HETATM   14  C12 UNL     1    -144.185-172.463 360.078  1.00  0.00     0.123 C 
BRANCH  14  15
HETATM   15  N5  UNL     1    -143.278-172.597 361.189  1.00  0.00    -0.367 N 
ATOM     16  H5  UNL     1    -143.270-173.460 361.732  1.00  0.00     0.161 HD
BRANCH  15  17
HETATM   17  C13 UNL     1    -142.404-171.550 361.533  1.00  0.00     0.167 C 
HETATM   18  S1  UNL     1    -142.997-170.244 362.373  1.00  0.00    -0.041 SA
BRANCH  17  19
HETATM   19  N6  UNL     1    -141.030-171.521 361.212  1.00  0.00    -0.363 N 
ATOM     20  H6  UNL     1    -140.711-171.813 360.288  1.00  0.00     0.162 HD
BRANCH  19  21
HETATM   21  C14 UNL     1    -140.078-171.074 362.202  1.00  0.00     0.075 C 
HETATM   22  C15 UNL     1    -138.940-170.347 361.528  1.00  0.00     0.032 C 
HETATM   23  C16 UNL     1    -139.510-172.212 363.005  1.00  0.00     0.032 C 
ENDBRANCH  19  21
ENDBRANCH  17  19
ENDBRANCH  15  17
ENDBRANCH  14  15
ENDBRANCH  13  14
ENDBRANCH  12  13
ENDBRANCH  10  12
ENDBRANCH   7  10
BRANCH   1  24
HETATM   24  N2  UNL     1    -148.944-177.315 358.647  1.00  0.00    -0.226 N 
ATOM     25  H2  UNL     1    -149.114-177.615 357.687  1.00  0.00     0.177 HD
BRANCH  24  26
HETATM   26  C5  UNL     1    -148.437-178.277 359.568  1.00  0.00     0.140 C 
BRANCH  26  27
HETATM   27  C4  UNL     1    -149.607-178.831 360.358  1.00  0.00     0.050 C 
BRANCH  27  28
HETATM   28  C3  UNL     1    -149.255-179.270 361.733  1.00  0.00     0.274 C 
BRANCH  28  29
HETATM   29  N1  UNL     1    -149.797-178.453 362.778  1.00  0.00     0.092 N 
BRANCH  29  30
HETATM   30  C2  UNL     1    -150.588-177.350 362.247  1.00  0.00     0.268 C 
HETATM   31  C1  UNL     1    -150.008-176.087 362.892  1.00  0.00     0.037 C 
ENDBRANCH  29  30
BRANCH  29  32
HETATM   32  C17 UNL     1    -150.557-179.212 363.751  1.00  0.00     0.215 C 
HETATM   33  C18 UNL     1    -150.666-178.539 365.079  1.00  0.00     0.042 C 
HETATM   34  C19 UNL     1    -149.787-180.518 363.973  1.00  0.00     0.042 C 
ENDBRANCH  29  32
ENDBRANCH  28  29
ENDBRANCH  27  28
ENDBRANCH  26  27
ENDBRANCH  24  26
ENDBRANCH   1  24
TORSDOF 15
ENDMDL
MODEL 2
REMARK VINA RESULT: -7.272112629      2.418      3.381
REMARK  15 active torsions:
REMARK  status: ('A' for Active; 'I' for Inactive)
REMARK    1  A    between atoms: C2_2  and  N1_3 
REMARK    2  A    between atoms: N1_3  and  C3_4 
REMARK    3  A    between atoms: N1_3  and  C17_32 
REMARK    4  A    between atoms: C3_4  and  C4_5 
REMARK    5  A    between atoms: C4_5  and  C5_6 
REMARK    6  A    between atoms: C5_6  and  N2_7 
REMARK    7  A    between atoms: N2_7  and  C6_9 
REMARK    8  A    between atoms: C9_15  and  N4_16 
REMARK    9  A    between atoms: N4_16  and  C10_18 
REMARK   10  A    between atoms: C10_18  and  C11_19 
REMARK   11  A    between atoms: C11_19  and  C12_20 
REMARK   12  A    between atoms: C12_20  and  N5_21 
REMARK   13  A    between atoms: N5_21  and  C13_23 
REMARK   14  A    between atoms: C13_23  and  N6_25 
REMARK   15  A    between atoms: N6_25  and  C14_27 
ROOT
HETATM    1  C6  UNL     1    -147.697-173.595 361.290  1.00  0.00     0.679 A 
HETATM    2  N3  UNL     1    -148.393-172.748 360.522  1.00  0.00    -0.201 N 
ATOM      3  H3  UNL     1    -149.412-172.741 360.567  1.00  0.00     0.183 HD
HETATM    4  C7  UNL     1    -147.744-171.895 359.678  1.00  0.00     0.129 A 
HETATM    5  C8  UNL     1    -146.364-171.909 359.619  1.00  0.00     0.071 A 
HETATM    6 BR1  UNL     1    -145.398-170.731 358.449  1.00  0.00    -0.046 Br
HETATM    7  C9  UNL     1    -145.635-172.779 360.406  1.00  0.00     0.135 A 
HETATM    8  N7  UNL     1    -146.326-173.590 361.213  1.00  0.00    -0.176 N 
ATOM      9  H7  UNL     1    -145.807-174.239 361.804  1.00  0.00     0.186 HD
ENDROOT
BRANCH   7  10
HETATM   10  N4  UNL     1    -144.348-172.771 360.332  1.00  0.00    -0.375 N 
ATOM     11  H4  UNL     1    -143.896-173.160 359.504  1.00  0.00     0.161 HD
BRANCH  10  12
HETATM   12  C10 UNL     1    -143.527-172.223 361.390  1.00  0.00     0.123 C 
BRANCH  12  13
HETATM   13  C11 UNL     1    -142.524-171.226 360.883  1.00  0.00     0.039 C 
BRANCH  13  14
HETATM   14  C12 UNL     1    -141.535-170.829 361.959  1.00  0.00     0.123 C 
BRANCH  14  15
HETATM   15  N5  UNL     1    -140.670-171.921 362.325  1.00  0.00    -0.367 N 
ATOM     16  H5  UNL     1    -141.039-172.872 362.346  1.00  0.00     0.161 HD
BRANCH  15  17
HETATM   17  C13 UNL     1    -139.322-171.689 362.654  1.00  0.00     0.167 C 
HETATM   18  S1  UNL     1    -138.461-172.884 363.424  1.00  0.00    -0.041 SA
BRANCH  17  19
HETATM   19  N6  UNL     1    -138.627-170.493 362.373  1.00  0.00    -0.363 N 
ATOM     20  H6  UNL     1    -138.725-169.685 362.988  1.00  0.00     0.162 HD
BRANCH  19  21
HETATM   21  C14 UNL     1    -137.777-170.421 361.208  1.00  0.00     0.075 C 
HETATM   22  C15 UNL     1    -136.492-169.710 361.554  1.00  0.00     0.032 C 
HETATM   23  C16 UNL     1    -138.432-169.696 360.064  1.00  0.00     0.032 C 
ENDBRANCH  19  21
ENDBRANCH  17  19
ENDBRANCH  15  17
ENDBRANCH  14  15
ENDBRANCH  13  14
ENDBRANCH  12  13
ENDBRANCH  10  12
ENDBRANCH   7  10
BRANCH   1  24
HETATM   24  N2  UNL     1    -148.181-174.439 362.111  1.00  0.00    -0.226 N 
ATOM     25  H2  UNL     1    -147.531-174.961 362.698  1.00  0.00     0.177 HD
BRANCH  24  26
HETATM   26  C5  UNL     1    -149.574-174.698 362.260  1.00  0.00     0.140 C 
BRANCH  26  27
HETATM   27  C4  UNL     1    -149.824-176.145 361.882  1.00  0.00     0.050 C 
BRANCH  27  28
HETATM   28  C3  UNL     1    -150.709-176.873 362.827  1.00  0.00     0.274 C 
BRANCH  28  29
HETATM   29  N1  UNL     1    -150.037-177.821 363.665  1.00  0.00     0.092 N 
BRANCH  29  30
HETATM   30  C2  UNL     1    -149.772-177.279 364.991  1.00  0.00     0.268 C 
HETATM   31  C1  UNL     1    -151.065-177.497 365.785  1.00  0.00     0.037 C 
ENDBRANCH  29  30
BRANCH  29  32
HETATM   32  C17 UNL     1    -150.735-179.089 363.755  1.00  0.00     0.215 C 
HETATM   33  C18 UNL     1    -149.826-180.258 363.937  1.00  0.00     0.042 C 
HETATM   34  C19 UNL     1    -151.448-179.282 362.413  1.00  0.00     0.042 C 
ENDBRANCH  29  32
ENDBRANCH  28  29
ENDBRANCH  27  28
ENDBRANCH  26  27
ENDBRANCH  24  26
ENDBRANCH   1  24
TORSDOF 15
ENDMDL
MODEL 3
REMARK VINA RESULT: -7.246793213      2.623     10.199
REMARK  15 active torsions:
REMARK  status: ('A' for Active; 'I' for Inactive)
REMARK    1  A    between atoms: C2_2  and  N1_3 
REMARK    2  A    between atoms: N1_3  and  C3_4 
REMARK    3  A    between atoms: N1_3  and  C17_32 
REMARK    4  A    between atoms: C3_4  and  C4_5 
REMARK    5  A    between atoms: C4_5  and  C5_6 
REMARK    6  A    between atoms: C5_6  and  N2_7 
REMARK    7  A    between atoms: N2_7  and  C6_9 
REMARK    8  A    between atoms: C9_15  and  N4_16 
REMARK    9  A    between atoms: N4_16  and  C10_18 
REMARK   10  A    between atoms: C10_18  and  C11_19 
REMARK   11  A    between atoms: C11_19  and  C12_20 
REMARK   12  A    between atoms: C12_20  and  N5_21 
REMARK   13  A    between atoms: N5_21  and  C13_23 
REMARK   14  A    between atoms: C13_23  and  N6_25 
REMARK   15  A    between atoms: N6_25  and  C14_27 
ROOT
HETATM    1  C6  UNL     1    -144.237-171.864 361.014  1.00  0.00     0.679 A 
HETATM    2  N3  UNL     1    -144.664-170.648 360.652  1.00  0.00    -0.201 N 
ATOM      3  H3  UNL     1    -143.994-169.889 360.531  1.00  0.00     0.183 HD
HETATM    4  C7  UNL     1    -145.993-170.422 360.445  1.00  0.00     0.129 A 
HETATM    5  C8  UNL     1    -146.898-171.453 360.610  1.00  0.00     0.071 A 
HETATM    6 BR1  UNL     1    -148.780-171.191 360.332  1.00  0.00    -0.046 Br
HETATM    7  C9  UNL     1    -146.468-172.711 360.984  1.00  0.00     0.135 A 
HETATM    8  N7  UNL     1    -145.155-172.873 361.172  1.00  0.00    -0.176 N 
ATOM      9  H7  UNL     1    -144.817-173.795 361.448  1.00  0.00     0.186 HD
ENDROOT
BRANCH   7  10
HETATM   10  N4  UNL     1    -147.333-173.656 361.131  1.00  0.00    -0.375 N 
ATOM     11  H4  UNL     1    -147.913-173.672 361.970  1.00  0.00     0.161 HD
BRANCH  10  12
HETATM   12  C10 UNL     1    -147.504-174.695 360.138  1.00  0.00     0.123 C 
BRANCH  12  13
HETATM   13  C11 UNL     1    -148.950-174.970 359.836  1.00  0.00     0.039 C 
BRANCH  13  14
HETATM   14  C12 UNL     1    -149.276-176.443 359.955  1.00  0.00     0.123 C 
BRANCH  14  15
HETATM   15  N5  UNL     1    -149.950-176.747 361.192  1.00  0.00    -0.367 N 
ATOM     16  H5  UNL     1    -150.264-175.986 361.795  1.00  0.00     0.161 HD
BRANCH  15  17
HETATM   17  C13 UNL     1    -150.180-178.080 361.576  1.00  0.00     0.167 C 
HETATM   18  S1  UNL     1    -149.644-179.309 360.593  1.00  0.00    -0.041 SA
BRANCH  17  19
HETATM   19  N6  UNL     1    -150.845-178.465 362.760  1.00  0.00    -0.363 N 
ATOM     20  H6  UNL     1    -151.854-178.613 362.758  1.00  0.00     0.162 HD
BRANCH  19  21
HETATM   21  C14 UNL     1    -150.086-178.649 363.975  1.00  0.00     0.075 C 
HETATM   22  C15 UNL     1    -150.005-180.118 364.312  1.00  0.00     0.032 C 
HETATM   23  C16 UNL     1    -150.691-177.922 365.144  1.00  0.00     0.032 C 
ENDBRANCH  19  21
ENDBRANCH  17  19
ENDBRANCH  15  17
ENDBRANCH  14  15
ENDBRANCH  13  14
ENDBRANCH  12  13
ENDBRANCH  10  12
ENDBRANCH   7  10
BRANCH   1  24
HETATM   24  N2  UNL     1    -143.031-172.202 361.241  1.00  0.00    -0.226 N 
ATOM     25  H2  UNL     1    -142.865-173.038 361.799  1.00  0.00     0.177 HD
BRANCH  24  26
HETATM   26  C5  UNL     1    -141.898-171.482 360.762  1.00  0.00     0.140 C 
BRANCH  26  27
HETATM   27  C4  UNL     1    -141.221-170.829 361.951  1.00  0.00     0.050 C 
BRANCH  27  28
HETATM   28  C3  UNL     1    -139.907-170.212 361.637  1.00  0.00     0.274 C 
BRANCH  28  29
HETATM   29  N1  UNL     1    -138.774-171.046 361.909  1.00  0.00     0.092 N 
BRANCH  29  30
HETATM   30  C2  UNL     1    -137.543-170.476 361.378  1.00  0.00     0.268 C 
HETATM   31  C1  UNL     1    -137.974-169.620 360.181  1.00  0.00     0.037 C 
ENDBRANCH  29  30
BRANCH  29  32
HETATM   32  C17 UNL     1    -138.632-171.363 363.316  1.00  0.00     0.215 C 
HETATM   33  C18 UNL     1    -137.421-170.757 363.944  1.00  0.00     0.042 C 
HETATM   34  C19 UNL     1    -138.465-172.884 363.399  1.00  0.00     0.042 C 
ENDBRANCH  29  32
ENDBRANCH  28  29
ENDBRANCH  27  28
ENDBRANCH  26  27
ENDBRANCH  24  26
ENDBRANCH   1  24
TORSDOF 15
ENDMDL
MODEL 4
REMARK VINA RESULT: -7.128205264      2.699     10.907
REMARK  15 active torsions:
REMARK  status: ('A' for Active; 'I' for Inactive)
REMARK    1  A    between atoms: C2_2  and  N1_3 
REMARK    2  A    between atoms: N1_3  and  C3_4 
REMARK    3  A    between atoms: N1_3  and  C17_32 
REMARK    4  A    between atoms: C3_4  and  C4_5 
REMARK    5  A    between atoms: C4_5  and  C5_6 
REMARK    6  A    between atoms: C5_6  and  N2_7 
REMARK    7  A    between atoms: N2_7  and  C6_9 
REMARK    8  A    between atoms: C9_15  and  N4_16 
REMARK    9  A    between atoms: N4_16  and  C10_18 
REMARK   10  A    between atoms: C10_18  and  C11_19 
REMARK   11  A    between atoms: C11_19  and  C12_20 
REMARK   12  A    between atoms: C12_20  and  N5_21 
REMARK   13  A    between atoms: N5_21  and  C13_23 
REMARK   14  A    between atoms: C13_23  and  N6_25 
REMARK   15  A    between atoms: N6_25  and  C14_27 
ROOT
HETATM    1  C6  UNL     1    -142.601-171.464 361.956  1.00  0.00     0.679 A 
HETATM    2  N3  UNL     1    -143.068-170.211 362.018  1.00  0.00    -0.201 N 
ATOM      3  H3  UNL     1    -142.495-169.474 362.427  1.00  0.00     0.183 HD
HETATM    4  C7  UNL     1    -144.310-169.917 361.535  1.00  0.00     0.129 A 
HETATM    5  C8  UNL     1    -145.084-170.919 360.982  1.00  0.00     0.071 A 
HETATM    6 BR1  UNL     1    -146.840-170.563 360.288  1.00  0.00    -0.046 Br
HETATM    7  C9  UNL     1    -144.613-172.215 360.913  1.00  0.00     0.135 A 
HETATM    8  N7  UNL     1    -143.389-172.442 361.401  1.00  0.00    -0.176 N 
ATOM      9  H7  UNL     1    -143.021-173.393 361.359  1.00  0.00     0.186 HD
ENDROOT
BRANCH   7  10
HETATM   10  N4  UNL     1    -145.355-173.131 360.391  1.00  0.00    -0.375 N 
ATOM     11  H4  UNL     1    -145.199-173.405 359.422  1.00  0.00     0.161 HD
BRANCH  10  12
HETATM   12  C10 UNL     1    -146.406-173.781 361.145  1.00  0.00     0.123 C 
BRANCH  12  13
HETATM   13  C11 UNL     1    -147.445-174.410 360.260  1.00  0.00     0.039 C 
BRANCH  13  14
HETATM   14  C12 UNL     1    -148.800-174.459 360.934  1.00  0.00     0.123 C 
BRANCH  14  15
HETATM   15  N5  UNL     1    -149.278-175.810 361.083  1.00  0.00    -0.367 N 
ATOM     16  H5  UNL     1    -148.992-176.524 360.413  1.00  0.00     0.161 HD
BRANCH  15  17
HETATM   17  C13 UNL     1    -150.134-176.154 362.145  1.00  0.00     0.167 C 
HETATM   18  S1  UNL     1    -150.612-174.976 363.215  1.00  0.00    -0.041 SA
BRANCH  17  19
HETATM   19  N6  UNL     1    -150.633-177.455 362.376  1.00  0.00    -0.363 N 
ATOM     20  H6  UNL     1    -151.502-177.758 361.937  1.00  0.00     0.162 HD
BRANCH  19  21
HETATM   21  C14 UNL     1    -149.903-178.353 363.240  1.00  0.00     0.075 C 
HETATM   22  C15 UNL     1    -149.832-179.723 362.612  1.00  0.00     0.032 C 
HETATM   23  C16 UNL     1    -150.534-178.481 364.599  1.00  0.00     0.032 C 
ENDBRANCH  19  21
ENDBRANCH  17  19
ENDBRANCH  15  17
ENDBRANCH  14  15
ENDBRANCH  13  14
ENDBRANCH  12  13
ENDBRANCH  10  12
ENDBRANCH   7  10
BRANCH   1  24
HETATM   24  N2  UNL     1    -141.468-171.866 362.372  1.00  0.00    -0.226 N 
ATOM     25  H2  UNL     1    -141.439-172.713 362.939  1.00  0.00     0.177 HD
BRANCH  24  26
HETATM   26  C5  UNL     1    -140.236-171.206 362.094  1.00  0.00     0.140 C 
BRANCH  26  27
HETATM   27  C4  UNL     1    -139.131-171.951 362.819  1.00  0.00     0.050 C 
BRANCH  27  28
HETATM   28  C3  UNL     1    -138.017-171.083 363.279  1.00  0.00     0.274 C 
BRANCH  28  29
HETATM   29  N1  UNL     1    -136.958-170.917 362.330  1.00  0.00     0.092 N 
BRANCH  29  30
HETATM   30  C2  UNL     1    -136.988-169.598 361.710  1.00  0.00     0.268 C 
HETATM   31  C1  UNL     1    -137.141-169.859 360.207  1.00  0.00     0.037 C 
ENDBRANCH  29  30
BRANCH  29  32
HETATM   32  C17 UNL     1    -135.649-171.195 362.890  1.00  0.00     0.215 C 
HETATM   33  C18 UNL     1    -134.897-172.252 362.152  1.00  0.00     0.042 C 
HETATM   34  C19 UNL     1    -135.893-171.725 364.306  1.00  0.00     0.042 C 
ENDBRANCH  29  32
ENDBRANCH  28  29
ENDBRANCH  27  28
ENDBRANCH  26  27
ENDBRANCH  24  26
ENDBRANCH   1  24
TORSDOF 15
ENDMDL
MODEL 5
REMARK VINA RESULT: -7.083127487      6.728      9.886
REMARK  15 active torsions:
REMARK  status: ('A' for Active; 'I' for Inactive)
REMARK    1  A    between atoms: C2_2  and  N1_3 
REMARK    2  A    between atoms: N1_3  and  C3_4 
REMARK    3  A    between atoms: N1_3  and  C17_32 
REMARK    4  A    between atoms: C3_4  and  C4_5 
REMARK    5  A    between atoms: C4_5  and  C5_6 
REMARK    6  A    between atoms: C5_6  and  N2_7 
REMARK    7  A    between atoms: N2_7  and  C6_9 
REMARK    8  A    between atoms: C9_15  and  N4_16 
REMARK    9  A    between atoms: N4_16  and  C10_18 
REMARK   10  A    between atoms: C10_18  and  C11_19 
REMARK   11  A    between atoms: C11_19  and  C12_20 
REMARK   12  A    between atoms: C12_20  and  N5_21 
REMARK   13  A    between atoms: N5_21  and  C13_23 
REMARK   14  A    between atoms: C13_23  and  N6_25 
REMARK   15  A    between atoms: N6_25  and  C14_27 
ROOT
HETATM    1  C6  UNL     1    -140.819-171.189 360.939  1.00  0.00     0.679 A 
HETATM    2  N3  UNL     1    -141.002-171.269 359.616  1.00  0.00    -0.201 N 
ATOM      3  H3  UNL     1    -141.781-171.812 359.242  1.00  0.00     0.183 HD
HETATM    4  C7  UNL     1    -140.151-170.626 358.765  1.00  0.00     0.129 A 
HETATM    5  C8  UNL     1    -139.099-169.892 359.275  1.00  0.00     0.071 A 
HETATM    6 BR1  UNL     1    -137.869-168.968 358.125  1.00  0.00    -0.046 Br
HETATM    7  C9  UNL     1    -138.899-169.803 360.639  1.00  0.00     0.135 A 
HETATM    8  N7  UNL     1    -139.765-170.453 361.423  1.00  0.00    -0.176 N 
ATOM      9  H7  UNL     1    -139.637-170.399 362.433  1.00  0.00     0.186 HD
ENDROOT
BRANCH   7  10
HETATM   10  N4  UNL     1    -137.909-169.111 361.089  1.00  0.00    -0.375 N 
ATOM     11  H4  UNL     1    -137.813-168.137 360.804  1.00  0.00     0.161 HD
BRANCH  10  12
HETATM   12  C10 UNL     1    -136.928-169.680 361.989  1.00  0.00     0.123 C 
BRANCH  12  13
HETATM   13  C11 UNL     1    -135.923-170.539 361.276  1.00  0.00     0.039 C 
BRANCH  13  14
HETATM   14  C12 UNL     1    -135.802-171.907 361.913  1.00  0.00     0.123 C 
BRANCH  14  15
HETATM   15  N5  UNL     1    -134.431-172.338 362.008  1.00  0.00    -0.367 N 
ATOM     16  H5  UNL     1    -133.892-172.498 361.156  1.00  0.00     0.161 HD
BRANCH  15  17
HETATM   17  C13 UNL     1    -133.827-172.540 363.262  1.00  0.00     0.167 C 
HETATM   18  S1  UNL     1    -132.573-173.624 363.392  1.00  0.00    -0.041 SA
BRANCH  17  19
HETATM   19  N6  UNL     1    -134.211-171.877 364.448  1.00  0.00    -0.363 N 
ATOM     20  H6  UNL     1    -134.551-170.916 364.413  1.00  0.00     0.162 HD
BRANCH  19  21
HETATM   21  C14 UNL     1    -134.120-172.571 365.712  1.00  0.00     0.075 C 
HETATM   22  C15 UNL     1    -135.396-173.334 365.970  1.00  0.00     0.032 C 
HETATM   23  C16 UNL     1    -133.882-171.633 366.863  1.00  0.00     0.032 C 
ENDBRANCH  19  21
ENDBRANCH  17  19
ENDBRANCH  15  17
ENDBRANCH  14  15
ENDBRANCH  13  14
ENDBRANCH  12  13
ENDBRANCH  10  12
ENDBRANCH   7  10
BRANCH   1  24
HETATM   24  N2  UNL     1    -141.536-171.742 361.834  1.00  0.00    -0.226 N 
ATOM     25  H2  UNL     1    -141.589-172.760 361.843  1.00  0.00     0.177 HD
BRANCH  24  26
HETATM   26  C5  UNL     1    -142.270-171.024 362.823  1.00  0.00     0.140 C 
BRANCH  26  27
HETATM   27  C4  UNL     1    -143.136-170.001 362.114  1.00  0.00     0.050 C 
BRANCH  27  28
HETATM   28  C3  UNL     1    -144.338-170.576 361.459  1.00  0.00     0.274 C 
BRANCH  28  29
HETATM   29  N1  UNL     1    -144.451-170.292 360.060  1.00  0.00     0.092 N 
BRANCH  29  30
HETATM   30  C2  UNL     1    -144.604-171.508 359.271  1.00  0.00     0.268 C 
HETATM   31  C1  UNL     1    -144.744-172.640 360.295  1.00  0.00     0.037 C 
ENDBRANCH  29  30
BRANCH  29  32
HETATM   32  C17 UNL     1    -145.507-169.345 359.759  1.00  0.00     0.215 C 
HETATM   33  C18 UNL     1    -146.761-169.585 360.532  1.00  0.00     0.042 C 
HETATM   34  C19 UNL     1    -145.849-169.540 358.279  1.00  0.00     0.042 C 
ENDBRANCH  29  32
ENDBRANCH  28  29
ENDBRANCH  27  28
ENDBRANCH  26  27
ENDBRANCH  24  26
ENDBRANCH   1  24
TORSDOF 15
ENDMDL
