MODEL 1
REMARK VINA RESULT: -8.205442098      0.000      0.000
REMARK  13 active torsions:
REMARK  status: ('A' for Active; 'I' for Inactive)
REMARK    1  A    between atoms: C2_2  and  C3_3 
REMARK    2  A    between atoms: C3_3  and  N1_4 
REMARK    3  A    between atoms: N1_4  and  C4_5 
REMARK       I    between atoms: N1_4  and  C13_18 
REMARK    4  A    between atoms: C4_5  and  C5_6 
REMARK    5  A    between atoms: C5_6  and  C6_7 
REMARK    6  A    between atoms: C6_7  and  C9_10 
REMARK    7  A    between atoms: C9_10  and  N2_11 
REMARK       I    between atoms: N2_11  and  C10_12 
REMARK    8  A    between atoms: C10_12  and  C11_14 
REMARK    9  A    between atoms: C11_14  and  C12_15 
REMARK       I    between atoms: C13_18  and  N3_20 
REMARK   10  A    between atoms: N3_20  and  C14_22 
REMARK   11  A    between atoms: C14_22  and  C15_23 
REMARK   12  A    between atoms: C14_22  and  C20_31 
REMARK       I    between atoms: C15_23  and  N4_25 
REMARK   13  A    between atoms: N4_25  and  C16_27 
ROOT
HETATM    1  N1  UNL     1    -139.617-170.340 360.379  1.00  0.00    -0.331 N 
HETATM    2  C13 UNL     1    -139.661-170.181 358.938  1.00  0.00     0.319 C 
HETATM    3  O4  UNL     1    -140.623-170.724 358.295  1.00  0.00    -0.247 OA
HETATM    4  N3  UNL     1    -138.700-169.479 358.232  1.00  0.00    -0.329 N 
ATOM      5  H3  UNL     1    -137.954-169.052 358.780  1.00  0.00     0.165 HD
ENDROOT
BRANCH   1   6
HETATM    6  C3  UNL     1    -140.568-171.218 360.970  1.00  0.00     0.154 C 
BRANCH   6   7
HETATM    7  C2  UNL     1    -141.375-170.701 362.070  1.00  0.00    -0.017 C 
HETATM    8  C1  UNL     1    -142.641-170.380 362.095  1.00  0.00     0.008 C 
ENDBRANCH   6   7
ENDBRANCH   1   6
BRANCH   1   9
HETATM    9  C4  UNL     1    -138.656-169.635 361.194  1.00  0.00     0.129 C 
BRANCH   9  10
HETATM   10  C5  UNL     1    -137.257-170.096 361.072  1.00  0.00     0.031 C 
BRANCH  10  11
HETATM   11  C6  UNL     1    -136.679-170.803 362.275  1.00  0.00    -0.019 C 
HETATM   12  C7  UNL     1    -136.102-169.777 363.225  1.00  0.00     0.018 C 
HETATM   13  C8  UNL     1    -137.524-171.769 362.965  1.00  0.00     0.018 C 
BRANCH  11  14
HETATM   14  C9  UNL     1    -135.427-171.572 361.678  1.00  0.00     0.230 C 
BRANCH  14  15
HETATM   15  N2  UNL     1    -134.670-172.078 362.711  1.00  0.00    -0.414 NA
HETATM   16  C10 UNL     1    -133.915-172.584 363.736  1.00  0.00     0.296 C 
HETATM   17  O1  UNL     1    -132.969-173.406 363.620  1.00  0.00    -0.257 OA
BRANCH  16  18
HETATM   18  C11 UNL     1    -134.166-172.179 365.183  1.00  0.00     0.231 C 
BRANCH  18  19
HETATM   19  C12 UNL     1    -134.758-173.355 365.849  1.00  0.00     0.182 C 
HETATM   20  O2  UNL     1    -135.964-173.672 365.688  1.00  0.00    -0.648 OA
HETATM   21  O3  UNL     1    -133.966-174.128 366.669  1.00  0.00    -0.648 OA
ENDBRANCH  18  19
ENDBRANCH  16  18
ENDBRANCH  14  15
ENDBRANCH  11  14
ENDBRANCH  10  11
ENDBRANCH   9  10
ENDBRANCH   1   9
BRANCH   4  22
HETATM   22  C14 UNL     1    -138.641-169.280 356.757  1.00  0.00     0.182 C 
BRANCH  22  23
HETATM   23  C15 UNL     1    -138.224-170.550 356.183  1.00  0.00     0.241 C 
HETATM   24  O5  UNL     1    -136.943-170.641 356.017  1.00  0.00    -0.271 OA
HETATM   25  N4  UNL     1    -138.933-171.661 355.783  1.00  0.00    -0.351 N 
ATOM     26  H4  UNL     1    -139.951-171.654 355.865  1.00  0.00     0.163 HD
BRANCH  25  27
HETATM   27  C16 UNL     1    -138.267-172.860 355.241  1.00  0.00     0.022 C 
HETATM   28  C17 UNL     1    -136.822-172.936 355.658  1.00  0.00     0.037 C 
HETATM   29  C18 UNL     1    -138.269-172.806 353.730  1.00  0.00     0.037 C 
HETATM   30  C19 UNL     1    -138.994-174.097 355.664  1.00  0.00     0.037 C 
ENDBRANCH  25  27
ENDBRANCH  22  23
BRANCH  22  31
HETATM   31  C20 UNL     1    -137.886-168.053 356.521  1.00  0.00     0.018 C 
HETATM   32  C21 UNL     1    -137.990-166.923 357.480  1.00  0.00     0.007 C 
HETATM   33  C22 UNL     1    -137.595-165.708 356.643  1.00  0.00     0.000 C 
HETATM   34  C23 UNL     1    -138.356-165.960 355.361  1.00  0.00     0.000 C 
HETATM   35  C24 UNL     1    -138.189-167.445 355.154  1.00  0.00     0.007 C 
ENDBRANCH  22  31
ENDBRANCH   4  22
TORSDOF 13
ENDMDL
MODEL 2
REMARK VINA RESULT: -8.106164850      2.647      3.348
REMARK  13 active torsions:
REMARK  status: ('A' for Active; 'I' for Inactive)
REMARK    1  A    between atoms: C2_2  and  C3_3 
REMARK    2  A    between atoms: C3_3  and  N1_4 
REMARK    3  A    between atoms: N1_4  and  C4_5 
REMARK       I    between atoms: N1_4  and  C13_18 
REMARK    4  A    between atoms: C4_5  and  C5_6 
REMARK    5  A    between atoms: C5_6  and  C6_7 
REMARK    6  A    between atoms: C6_7  and  C9_10 
REMARK    7  A    between atoms: C9_10  and  N2_11 
REMARK       I    between atoms: N2_11  and  C10_12 
REMARK    8  A    between atoms: C10_12  and  C11_14 
REMARK    9  A    between atoms: C11_14  and  C12_15 
REMARK       I    between atoms: C13_18  and  N3_20 
REMARK   10  A    between atoms: N3_20  and  C14_22 
REMARK   11  A    between atoms: C14_22  and  C15_23 
REMARK   12  A    between atoms: C14_22  and  C20_31 
REMARK       I    between atoms: C15_23  and  N4_25 
REMARK   13  A    between atoms: N4_25  and  C16_27 
ROOT
HETATM    1  N1  UNL     1    -140.997-171.122 360.780  1.00  0.00    -0.331 N 
HETATM    2  C13 UNL     1    -141.662-171.461 359.537  1.00  0.00     0.319 C 
HETATM    3  O4  UNL     1    -142.883-171.838 359.581  1.00  0.00    -0.247 OA
HETATM    4  N3  UNL     1    -141.026-171.406 358.309  1.00  0.00    -0.329 N 
ATOM      5  H3  UNL     1    -140.056-171.091 358.312  1.00  0.00     0.165 HD
ENDROOT
BRANCH   1   6
HETATM    6  C3  UNL     1    -141.704-171.375 361.989  1.00  0.00     0.154 C 
BRANCH   6   7
HETATM    7  C2  UNL     1    -142.547-170.307 362.516  1.00  0.00    -0.017 C 
HETATM    8  C1  UNL     1    -143.773-169.983 362.204  1.00  0.00     0.008 C 
ENDBRANCH   6   7
ENDBRANCH   1   6
BRANCH   1   9
HETATM    9  C4  UNL     1    -139.675-170.543 360.804  1.00  0.00     0.129 C 
BRANCH   9  10
HETATM   10  C5  UNL     1    -139.090-170.347 362.147  1.00  0.00     0.031 C 
BRANCH  10  11
HETATM   11  C6  UNL     1    -137.876-171.181 362.476  1.00  0.00    -0.019 C 
HETATM   12  C7  UNL     1    -138.316-172.588 362.815  1.00  0.00     0.018 C 
HETATM   13  C8  UNL     1    -136.768-171.171 361.529  1.00  0.00     0.018 C 
BRANCH  11  14
HETATM   14  C9  UNL     1    -137.367-170.561 363.844  1.00  0.00     0.230 C 
BRANCH  14  15
HETATM   15  N2  UNL     1    -136.382-171.366 364.369  1.00  0.00    -0.414 NA
HETATM   16  C10 UNL     1    -135.404-172.169 364.895  1.00  0.00     0.296 C 
HETATM   17  O1  UNL     1    -135.590-173.229 365.546  1.00  0.00    -0.257 OA
BRANCH  16  18
HETATM   18  C11 UNL     1    -133.927-171.833 364.731  1.00  0.00     0.231 C 
BRANCH  18  19
HETATM   19  C12 UNL     1    -133.409-172.728 363.678  1.00  0.00     0.182 C 
HETATM   20  O2  UNL     1    -133.791-172.639 362.484  1.00  0.00    -0.648 OA
HETATM   21  O3  UNL     1    -132.479-173.687 364.014  1.00  0.00    -0.648 OA
ENDBRANCH  18  19
ENDBRANCH  16  18
ENDBRANCH  14  15
ENDBRANCH  11  14
ENDBRANCH  10  11
ENDBRANCH   9  10
ENDBRANCH   1   9
BRANCH   4  22
HETATM   22  C14 UNL     1    -141.609-171.756 356.983  1.00  0.00     0.182 C 
BRANCH  22  23
HETATM   23  C15 UNL     1    -140.557-172.422 356.230  1.00  0.00     0.241 C 
HETATM   24  O5  UNL     1    -141.001-173.337 355.429  1.00  0.00    -0.271 OA
HETATM   25  N4  UNL     1    -139.188-172.263 356.216  1.00  0.00    -0.351 N 
ATOM     26  H4  UNL     1    -138.764-171.573 356.837  1.00  0.00     0.163 HD
BRANCH  25  27
HETATM   27  C16 UNL     1    -138.319-173.059 355.330  1.00  0.00     0.022 C 
HETATM   28  C17 UNL     1    -138.548-174.538 355.499  1.00  0.00     0.037 C 
HETATM   29  C18 UNL     1    -136.868-172.813 355.682  1.00  0.00     0.037 C 
HETATM   30  C19 UNL     1    -138.525-172.662 353.903  1.00  0.00     0.037 C 
ENDBRANCH  25  27
ENDBRANCH  22  23
BRANCH  22  31
HETATM   31  C20 UNL     1    -142.268-170.557 356.475  1.00  0.00     0.018 C 
HETATM   32  C21 UNL     1    -143.747-170.524 356.341  1.00  0.00     0.007 C 
HETATM   33  C22 UNL     1    -143.984-169.445 355.286  1.00  0.00     0.000 C 
HETATM   34  C23 UNL     1    -142.929-169.785 354.258  1.00  0.00     0.000 C 
HETATM   35  C24 UNL     1    -141.733-170.142 355.106  1.00  0.00     0.007 C 
ENDBRANCH  22  31
ENDBRANCH   4  22
TORSDOF 13
ENDMDL
MODEL 3
REMARK VINA RESULT: -8.038471416      2.426      3.023
REMARK  13 active torsions:
REMARK  status: ('A' for Active; 'I' for Inactive)
REMARK    1  A    between atoms: C2_2  and  C3_3 
REMARK    2  A    between atoms: C3_3  and  N1_4 
REMARK    3  A    between atoms: N1_4  and  C4_5 
REMARK       I    between atoms: N1_4  and  C13_18 
REMARK    4  A    between atoms: C4_5  and  C5_6 
REMARK    5  A    between atoms: C5_6  and  C6_7 
REMARK    6  A    between atoms: C6_7  and  C9_10 
REMARK    7  A    between atoms: C9_10  and  N2_11 
REMARK       I    between atoms: N2_11  and  C10_12 
REMARK    8  A    between atoms: C10_12  and  C11_14 
REMARK    9  A    between atoms: C11_14  and  C12_15 
REMARK       I    between atoms: C13_18  and  N3_20 
REMARK   10  A    between atoms: N3_20  and  C14_22 
REMARK   11  A    between atoms: C14_22  and  C15_23 
REMARK   12  A    between atoms: C14_22  and  C20_31 
REMARK       I    between atoms: C15_23  and  N4_25 
REMARK   13  A    between atoms: N4_25  and  C16_27 
ROOT
HETATM    1  N1  UNL     1    -139.921-170.524 360.775  1.00  0.00    -0.331 N 
HETATM    2  C13 UNL     1    -140.791-171.036 359.734  1.00  0.00     0.319 C 
HETATM    3  O4  UNL     1    -141.946-171.472 360.065  1.00  0.00    -0.247 OA
HETATM    4  N3  UNL     1    -140.417-171.084 358.403  1.00  0.00    -0.329 N 
ATOM      5  H3  UNL     1    -139.492-170.718 358.175  1.00  0.00     0.165 HD
ENDROOT
BRANCH   1   6
HETATM    6  C3  UNL     1    -140.352-170.678 362.122  1.00  0.00     0.154 C 
BRANCH   6   7
HETATM    7  C2  UNL     1    -140.023-171.927 362.800  1.00  0.00    -0.017 C 
HETATM    8  C1  UNL     1    -139.455-172.121 363.960  1.00  0.00     0.008 C 
ENDBRANCH   6   7
ENDBRANCH   1   6
BRANCH   1   9
HETATM    9  C4  UNL     1    -138.668-169.874 360.470  1.00  0.00     0.129 C 
BRANCH   9  10
HETATM   10  C5  UNL     1    -137.523-170.777 360.236  1.00  0.00     0.031 C 
BRANCH  10  11
HETATM   11  C6  UNL     1    -136.385-170.685 361.224  1.00  0.00    -0.019 C 
HETATM   12  C7  UNL     1    -135.074-170.863 360.491  1.00  0.00     0.018 C 
HETATM   13  C8  UNL     1    -136.356-169.536 362.121  1.00  0.00     0.018 C 
BRANCH  11  14
HETATM   14  C9  UNL     1    -136.556-171.996 362.099  1.00  0.00     0.230 C 
BRANCH  14  15
HETATM   15  N2  UNL     1    -135.443-172.162 362.892  1.00  0.00    -0.414 NA
HETATM   16  C10 UNL     1    -134.333-172.329 363.678  1.00  0.00     0.296 C 
HETATM   17  O1  UNL     1    -133.244-172.846 363.317  1.00  0.00    -0.257 OA
BRANCH  16  18
HETATM   18  C11 UNL     1    -134.317-171.883 365.135  1.00  0.00     0.231 C 
BRANCH  18  19
HETATM   19  C12 UNL     1    -134.579-173.089 365.943  1.00  0.00     0.182 C 
HETATM   20  O2  UNL     1    -135.690-173.677 365.918  1.00  0.00    -0.648 OA
HETATM   21  O3  UNL     1    -133.577-173.587 366.748  1.00  0.00    -0.648 OA
ENDBRANCH  18  19
ENDBRANCH  16  18
ENDBRANCH  14  15
ENDBRANCH  11  14
ENDBRANCH  10  11
ENDBRANCH   9  10
ENDBRANCH   1   9
BRANCH   4  22
HETATM   22  C14 UNL     1    -141.222-171.613 357.265  1.00  0.00     0.182 C 
BRANCH  22  23
HETATM   23  C15 UNL     1    -140.300-172.340 356.407  1.00  0.00     0.241 C 
HETATM   24  O5  UNL     1    -140.884-173.223 355.661  1.00  0.00    -0.271 OA
HETATM   25  N4  UNL     1    -138.934-172.267 356.246  1.00  0.00    -0.351 N 
ATOM     26  H4  UNL     1    -138.403-171.607 356.816  1.00  0.00     0.163 HD
BRANCH  25  27
HETATM   27  C16 UNL     1    -138.215-173.112 355.275  1.00  0.00     0.022 C 
HETATM   28  C17 UNL     1    -138.599-174.564 355.402  1.00  0.00     0.037 C 
HETATM   29  C18 UNL     1    -136.728-173.044 355.540  1.00  0.00     0.037 C 
HETATM   30  C19 UNL     1    -138.462-172.631 353.881  1.00  0.00     0.037 C 
ENDBRANCH  25  27
ENDBRANCH  22  23
BRANCH  22  31
HETATM   31  C20 UNL     1    -142.023-170.503 356.757  1.00  0.00     0.018 C 
HETATM   32  C21 UNL     1    -143.506-170.575 356.810  1.00  0.00     0.007 C 
HETATM   33  C22 UNL     1    -143.948-169.604 355.715  1.00  0.00     0.000 C 
HETATM   34  C23 UNL     1    -143.003-169.961 354.590  1.00  0.00     0.000 C 
HETATM   35  C24 UNL     1    -141.690-170.171 355.304  1.00  0.00     0.007 C 
ENDBRANCH  22  31
ENDBRANCH   4  22
TORSDOF 13
ENDMDL
MODEL 4
REMARK VINA RESULT: -8.004201448      3.009      4.098
REMARK  13 active torsions:
REMARK  status: ('A' for Active; 'I' for Inactive)
REMARK    1  A    between atoms: C2_2  and  C3_3 
REMARK    2  A    between atoms: C3_3  and  N1_4 
REMARK    3  A    between atoms: N1_4  and  C4_5 
REMARK       I    between atoms: N1_4  and  C13_18 
REMARK    4  A    between atoms: C4_5  and  C5_6 
REMARK    5  A    between atoms: C5_6  and  C6_7 
REMARK    6  A    between atoms: C6_7  and  C9_10 
REMARK    7  A    between atoms: C9_10  and  N2_11 
REMARK       I    between atoms: N2_11  and  C10_12 
REMARK    8  A    between atoms: C10_12  and  C11_14 
REMARK    9  A    between atoms: C11_14  and  C12_15 
REMARK       I    between atoms: C13_18  and  N3_20 
REMARK   10  A    between atoms: N3_20  and  C14_22 
REMARK   11  A    between atoms: C14_22  and  C15_23 
REMARK   12  A    between atoms: C14_22  and  C20_31 
REMARK       I    between atoms: C15_23  and  N4_25 
REMARK   13  A    between atoms: N4_25  and  C16_27 
ROOT
HETATM    1  N1  UNL     1    -140.592-170.959 360.663  1.00  0.00    -0.331 N 
HETATM    2  C13 UNL     1    -141.369-171.376 359.513  1.00  0.00     0.319 C 
HETATM    3  O4  UNL     1    -142.530-171.874 359.710  1.00  0.00    -0.247 OA
HETATM    4  N3  UNL     1    -140.901-171.270 358.215  1.00  0.00    -0.329 N 
ATOM      5  H3  UNL     1    -139.975-170.860 358.097  1.00  0.00     0.165 HD
ENDROOT
BRANCH   1   6
HETATM    6  C3  UNL     1    -141.112-171.269 361.951  1.00  0.00     0.154 C 
BRANCH   6   7
HETATM    7  C2  UNL     1    -142.180-170.422 362.472  1.00  0.00    -0.017 C 
HETATM    8  C1  UNL     1    -143.143-170.713 363.305  1.00  0.00     0.008 C 
ENDBRANCH   6   7
ENDBRANCH   1   6
BRANCH   1   9
HETATM    9  C4  UNL     1    -139.342-170.250 360.523  1.00  0.00     0.129 C 
BRANCH   9  10
HETATM   10  C5  UNL     1    -138.659-169.906 361.787  1.00  0.00     0.031 C 
BRANCH  10  11
HETATM   11  C6  UNL     1    -137.300-170.526 362.002  1.00  0.00    -0.019 C 
HETATM   12  C7  UNL     1    -136.459-169.600 362.853  1.00  0.00     0.018 C 
HETATM   13  C8  UNL     1    -137.249-171.902 362.484  1.00  0.00     0.018 C 
BRANCH  11  14
HETATM   14  C9  UNL     1    -136.644-170.480 360.560  1.00  0.00     0.230 C 
BRANCH  14  15
HETATM   15  N2  UNL     1    -135.438-171.143 360.586  1.00  0.00    -0.414 NA
HETATM   16  C10 UNL     1    -134.238-171.804 360.617  1.00  0.00     0.296 C 
HETATM   17  O1  UNL     1    -133.826-172.544 361.548  1.00  0.00    -0.257 OA
BRANCH  16  18
HETATM   18  C11 UNL     1    -133.243-171.696 359.469  1.00  0.00     0.231 C 
BRANCH  18  19
HETATM   19  C12 UNL     1    -133.948-172.164 358.259  1.00  0.00     0.182 C 
HETATM   20  O2  UNL     1    -134.771-171.436 357.648  1.00  0.00    -0.648 OA
HETATM   21  O3  UNL     1    -133.695-173.433 357.786  1.00  0.00    -0.648 OA
ENDBRANCH  18  19
ENDBRANCH  16  18
ENDBRANCH  14  15
ENDBRANCH  11  14
ENDBRANCH  10  11
ENDBRANCH   9  10
ENDBRANCH   1   9
BRANCH   4  22
HETATM   22  C14 UNL     1    -141.606-171.692 356.972  1.00  0.00     0.182 C 
BRANCH  22  23
HETATM   23  C15 UNL     1    -140.641-172.438 356.180  1.00  0.00     0.241 C 
HETATM   24  O5  UNL     1    -141.190-173.294 355.378  1.00  0.00    -0.271 OA
HETATM   25  N4  UNL     1    -139.265-172.407 356.130  1.00  0.00    -0.351 N 
ATOM     26  H4  UNL     1    -138.762-171.771 356.749  1.00  0.00     0.163 HD
BRANCH  25  27
HETATM   27  C16 UNL     1    -138.497-173.264 355.208  1.00  0.00     0.022 C 
HETATM   28  C17 UNL     1    -138.802-174.725 355.414  1.00  0.00     0.037 C 
HETATM   29  C18 UNL     1    -137.017-173.100 355.471  1.00  0.00     0.037 C 
HETATM   30  C19 UNL     1    -138.763-172.874 353.789  1.00  0.00     0.037 C 
ENDBRANCH  25  27
ENDBRANCH  22  23
BRANCH  22  31
HETATM   31  C20 UNL     1    -142.278-170.510 356.440  1.00  0.00     0.018 C 
HETATM   32  C21 UNL     1    -143.757-170.497 356.303  1.00  0.00     0.007 C 
HETATM   33  C22 UNL     1    -144.005-169.441 355.227  1.00  0.00     0.000 C 
HETATM   34  C23 UNL     1    -142.944-169.788 354.207  1.00  0.00     0.000 C 
HETATM   35  C24 UNL     1    -141.746-170.116 355.064  1.00  0.00     0.007 C 
ENDBRANCH  22  31
ENDBRANCH   4  22
TORSDOF 13
ENDMDL
MODEL 5
REMARK VINA RESULT: -7.998621456      2.134      4.518
REMARK  13 active torsions:
REMARK  status: ('A' for Active; 'I' for Inactive)
REMARK    1  A    between atoms: C2_2  and  C3_3 
REMARK    2  A    between atoms: C3_3  and  N1_4 
REMARK    3  A    between atoms: N1_4  and  C4_5 
REMARK       I    between atoms: N1_4  and  C13_18 
REMARK    4  A    between atoms: C4_5  and  C5_6 
REMARK    5  A    between atoms: C5_6  and  C6_7 
REMARK    6  A    between atoms: C6_7  and  C9_10 
REMARK    7  A    between atoms: C9_10  and  N2_11 
REMARK       I    between atoms: N2_11  and  C10_12 
REMARK    8  A    between atoms: C10_12  and  C11_14 
REMARK    9  A    between atoms: C11_14  and  C12_15 
REMARK       I    between atoms: C13_18  and  N3_20 
REMARK   10  A    between atoms: N3_20  and  C14_22 
REMARK   11  A    between atoms: C14_22  and  C15_23 
REMARK   12  A    between atoms: C14_22  and  C20_31 
REMARK       I    between atoms: C15_23  and  N4_25 
REMARK   13  A    between atoms: N4_25  and  C16_27 
ROOT
HETATM    1  N1  UNL     1    -136.914-170.069 360.589  1.00  0.00    -0.331 N 
HETATM    2  C13 UNL     1    -137.166-170.211 359.169  1.00  0.00     0.319 C 
HETATM    3  O4  UNL     1    -136.225-170.652 358.424  1.00  0.00    -0.247 OA
HETATM    4  N3  UNL     1    -138.376-169.879 358.587  1.00  0.00    -0.329 N 
ATOM      5  H3  UNL     1    -139.106-169.540 359.214  1.00  0.00     0.165 HD
ENDROOT
BRANCH   1   6
HETATM    6  C3  UNL     1    -135.583-170.287 361.043  1.00  0.00     0.154 C 
BRANCH   6   7
HETATM    7  C2  UNL     1    -135.130-171.668 361.171  1.00  0.00    -0.017 C 
HETATM    8  C1  UNL     1    -133.993-172.208 360.819  1.00  0.00     0.008 C 
ENDBRANCH   6   7
ENDBRANCH   1   6
BRANCH   1   9
HETATM    9  C4  UNL     1    -137.964-169.726 361.520  1.00  0.00     0.129 C 
BRANCH   9  10
HETATM   10  C5  UNL     1    -138.925-170.806 361.822  1.00  0.00     0.031 C 
BRANCH  10  11
HETATM   11  C6  UNL     1    -138.654-171.614 363.068  1.00  0.00    -0.019 C 
HETATM   12  C7  UNL     1    -139.931-171.734 363.870  1.00  0.00     0.018 C 
HETATM   13  C8  UNL     1    -137.986-172.900 362.912  1.00  0.00     0.018 C 
BRANCH  11  14
HETATM   14  C9  UNL     1    -137.712-170.665 363.920  1.00  0.00     0.230 C 
BRANCH  14  15
HETATM   15  N2  UNL     1    -136.646-171.392 364.399  1.00  0.00    -0.414 NA
HETATM   16  C10 UNL     1    -135.588-172.119 364.878  1.00  0.00     0.296 C 
HETATM   17  O1  UNL     1    -135.659-173.238 365.450  1.00  0.00    -0.257 OA
BRANCH  16  18
HETATM   18  C11 UNL     1    -134.157-171.612 364.756  1.00  0.00     0.231 C 
BRANCH  18  19
HETATM   19  C12 UNL     1    -133.470-171.995 366.005  1.00  0.00     0.182 C 
HETATM   20  O2  UNL     1    -132.628-172.928 366.040  1.00  0.00    -0.648 OA
HETATM   21  O3  UNL     1    -133.759-171.310 367.164  1.00  0.00    -0.648 OA
ENDBRANCH  18  19
ENDBRANCH  16  18
ENDBRANCH  14  15
ENDBRANCH  11  14
ENDBRANCH  10  11
ENDBRANCH   9  10
ENDBRANCH   1   9
BRANCH   4  22
HETATM   22  C14 UNL     1    -138.727-169.963 357.141  1.00  0.00     0.182 C 
BRANCH  22  23
HETATM   23  C15 UNL     1    -138.182-168.771 356.511  1.00  0.00     0.241 C 
HETATM   24  O5  UNL     1    -137.827-168.959 355.280  1.00  0.00    -0.271 OA
HETATM   25  N4  UNL     1    -137.969-167.493 356.979  1.00  0.00    -0.351 N 
ATOM     26  H4  UNL     1    -138.205-167.275 357.948  1.00  0.00     0.163 HD
BRANCH  25  27
HETATM   27  C16 UNL     1    -137.411-166.429 356.123  1.00  0.00     0.022 C 
HETATM   28  C17 UNL     1    -138.250-166.202 354.892  1.00  0.00     0.037 C 
HETATM   29  C18 UNL     1    -136.040-166.836 355.631  1.00  0.00     0.037 C 
HETATM   30  C19 UNL     1    -137.270-165.157 356.896  1.00  0.00     0.037 C 
ENDBRANCH  25  27
ENDBRANCH  22  23
BRANCH  22  31
HETATM   31  C20 UNL     1    -140.150-170.282 357.064  1.00  0.00     0.018 C 
HETATM   32  C21 UNL     1    -140.815-170.980 358.195  1.00  0.00     0.007 C 
HETATM   33  C22 UNL     1    -142.028-171.639 357.541  1.00  0.00     0.000 C 
HETATM   34  C23 UNL     1    -141.424-172.207 356.277  1.00  0.00     0.000 C 
HETATM   35  C24 UNL     1    -140.488-171.112 355.828  1.00  0.00     0.007 C 
ENDBRANCH  22  31
ENDBRANCH   4  22
TORSDOF 13
ENDMDL
