MODEL 1
REMARK VINA RESULT: -7.257794385      0.000      0.000
REMARK  6 active torsions:
REMARK  status: ('A' for Active; 'I' for Inactive)
REMARK    1  A    between atoms: O1_2  and  C2_3 
REMARK    2  A    between atoms: C3_4  and  O2_5 
REMARK    3  A    between atoms: C4_7  and  O3_8 
REMARK    4  A    between atoms: C7_12  and  C8_13 
REMARK    5  A    between atoms: C11_16  and  O4_18 
REMARK    6  A    between atoms: C19_26  and  O5_27 
ROOT
HETATM    1  C2  UNL     1       5.406  -3.712   4.950  1.00  0.00     0.115 A 
HETATM    2  C3  UNL     1       4.658  -2.979   5.796  1.00  0.00     0.134 A 
HETATM    3  C4  UNL     1       3.732  -3.593   6.561  1.00  0.00     0.109 A 
HETATM    4  C5  UNL     1       3.538  -4.972   6.487  1.00  0.00     0.003 A 
HETATM    5  C6  UNL     1       4.306  -5.695   5.621  1.00  0.00    -0.000 A 
HETATM    6  C7  UNL     1       5.295  -5.112   4.792  1.00  0.00     0.015 A 
HETATM    7  C11 UNL     1       4.162  -7.136   5.462  1.00  0.00     0.086 C 
HETATM    8  C12 UNL     1       3.452  -7.362   4.122  1.00  0.00     0.051 C 
HETATM    9  C13 UNL     1       3.210  -7.774   6.461  1.00  0.00     0.078 C 
HETATM   10  C14 UNL     1       2.153  -6.877   6.925  1.00  0.00    -0.059 C 
HETATM   11  C15 UNL     1       0.912  -7.341   6.904  1.00  0.00    -0.080 C 
HETATM   12  C16 UNL     1       0.500  -8.675   6.454  1.00  0.00     0.043 C 
HETATM   13  C17 UNL     1      -0.224  -6.480   7.420  1.00  0.00     0.036 C 
HETATM   14  C18 UNL     1       0.337  -5.579   8.488  1.00  0.00     0.037 C 
HETATM   15  C19 UNL     1       1.379  -4.725   7.750  1.00  0.00     0.135 C 
HETATM   16  C20 UNL     1       2.520  -5.540   7.378  1.00  0.00     0.036 C 
HETATM   17  C21 UNL     1       3.307  -5.799   8.707  1.00  0.00     0.028 C 
ENDROOT
BRANCH   6  18
HETATM   18  C8  UNL     1       6.167  -5.633   3.837  1.00  0.00    -0.058 C 
HETATM   19  C9  UNL     1       7.036  -6.717   3.612  1.00  0.00     0.019 C 
HETATM   20  C10 UNL     1       5.447  -5.476   2.453  1.00  0.00     0.048 C 
ENDBRANCH   6  18
BRANCH   1  21
HETATM   21  O1  UNL     1       6.347  -2.960   4.203  1.00  0.00    -0.352 OA
HETATM   22  C1  UNL     1       7.670  -2.734   4.647  1.00  0.00     0.210 C 
ENDBRANCH   1  21
BRANCH   2  23
HETATM   23  O2  UNL     1       4.808  -1.577   5.914  1.00  0.00    -0.356 OA
ATOM     24  H2  UNL     1       4.519  -0.978   5.236  1.00  0.00     0.218 HD
ENDBRANCH   2  23
BRANCH   7  25
HETATM   25  O4  UNL     1       5.249  -7.924   5.699  1.00  0.00    -0.385 OA
ATOM     26  H4  UNL     1       5.103  -8.827   5.956  1.00  0.00     0.211 HD
ENDBRANCH   7  25
BRANCH   3  27
HETATM   27  O3  UNL     1       2.997  -2.821   7.406  1.00  0.00    -0.357 OA
ATOM     28  H3  UNL     1       2.074  -3.027   7.503  1.00  0.00     0.217 HD
ENDBRANCH   3  27
BRANCH  15  29
HETATM   29  O5  UNL     1       0.617  -4.212   6.682  1.00  0.00    -0.394 OA
ATOM     30  H5  UNL     1       1.267  -4.164   5.991  1.00  0.00     0.210 HD
ENDBRANCH  15  29
TORSDOF 6
ENDMDL
MODEL 2
REMARK VINA RESULT: -7.200700051      1.694      5.476
REMARK  6 active torsions:
REMARK  status: ('A' for Active; 'I' for Inactive)
REMARK    1  A    between atoms: O1_2  and  C2_3 
REMARK    2  A    between atoms: C3_4  and  O2_5 
REMARK    3  A    between atoms: C4_7  and  O3_8 
REMARK    4  A    between atoms: C7_12  and  C8_13 
REMARK    5  A    between atoms: C11_16  and  O4_18 
REMARK    6  A    between atoms: C19_26  and  O5_27 
ROOT
HETATM    1  C2  UNL     1       1.523  -4.544   5.691  1.00  0.00     0.115 A 
HETATM    2  C3  UNL     1       1.977  -3.276   5.704  1.00  0.00     0.134 A 
HETATM    3  C4  UNL     1       3.179  -2.999   5.159  1.00  0.00     0.109 A 
HETATM    4  C5  UNL     1       3.957  -4.004   4.584  1.00  0.00     0.003 A 
HETATM    5  C6  UNL     1       3.478  -5.282   4.584  1.00  0.00    -0.000 A 
HETATM    6  C7  UNL     1       2.225  -5.639   5.138  1.00  0.00     0.015 A 
HETATM    7  C11 UNL     1       4.227  -6.399   4.024  1.00  0.00     0.086 C 
HETATM    8  C12 UNL     1       4.762  -7.209   5.211  1.00  0.00     0.051 C 
HETATM    9  C13 UNL     1       5.496  -5.986   3.296  1.00  0.00     0.078 C 
HETATM   10  C14 UNL     1       6.095  -4.754   3.805  1.00  0.00    -0.059 C 
HETATM   11  C15 UNL     1       7.395  -4.772   4.062  1.00  0.00    -0.080 C 
HETATM   12  C16 UNL     1       8.291  -5.920   3.883  1.00  0.00     0.043 C 
HETATM   13  C17 UNL     1       8.086  -3.512   4.544  1.00  0.00     0.036 C 
HETATM   14  C18 UNL     1       7.342  -2.336   3.969  1.00  0.00     0.037 C 
HETATM   15  C19 UNL     1       5.934  -2.452   4.572  1.00  0.00     0.135 C 
HETATM   16  C20 UNL     1       5.238  -3.590   4.001  1.00  0.00     0.036 C 
HETATM   17  C21 UNL     1       4.850  -3.163   2.545  1.00  0.00     0.028 C 
ENDROOT
BRANCH   6  18
HETATM   18  C8  UNL     1       1.551  -6.853   5.270  1.00  0.00    -0.058 C 
HETATM   19  C9  UNL     1       1.035  -7.728   6.244  1.00  0.00     0.019 C 
HETATM   20  C10 UNL     1       0.425  -6.851   4.178  1.00  0.00     0.048 C 
ENDBRANCH   6  18
BRANCH   1  21
HETATM   21  O1  UNL     1       0.249  -4.713   6.287  1.00  0.00    -0.352 OA
HETATM   22  C1  UNL     1       0.041  -4.631   7.683  1.00  0.00     0.210 C 
ENDBRANCH   1  21
BRANCH   2  23
HETATM   23  O2  UNL     1       1.234  -2.215   6.273  1.00  0.00    -0.356 OA
ATOM     24  H2  UNL     1       1.646  -1.415   6.578  1.00  0.00     0.218 HD
ENDBRANCH   2  23
BRANCH   7  25
HETATM   25  O4  UNL     1       3.654  -7.122   3.020  1.00  0.00    -0.385 OA
ATOM     26  H4  UNL     1       4.167  -7.809   2.611  1.00  0.00     0.211 HD
ENDBRANCH   7  25
BRANCH   3  27
HETATM   27  O3  UNL     1       3.604  -1.707   5.188  1.00  0.00    -0.357 OA
ATOM     28  H3  UNL     1       4.349  -1.475   4.646  1.00  0.00     0.217 HD
ENDBRANCH   3  27
BRANCH  15  29
HETATM   29  O5  UNL     1       6.223  -2.536   5.948  1.00  0.00    -0.394 OA
ATOM     30  H5  UNL     1       6.776  -1.775   6.072  1.00  0.00     0.210 HD
ENDBRANCH  15  29
TORSDOF 6
ENDMDL
MODEL 3
REMARK VINA RESULT: -7.171247225      1.681      2.066
REMARK  6 active torsions:
REMARK  status: ('A' for Active; 'I' for Inactive)
REMARK    1  A    between atoms: O1_2  and  C2_3 
REMARK    2  A    between atoms: C3_4  and  O2_5 
REMARK    3  A    between atoms: C4_7  and  O3_8 
REMARK    4  A    between atoms: C7_12  and  C8_13 
REMARK    5  A    between atoms: C11_16  and  O4_18 
REMARK    6  A    between atoms: C19_26  and  O5_27 
ROOT
HETATM    1  C2  UNL     1       6.957  -3.604   4.134  1.00  0.00     0.115 A 
HETATM    2  C3  UNL     1       6.351  -2.549   4.711  1.00  0.00     0.134 A 
HETATM    3  C4  UNL     1       5.157  -2.722   5.315  1.00  0.00     0.109 A 
HETATM    4  C5  UNL     1       4.544  -3.974   5.350  1.00  0.00     0.003 A 
HETATM    5  C6  UNL     1       5.176  -5.029   4.758  1.00  0.00    -0.000 A 
HETATM    6  C7  UNL     1       6.429  -4.914   4.109  1.00  0.00     0.015 A 
HETATM    7  C11 UNL     1       4.604  -6.369   4.729  1.00  0.00     0.086 C 
HETATM    8  C12 UNL     1       4.106  -6.603   3.298  1.00  0.00     0.051 C 
HETATM    9  C13 UNL     1       3.339  -6.516   5.557  1.00  0.00     0.078 C 
HETATM   10  C14 UNL     1       2.564  -5.283   5.678  1.00  0.00    -0.059 C 
HETATM   11  C15 UNL     1       1.264  -5.357   5.434  1.00  0.00    -0.080 C 
HETATM   12  C16 UNL     1       0.528  -6.568   5.052  1.00  0.00     0.043 C 
HETATM   13  C17 UNL     1       0.395  -4.124   5.591  1.00  0.00     0.036 C 
HETATM   14  C18 UNL     1       1.021  -3.258   6.651  1.00  0.00     0.037 C 
HETATM   15  C19 UNL     1       2.395  -2.889   6.073  1.00  0.00     0.135 C 
HETATM   16  C20 UNL     1       3.258  -4.055   6.051  1.00  0.00     0.036 C 
HETATM   17  C21 UNL     1       3.674  -4.301   7.542  1.00  0.00     0.028 C 
ENDROOT
BRANCH   6  18
HETATM   18  C8  UNL     1       7.239  -5.825   3.432  1.00  0.00    -0.058 C 
HETATM   19  C9  UNL     1       7.840  -7.090   3.580  1.00  0.00     0.019 C 
HETATM   20  C10 UNL     1       6.715  -5.865   1.954  1.00  0.00     0.048 C 
ENDBRANCH   6  18
BRANCH   1  21
HETATM   21  O1  UNL     1       8.206  -3.303   3.536  1.00  0.00    -0.352 OA
HETATM   22  C1  UNL     1       8.319  -2.759   2.235  1.00  0.00     0.210 C 
ENDBRANCH   1  21
BRANCH   2  23
HETATM   23  O2  UNL     1       6.922  -1.255   4.706  1.00  0.00    -0.356 OA
ATOM     24  H2  UNL     1       6.981  -0.730   3.916  1.00  0.00     0.218 HD
ENDBRANCH   2  23
BRANCH   7  25
HETATM   25  O4  UNL     1       5.319  -7.388   5.284  1.00  0.00    -0.385 OA
ATOM     26  H4  UNL     1       5.490  -7.362   6.218  1.00  0.00     0.211 HD
ENDBRANCH   7  25
BRANCH   3  27
HETATM   27  O3  UNL     1       4.575  -1.635   5.888  1.00  0.00    -0.357 OA
ATOM     28  H3  UNL     1       3.898  -1.786   6.538  1.00  0.00     0.217 HD
ENDBRANCH   3  27
BRANCH  15  29
HETATM   29  O5  UNL     1       2.039  -2.367   4.814  1.00  0.00    -0.394 OA
ATOM     30  H5  UNL     1       2.873  -2.381   4.360  1.00  0.00     0.210 HD
ENDBRANCH  15  29
TORSDOF 6
ENDMDL
MODEL 4
REMARK VINA RESULT: -7.127296164      5.833      8.235
REMARK  6 active torsions:
REMARK  status: ('A' for Active; 'I' for Inactive)
REMARK    1  A    between atoms: O1_2  and  C2_3 
REMARK    2  A    between atoms: C3_4  and  O2_5 
REMARK    3  A    between atoms: C4_7  and  O3_8 
REMARK    4  A    between atoms: C7_12  and  C8_13 
REMARK    5  A    between atoms: C11_16  and  O4_18 
REMARK    6  A    between atoms: C19_26  and  O5_27 
ROOT
HETATM    1  C2  UNL     1       0.909  -4.922  11.943  1.00  0.00     0.115 A 
HETATM    2  C3  UNL     1       1.761  -5.534  11.099  1.00  0.00     0.134 A 
HETATM    3  C4  UNL     1       1.449  -6.753  10.613  1.00  0.00     0.109 A 
HETATM    4  C5  UNL     1       0.260  -7.387  10.974  1.00  0.00     0.003 A 
HETATM    5  C6  UNL     1      -0.587  -6.748  11.832  1.00  0.00    -0.000 A 
HETATM    6  C7  UNL     1      -0.319  -5.469  12.375  1.00  0.00     0.015 A 
HETATM    7  C11 UNL     1      -1.842  -7.340  12.279  1.00  0.00     0.086 C 
HETATM    8  C12 UNL     1      -1.626  -7.785  13.731  1.00  0.00     0.051 C 
HETATM    9  C13 UNL     1      -2.196  -8.640  11.575  1.00  0.00     0.078 C 
HETATM   10  C14 UNL     1      -1.033  -9.399  11.118  1.00  0.00    -0.059 C 
HETATM   11  C15 UNL     1      -0.997 -10.690  11.416  1.00  0.00    -0.080 C 
HETATM   12  C16 UNL     1      -2.019 -11.429  12.166  1.00  0.00     0.043 C 
HETATM   13  C17 UNL     1       0.157 -11.544  10.927  1.00  0.00     0.036 C 
HETATM   14  C18 UNL     1       0.650 -10.948   9.637  1.00  0.00     0.037 C 
HETATM   15  C19 UNL     1       1.138  -9.546  10.033  1.00  0.00     0.135 C 
HETATM   16  C20 UNL     1       0.008  -8.701  10.372  1.00  0.00     0.036 C 
HETATM   17  C21 UNL     1      -0.681  -8.349   9.010  1.00  0.00     0.028 C 
ENDROOT
BRANCH   6  18
HETATM   18  C8  UNL     1      -1.008  -4.647  13.267  1.00  0.00    -0.058 C 
HETATM   19  C9  UNL     1      -0.882  -4.040  14.530  1.00  0.00     0.019 C 
HETATM   20  C10 UNL     1      -1.661  -3.513  12.404  1.00  0.00     0.048 C 
ENDBRANCH   6  18
BRANCH   1  21
HETATM   21  O1  UNL     1       1.342  -3.646  12.382  1.00  0.00    -0.352 OA
HETATM   22  C1  UNL     1       2.232  -3.472  13.467  1.00  0.00     0.210 C 
ENDBRANCH   1  21
BRANCH   2  23
HETATM   23  O2  UNL     1       2.982  -4.942  10.698  1.00  0.00    -0.356 OA
ATOM     24  H2  UNL     1       3.675  -4.742  11.316  1.00  0.00     0.218 HD
ENDBRANCH   2  23
BRANCH   7  25
HETATM   25  O4  UNL     1      -3.000  -6.663  12.030  1.00  0.00    -0.385 OA
ATOM     26  H4  UNL     1      -3.786  -6.930  12.493  1.00  0.00     0.211 HD
ENDBRANCH   7  25
BRANCH   3  27
HETATM   27  O3  UNL     1       2.331  -7.341   9.761  1.00  0.00    -0.357 OA
ATOM     28  H3  UNL     1       2.639  -8.214   9.976  1.00  0.00     0.217 HD
ENDBRANCH   3  27
BRANCH  15  29
HETATM   29  O5  UNL     1       2.021  -9.843  11.089  1.00  0.00    -0.394 OA
ATOM     30  H5  UNL     1       2.792  -9.352  10.835  1.00  0.00     0.210 HD
ENDBRANCH  15  29
TORSDOF 6
ENDMDL
MODEL 5
REMARK VINA RESULT: -7.108798762      1.247      1.482
REMARK  6 active torsions:
REMARK  status: ('A' for Active; 'I' for Inactive)
REMARK    1  A    between atoms: O1_2  and  C2_3 
REMARK    2  A    between atoms: C3_4  and  O2_5 
REMARK    3  A    between atoms: C4_7  and  O3_8 
REMARK    4  A    between atoms: C7_12  and  C8_13 
REMARK    5  A    between atoms: C11_16  and  O4_18 
REMARK    6  A    between atoms: C19_26  and  O5_27 
ROOT
HETATM    1  C2  UNL     1       4.513  -4.342   5.436  1.00  0.00     0.115 A 
HETATM    2  C3  UNL     1       3.904  -3.382   6.157  1.00  0.00     0.134 A 
HETATM    3  C4  UNL     1       2.956  -3.728   7.051  1.00  0.00     0.109 A 
HETATM    4  C5  UNL     1       2.597  -5.064   7.238  1.00  0.00     0.003 A 
HETATM    5  C6  UNL     1       3.227  -6.019   6.494  1.00  0.00    -0.000 A 
HETATM    6  C7  UNL     1       4.231  -5.722   5.541  1.00  0.00     0.015 A 
HETATM    7  C11 UNL     1       2.907  -7.437   6.607  1.00  0.00     0.086 C 
HETATM    8  C12 UNL     1       2.103  -7.806   5.355  1.00  0.00     0.051 C 
HETATM    9  C13 UNL     1       1.943  -7.762   7.737  1.00  0.00     0.078 C 
HETATM   10  C14 UNL     1       1.025  -6.672   8.063  1.00  0.00    -0.059 C 
HETATM   11  C15 UNL     1      -0.261  -6.973   8.168  1.00  0.00    -0.080 C 
HETATM   12  C16 UNL     1      -0.851  -8.304   7.983  1.00  0.00     0.043 C 
HETATM   13  C17 UNL     1      -1.258  -5.899   8.554  1.00  0.00     0.036 C 
HETATM   14  C18 UNL     1      -0.538  -4.899   9.419  1.00  0.00     0.037 C 
HETATM   15  C19 UNL     1       0.555  -4.328   8.504  1.00  0.00     0.135 C 
HETATM   16  C20 UNL     1       1.570  -5.332   8.250  1.00  0.00     0.036 C 
HETATM   17  C21 UNL     1       2.393  -5.447   9.578  1.00  0.00     0.028 C 
ENDROOT
BRANCH   6  18
HETATM   18  C8  UNL     1       4.982  -6.509   4.670  1.00  0.00    -0.058 C 
HETATM   19  C9  UNL     1       5.697  -7.721   4.616  1.00  0.00     0.019 C 
HETATM   20  C10 UNL     1       4.219  -6.500   3.300  1.00  0.00     0.048 C 
ENDBRANCH   6  18
BRANCH   1  21
HETATM   21  O1  UNL     1       5.493  -3.858   4.534  1.00  0.00    -0.352 OA
HETATM   22  C1  UNL     1       6.836  -3.630   4.914  1.00  0.00     0.210 C 
ENDBRANCH   1  21
BRANCH   2  23
HETATM   23  O2  UNL     1       4.223  -2.011   6.011  1.00  0.00    -0.356 OA
ATOM     24  H2  UNL     1       3.632  -1.321   6.289  1.00  0.00     0.218 HD
ENDBRANCH   2  23
BRANCH   7  25
HETATM   25  O4  UNL     1       3.905  -8.299   6.949  1.00  0.00    -0.385 OA
ATOM     26  H4  UNL     1       3.895  -8.678   7.821  1.00  0.00     0.211 HD
ENDBRANCH   7  25
BRANCH   3  27
HETATM   27  O3  UNL     1       2.363  -2.733   7.764  1.00  0.00    -0.357 OA
ATOM     28  H3  UNL     1       1.555  -2.936   8.221  1.00  0.00     0.217 HD
ENDBRANCH   3  27
BRANCH  15  29
HETATM   29  O5  UNL     1      -0.199  -3.922   7.385  1.00  0.00    -0.394 OA
ATOM     30  H5  UNL     1      -0.617  -3.135   7.714  1.00  0.00     0.210 HD
ENDBRANCH  15  29
TORSDOF 6
ENDMDL
