MODEL 1
REMARK VINA RESULT: -8.267996620      0.000      0.000
REMARK  6 active torsions:
REMARK  status: ('A' for Active; 'I' for Inactive)
REMARK    1  A    between atoms: C5_5  and  O1_6 
REMARK    2  A    between atoms: C6_8  and  O2_9 
REMARK    3  A    between atoms: C7_11  and  C9_13 
REMARK    4  A    between atoms: C9_13  and  C10_14 
REMARK    5  A    between atoms: C10_14  and  O3_15 
REMARK    6  A    between atoms: N1_17  and  O4_19 
ROOT
HETATM    1  C1  UNL     1       7.419  -2.488   1.839  1.00  0.00     0.043 C 
HETATM    2  C2  UNL     1       7.317  -2.899   3.288  1.00  0.00    -0.087 C 
HETATM    3  C3  UNL     1       6.521  -2.258   4.127  1.00  0.00    -0.022 C 
HETATM    4  C4  UNL     1       6.356  -2.590   5.559  1.00  0.00     0.061 C 
HETATM    5  C5  UNL     1       4.903  -2.556   6.016  1.00  0.00     0.151 C 
HETATM    6  C6  UNL     1       4.012  -3.443   5.234  1.00  0.00     0.155 C 
HETATM    7  C7  UNL     1       3.571  -4.720   5.847  1.00  0.00    -0.006 C 
HETATM    8  C8  UNL     1       4.454  -5.172   6.994  1.00  0.00     0.018 C 
HETATM    9  C11 UNL     1       3.518  -5.804   4.761  1.00  0.00     0.044 C 
HETATM   10  C12 UNL     1       4.457  -6.938   4.966  1.00  0.00     0.118 C 
HETATM   11  C13 UNL     1       3.628  -8.179   5.337  1.00  0.00     0.039 C 
HETATM   12  O5  UNL     1       5.060  -7.298   3.734  1.00  0.00    -0.385 OA
HETATM   13  C14 UNL     1       6.296  -7.853   4.038  1.00  0.00     0.176 C 
HETATM   14  C15 UNL     1       7.307  -7.687   2.929  1.00  0.00    -0.026 C 
HETATM   15  C16 UNL     1       8.370  -8.763   3.157  1.00  0.00     0.017 C 
HETATM   16  C17 UNL     1       6.617  -8.034   1.627  1.00  0.00     0.017 C 
HETATM   17  C18 UNL     1       7.996  -6.373   2.890  1.00  0.00     0.011 C 
HETATM   18  C19 UNL     1       7.350  -5.321   3.757  1.00  0.00     0.005 C 
HETATM   19  C20 UNL     1       8.144  -4.054   3.726  1.00  0.00     0.033 C 
ENDROOT
BRANCH   7  20
HETATM   20  C9  UNL     1       2.169  -4.720   6.417  1.00  0.00     0.097 C 
BRANCH  20  21
HETATM   21  C10 UNL     1       1.926  -3.973   7.624  1.00  0.00     0.136 C 
HETATM   22  N1  UNL     1       1.417  -4.563   8.649  1.00  0.00    -0.251 N 
ATOM     23  H1  UNL     1       1.186  -5.556   8.604  1.00  0.00     0.196 HD
BRANCH  21  24
HETATM   24  O3  UNL     1       2.220  -2.638   7.733  1.00  0.00    -0.348 OA
ATOM     25  H3  UNL     1       2.509  -2.245   8.548  1.00  0.00     0.219 HD
ENDBRANCH  21  24
BRANCH  22  26
HETATM   26  O4  UNL     1       1.185  -3.857   9.797  1.00  0.00    -0.288 OA
ATOM     27  H4  UNL     1       1.822  -3.876  10.502  1.00  0.00     0.244 HD
ENDBRANCH  22  26
ENDBRANCH  20  21
ENDBRANCH   7  20
BRANCH   6  28
HETATM   28  O2  UNL     1       2.897  -2.790   4.690  1.00  0.00    -0.392 OA
ATOM     29  H2  UNL     1       2.749  -2.982   3.772  1.00  0.00     0.210 HD
ENDBRANCH   6  28
BRANCH   5  30
HETATM   30  O1  UNL     1       4.553  -1.184   5.868  1.00  0.00    -0.393 OA
ATOM     31  H1  UNL     1       3.604  -1.207   5.836  1.00  0.00     0.210 HD
ENDBRANCH   5  30
TORSDOF 6
ENDMDL
MODEL 2
REMARK VINA RESULT: -7.532768753      1.543      1.676
REMARK  6 active torsions:
REMARK  status: ('A' for Active; 'I' for Inactive)
REMARK    1  A    between atoms: C5_5  and  O1_6 
REMARK    2  A    between atoms: C6_8  and  O2_9 
REMARK    3  A    between atoms: C7_11  and  C9_13 
REMARK    4  A    between atoms: C9_13  and  C10_14 
REMARK    5  A    between atoms: C10_14  and  O3_15 
REMARK    6  A    between atoms: N1_17  and  O4_19 
ROOT
HETATM    1  C1  UNL     1       7.486  -2.009   1.832  1.00  0.00     0.043 C 
HETATM    2  C2  UNL     1       7.402  -2.586   3.224  1.00  0.00    -0.087 C 
HETATM    3  C3  UNL     1       6.842  -1.911   4.214  1.00  0.00    -0.022 C 
HETATM    4  C4  UNL     1       6.716  -2.395   5.605  1.00  0.00     0.061 C 
HETATM    5  C5  UNL     1       5.349  -2.109   6.214  1.00  0.00     0.151 C 
HETATM    6  C6  UNL     1       4.220  -2.662   5.432  1.00  0.00     0.155 C 
HETATM    7  C7  UNL     1       3.545  -3.884   5.931  1.00  0.00    -0.006 C 
HETATM    8  C8  UNL     1       4.385  -4.675   6.917  1.00  0.00     0.018 C 
HETATM    9  C11 UNL     1       3.161  -4.768   4.736  1.00  0.00     0.044 C 
HETATM   10  C12 UNL     1       3.825  -6.097   4.704  1.00  0.00     0.118 C 
HETATM   11  C13 UNL     1       2.765  -7.166   5.011  1.00  0.00     0.039 C 
HETATM   12  O5  UNL     1       4.234  -6.404   3.381  1.00  0.00    -0.385 OA
HETATM   13  C14 UNL     1       5.328  -7.252   3.484  1.00  0.00     0.176 C 
HETATM   14  C15 UNL     1       6.263  -7.158   2.302  1.00  0.00    -0.026 C 
HETATM   15  C16 UNL     1       7.063  -8.461   2.286  1.00  0.00     0.017 C 
HETATM   16  C17 UNL     1       5.413  -7.160   1.048  1.00  0.00     0.017 C 
HETATM   17  C18 UNL     1       7.230  -6.033   2.346  1.00  0.00     0.011 C 
HETATM   18  C19 UNL     1       6.913  -4.998   3.396  1.00  0.00     0.005 C 
HETATM   19  C20 UNL     1       7.972  -3.943   3.431  1.00  0.00     0.033 C 
ENDROOT
BRANCH   7  20
HETATM   20  C9  UNL     1       2.228  -3.658   6.643  1.00  0.00     0.097 C 
BRANCH  20  21
HETATM   21  C10 UNL     1       1.024  -3.634   5.853  1.00  0.00     0.136 C 
HETATM   22  N1  UNL     1       0.314  -4.702   5.738  1.00  0.00    -0.251 N 
ATOM     23  H1  UNL     1       0.604  -5.561   6.206  1.00  0.00     0.196 HD
BRANCH  21  24
HETATM   24  O3  UNL     1       0.593  -2.504   5.206  1.00  0.00    -0.348 OA
ATOM     25  H3  UNL     1      -0.269  -2.133   5.351  1.00  0.00     0.219 HD
ENDBRANCH  21  24
BRANCH  22  26
HETATM   26  O4  UNL     1      -0.830  -4.683   4.988  1.00  0.00    -0.288 OA
ATOM     27  H4  UNL     1      -0.963  -5.335   4.311  1.00  0.00     0.244 HD
ENDBRANCH  22  26
ENDBRANCH  20  21
ENDBRANCH   7  20
BRANCH   6  28
HETATM   28  O2  UNL     1       3.247  -1.711   5.091  1.00  0.00    -0.392 OA
ATOM     29  H2  UNL     1       2.372  -2.070   5.007  1.00  0.00     0.210 HD
ENDBRANCH   6  28
BRANCH   5  30
HETATM   30  O1  UNL     1       5.314  -0.686   6.269  1.00  0.00    -0.393 OA
ATOM     31  H1  UNL     1       4.671  -0.514   6.946  1.00  0.00     0.210 HD
ENDBRANCH   5  30
TORSDOF 6
ENDMDL
MODEL 3
REMARK VINA RESULT: -7.366434372      9.604     12.286
REMARK  6 active torsions:
REMARK  status: ('A' for Active; 'I' for Inactive)
REMARK    1  A    between atoms: C5_5  and  O1_6 
REMARK    2  A    between atoms: C6_8  and  O2_9 
REMARK    3  A    between atoms: C7_11  and  C9_13 
REMARK    4  A    between atoms: C9_13  and  C10_14 
REMARK    5  A    between atoms: C10_14  and  O3_15 
REMARK    6  A    between atoms: N1_17  and  O4_19 
ROOT
HETATM    1  C1  UNL     1      -2.753 -12.461  12.063  1.00  0.00     0.043 C 
HETATM    2  C2  UNL     1      -2.833 -11.254  12.965  1.00  0.00    -0.087 C 
HETATM    3  C3  UNL     1      -1.746 -10.729  13.506  1.00  0.00    -0.022 C 
HETATM    4  C4  UNL     1      -1.728  -9.550  14.399  1.00  0.00     0.061 C 
HETATM    5  C5  UNL     1      -0.602  -8.576  14.078  1.00  0.00     0.151 C 
HETATM    6  C6  UNL     1      -0.615  -8.091  12.679  1.00  0.00     0.155 C 
HETATM    7  C7  UNL     1      -1.102  -6.716  12.411  1.00  0.00    -0.006 C 
HETATM    8  C8  UNL     1      -1.957  -6.153  13.530  1.00  0.00     0.018 C 
HETATM    9  C11 UNL     1      -1.888  -6.711  11.092  1.00  0.00     0.044 C 
HETATM   10  C12 UNL     1      -3.323  -6.351  11.223  1.00  0.00     0.118 C 
HETATM   11  C13 UNL     1      -3.523  -4.960  10.599  1.00  0.00     0.039 C 
HETATM   12  O5  UNL     1      -4.113  -7.199  10.405  1.00  0.00    -0.385 OA
HETATM   13  C14 UNL     1      -5.367  -7.274  10.994  1.00  0.00     0.176 C 
HETATM   14  C15 UNL     1      -6.090  -8.563  10.684  1.00  0.00    -0.026 C 
HETATM   15  C16 UNL     1      -7.576  -8.284  10.916  1.00  0.00     0.017 C 
HETATM   16  C17 UNL     1      -5.929  -8.831   9.203  1.00  0.00     0.017 C 
HETATM   17  C18 UNL     1      -5.711  -9.723  11.529  1.00  0.00     0.011 C 
HETATM   18  C19 UNL     1      -4.454  -9.503  12.334  1.00  0.00     0.005 C 
HETATM   19  C20 UNL     1      -4.182 -10.681  13.215  1.00  0.00     0.033 C 
ENDROOT
BRANCH   7  20
HETATM   20  C9  UNL     1      -0.027  -5.675  12.187  1.00  0.00     0.097 C 
BRANCH  20  21
HETATM   21  C10 UNL     1       0.210  -4.708  13.228  1.00  0.00     0.136 C 
HETATM   22  N1  UNL     1      -0.235  -3.506  13.097  1.00  0.00    -0.251 N 
ATOM     23  H1  UNL     1      -0.752  -3.242  12.258  1.00  0.00     0.196 HD
BRANCH  21  24
HETATM   24  O3  UNL     1       0.898  -5.015  14.374  1.00  0.00    -0.348 OA
ATOM     25  H3  UNL     1       0.472  -5.088  15.220  1.00  0.00     0.219 HD
ENDBRANCH  21  24
BRANCH  22  26
HETATM   26  O4  UNL     1      -0.013  -2.585  14.083  1.00  0.00    -0.288 OA
ATOM     27  H4  UNL     1      -0.706  -1.987  14.337  1.00  0.00     0.244 HD
ENDBRANCH  22  26
ENDBRANCH  20  21
ENDBRANCH   7  20
BRANCH   6  28
HETATM   28  O2  UNL     1       0.598  -8.285  12.001  1.00  0.00    -0.392 OA
ATOM     29  H2  UNL     1       0.836  -7.566  11.428  1.00  0.00     0.210 HD
ENDBRANCH   6  28
BRANCH   5  30
HETATM   30  O1  UNL     1       0.569  -9.332  14.370  1.00  0.00    -0.393 OA
ATOM     31  H1  UNL     1       0.864  -9.610  13.511  1.00  0.00     0.210 HD
ENDBRANCH   5  30
TORSDOF 6
ENDMDL
MODEL 4
REMARK VINA RESULT: -7.365598350      3.400      6.792
REMARK  6 active torsions:
REMARK  status: ('A' for Active; 'I' for Inactive)
REMARK    1  A    between atoms: C5_5  and  O1_6 
REMARK    2  A    between atoms: C6_8  and  O2_9 
REMARK    3  A    between atoms: C7_11  and  C9_13 
REMARK    4  A    between atoms: C9_13  and  C10_14 
REMARK    5  A    between atoms: C10_14  and  O3_15 
REMARK    6  A    between atoms: N1_17  and  O4_19 
ROOT
HETATM    1  C1  UNL     1       2.710  -7.986   2.945  1.00  0.00     0.043 C 
HETATM    2  C2  UNL     1       4.124  -7.621   3.327  1.00  0.00    -0.087 C 
HETATM    3  C3  UNL     1       5.013  -7.270   2.413  1.00  0.00    -0.022 C 
HETATM    4  C4  UNL     1       6.416  -6.898   2.695  1.00  0.00     0.061 C 
HETATM    5  C5  UNL     1       6.879  -5.681   1.904  1.00  0.00     0.151 C 
HETATM    6  C6  UNL     1       6.037  -4.481   2.109  1.00  0.00     0.155 C 
HETATM    7  C7  UNL     1       6.552  -3.393   2.977  1.00  0.00    -0.006 C 
HETATM    8  C8  UNL     1       7.659  -3.844   3.911  1.00  0.00     0.018 C 
HETATM    9  C11 UNL     1       5.388  -2.801   3.783  1.00  0.00     0.044 C 
HETATM   10  C12 UNL     1       5.503  -2.964   5.256  1.00  0.00     0.118 C 
HETATM   11  C13 UNL     1       5.783  -1.581   5.866  1.00  0.00     0.039 C 
HETATM   12  O5  UNL     1       4.245  -3.322   5.804  1.00  0.00    -0.385 OA
HETATM   13  C14 UNL     1       4.501  -4.044   6.961  1.00  0.00     0.176 C 
HETATM   14  C15 UNL     1       3.405  -5.025   7.301  1.00  0.00    -0.026 C 
HETATM   15  C16 UNL     1       3.546  -5.322   8.795  1.00  0.00     0.017 C 
HETATM   16  C17 UNL     1       2.082  -4.307   7.130  1.00  0.00     0.017 C 
HETATM   17  C18 UNL     1       3.462  -6.318   6.575  1.00  0.00     0.011 C 
HETATM   18  C19 UNL     1       4.409  -6.315   5.401  1.00  0.00     0.005 C 
HETATM   19  C20 UNL     1       4.470  -7.671   4.772  1.00  0.00     0.033 C 
ENDROOT
BRANCH   7  20
HETATM   20  C9  UNL     1       7.126  -2.196   2.250  1.00  0.00     0.097 C 
BRANCH  20  21
HETATM   21  C10 UNL     1       8.031  -2.435   1.156  1.00  0.00     0.136 C 
HETATM   22  N1  UNL     1       7.701  -2.075  -0.036  1.00  0.00    -0.251 N 
ATOM     23  H1  UNL     1       6.802  -1.622  -0.202  1.00  0.00     0.196 HD
BRANCH  21  24
HETATM   24  O3  UNL     1       9.250  -3.040   1.328  1.00  0.00    -0.348 OA
ATOM     25  H3  UNL     1       9.335  -3.937   1.628  1.00  0.00     0.219 HD
ENDBRANCH  21  24
BRANCH  22  26
HETATM   26  O4  UNL     1       8.557  -2.300  -1.079  1.00  0.00    -0.288 OA
ATOM     27  H4  UNL     1       8.374  -1.924  -1.932  1.00  0.00     0.244 HD
ENDBRANCH  22  26
ENDBRANCH  20  21
ENDBRANCH   7  20
BRANCH   6  28
HETATM   28  O2  UNL     1       5.548  -3.921   0.920  1.00  0.00    -0.392 OA
ATOM     29  H2  UNL     1       6.162  -3.340   0.488  1.00  0.00     0.210 HD
ENDBRANCH   6  28
BRANCH   5  30
HETATM   30  O1  UNL     1       6.837  -6.138   0.557  1.00  0.00    -0.393 OA
ATOM     31  H1  UNL     1       7.514  -6.804   0.535  1.00  0.00     0.210 HD
ENDBRANCH   5  30
TORSDOF 6
ENDMDL
MODEL 5
REMARK VINA RESULT: -7.340986852      5.804      9.166
REMARK  6 active torsions:
REMARK  status: ('A' for Active; 'I' for Inactive)
REMARK    1  A    between atoms: C5_5  and  O1_6 
REMARK    2  A    between atoms: C6_8  and  O2_9 
REMARK    3  A    between atoms: C7_11  and  C9_13 
REMARK    4  A    between atoms: C9_13  and  C10_14 
REMARK    5  A    between atoms: C10_14  and  O3_15 
REMARK    6  A    between atoms: N1_17  and  O4_19 
ROOT
HETATM    1  C1  UNL     1      -3.478  -9.542   9.381  1.00  0.00     0.043 C 
HETATM    2  C2  UNL     1      -3.434  -8.061   9.666  1.00  0.00    -0.087 C 
HETATM    3  C3  UNL     1      -3.191  -7.603  10.883  1.00  0.00    -0.022 C 
HETATM    4  C4  UNL     1      -3.129  -6.173  11.254  1.00  0.00     0.061 C 
HETATM    5  C5  UNL     1      -1.967  -5.849  12.184  1.00  0.00     0.151 C 
HETATM    6  C6  UNL     1      -0.645  -6.239  11.643  1.00  0.00     0.155 C 
HETATM    7  C7  UNL     1       0.242  -5.179  11.106  1.00  0.00    -0.006 C 
HETATM    8  C8  UNL     1      -0.496  -3.902  10.750  1.00  0.00     0.018 C 
HETATM    9  C11 UNL     1       0.984  -5.721   9.876  1.00  0.00     0.044 C 
HETATM   10  C12 UNL     1       0.679  -5.017   8.603  1.00  0.00     0.118 C 
HETATM   11  C13 UNL     1       1.923  -4.211   8.197  1.00  0.00     0.039 C 
HETATM   12  O5  UNL     1       0.533  -5.957   7.552  1.00  0.00    -0.385 OA
HETATM   13  C14 UNL     1      -0.320  -5.387   6.617  1.00  0.00     0.176 C 
HETATM   14  C15 UNL     1      -1.089  -6.410   5.816  1.00  0.00    -0.026 C 
HETATM   15  C16 UNL     1      -1.532  -5.703   4.534  1.00  0.00     0.017 C 
HETATM   16  C17 UNL     1      -0.111  -7.488   5.395  1.00  0.00     0.017 C 
HETATM   17  C18 UNL     1      -2.302  -6.953   6.476  1.00  0.00     0.011 C 
HETATM   18  C19 UNL     1      -2.389  -6.632   7.948  1.00  0.00     0.005 C 
HETATM   19  C20 UNL     1      -3.673  -7.142   8.522  1.00  0.00     0.033 C 
ENDROOT
BRANCH   7  20
HETATM   20  C9  UNL     1       1.359  -4.734  12.026  1.00  0.00     0.097 C 
BRANCH  20  21
HETATM   21  C10 UNL     1       1.002  -4.147  13.292  1.00  0.00     0.136 C 
HETATM   22  N1  UNL     1       0.817  -2.875  13.377  1.00  0.00    -0.251 N 
ATOM     23  H1  UNL     1       0.923  -2.287  12.550  1.00  0.00     0.196 HD
BRANCH  21  24
HETATM   24  O3  UNL     1       0.848  -4.895  14.431  1.00  0.00    -0.348 OA
ATOM     25  H3  UNL     1       0.306  -5.675  14.459  1.00  0.00     0.219 HD
ENDBRANCH  21  24
BRANCH  22  26
HETATM   26  O4  UNL     1       0.478  -2.314  14.578  1.00  0.00    -0.288 OA
ATOM     27  H4  UNL     1       0.632  -1.389  14.728  1.00  0.00     0.244 HD
ENDBRANCH  22  26
ENDBRANCH  20  21
ENDBRANCH   7  20
BRANCH   6  28
HETATM   28  O2  UNL     1       0.098  -7.062  12.502  1.00  0.00    -0.392 OA
ATOM     29  H2  UNL     1       1.038  -6.951  12.423  1.00  0.00     0.210 HD
ENDBRANCH   6  28
BRANCH   5  30
HETATM   30  O1  UNL     1      -2.292  -6.568  13.368  1.00  0.00    -0.393 OA
ATOM     31  H1  UNL     1      -1.529  -6.434  13.917  1.00  0.00     0.210 HD
ENDBRANCH   5  30
TORSDOF 6
ENDMDL
