MODEL 1
REMARK VINA RESULT: -8.041377529      0.000      0.000
REMARK  7 active torsions:
REMARK  status: ('A' for Active; 'I' for Inactive)
REMARK    1  A    between atoms: C13_14  and  O2_15 
REMARK    2  A    between atoms: C15_18  and  O3_19 
REMARK    3  A    between atoms: C15_18  and  C16_21 
REMARK    4  A    between atoms: C16_21  and  O4_22 
REMARK    5  A    between atoms: C19_26  and  C20_27 
REMARK    6  A    between atoms: C20_27  and  C21_28 
REMARK    7  A    between atoms: C21_28  and  O5_29 
ROOT
HETATM    1  C1  UNL     1       8.365  -2.375   4.930  1.00  0.00     0.015 C 
HETATM    2  C2  UNL     1       6.944  -2.077   4.396  1.00  0.00    -0.043 C 
HETATM    3  C3  UNL     1       6.422  -1.095   5.384  1.00  0.00     0.015 C 
HETATM    4  C4  UNL     1       7.181  -1.130   3.210  1.00  0.00     0.009 C 
HETATM    5  C5  UNL     1       7.651  -1.793   2.004  1.00  0.00     0.002 C 
HETATM    6  C6  UNL     1       7.849  -3.308   2.193  1.00  0.00     0.010 C 
HETATM    7  C7  UNL     1       6.653  -3.977   2.766  1.00  0.00    -0.031 C 
HETATM    8  C8  UNL     1       5.561  -3.495   1.737  1.00  0.00     0.016 C 
HETATM    9  C9  UNL     1       6.559  -5.429   2.741  1.00  0.00     0.040 C 
HETATM   10  C10 UNL     1       7.674  -6.395   2.777  1.00  0.00     0.014 A 
HETATM   11  C11 UNL     1       7.623  -7.537   3.553  1.00  0.00    -0.021 A 
HETATM   12  C12 UNL     1       8.805  -8.211   3.353  1.00  0.00     0.152 A 
HETATM   13  O1  UNL     1       9.526  -7.548   2.520  1.00  0.00    -0.299 OA
HETATM   14  C13 UNL     1       8.897  -6.447   2.136  1.00  0.00     0.190 A 
HETATM   15  C14 UNL     1       6.459  -8.024   4.385  1.00  0.00     0.081 C 
HETATM   16  C15 UNL     1       5.277  -7.291   3.653  1.00  0.00     0.087 C 
HETATM   17  C17 UNL     1       5.632  -5.878   3.878  1.00  0.00     0.032 C 
HETATM   18  C18 UNL     1       4.477  -4.997   4.146  1.00  0.00     0.013 C 
HETATM   19  C19 UNL     1       4.797  -3.504   4.212  1.00  0.00    -0.006 C 
HETATM   20  C22 UNL     1       6.241  -3.316   4.122  1.00  0.00     0.006 C 
ENDROOT
BRANCH  16  21
HETATM   21  O3  UNL     1       5.417  -7.750   2.344  1.00  0.00    -0.387 OA
ATOM     22  H3  UNL     1       5.226  -6.968   1.839  1.00  0.00     0.210 HD
ENDBRANCH  16  21
BRANCH  16  23
HETATM   23  C16 UNL     1       4.039  -7.846   4.217  1.00  0.00     0.202 C 
BRANCH  23  24
HETATM   24  O4  UNL     1       4.168  -8.409   5.487  1.00  0.00    -0.398 OA
ATOM     25  H4  UNL     1       3.474  -9.009   5.735  1.00  0.00     0.209 HD
ENDBRANCH  23  24
ENDBRANCH  16  23
BRANCH  19  26
HETATM   26  C20 UNL     1       4.061  -3.041   5.453  1.00  0.00     0.031 C 
BRANCH  26  27
HETATM   27  C21 UNL     1       2.585  -2.734   5.077  1.00  0.00     0.164 C 
BRANCH  27  28
HETATM   28  O5  UNL     1       2.438  -1.411   4.721  1.00  0.00    -0.401 OA
ATOM     29  H5  UNL     1       2.283  -1.330   3.787  1.00  0.00     0.209 HD
ENDBRANCH  27  28
ENDBRANCH  26  27
ENDBRANCH  19  26
BRANCH  14  30
HETATM   30  O2  UNL     1       9.526  -5.598   1.217  1.00  0.00    -0.340 OA
ATOM     31  H2  UNL     1       9.473  -4.662   1.061  1.00  0.00     0.220 HD
ENDBRANCH  14  30
TORSDOF 7
ENDMDL
MODEL 2
REMARK VINA RESULT: -7.692846764      1.705      5.165
REMARK  7 active torsions:
REMARK  status: ('A' for Active; 'I' for Inactive)
REMARK    1  A    between atoms: C13_14  and  O2_15 
REMARK    2  A    between atoms: C15_18  and  O3_19 
REMARK    3  A    between atoms: C15_18  and  C16_21 
REMARK    4  A    between atoms: C16_21  and  O4_22 
REMARK    5  A    between atoms: C19_26  and  C20_27 
REMARK    6  A    between atoms: C20_27  and  C21_28 
REMARK    7  A    between atoms: C21_28  and  O5_29 
ROOT
HETATM    1  C1  UNL     1       5.927  -3.179   0.979  1.00  0.00     0.015 C 
HETATM    2  C2  UNL     1       7.068  -4.072   1.522  1.00  0.00    -0.043 C 
HETATM    3  C3  UNL     1       7.623  -4.682   0.286  1.00  0.00     0.015 C 
HETATM    4  C4  UNL     1       8.199  -3.081   1.837  1.00  0.00     0.009 C 
HETATM    5  C5  UNL     1       8.008  -2.329   3.067  1.00  0.00     0.002 C 
HETATM    6  C6  UNL     1       6.680  -2.664   3.771  1.00  0.00     0.010 C 
HETATM    7  C7  UNL     1       6.489  -4.123   3.975  1.00  0.00    -0.031 C 
HETATM    8  C8  UNL     1       7.833  -4.464   4.725  1.00  0.00     0.016 C 
HETATM    9  C9  UNL     1       5.444  -4.594   4.871  1.00  0.00     0.040 C 
HETATM   10  C10 UNL     1       4.163  -3.927   5.175  1.00  0.00     0.014 A 
HETATM   11  C11 UNL     1       2.976  -4.631   5.255  1.00  0.00    -0.021 A 
HETATM   12  C12 UNL     1       1.991  -3.721   5.557  1.00  0.00     0.152 A 
HETATM   13  O1  UNL     1       2.519  -2.554   5.661  1.00  0.00    -0.299 OA
HETATM   14  C13 UNL     1       3.824  -2.615   5.444  1.00  0.00     0.190 A 
HETATM   15  C14 UNL     1       2.794  -6.127   5.142  1.00  0.00     0.081 C 
HETATM   16  C15 UNL     1       4.238  -6.607   5.532  1.00  0.00     0.087 C 
HETATM   17  C17 UNL     1       5.041  -6.013   4.448  1.00  0.00     0.032 C 
HETATM   18  C18 UNL     1       6.141  -6.872   3.965  1.00  0.00     0.013 C 
HETATM   19  C19 UNL     1       7.092  -6.215   2.966  1.00  0.00    -0.006 C 
HETATM   20  C22 UNL     1       6.585  -4.892   2.617  1.00  0.00     0.006 C 
ENDROOT
BRANCH  16  21
HETATM   21  O3  UNL     1       4.404  -6.035   6.793  1.00  0.00    -0.387 OA
ATOM     22  H3  UNL     1       5.312  -6.243   6.986  1.00  0.00     0.210 HD
ENDBRANCH  16  21
BRANCH  16  23
HETATM   23  C16 UNL     1       4.157  -8.066   5.685  1.00  0.00     0.202 C 
BRANCH  23  24
HETATM   24  O4  UNL     1       3.878  -8.512   6.977  1.00  0.00    -0.398 OA
ATOM     25  H4  UNL     1       3.434  -9.350   7.027  1.00  0.00     0.209 HD
ENDBRANCH  23  24
ENDBRANCH  16  23
BRANCH  19  26
HETATM   26  C20 UNL     1       7.244  -7.264   1.883  1.00  0.00     0.031 C 
BRANCH  26  27
HETATM   27  C21 UNL     1       7.469  -8.649   2.552  1.00  0.00     0.164 C 
BRANCH  27  28
HETATM   28  O5  UNL     1       7.463  -9.652   1.608  1.00  0.00    -0.401 OA
ATOM     29  H5  UNL     1       6.814 -10.312   1.823  1.00  0.00     0.209 HD
ENDBRANCH  27  28
ENDBRANCH  26  27
ENDBRANCH  19  26
BRANCH  14  30
HETATM   30  O2  UNL     1       4.576  -1.436   5.525  1.00  0.00    -0.340 OA
ATOM     31  H2  UNL     1       4.355  -0.519   5.411  1.00  0.00     0.220 HD
ENDBRANCH  14  30
TORSDOF 7
ENDMDL
MODEL 3
REMARK VINA RESULT: -7.414424347      7.413     10.639
REMARK  7 active torsions:
REMARK  status: ('A' for Active; 'I' for Inactive)
REMARK    1  A    between atoms: C13_14  and  O2_15 
REMARK    2  A    between atoms: C15_18  and  O3_19 
REMARK    3  A    between atoms: C15_18  and  C16_21 
REMARK    4  A    between atoms: C16_21  and  O4_22 
REMARK    5  A    between atoms: C19_26  and  C20_27 
REMARK    6  A    between atoms: C20_27  and  C21_28 
REMARK    7  A    between atoms: C21_28  and  O5_29 
ROOT
HETATM    1  C1  UNL     1      -3.141  -5.677  11.153  1.00  0.00     0.015 C 
HETATM    2  C2  UNL     1      -1.930  -4.829  10.698  1.00  0.00    -0.043 C 
HETATM    3  C3  UNL     1      -2.527  -3.917   9.688  1.00  0.00     0.015 C 
HETATM    4  C4  UNL     1      -1.724  -3.827  11.844  1.00  0.00     0.009 C 
HETATM    5  C5  UNL     1      -1.075  -4.388  13.018  1.00  0.00     0.002 C 
HETATM    6  C6  UNL     1      -0.768  -5.890  12.870  1.00  0.00     0.010 C 
HETATM    7  C7  UNL     1      -0.030  -6.206  11.621  1.00  0.00    -0.031 C 
HETATM    8  C8  UNL     1       1.185  -5.212  11.772  1.00  0.00     0.016 C 
HETATM    9  C9  UNL     1       0.589  -7.513  11.460  1.00  0.00     0.040 C 
HETATM   10  C10 UNL     1       0.142  -8.789  12.052  1.00  0.00     0.014 A 
HETATM   11  C11 UNL     1       0.128  -9.963  11.324  1.00  0.00    -0.021 A 
HETATM   12  C12 UNL     1      -0.329 -10.950  12.166  1.00  0.00     0.152 A 
HETATM   13  O1  UNL     1      -0.574 -10.434  13.318  1.00  0.00    -0.299 OA
HETATM   14  C13 UNL     1      -0.307  -9.137  13.311  1.00  0.00     0.190 A 
HETATM   15  C14 UNL     1       0.619 -10.166   9.909  1.00  0.00     0.081 C 
HETATM   16  C15 UNL     1       1.623  -8.962   9.795  1.00  0.00     0.087 C 
HETATM   17  C17 UNL     1       0.714  -7.813   9.961  1.00  0.00     0.032 C 
HETATM   18  C18 UNL     1       1.035  -6.656   9.102  1.00  0.00     0.013 C 
HETATM   19  C19 UNL     1       0.218  -5.394   9.376  1.00  0.00    -0.006 C 
HETATM   20  C22 UNL     1      -0.811  -5.691  10.367  1.00  0.00     0.006 C 
ENDROOT
BRANCH  16  21
HETATM   21  O3  UNL     1       2.492  -9.206  10.858  1.00  0.00    -0.387 OA
ATOM     22  H3  UNL     1       2.877  -8.349  10.998  1.00  0.00     0.210 HD
ENDBRANCH  16  21
BRANCH  16  23
HETATM   23  C16 UNL     1       2.354  -9.157   8.536  1.00  0.00     0.202 C 
BRANCH  23  24
HETATM   24  O4  UNL     1       3.721  -8.885   8.597  1.00  0.00    -0.398 OA
ATOM     25  H4  UNL     1       4.281  -9.548   8.211  1.00  0.00     0.209 HD
ENDBRANCH  23  24
ENDBRANCH  16  23
BRANCH  19  26
HETATM   26  C20 UNL     1      -0.193  -4.933   7.992  1.00  0.00     0.031 C 
BRANCH  26  27
HETATM   27  C21 UNL     1       0.877  -3.942   7.454  1.00  0.00     0.164 C 
BRANCH  27  28
HETATM   28  O5  UNL     1       1.630  -3.431   8.488  1.00  0.00    -0.401 OA
ATOM     29  H5  UNL     1       2.223  -2.759   8.171  1.00  0.00     0.209 HD
ENDBRANCH  27  28
ENDBRANCH  26  27
ENDBRANCH  19  26
BRANCH  14  30
HETATM   30  O2  UNL     1      -0.503  -8.404  14.488  1.00  0.00    -0.340 OA
ATOM     31  H2  UNL     1      -0.146  -8.483  15.365  1.00  0.00     0.220 HD
ENDBRANCH  14  30
TORSDOF 7
ENDMDL
MODEL 4
REMARK VINA RESULT: -7.360950811      6.032      9.274
REMARK  7 active torsions:
REMARK  status: ('A' for Active; 'I' for Inactive)
REMARK    1  A    between atoms: C13_14  and  O2_15 
REMARK    2  A    between atoms: C15_18  and  O3_19 
REMARK    3  A    between atoms: C15_18  and  C16_21 
REMARK    4  A    between atoms: C16_21  and  O4_22 
REMARK    5  A    between atoms: C19_26  and  C20_27 
REMARK    6  A    between atoms: C20_27  and  C21_28 
REMARK    7  A    between atoms: C21_28  and  O5_29 
ROOT
HETATM    1  C1  UNL     1      -2.351  -6.259  10.446  1.00  0.00     0.015 C 
HETATM    2  C2  UNL     1      -1.266  -5.187  10.192  1.00  0.00    -0.043 C 
HETATM    3  C3  UNL     1      -2.029  -4.098   9.527  1.00  0.00     0.015 C 
HETATM    4  C4  UNL     1      -1.057  -4.534  11.568  1.00  0.00     0.009 C 
HETATM    5  C5  UNL     1      -0.261  -5.330  12.489  1.00  0.00     0.002 C 
HETATM    6  C6  UNL     1       0.169  -6.682  11.893  1.00  0.00     0.010 C 
HETATM    7  C7  UNL     1       0.825  -6.545  10.567  1.00  0.00    -0.031 C 
HETATM    8  C8  UNL     1       1.951  -5.505  10.934  1.00  0.00     0.016 C 
HETATM    9  C9  UNL     1       1.545  -7.674   9.998  1.00  0.00     0.040 C 
HETATM   10  C10 UNL     1       1.269  -9.108  10.216  1.00  0.00     0.014 A 
HETATM   11  C11 UNL     1       1.302 -10.021   9.179  1.00  0.00    -0.021 A 
HETATM   12  C12 UNL     1       1.010 -11.251   9.720  1.00  0.00     0.152 A 
HETATM   13  O1  UNL     1       0.818 -11.115  10.984  1.00  0.00    -0.299 OA
HETATM   14  C13 UNL     1       0.963  -9.848  11.342  1.00  0.00     0.190 A 
HETATM   15  C14 UNL     1       1.686  -9.756   7.742  1.00  0.00     0.081 C 
HETATM   16  C15 UNL     1       2.562  -8.464   7.928  1.00  0.00     0.087 C 
HETATM   17  C17 UNL     1       1.568  -7.520   8.473  1.00  0.00     0.032 C 
HETATM   18  C18 UNL     1       1.707  -6.137   7.972  1.00  0.00     0.013 C 
HETATM   19  C19 UNL     1       0.804  -5.106   8.646  1.00  0.00    -0.006 C 
HETATM   20  C22 UNL     1      -0.105  -5.787   9.563  1.00  0.00     0.006 C 
ENDROOT
BRANCH  16  21
HETATM   21  O3  UNL     1       3.537  -8.900   8.824  1.00  0.00    -0.387 OA
ATOM     22  H3  UNL     1       4.096  -8.135   8.896  1.00  0.00     0.210 HD
ENDBRANCH  16  21
BRANCH  16  23
HETATM   23  C16 UNL     1       3.197  -8.209   6.629  1.00  0.00     0.202 C 
BRANCH  23  24
HETATM   24  O4  UNL     1       4.549  -7.868   6.688  1.00  0.00    -0.398 OA
ATOM     25  H4  UNL     1       4.730  -6.993   7.007  1.00  0.00     0.209 HD
ENDBRANCH  23  24
ENDBRANCH  16  23
BRANCH  19  26
HETATM   26  C20 UNL     1       0.236  -4.320   7.482  1.00  0.00     0.031 C 
BRANCH  26  27
HETATM   27  C21 UNL     1       1.373  -3.475   6.843  1.00  0.00     0.164 C 
BRANCH  27  28
HETATM   28  O5  UNL     1       2.061  -2.775   7.809  1.00  0.00    -0.401 OA
ATOM     29  H5  UNL     1       2.717  -2.212   7.414  1.00  0.00     0.209 HD
ENDBRANCH  27  28
ENDBRANCH  26  27
ENDBRANCH  19  26
BRANCH  14  30
HETATM   30  O2  UNL     1       0.802  -9.506  12.690  1.00  0.00    -0.340 OA
ATOM     31  H2  UNL     1       0.910  -9.995  13.498  1.00  0.00     0.220 HD
ENDBRANCH  14  30
TORSDOF 7
ENDMDL
MODEL 5
REMARK VINA RESULT: -7.359209151      5.615      8.961
REMARK  7 active torsions:
REMARK  status: ('A' for Active; 'I' for Inactive)
REMARK    1  A    between atoms: C13_14  and  O2_15 
REMARK    2  A    between atoms: C15_18  and  O3_19 
REMARK    3  A    between atoms: C15_18  and  C16_21 
REMARK    4  A    between atoms: C16_21  and  O4_22 
REMARK    5  A    between atoms: C19_26  and  C20_27 
REMARK    6  A    between atoms: C20_27  and  C21_28 
REMARK    7  A    between atoms: C21_28  and  O5_29 
ROOT
HETATM    1  C1  UNL     1      -0.088  -3.899  11.540  1.00  0.00     0.015 C 
HETATM    2  C2  UNL     1      -0.812  -5.249  11.327  1.00  0.00    -0.043 C 
HETATM    3  C3  UNL     1      -0.955  -5.768  12.713  1.00  0.00     0.015 C 
HETATM    4  C4  UNL     1      -2.272  -4.851  11.062  1.00  0.00     0.009 C 
HETATM    5  C5  UNL     1      -2.518  -4.344   9.721  1.00  0.00     0.002 C 
HETATM    6  C6  UNL     1      -1.240  -4.277   8.865  1.00  0.00     0.010 C 
HETATM    7  C7  UNL     1      -0.492  -5.560   8.846  1.00  0.00    -0.031 C 
HETATM    8  C8  UNL     1      -1.645  -6.532   8.384  1.00  0.00     0.016 C 
HETATM    9  C9  UNL     1       0.566  -5.763   7.869  1.00  0.00     0.040 C 
HETATM   10  C10 UNL     1       1.432  -4.731   7.265  1.00  0.00     0.014 A 
HETATM   11  C11 UNL     1       2.788  -4.927   7.094  1.00  0.00    -0.021 A 
HETATM   12  C12 UNL     1       3.287  -3.788   6.505  1.00  0.00     0.152 A 
HETATM   13  O1  UNL     1       2.322  -2.958   6.322  1.00  0.00    -0.299 OA
HETATM   14  C13 UNL     1       1.181  -3.470   6.757  1.00  0.00     0.190 A 
HETATM   15  C14 UNL     1       3.573  -6.185   7.390  1.00  0.00     0.081 C 
HETATM   16  C15 UNL     1       2.419  -7.249   7.317  1.00  0.00     0.087 C 
HETATM   17  C17 UNL     1       1.548  -6.804   8.420  1.00  0.00     0.032 C 
HETATM   18  C18 UNL     1       0.942  -7.905   9.196  1.00  0.00     0.013 C 
HETATM   19  C19 UNL     1      -0.097  -7.478  10.232  1.00  0.00    -0.006 C 
HETATM   20  C22 UNL     1      -0.141  -6.022  10.298  1.00  0.00     0.006 C 
ENDROOT
BRANCH  16  21
HETATM   21  O3  UNL     1       1.919  -7.046   6.031  1.00  0.00    -0.387 OA
ATOM     22  H3  UNL     1       1.434  -6.235   6.133  1.00  0.00     0.210 HD
ENDBRANCH  16  21
BRANCH  16  23
HETATM   23  C16 UNL     1       3.071  -8.564   7.366  1.00  0.00     0.202 C 
BRANCH  23  24
HETATM   24  O4  UNL     1       3.759  -8.840   8.548  1.00  0.00    -0.398 OA
ATOM     25  H4  UNL     1       4.435  -9.503   8.476  1.00  0.00     0.209 HD
ENDBRANCH  23  24
ENDBRANCH  16  23
BRANCH  19  26
HETATM   26  C20 UNL     1       0.292  -8.268  11.466  1.00  0.00     0.031 C 
BRANCH  26  27
HETATM   27  C21 UNL     1       1.285  -9.390  11.053  1.00  0.00     0.164 C 
BRANCH  27  28
HETATM   28  O5  UNL     1       2.366  -9.421  11.907  1.00  0.00    -0.401 OA
ATOM     29  H5  UNL     1       3.107  -9.850  11.495  1.00  0.00     0.209 HD
ENDBRANCH  27  28
ENDBRANCH  26  27
ENDBRANCH  19  26
BRANCH  14  30
HETATM   30  O2  UNL     1       0.011  -2.711   6.630  1.00  0.00    -0.340 OA
ATOM     31  H2  UNL     1      -0.374  -2.024   7.161  1.00  0.00     0.220 HD
ENDBRANCH  14  30
TORSDOF 7
ENDMDL
