MODEL 1
REMARK VINA RESULT: -8.195792275      0.000      0.000
REMARK  18 active torsions:
REMARK  status: ('A' for Active; 'I' for Inactive)
REMARK    1  A    between atoms: C2_2  and  C3_3 
REMARK    2  A    between atoms: C2_2  and  N2_10 
REMARK    3  A    between atoms: C3_3  and  C4_4 
REMARK    4  A    between atoms: C4_4  and  C5_5 
REMARK    5  A    between atoms: C5_5  and  N1_6 
REMARK    6  A    between atoms: N2_10  and  C6_12 
REMARK    7  A    between atoms: C6_12  and  C7_13 
REMARK    8  A    between atoms: C7_13  and  C8_14 
REMARK    9  A    between atoms: C8_14  and  C9_15 
REMARK   10  A    between atoms: C9_15  and  C10_16 
REMARK   11  A    between atoms: C10_16  and  C11_17 
REMARK   12  A    between atoms: C11_17  and  C12_18 
REMARK   13  A    between atoms: C12_18  and  N3_19 
REMARK   14  A    between atoms: N7_27  and  C16_28 
REMARK   15  A    between atoms: N9_38  and  C23_39 
REMARK   16  A    between atoms: C23_39  and  C24_40 
REMARK   17  A    between atoms: C24_40  and  C25_41 
REMARK   18  A    between atoms: C25_41  and  O1_42 
ROOT
HETATM    1  C9  UNL     1       8.926  28.908   2.081  1.00  0.00     0.005 C 
HETATM    2  N6  UNL     1       9.398  27.643   2.285  1.00  0.00    -0.361 N 
HETATM    3  C14 UNL     1       9.994  27.205   3.497  1.00  0.00     0.145 C 
HETATM    4  C15 UNL     1       9.803  25.706   3.742  1.00  0.00     0.152 C 
HETATM    5  N7  UNL     1       8.549  25.309   3.139  1.00  0.00    -0.314 N 
HETATM    6  C26 UNL     1       8.439  25.599   1.731  1.00  0.00     0.258 C 
HETATM    7  O2  UNL     1       7.613  25.052   1.000  1.00  0.00    -0.270 OA
HETATM    8  C27 UNL     1       9.430  26.622   1.284  1.00  0.00     0.250 C 
HETATM    9 BR1  UNL     1       9.461  27.039  -0.522  1.00  0.00    -0.058 Br
ENDROOT
BRANCH   1  10
HETATM   10  C8  UNL     1       9.874  30.038   1.963  1.00  0.00    -0.000 C 
BRANCH  10  11
HETATM   11  C7  UNL     1      10.346  30.808   3.120  1.00  0.00     0.048 C 
BRANCH  11  12
HETATM   12  C6  UNL     1       9.277  31.365   4.032  1.00  0.00     0.118 C 
BRANCH  12  13
HETATM   13  N2  UNL     1       9.120  30.485   5.153  1.00  0.00    -0.417 N 
ATOM     14  H2  UNL     1       9.917  30.083   5.645  1.00  0.00     0.153 HD
BRANCH  13  15
HETATM   15  C2  UNL     1       7.779  30.211   5.532  1.00  0.00     0.072 C 
HETATM   16  C1  UNL     1       7.463  28.741   5.360  1.00  0.00     0.031 C 
BRANCH  15  17
HETATM   17  C3  UNL     1       7.552  30.667   6.958  1.00  0.00     0.026 C 
BRANCH  17  18
HETATM   18  C4  UNL     1       7.101  29.576   7.872  1.00  0.00     0.029 C 
BRANCH  18  19
HETATM   19  C5  UNL     1       8.039  29.453   9.080  1.00  0.00     0.230 C 
BRANCH  19  20
HETATM   20  N1  UNL     1       9.386  29.694   8.631  1.00  0.00    -0.079 N 
ATOM     21  H13 UNL     1       9.718  28.981   7.981  1.00  0.00     0.274 HD
ATOM     22  H12 UNL     1       9.453  30.496   8.003  1.00  0.00     0.274 HD
ATOM     23  H11 UNL     1       9.984  29.787   9.452  1.00  0.00     0.274 HD
ENDBRANCH  19  20
ENDBRANCH  18  19
ENDBRANCH  17  18
ENDBRANCH  15  17
ENDBRANCH  13  15
ENDBRANCH  12  13
ENDBRANCH  11  12
ENDBRANCH  10  11
ENDBRANCH   1  10
BRANCH   1  24
HETATM   24  C10 UNL     1       7.811  29.015   1.033  1.00  0.00     0.058 C 
BRANCH  24  25
HETATM   25  C11 UNL     1       7.111  30.388   1.122  1.00  0.00     0.026 C 
BRANCH  25  26
HETATM   26  C12 UNL     1       6.733  30.799  -0.303  1.00  0.00     0.122 C 
BRANCH  26  27
HETATM   27  N3  UNL     1       7.649  30.249  -1.266  1.00  0.00    -0.367 N 
HETATM   28  C13 UNL     1       7.209  29.870  -2.410  1.00  0.00     0.196 C 
HETATM   29  N4  UNL     1       8.049  29.314  -3.416  1.00  0.00    -0.067 NA
HETATM   30  N5  UNL     1       5.817  30.003  -2.702  1.00  0.00    -0.067 NA
ATOM     31  H3  UNL     1       8.640  30.161  -1.041  1.00  0.00     0.161 HD
ENDBRANCH  26  27
ENDBRANCH  25  26
ENDBRANCH  24  25
ENDBRANCH   1  24
BRANCH   5  32
HETATM   32  C16 UNL     1       7.490  24.676   3.838  1.00  0.00     0.039 A 
HETATM   33  C17 UNL     1       7.688  23.612   4.689  1.00  0.00     0.032 A 
HETATM   34  C18 UNL     1       6.624  23.018   5.355  1.00  0.00     0.034 A 
HETATM   35  C19 UNL     1       5.337  23.484   5.179  1.00  0.00     0.063 A 
HETATM   36  C20 UNL     1       5.130  24.549   4.330  1.00  0.00     0.063 A 
HETATM   37  N9  UNL     1       4.145  23.097   5.695  1.00  0.00    -0.322 N 
HETATM   38  C21 UNL     1       6.204  25.135   3.668  1.00  0.00     0.061 A 
HETATM   39  N8  UNL     1       3.807  24.770   4.363  1.00  0.00    -0.331 N 
HETATM   40  C22 UNL     1       3.198  23.896   5.188  1.00  0.00     0.179 A 
ATOM     41  H8  UNL     1       3.328  25.500   3.834  1.00  0.00     0.168 HD
HETATM   42  S1  UNL     1       1.590  23.912   5.453  1.00  0.00    -0.040 SA
BRANCH  37  43
HETATM   43  C23 UNL     1       3.948  22.037   6.625  1.00  0.00     0.134 C 
BRANCH  43  44
HETATM   44  C24 UNL     1       2.950  22.290   7.706  1.00  0.00     0.046 C 
BRANCH  44  45
HETATM   45  C25 UNL     1       1.817  21.324   7.779  1.00  0.00     0.165 C 
BRANCH  45  46
HETATM   46  O1  UNL     1       0.799  21.939   8.546  1.00  0.00    -0.401 OA
ATOM     47  H1  UNL     1      -0.007  21.865   8.048  1.00  0.00     0.209 HD
ENDBRANCH  45  46
ENDBRANCH  44  45
ENDBRANCH  43  44
ENDBRANCH  37  43
ENDBRANCH   5  32
TORSDOF 18
ENDMDL
MODEL 2
REMARK VINA RESULT: -8.058936706      1.434      1.790
REMARK  18 active torsions:
REMARK  status: ('A' for Active; 'I' for Inactive)
REMARK    1  A    between atoms: C2_2  and  C3_3 
REMARK    2  A    between atoms: C2_2  and  N2_10 
REMARK    3  A    between atoms: C3_3  and  C4_4 
REMARK    4  A    between atoms: C4_4  and  C5_5 
REMARK    5  A    between atoms: C5_5  and  N1_6 
REMARK    6  A    between atoms: N2_10  and  C6_12 
REMARK    7  A    between atoms: C6_12  and  C7_13 
REMARK    8  A    between atoms: C7_13  and  C8_14 
REMARK    9  A    between atoms: C8_14  and  C9_15 
REMARK   10  A    between atoms: C9_15  and  C10_16 
REMARK   11  A    between atoms: C10_16  and  C11_17 
REMARK   12  A    between atoms: C11_17  and  C12_18 
REMARK   13  A    between atoms: C12_18  and  N3_19 
REMARK   14  A    between atoms: N7_27  and  C16_28 
REMARK   15  A    between atoms: N9_38  and  C23_39 
REMARK   16  A    between atoms: C23_39  and  C24_40 
REMARK   17  A    between atoms: C24_40  and  C25_41 
REMARK   18  A    between atoms: C25_41  and  O1_42 
ROOT
HETATM    1  C9  UNL     1       9.029  28.695   1.923  1.00  0.00     0.005 C 
HETATM    2  N6  UNL     1       9.511  27.462   2.259  1.00  0.00    -0.361 N 
HETATM    3  C14 UNL     1      10.024  27.134   3.541  1.00  0.00     0.145 C 
HETATM    4  C15 UNL     1       9.846  25.654   3.888  1.00  0.00     0.152 C 
HETATM    5  N7  UNL     1       8.648  25.179   3.229  1.00  0.00    -0.314 N 
HETATM    6  C26 UNL     1       8.636  25.358   1.799  1.00  0.00     0.258 C 
HETATM    7  O2  UNL     1       7.878  24.735   1.056  1.00  0.00    -0.270 OA
HETATM    8  C27 UNL     1       9.637  26.370   1.346  1.00  0.00     0.250 C 
HETATM    9 BR1  UNL     1       9.792  26.648  -0.480  1.00  0.00    -0.058 Br
ENDROOT
BRANCH   1  10
HETATM   10  C8  UNL     1       9.961  29.837   1.786  1.00  0.00    -0.000 C 
BRANCH  10  11
HETATM   11  C7  UNL     1      10.384  30.663   2.923  1.00  0.00     0.048 C 
BRANCH  11  12
HETATM   12  C6  UNL     1       9.279  31.227   3.786  1.00  0.00     0.118 C 
BRANCH  12  13
HETATM   13  N2  UNL     1       9.210  30.472   5.002  1.00  0.00    -0.417 N 
ATOM     14  H2  UNL     1      10.043  30.103   5.462  1.00  0.00     0.153 HD
BRANCH  13  15
HETATM   15  C2  UNL     1       7.905  30.271   5.525  1.00  0.00     0.072 C 
HETATM   16  C1  UNL     1       7.419  28.869   5.229  1.00  0.00     0.031 C 
BRANCH  15  17
HETATM   17  C3  UNL     1       7.904  30.559   7.011  1.00  0.00     0.026 C 
BRANCH  17  18
HETATM   18  C4  UNL     1       7.840  29.333   7.860  1.00  0.00     0.029 C 
BRANCH  18  19
HETATM   19  C5  UNL     1       6.853  29.522   9.020  1.00  0.00     0.230 C 
BRANCH  19  20
HETATM   20  N1  UNL     1       5.584  29.926   8.470  1.00  0.00    -0.079 N 
ATOM     21  H13 UNL     1       4.928  30.242   9.185  1.00  0.00     0.274 HD
ATOM     22  H12 UNL     1       5.644  30.797   7.942  1.00  0.00     0.274 HD
ATOM     23  H11 UNL     1       5.217  29.153   7.914  1.00  0.00     0.274 HD
ENDBRANCH  19  20
ENDBRANCH  18  19
ENDBRANCH  17  18
ENDBRANCH  15  17
ENDBRANCH  13  15
ENDBRANCH  12  13
ENDBRANCH  11  12
ENDBRANCH  10  11
ENDBRANCH   1  10
BRANCH   1  24
HETATM   24  C10 UNL     1       7.993  28.693   0.792  1.00  0.00     0.058 C 
BRANCH  24  25
HETATM   25  C11 UNL     1       8.093  29.989  -0.040  1.00  0.00     0.026 C 
BRANCH  25  26
HETATM   26  C12 UNL     1       6.747  30.708   0.072  1.00  0.00     0.122 C 
BRANCH  26  27
HETATM   27  N3  UNL     1       6.620  31.383   1.337  1.00  0.00    -0.367 N 
HETATM   28  C13 UNL     1       6.689  32.663   1.377  1.00  0.00     0.196 C 
HETATM   29  N4  UNL     1       6.575  33.406   2.586  1.00  0.00    -0.067 NA
HETATM   30  N5  UNL     1       6.891  33.391   0.164  1.00  0.00    -0.067 NA
ATOM     31  H3  UNL     1       6.477  30.848   2.193  1.00  0.00     0.161 HD
ENDBRANCH  26  27
ENDBRANCH  25  26
ENDBRANCH  24  25
ENDBRANCH   1  24
BRANCH   5  32
HETATM   32  C16 UNL     1       7.554  24.575   3.898  1.00  0.00     0.039 A 
HETATM   33  C17 UNL     1       7.697  23.495   4.740  1.00  0.00     0.032 A 
HETATM   34  C18 UNL     1       6.599  22.930   5.376  1.00  0.00     0.034 A 
HETATM   35  C19 UNL     1       5.333  23.440   5.178  1.00  0.00     0.063 A 
HETATM   36  C20 UNL     1       5.180  24.522   4.337  1.00  0.00     0.063 A 
HETATM   37  N9  UNL     1       4.118  23.088   5.663  1.00  0.00    -0.322 N 
HETATM   38  C21 UNL     1       6.288  25.079   3.705  1.00  0.00     0.061 A 
HETATM   39  N8  UNL     1       3.865  24.787   4.343  1.00  0.00    -0.331 N 
HETATM   40  C22 UNL     1       3.209  23.924   5.145  1.00  0.00     0.179 A 
ATOM     41  H8  UNL     1       3.422  25.537   3.813  1.00  0.00     0.168 HD
HETATM   42  S1  UNL     1       1.597  23.992   5.375  1.00  0.00    -0.040 SA
BRANCH  37  43
HETATM   43  C23 UNL     1       3.865  22.026   6.576  1.00  0.00     0.134 C 
BRANCH  43  44
HETATM   44  C24 UNL     1       2.899  22.321   7.675  1.00  0.00     0.046 C 
BRANCH  44  45
HETATM   45  C25 UNL     1       1.729  21.402   7.773  1.00  0.00     0.165 C 
BRANCH  45  46
HETATM   46  O1  UNL     1       0.774  22.036   8.603  1.00  0.00    -0.401 OA
ATOM     47  H1  UNL     1       0.472  21.385   9.225  1.00  0.00     0.209 HD
ENDBRANCH  45  46
ENDBRANCH  44  45
ENDBRANCH  43  44
ENDBRANCH  37  43
ENDBRANCH   5  32
TORSDOF 18
ENDMDL
MODEL 3
REMARK VINA RESULT: -8.014898898      2.613      4.641
REMARK  18 active torsions:
REMARK  status: ('A' for Active; 'I' for Inactive)
REMARK    1  A    between atoms: C2_2  and  C3_3 
REMARK    2  A    between atoms: C2_2  and  N2_10 
REMARK    3  A    between atoms: C3_3  and  C4_4 
REMARK    4  A    between atoms: C4_4  and  C5_5 
REMARK    5  A    between atoms: C5_5  and  N1_6 
REMARK    6  A    between atoms: N2_10  and  C6_12 
REMARK    7  A    between atoms: C6_12  and  C7_13 
REMARK    8  A    between atoms: C7_13  and  C8_14 
REMARK    9  A    between atoms: C8_14  and  C9_15 
REMARK   10  A    between atoms: C9_15  and  C10_16 
REMARK   11  A    between atoms: C10_16  and  C11_17 
REMARK   12  A    between atoms: C11_17  and  C12_18 
REMARK   13  A    between atoms: C12_18  and  N3_19 
REMARK   14  A    between atoms: N7_27  and  C16_28 
REMARK   15  A    between atoms: N9_38  and  C23_39 
REMARK   16  A    between atoms: C23_39  and  C24_40 
REMARK   17  A    between atoms: C24_40  and  C25_41 
REMARK   18  A    between atoms: C25_41  and  O1_42 
ROOT
HETATM    1  C9  UNL     1       8.730  28.557   1.473  1.00  0.00     0.005 C 
HETATM    2  N6  UNL     1       9.301  27.452   2.035  1.00  0.00    -0.361 N 
HETATM    3  C14 UNL     1       9.722  27.378   3.389  1.00  0.00     0.145 C 
HETATM    4  C15 UNL     1       9.665  25.955   3.949  1.00  0.00     0.152 C 
HETATM    5  N7  UNL     1       8.589  25.253   3.283  1.00  0.00    -0.314 N 
HETATM    6  C26 UNL     1       8.694  25.215   1.846  1.00  0.00     0.258 C 
HETATM    7  O2  UNL     1       8.077  24.406   1.153  1.00  0.00    -0.270 OA
HETATM    8  C27 UNL     1       9.624  26.258   1.318  1.00  0.00     0.250 C 
HETATM    9 BR1  UNL     1       9.921  26.279  -0.512  1.00  0.00    -0.058 Br
ENDROOT
BRANCH   1  10
HETATM   10  C8  UNL     1       9.548  29.766   1.231  1.00  0.00    -0.000 C 
BRANCH  10  11
HETATM   11  C7  UNL     1      10.996  29.717   0.992  1.00  0.00     0.048 C 
BRANCH  11  12
HETATM   12  C6  UNL     1      11.438  29.816  -0.450  1.00  0.00     0.118 C 
BRANCH  12  13
HETATM   13  N2  UNL     1      12.508  28.887  -0.670  1.00  0.00    -0.417 N 
ATOM     14  H2  UNL     1      12.745  28.161   0.005  1.00  0.00     0.153 HD
BRANCH  13  15
HETATM   15  C2  UNL     1      13.215  29.047  -1.891  1.00  0.00     0.072 C 
HETATM   16  C1  UNL     1      13.886  30.402  -1.949  1.00  0.00     0.031 C 
BRANCH  15  17
HETATM   17  C3  UNL     1      14.215  27.922  -2.049  1.00  0.00     0.026 C 
BRANCH  17  18
HETATM   18  C4  UNL     1      14.226  26.963  -0.905  1.00  0.00     0.029 C 
BRANCH  18  19
HETATM   19  C5  UNL     1      15.664  26.616  -0.496  1.00  0.00     0.230 C 
BRANCH  19  20
HETATM   20  N1  UNL     1      16.524  27.695  -0.914  1.00  0.00    -0.079 N 
ATOM     21  H13 UNL     1      16.024  28.419  -1.430  1.00  0.00     0.274 HD
ATOM     22  H12 UNL     1      16.838  28.272  -0.134  1.00  0.00     0.274 HD
ATOM     23  H11 UNL     1      17.299  27.297  -1.445  1.00  0.00     0.274 HD
ENDBRANCH  19  20
ENDBRANCH  18  19
ENDBRANCH  17  18
ENDBRANCH  15  17
ENDBRANCH  13  15
ENDBRANCH  12  13
ENDBRANCH  11  12
ENDBRANCH  10  11
ENDBRANCH   1  10
BRANCH   1  24
HETATM   24  C10 UNL     1       7.810  28.268   0.280  1.00  0.00     0.058 C 
BRANCH  24  25
HETATM   25  C11 UNL     1       7.001  29.527  -0.100  1.00  0.00     0.026 C 
BRANCH  25  26
HETATM   26  C12 UNL     1       7.127  29.708  -1.614  1.00  0.00     0.122 C 
BRANCH  26  27
HETATM   27  N3  UNL     1       8.365  29.163  -2.104  1.00  0.00    -0.367 N 
HETATM   28  C13 UNL     1       8.487  28.899  -3.353  1.00  0.00     0.196 C 
HETATM   29  N4  UNL     1       9.677  28.358  -3.917  1.00  0.00    -0.067 NA
HETATM   30  N5  UNL     1       7.388  29.152  -4.232  1.00  0.00    -0.067 NA
ATOM     31  H3  UNL     1       9.140  28.989  -1.463  1.00  0.00     0.161 HD
ENDBRANCH  26  27
ENDBRANCH  25  26
ENDBRANCH  24  25
ENDBRANCH   1  24
BRANCH   5  32
HETATM   32  C16 UNL     1       7.505  24.631   3.952  1.00  0.00     0.039 A 
HETATM   33  C17 UNL     1       7.667  23.562   4.805  1.00  0.00     0.032 A 
HETATM   34  C18 UNL     1       6.578  22.980   5.441  1.00  0.00     0.034 A 
HETATM   35  C19 UNL     1       5.303  23.462   5.232  1.00  0.00     0.063 A 
HETATM   36  C20 UNL     1       5.131  24.532   4.381  1.00  0.00     0.063 A 
HETATM   37  N9  UNL     1       4.093  23.089   5.715  1.00  0.00    -0.322 N 
HETATM   38  C21 UNL     1       6.230  25.107   3.749  1.00  0.00     0.061 A 
HETATM   39  N8  UNL     1       3.810  24.769   4.378  1.00  0.00    -0.331 N 
HETATM   40  C22 UNL     1       3.169  23.901   5.185  1.00  0.00     0.179 A 
ATOM     41  H8  UNL     1       3.355  25.506   3.840  1.00  0.00     0.168 HD
HETATM   42  S1  UNL     1       1.555  23.936   5.407  1.00  0.00    -0.040 SA
BRANCH  37  43
HETATM   43  C23 UNL     1       3.858  22.029   6.636  1.00  0.00     0.134 C 
BRANCH  43  44
HETATM   44  C24 UNL     1       2.845  22.296   7.699  1.00  0.00     0.046 C 
BRANCH  44  45
HETATM   45  C25 UNL     1       1.707  21.335   7.766  1.00  0.00     0.165 C 
BRANCH  45  46
HETATM   46  O1  UNL     1       0.704  21.939   8.561  1.00  0.00    -0.401 OA
ATOM     47  H1  UNL     1       0.124  22.404   7.969  1.00  0.00     0.209 HD
ENDBRANCH  45  46
ENDBRANCH  44  45
ENDBRANCH  43  44
ENDBRANCH  37  43
ENDBRANCH   5  32
TORSDOF 18
ENDMDL
MODEL 4
REMARK VINA RESULT: -7.730218964      2.603      4.681
REMARK  18 active torsions:
REMARK  status: ('A' for Active; 'I' for Inactive)
REMARK    1  A    between atoms: C2_2  and  C3_3 
REMARK    2  A    between atoms: C2_2  and  N2_10 
REMARK    3  A    between atoms: C3_3  and  C4_4 
REMARK    4  A    between atoms: C4_4  and  C5_5 
REMARK    5  A    between atoms: C5_5  and  N1_6 
REMARK    6  A    between atoms: N2_10  and  C6_12 
REMARK    7  A    between atoms: C6_12  and  C7_13 
REMARK    8  A    between atoms: C7_13  and  C8_14 
REMARK    9  A    between atoms: C8_14  and  C9_15 
REMARK   10  A    between atoms: C9_15  and  C10_16 
REMARK   11  A    between atoms: C10_16  and  C11_17 
REMARK   12  A    between atoms: C11_17  and  C12_18 
REMARK   13  A    between atoms: C12_18  and  N3_19 
REMARK   14  A    between atoms: N7_27  and  C16_28 
REMARK   15  A    between atoms: N9_38  and  C23_39 
REMARK   16  A    between atoms: C23_39  and  C24_40 
REMARK   17  A    between atoms: C24_40  and  C25_41 
REMARK   18  A    between atoms: C25_41  and  O1_42 
ROOT
HETATM    1  C9  UNL     1       8.701  28.479   1.324  1.00  0.00     0.005 C 
HETATM    2  N6  UNL     1       9.284  27.407   1.936  1.00  0.00    -0.361 N 
HETATM    3  C14 UNL     1       9.684  27.391   3.297  1.00  0.00     0.145 C 
HETATM    4  C15 UNL     1       9.645  25.989   3.909  1.00  0.00     0.152 C 
HETATM    5  N7  UNL     1       8.594  25.241   3.252  1.00  0.00    -0.314 N 
HETATM    6  C26 UNL     1       8.724  25.154   1.819  1.00  0.00     0.258 C 
HETATM    7  O2  UNL     1       8.133  24.308   1.147  1.00  0.00    -0.270 OA
HETATM    8  C27 UNL     1       9.642  26.195   1.268  1.00  0.00     0.250 C 
HETATM    9 BR1  UNL     1       9.969  26.155  -0.556  1.00  0.00    -0.058 Br
ENDROOT
BRANCH   1  10
HETATM   10  C8  UNL     1       9.500  29.695   1.051  1.00  0.00    -0.000 C 
BRANCH  10  11
HETATM   11  C7  UNL     1      10.963  29.680   0.936  1.00  0.00     0.048 C 
BRANCH  11  12
HETATM   12  C6  UNL     1      11.536  30.216  -0.357  1.00  0.00     0.118 C 
BRANCH  12  13
HETATM   13  N2  UNL     1      12.574  29.335  -0.803  1.00  0.00    -0.417 N 
ATOM     14  H2  UNL     1      13.476  29.271  -0.329  1.00  0.00     0.153 HD
BRANCH  13  15
HETATM   15  C2  UNL     1      12.265  28.555  -1.949  1.00  0.00     0.072 C 
HETATM   16  C1  UNL     1      12.081  29.438  -3.164  1.00  0.00     0.031 C 
BRANCH  15  17
HETATM   17  C3  UNL     1      13.350  27.523  -2.168  1.00  0.00     0.026 C 
BRANCH  17  18
HETATM   18  C4  UNL     1      14.151  27.224  -0.944  1.00  0.00     0.029 C 
BRANCH  18  19
HETATM   19  C5  UNL     1      15.655  27.303  -1.242  1.00  0.00     0.230 C 
BRANCH  19  20
HETATM   20  N1  UNL     1      16.364  26.713  -0.135  1.00  0.00    -0.079 N 
ATOM     21  H13 UNL     1      16.935  27.390   0.372  1.00  0.00     0.274 HD
ATOM     22  H12 UNL     1      15.746  26.451   0.633  1.00  0.00     0.274 HD
ATOM     23  H11 UNL     1      16.908  25.926  -0.488  1.00  0.00     0.274 HD
ENDBRANCH  19  20
ENDBRANCH  18  19
ENDBRANCH  17  18
ENDBRANCH  15  17
ENDBRANCH  13  15
ENDBRANCH  12  13
ENDBRANCH  11  12
ENDBRANCH  10  11
ENDBRANCH   1  10
BRANCH   1  24
HETATM   24  C10 UNL     1       7.807  28.129   0.128  1.00  0.00     0.058 C 
BRANCH  24  25
HETATM   25  C11 UNL     1       7.967  29.175  -0.996  1.00  0.00     0.026 C 
BRANCH  25  26
HETATM   26  C12 UNL     1       6.602  29.836  -1.200  1.00  0.00     0.122 C 
BRANCH  26  27
HETATM   27  N3  UNL     1       6.591  31.181  -0.691  1.00  0.00    -0.367 N 
HETATM   28  C13 UNL     1       5.750  32.027  -1.163  1.00  0.00     0.196 C 
HETATM   29  N4  UNL     1       5.675  33.376  -0.715  1.00  0.00    -0.067 NA
HETATM   30  N5  UNL     1       4.840  31.613  -2.185  1.00  0.00    -0.067 NA
ATOM     31  H3  UNL     1       7.247  31.460   0.039  1.00  0.00     0.161 HD
ENDBRANCH  26  27
ENDBRANCH  25  26
ENDBRANCH  24  25
ENDBRANCH   1  24
BRANCH   5  32
HETATM   32  C16 UNL     1       7.512  24.623   3.926  1.00  0.00     0.039 A 
HETATM   33  C17 UNL     1       7.676  23.563   4.789  1.00  0.00     0.032 A 
HETATM   34  C18 UNL     1       6.588  22.984   5.430  1.00  0.00     0.034 A 
HETATM   35  C19 UNL     1       5.312  23.460   5.215  1.00  0.00     0.063 A 
HETATM   36  C20 UNL     1       5.137  24.521   4.354  1.00  0.00     0.063 A 
HETATM   37  N9  UNL     1       4.102  23.087   5.701  1.00  0.00    -0.322 N 
HETATM   38  C21 UNL     1       6.235  25.093   3.717  1.00  0.00     0.061 A 
HETATM   39  N8  UNL     1       3.816  24.754   4.348  1.00  0.00    -0.331 N 
HETATM   40  C22 UNL     1       3.177  23.891   5.162  1.00  0.00     0.179 A 
ATOM     41  H8  UNL     1       3.358  25.484   3.802  1.00  0.00     0.168 HD
HETATM   42  S1  UNL     1       1.562  23.924   5.383  1.00  0.00    -0.040 SA
BRANCH  37  43
HETATM   43  C23 UNL     1       3.870  22.036   6.632  1.00  0.00     0.134 C 
BRANCH  43  44
HETATM   44  C24 UNL     1       2.892  22.329   7.721  1.00  0.00     0.046 C 
BRANCH  44  45
HETATM   45  C25 UNL     1       1.736  21.392   7.823  1.00  0.00     0.165 C 
BRANCH  45  46
HETATM   46  O1  UNL     1       0.754  22.033   8.614  1.00  0.00    -0.401 OA
ATOM     47  H1  UNL     1       1.134  22.848   8.920  1.00  0.00     0.209 HD
ENDBRANCH  45  46
ENDBRANCH  44  45
ENDBRANCH  43  44
ENDBRANCH  37  43
ENDBRANCH   5  32
TORSDOF 18
ENDMDL
MODEL 5
REMARK VINA RESULT: -7.655784370      0.919      1.036
REMARK  18 active torsions:
REMARK  status: ('A' for Active; 'I' for Inactive)
REMARK    1  A    between atoms: C2_2  and  C3_3 
REMARK    2  A    between atoms: C2_2  and  N2_10 
REMARK    3  A    between atoms: C3_3  and  C4_4 
REMARK    4  A    between atoms: C4_4  and  C5_5 
REMARK    5  A    between atoms: C5_5  and  N1_6 
REMARK    6  A    between atoms: N2_10  and  C6_12 
REMARK    7  A    between atoms: C6_12  and  C7_13 
REMARK    8  A    between atoms: C7_13  and  C8_14 
REMARK    9  A    between atoms: C8_14  and  C9_15 
REMARK   10  A    between atoms: C9_15  and  C10_16 
REMARK   11  A    between atoms: C10_16  and  C11_17 
REMARK   12  A    between atoms: C11_17  and  C12_18 
REMARK   13  A    between atoms: C12_18  and  N3_19 
REMARK   14  A    between atoms: N7_27  and  C16_28 
REMARK   15  A    between atoms: N9_38  and  C23_39 
REMARK   16  A    between atoms: C23_39  and  C24_40 
REMARK   17  A    between atoms: C24_40  and  C25_41 
REMARK   18  A    between atoms: C25_41  and  O1_42 
ROOT
HETATM    1  C9  UNL     1       8.779  28.717   1.757  1.00  0.00     0.005 C 
HETATM    2  N6  UNL     1       9.330  27.563   2.235  1.00  0.00    -0.361 N 
HETATM    3  C14 UNL     1       9.760  27.385   3.576  1.00  0.00     0.145 C 
HETATM    4  C15 UNL     1       9.675  25.929   4.036  1.00  0.00     0.152 C 
HETATM    5  N7  UNL     1       8.579  25.299   3.333  1.00  0.00    -0.314 N 
HETATM    6  C26 UNL     1       8.671  25.360   1.895  1.00  0.00     0.258 C 
HETATM    7  O2  UNL     1       8.030  24.615   1.154  1.00  0.00    -0.270 OA
HETATM    8  C27 UNL     1       9.620  26.416   1.433  1.00  0.00     0.250 C 
HETATM    9 BR1  UNL     1       9.903  26.558  -0.394  1.00  0.00    -0.058 Br
ENDROOT
BRANCH   1  10
HETATM   10  C8  UNL     1       9.623  29.922   1.592  1.00  0.00    -0.000 C 
BRANCH  10  11
HETATM   11  C7  UNL     1      10.144  30.694   2.726  1.00  0.00     0.048 C 
BRANCH  11  12
HETATM   12  C6  UNL     1       9.114  31.277   3.667  1.00  0.00     0.118 C 
BRANCH  12  13
HETATM   13  N2  UNL     1       9.199  30.596   4.925  1.00  0.00    -0.417 N 
ATOM     14  H2  UNL     1       9.730  29.732   5.042  1.00  0.00     0.153 HD
BRANCH  13  15
HETATM   15  C2  UNL     1       8.494  31.202   5.998  1.00  0.00     0.072 C 
HETATM   16  C1  UNL     1       7.557  32.274   5.486  1.00  0.00     0.031 C 
BRANCH  15  17
HETATM   17  C3  UNL     1       7.752  30.140   6.781  1.00  0.00     0.026 C 
BRANCH  17  18
HETATM   18  C4  UNL     1       8.180  30.036   8.207  1.00  0.00     0.029 C 
BRANCH  18  19
HETATM   19  C5  UNL     1       7.205  29.163   9.009  1.00  0.00     0.230 C 
BRANCH  19  20
HETATM   20  N1  UNL     1       5.876  29.688   8.825  1.00  0.00    -0.079 N 
ATOM     21  H13 UNL     1       5.759  30.157   7.927  1.00  0.00     0.274 HD
ATOM     22  H12 UNL     1       5.180  28.954   8.690  1.00  0.00     0.274 HD
ATOM     23  H11 UNL     1       5.660  30.293   9.617  1.00  0.00     0.274 HD
ENDBRANCH  19  20
ENDBRANCH  18  19
ENDBRANCH  17  18
ENDBRANCH  15  17
ENDBRANCH  13  15
ENDBRANCH  12  13
ENDBRANCH  11  12
ENDBRANCH  10  11
ENDBRANCH   1  10
BRANCH   1  24
HETATM   24  C10 UNL     1       7.843  28.533   0.556  1.00  0.00     0.058 C 
BRANCH  24  25
HETATM   25  C11 UNL     1       7.029  29.819   0.298  1.00  0.00     0.026 C 
BRANCH  25  26
HETATM   26  C12 UNL     1       7.155  30.146  -1.192  1.00  0.00     0.122 C 
BRANCH  26  27
HETATM   27  N3  UNL     1       8.009  29.203  -1.863  1.00  0.00    -0.367 N 
HETATM   28  C13 UNL     1       8.025  29.168  -3.145  1.00  0.00     0.196 C 
HETATM   29  N4  UNL     1       8.839  28.265  -3.885  1.00  0.00    -0.067 NA
HETATM   30  N5  UNL     1       7.193  30.070  -3.879  1.00  0.00    -0.067 NA
ATOM     31  H3  UNL     1       8.597  28.567  -1.324  1.00  0.00     0.161 HD
ENDBRANCH  26  27
ENDBRANCH  25  26
ENDBRANCH  24  25
ENDBRANCH   1  24
BRANCH   5  32
HETATM   32  C16 UNL     1       7.486  24.656   3.967  1.00  0.00     0.039 A 
HETATM   33  C17 UNL     1       7.636  23.555   4.780  1.00  0.00     0.032 A 
HETATM   34  C18 UNL     1       6.539  22.952   5.383  1.00  0.00     0.034 A 
HETATM   35  C19 UNL     1       5.268  23.446   5.181  1.00  0.00     0.063 A 
HETATM   36  C20 UNL     1       5.107  24.548   4.369  1.00  0.00     0.063 A 
HETATM   37  N9  UNL     1       4.052  23.059   5.637  1.00  0.00    -0.322 N 
HETATM   38  C21 UNL     1       6.214  25.143   3.770  1.00  0.00     0.061 A 
HETATM   39  N8  UNL     1       3.788  24.790   4.363  1.00  0.00    -0.331 N 
HETATM   40  C22 UNL     1       3.136  23.894   5.130  1.00  0.00     0.179 A 
ATOM     41  H8  UNL     1       3.339  25.548   3.849  1.00  0.00     0.168 HD
HETATM   42  S1  UNL     1       1.520  23.926   5.338  1.00  0.00    -0.040 SA
BRANCH  37  43
HETATM   43  C23 UNL     1       3.805  21.966   6.515  1.00  0.00     0.134 C 
BRANCH  43  44
HETATM   44  C24 UNL     1       2.922  22.250   7.685  1.00  0.00     0.046 C 
BRANCH  44  45
HETATM   45  C25 UNL     1       1.727  21.369   7.824  1.00  0.00     0.165 C 
BRANCH  45  46
HETATM   46  O1  UNL     1       0.764  22.095   8.564  1.00  0.00    -0.401 OA
ATOM     47  H1  UNL     1       0.012  21.525   8.674  1.00  0.00     0.209 HD
ENDBRANCH  45  46
ENDBRANCH  44  45
ENDBRANCH  43  44
ENDBRANCH  37  43
ENDBRANCH   5  32
TORSDOF 18
ENDMDL
