MODEL 1
REMARK VINA RESULT: -8.476591337      0.000      0.000
REMARK  4 active torsions:
REMARK  status: ('A' for Active; 'I' for Inactive)
REMARK    1  A    between atoms: C3_4  and  C4_5 
REMARK    2  A    between atoms: C12_13  and  O1_14 
REMARK    3  A    between atoms: O1_14  and  C13_15 
REMARK    4  A    between atoms: C16_21  and  O2_22 
ROOT
HETATM    1  C4  UNL     1      16.224  27.110   0.145  1.00  0.00    -0.058 C 
HETATM    2  C5  UNL     1      15.922  25.665   0.262  1.00  0.00     0.048 C 
HETATM    3  C6  UNL     1      15.218  27.931  -0.074  1.00  0.00    -0.063 C 
HETATM    4  C7  UNL     1      13.797  27.541  -0.202  1.00  0.00     0.060 C 
HETATM    5  C8  UNL     1      12.997  28.810   0.040  1.00  0.00     0.086 C 
HETATM    6  C9  UNL     1      13.999  29.803   0.558  1.00  0.00     0.039 C 
HETATM    7  C10 UNL     1      15.237  29.403  -0.255  1.00  0.00     0.055 C 
HETATM    8  C11 UNL     1      14.928  29.823  -1.646  1.00  0.00     0.013 A 
HETATM    9  C12 UNL     1      15.912  30.281  -2.487  1.00  0.00     0.087 A 
HETATM   10  C14 UNL     1      15.630  30.677  -3.795  1.00  0.00     0.040 A 
HETATM   11  C15 UNL     1      14.336  30.609  -4.261  1.00  0.00     0.041 A 
HETATM   12  C16 UNL     1      13.327  30.142  -3.406  1.00  0.00     0.092 A 
HETATM   13  C17 UNL     1      13.622  29.755  -2.117  1.00  0.00     0.071 A 
HETATM   14  N1  UNL     1      12.564  29.292  -1.281  1.00  0.00    -0.382 N 
ATOM     15  H1  UNL     1      11.588  29.295  -1.574  1.00  0.00     0.160 HD
ENDROOT
BRANCH   1  16
HETATM   16  C3  UNL     1      17.584  27.555   0.262  1.00  0.00     0.026 C 
HETATM   17  C2  UNL     1      18.546  27.122   1.021  1.00  0.00     0.008 C 
HETATM   18  C1  UNL     1      19.891  27.799   0.921  1.00  0.00     0.062 C 
HETATM   19 CL1  UNL     1      18.449  25.819   2.168  1.00  0.00    -0.089 Cl
ENDBRANCH   1  16
BRANCH   9  20
HETATM   20  O1  UNL     1      17.227  30.372  -2.074  1.00  0.00    -0.255 OA
BRANCH  20  21
HETATM   21  C13 UNL     1      18.318  29.715  -2.627  1.00  0.00     0.530 C 
HETATM   22  F1  UNL     1      18.104  28.401  -2.971  1.00  0.00    -0.144 F 
HETATM   23  F2  UNL     1      18.872  30.427  -3.697  1.00  0.00    -0.144 F 
HETATM   24  F3  UNL     1      19.327  29.697  -1.657  1.00  0.00    -0.144 F 
ENDBRANCH  20  21
ENDBRANCH   9  20
BRANCH  12  25
HETATM   25  O2  UNL     1      12.037  30.086  -3.906  1.00  0.00    -0.358 OA
ATOM     26  H2  UNL     1      11.524  30.885  -3.888  1.00  0.00     0.217 HD
ENDBRANCH  12  25
TORSDOF 4
ENDMDL
MODEL 2
REMARK VINA RESULT: -8.230834164      2.696      3.300
REMARK  4 active torsions:
REMARK  status: ('A' for Active; 'I' for Inactive)
REMARK    1  A    between atoms: C3_4  and  C4_5 
REMARK    2  A    between atoms: C12_13  and  O1_14 
REMARK    3  A    between atoms: O1_14  and  C13_15 
REMARK    4  A    between atoms: C16_21  and  O2_22 
ROOT
HETATM    1  C4  UNL     1      14.504  28.668  -0.204  1.00  0.00    -0.058 C 
HETATM    2  C5  UNL     1      14.837  27.320   0.310  1.00  0.00     0.048 C 
HETATM    3  C6  UNL     1      13.268  28.883  -0.606  1.00  0.00    -0.063 C 
HETATM    4  C7  UNL     1      12.167  27.895  -0.580  1.00  0.00     0.060 C 
HETATM    5  C8  UNL     1      10.885  28.705  -0.667  1.00  0.00     0.086 C 
HETATM    6  C9  UNL     1      11.316  30.131  -0.468  1.00  0.00     0.039 C 
HETATM    7  C10 UNL     1      12.675  30.115  -1.179  1.00  0.00     0.055 C 
HETATM    8  C11 UNL     1      12.345  29.986  -2.622  1.00  0.00     0.013 A 
HETATM    9  C12 UNL     1      13.112  30.593  -3.586  1.00  0.00     0.087 A 
HETATM   10  C14 UNL     1      12.809  30.476  -4.943  1.00  0.00     0.040 A 
HETATM   11  C15 UNL     1      11.716  29.735  -5.333  1.00  0.00     0.041 A 
HETATM   12  C16 UNL     1      10.929  29.113  -4.353  1.00  0.00     0.092 A 
HETATM   13  C17 UNL     1      11.241  29.239  -3.017  1.00  0.00     0.071 A 
HETATM   14  N1  UNL     1      10.410  28.594  -2.055  1.00  0.00    -0.382 N 
ATOM     15  H1  UNL     1       9.557  28.096  -2.308  1.00  0.00     0.160 HD
ENDROOT
BRANCH   1  16
HETATM   16  C3  UNL     1      15.527  29.673  -0.253  1.00  0.00     0.026 C 
HETATM   17  C2  UNL     1      15.668  30.762   0.442  1.00  0.00     0.008 C 
HETATM   18  C1  UNL     1      16.867  31.636   0.161  1.00  0.00     0.062 C 
HETATM   19 CL1  UNL     1      14.601  31.337   1.688  1.00  0.00    -0.089 Cl
ENDBRANCH   1  16
BRANCH   9  20
HETATM   20  O1  UNL     1      14.219  31.349  -3.253  1.00  0.00    -0.255 OA
BRANCH  20  21
HETATM   21  C13 UNL     1      15.525  31.138  -3.672  1.00  0.00     0.530 C 
HETATM   22  F1  UNL     1      16.057  29.910  -3.353  1.00  0.00    -0.144 F 
HETATM   23  F2  UNL     1      15.690  31.413  -5.036  1.00  0.00    -0.144 F 
HETATM   24  F3  UNL     1      16.328  32.083  -3.023  1.00  0.00    -0.144 F 
ENDBRANCH  20  21
ENDBRANCH   9  20
BRANCH  12  25
HETATM   25  O2  UNL     1       9.838  28.376  -4.779  1.00  0.00    -0.358 OA
ATOM     26  H2  UNL     1       9.459  27.756  -4.167  1.00  0.00     0.217 HD
ENDBRANCH  12  25
TORSDOF 4
ENDMDL
MODEL 3
REMARK VINA RESULT: -8.009247337      2.308      2.945
REMARK  4 active torsions:
REMARK  status: ('A' for Active; 'I' for Inactive)
REMARK    1  A    between atoms: C3_4  and  C4_5 
REMARK    2  A    between atoms: C12_13  and  O1_14 
REMARK    3  A    between atoms: O1_14  and  C13_15 
REMARK    4  A    between atoms: C16_21  and  O2_22 
ROOT
HETATM    1  C4  UNL     1      17.177  28.860  -0.548  1.00  0.00    -0.058 C 
HETATM    2  C5  UNL     1      17.543  27.495  -0.105  1.00  0.00     0.048 C 
HETATM    3  C6  UNL     1      15.904  29.193  -0.516  1.00  0.00    -0.063 C 
HETATM    4  C7  UNL     1      14.795  28.326  -0.063  1.00  0.00     0.060 C 
HETATM    5  C8  UNL     1      13.639  29.264   0.248  1.00  0.00     0.086 C 
HETATM    6  C9  UNL     1      14.239  30.641   0.209  1.00  0.00     0.039 C 
HETATM    7  C10 UNL     1      15.263  30.469  -0.921  1.00  0.00     0.055 C 
HETATM    8  C11 UNL     1      14.446  30.344  -2.156  1.00  0.00     0.013 A 
HETATM    9  C12 UNL     1      14.886  30.848  -3.355  1.00  0.00     0.087 A 
HETATM   10  C14 UNL     1      14.125  30.735  -4.519  1.00  0.00     0.040 A 
HETATM   11  C15 UNL     1      12.902  30.103  -4.471  1.00  0.00     0.041 A 
HETATM   12  C16 UNL     1      12.448  29.587  -3.249  1.00  0.00     0.092 A 
HETATM   13  C17 UNL     1      13.211  29.708  -2.109  1.00  0.00     0.071 A 
HETATM   14  N1  UNL     1      12.708  29.173  -0.887  1.00  0.00    -0.382 N 
ATOM     15  H1  UNL     1      11.778  28.761  -0.807  1.00  0.00     0.160 HD
ENDROOT
BRANCH   1  16
HETATM   16  C3  UNL     1      18.208  29.752  -0.999  1.00  0.00     0.026 C 
HETATM   17  C2  UNL     1      18.760  29.872  -2.168  1.00  0.00     0.008 C 
HETATM   18  C1  UNL     1      19.836  30.917  -2.344  1.00  0.00     0.062 C 
HETATM   19 CL1  UNL     1      18.389  28.937  -3.586  1.00  0.00    -0.089 Cl
ENDBRANCH   1  16
BRANCH   9  20
HETATM   20  O1  UNL     1      16.104  31.492  -3.461  1.00  0.00    -0.255 OA
BRANCH  20  21
HETATM   21  C13 UNL     1      16.322  32.863  -3.440  1.00  0.00     0.530 C 
HETATM   22  F1  UNL     1      17.603  33.251  -3.124  1.00  0.00    -0.144 F 
HETATM   23  F2  UNL     1      15.889  33.481  -4.619  1.00  0.00    -0.144 F 
HETATM   24  F3  UNL     1      15.502  33.398  -2.440  1.00  0.00    -0.144 F 
ENDBRANCH  20  21
ENDBRANCH   9  20
BRANCH  12  25
HETATM   25  O2  UNL     1      11.215  28.959  -3.237  1.00  0.00    -0.358 OA
ATOM     26  H2  UNL     1      10.645  29.092  -3.986  1.00  0.00     0.217 HD
ENDBRANCH  12  25
TORSDOF 4
ENDMDL
MODEL 4
REMARK VINA RESULT: -8.001786640      2.274      2.928
REMARK  4 active torsions:
REMARK  status: ('A' for Active; 'I' for Inactive)
REMARK    1  A    between atoms: C3_4  and  C4_5 
REMARK    2  A    between atoms: C12_13  and  O1_14 
REMARK    3  A    between atoms: O1_14  and  C13_15 
REMARK    4  A    between atoms: C16_21  and  O2_22 
ROOT
HETATM    1  C4  UNL     1      16.587  28.818  -0.473  1.00  0.00    -0.058 C 
HETATM    2  C5  UNL     1      17.171  27.496  -0.151  1.00  0.00     0.048 C 
HETATM    3  C6  UNL     1      15.288  28.970  -0.311  1.00  0.00    -0.063 C 
HETATM    4  C7  UNL     1      14.352  27.936   0.179  1.00  0.00     0.060 C 
HETATM    5  C8  UNL     1      13.117  28.687   0.648  1.00  0.00     0.086 C 
HETATM    6  C9  UNL     1      13.522  30.134   0.645  1.00  0.00     0.039 C 
HETATM    7  C10 UNL     1      14.449  30.164  -0.577  1.00  0.00     0.055 C 
HETATM    8  C11 UNL     1      13.544  29.991  -1.742  1.00  0.00     0.013 A 
HETATM    9  C12 UNL     1      13.799  30.613  -2.940  1.00  0.00     0.087 A 
HETATM   10  C14 UNL     1      12.954  30.456  -4.040  1.00  0.00     0.040 A 
HETATM   11  C15 UNL     1      11.836  29.660  -3.928  1.00  0.00     0.041 A 
HETATM   12  C16 UNL     1      11.571  29.023  -2.707  1.00  0.00     0.092 A 
HETATM   13  C17 UNL     1      12.414  29.189  -1.631  1.00  0.00     0.071 A 
HETATM   14  N1  UNL     1      12.103  28.527  -0.408  1.00  0.00    -0.382 N 
ATOM     15  H1  UNL     1      11.248  27.987  -0.274  1.00  0.00     0.160 HD
ENDROOT
BRANCH   1  16
HETATM   16  C3  UNL     1      17.442  29.866  -0.952  1.00  0.00     0.026 C 
HETATM   17  C2  UNL     1      18.169  29.929  -2.027  1.00  0.00     0.008 C 
HETATM   18  C1  UNL     1      18.978  31.182  -2.267  1.00  0.00     0.062 C 
HETATM   19 CL1  UNL     1      18.319  28.699  -3.246  1.00  0.00    -0.089 Cl
ENDBRANCH   1  16
BRANCH   9  20
HETATM   20  O1  UNL     1      14.904  31.424  -3.109  1.00  0.00    -0.255 OA
BRANCH  20  21
HETATM   21  C13 UNL     1      15.661  31.566  -4.264  1.00  0.00     0.530 C 
HETATM   22  F1  UNL     1      16.223  30.407  -4.748  1.00  0.00    -0.144 F 
HETATM   23  F2  UNL     1      14.959  32.238  -5.272  1.00  0.00    -0.144 F 
HETATM   24  F3  UNL     1      16.733  32.412  -3.957  1.00  0.00    -0.144 F 
ENDBRANCH  20  21
ENDBRANCH   9  20
BRANCH  12  25
HETATM   25  O2  UNL     1      10.439  28.231  -2.630  1.00  0.00    -0.358 OA
ATOM     26  H2  UNL     1       9.729  28.530  -2.073  1.00  0.00     0.217 HD
ENDBRANCH  12  25
TORSDOF 4
ENDMDL
MODEL 5
REMARK VINA RESULT: -7.943416663      3.145      4.861
REMARK  4 active torsions:
REMARK  status: ('A' for Active; 'I' for Inactive)
REMARK    1  A    between atoms: C3_4  and  C4_5 
REMARK    2  A    between atoms: C12_13  and  O1_14 
REMARK    3  A    between atoms: O1_14  and  C13_15 
REMARK    4  A    between atoms: C16_21  and  O2_22 
ROOT
HETATM    1  C4  UNL     1      18.262  27.478   0.512  1.00  0.00    -0.058 C 
HETATM    2  C5  UNL     1      19.530  27.118   1.187  1.00  0.00     0.048 C 
HETATM    3  C6  UNL     1      18.189  28.662  -0.061  1.00  0.00    -0.063 C 
HETATM    4  C7  UNL     1      19.270  29.670  -0.104  1.00  0.00     0.060 C 
HETATM    5  C8  UNL     1      18.909  30.613  -1.240  1.00  0.00     0.086 C 
HETATM    6  C9  UNL     1      17.775  29.936  -1.957  1.00  0.00     0.039 C 
HETATM    7  C10 UNL     1      17.047  29.282  -0.776  1.00  0.00     0.055 C 
HETATM    8  C11 UNL     1      16.440  30.416  -0.032  1.00  0.00     0.013 A 
HETATM    9  C12 UNL     1      15.229  30.284   0.603  1.00  0.00     0.087 A 
HETATM   10  C14 UNL     1      14.652  31.343   1.305  1.00  0.00     0.040 A 
HETATM   11  C15 UNL     1      15.307  32.553   1.365  1.00  0.00     0.041 A 
HETATM   12  C16 UNL     1      16.543  32.693   0.718  1.00  0.00     0.092 A 
HETATM   13  C17 UNL     1      17.099  31.638   0.030  1.00  0.00     0.071 A 
HETATM   14  N1  UNL     1      18.355  31.826  -0.618  1.00  0.00    -0.382 N 
ATOM     15  H1  UNL     1      18.830  32.728  -0.648  1.00  0.00     0.160 HD
ENDROOT
BRANCH   1  16
HETATM   16  C3  UNL     1      17.174  26.543   0.516  1.00  0.00     0.026 C 
HETATM   17  C2  UNL     1      16.879  25.603   1.364  1.00  0.00     0.008 C 
HETATM   18  C1  UNL     1      15.651  24.766   1.100  1.00  0.00     0.062 C 
HETATM   19 CL1  UNL     1      17.767  25.193   2.801  1.00  0.00    -0.089 Cl
ENDBRANCH   1  16
BRANCH   9  20
HETATM   20  O1  UNL     1      14.527  29.094   0.574  1.00  0.00    -0.255 OA
BRANCH  20  21
HETATM   21  C13 UNL     1      13.455  28.783  -0.251  1.00  0.00     0.530 C 
HETATM   22  F1  UNL     1      12.234  29.263   0.161  1.00  0.00    -0.144 F 
HETATM   23  F2  UNL     1      13.703  29.127  -1.585  1.00  0.00    -0.144 F 
HETATM   24  F3  UNL     1      13.333  27.389  -0.264  1.00  0.00    -0.144 F 
ENDBRANCH  20  21
ENDBRANCH   9  20
BRANCH  12  25
HETATM   25  O2  UNL     1      17.174  33.923   0.800  1.00  0.00    -0.358 OA
ATOM     26  H2  UNL     1      17.194  34.459   0.016  1.00  0.00     0.217 HD
ENDBRANCH  12  25
TORSDOF 4
ENDMDL
