MODEL 1
REMARK VINA RESULT: -5.534033055      0.000      0.000
REMARK  5 active torsions:
REMARK  status: ('A' for Active; 'I' for Inactive)
REMARK    1  A    between atoms: C2_7  and  N3_8 
REMARK    2  A    between atoms: C7_18  and  C8_19 
REMARK    3  A    between atoms: C8_19  and  O3_20 
REMARK    4  A    between atoms: N6_22  and  C9_24 
REMARK    5  A    between atoms: C9_24  and  O4_25 
ROOT
HETATM    1  N1  UNL     1      -1.863 -18.224 -47.468  1.00  0.00    -0.384 N 
ATOM      2  H11 UNL     1      -1.343 -17.372 -47.258  1.00  0.00     0.157 HD
ATOM      3  H12 UNL     1      -2.704 -18.438 -46.931  1.00  0.00     0.157 HD
HETATM    4  C1  UNL     1      -1.412 -18.909 -48.439  1.00  0.00     0.132 A 
HETATM    5  N2  UNL     1      -2.111 -20.053 -48.721  1.00  0.00    -0.175 N 
ATOM      6  H2  UNL     1      -2.950 -20.247 -48.174  1.00  0.00     0.186 HD
HETATM    7  C2  UNL     1      -1.768 -20.925 -49.661  1.00  0.00     0.692 A 
HETATM    8  N4  UNL     1      -0.660 -20.648 -50.369  1.00  0.00    -0.177 N 
ATOM      9  H4  UNL     1      -0.366 -21.297 -51.099  1.00  0.00     0.185 HD
HETATM   10  C6  UNL     1       0.069 -19.552 -50.149  1.00  0.00     0.150 A 
HETATM   11  N5  UNL     1       1.215 -19.369 -50.984  1.00  0.00    -0.081 NA
HETATM   12  C7  UNL     1      -0.295 -18.625 -49.151  1.00  0.00     0.100 A 
ENDROOT
BRANCH  12  13
HETATM   13  C8  UNL     1       0.552 -17.505 -48.878  1.00  0.00     0.158 C 
HETATM   14  N6  UNL     1       1.140 -16.459 -49.519  1.00  0.00    -0.327 N 
ATOM     15  H6  UNL     1       1.543 -15.806 -48.846  1.00  0.00     0.169 HD
BRANCH  13  16
HETATM   16  O3  UNL     1       0.856 -17.516 -47.539  1.00  0.00    -0.345 OA
ATOM     17  H3  UNL     1       1.183 -16.656 -47.303  1.00  0.00     0.219 HD
ENDBRANCH  13  16
BRANCH  14  18
HETATM   18  C9  UNL     1       1.354 -16.021 -50.810  1.00  0.00     0.225 C 
BRANCH  18  19
HETATM   19  O4  UNL     1       2.322 -16.584 -51.507  1.00  0.00    -0.356 OA
ATOM     20  H4  UNL     1       2.167 -17.446 -51.874  1.00  0.00     0.218 HD
ENDBRANCH  18  19
ENDBRANCH  14  18
ENDBRANCH  12  13
BRANCH   7  21
HETATM   21  N3  UNL     1      -2.546 -22.104 -49.904  1.00  0.00    -0.124 N 
HETATM   22  C3  UNL     1      -3.987 -22.294 -49.697  1.00  0.00     0.180 C 
HETATM   23  C4  UNL     1      -4.151 -23.793 -49.627  1.00  0.00     0.201 C 
HETATM   24  O1  UNL     1      -3.115 -24.248 -50.487  1.00  0.00    -0.302 OA
HETATM   25  C5  UNL     1      -2.059 -23.346 -50.400  1.00  0.00     0.381 C 
HETATM   26  O2  UNL     1      -0.875 -23.612 -50.717  1.00  0.00    -0.237 OA
ENDBRANCH   7  21
TORSDOF 5
ENDMDL
MODEL 2
REMARK VINA RESULT: -5.445276813      1.008      1.194
REMARK  5 active torsions:
REMARK  status: ('A' for Active; 'I' for Inactive)
REMARK    1  A    between atoms: C2_7  and  N3_8 
REMARK    2  A    between atoms: C7_18  and  C8_19 
REMARK    3  A    between atoms: C8_19  and  O3_20 
REMARK    4  A    between atoms: N6_22  and  C9_24 
REMARK    5  A    between atoms: C9_24  and  O4_25 
ROOT
HETATM    1  N1  UNL     1      -1.892 -18.262 -47.539  1.00  0.00    -0.384 N 
ATOM      2  H11 UNL     1      -1.334 -17.443 -47.296  1.00  0.00     0.157 HD
ATOM      3  H12 UNL     1      -2.765 -18.434 -47.040  1.00  0.00     0.157 HD
HETATM    4  C1  UNL     1      -1.441 -18.960 -48.501  1.00  0.00     0.132 A 
HETATM    5  N2  UNL     1      -2.191 -20.059 -48.827  1.00  0.00    -0.175 N 
ATOM      6  H2  UNL     1      -3.061 -20.212 -48.317  1.00  0.00     0.186 HD
HETATM    7  C2  UNL     1      -1.859 -20.938 -49.764  1.00  0.00     0.692 A 
HETATM    8  N4  UNL     1      -0.708 -20.716 -50.423  1.00  0.00    -0.177 N 
ATOM      9  H4  UNL     1      -0.422 -21.372 -51.149  1.00  0.00     0.185 HD
HETATM   10  C6  UNL     1       0.071 -19.666 -50.157  1.00  0.00     0.150 A 
HETATM   11  N5  UNL     1       1.260 -19.539 -50.943  1.00  0.00    -0.081 NA
HETATM   12  C7  UNL     1      -0.281 -18.731 -49.162  1.00  0.00     0.100 A 
ENDROOT
BRANCH  12  13
HETATM   13  C8  UNL     1       0.615 -17.665 -48.840  1.00  0.00     0.158 C 
HETATM   14  N6  UNL     1       1.234 -16.605 -49.427  1.00  0.00    -0.327 N 
ATOM     15  H6  UNL     1       1.675 -16.011 -48.725  1.00  0.00     0.169 HD
BRANCH  13  16
HETATM   16  O3  UNL     1       0.943 -17.770 -47.510  1.00  0.00    -0.345 OA
ATOM     17  H3  UNL     1       1.877 -17.619 -47.423  1.00  0.00     0.219 HD
ENDBRANCH  13  16
BRANCH  14  18
HETATM   18  C9  UNL     1       1.441 -16.097 -50.693  1.00  0.00     0.225 C 
BRANCH  18  19
HETATM   19  O4  UNL     1       2.298 -16.717 -51.481  1.00  0.00    -0.356 OA
ATOM     20  H4  UNL     1       3.226 -16.622 -51.298  1.00  0.00     0.218 HD
ENDBRANCH  18  19
ENDBRANCH  14  18
ENDBRANCH  12  13
BRANCH   7  21
HETATM   21  N3  UNL     1      -2.691 -22.069 -50.056  1.00  0.00    -0.124 N 
HETATM   22  C3  UNL     1      -2.762 -23.346 -49.336  1.00  0.00     0.180 C 
HETATM   23  C4  UNL     1      -3.384 -24.292 -50.334  1.00  0.00     0.201 C 
HETATM   24  O1  UNL     1      -4.227 -23.427 -51.082  1.00  0.00    -0.302 OA
HETATM   25  C5  UNL     1      -3.625 -22.173 -51.124  1.00  0.00     0.381 C 
HETATM   26  O2  UNL     1      -3.884 -21.293 -51.979  1.00  0.00    -0.237 OA
ENDBRANCH   7  21
TORSDOF 5
ENDMDL
MODEL 3
REMARK VINA RESULT: -5.336247536      3.276      7.305
REMARK  5 active torsions:
REMARK  status: ('A' for Active; 'I' for Inactive)
REMARK    1  A    between atoms: C2_7  and  N3_8 
REMARK    2  A    between atoms: C7_18  and  C8_19 
REMARK    3  A    between atoms: C8_19  and  O3_20 
REMARK    4  A    between atoms: N6_22  and  C9_24 
REMARK    5  A    between atoms: C9_24  and  O4_25 
ROOT
HETATM    1  N1  UNL     1       1.929 -17.836 -49.167  1.00  0.00    -0.384 N 
ATOM      2  H11 UNL     1       1.520 -18.565 -48.582  1.00  0.00     0.157 HD
ATOM      3  H12 UNL     1       2.929 -17.648 -49.100  1.00  0.00     0.157 HD
HETATM    4  C1  UNL     1       1.124 -17.269 -49.971  1.00  0.00     0.132 A 
HETATM    5  N2  UNL     1       1.674 -16.291 -50.757  1.00  0.00    -0.175 N 
ATOM      6  H2  UNL     1       2.676 -16.121 -50.675  1.00  0.00     0.186 HD
HETATM    7  C2  UNL     1       0.987 -15.552 -51.618  1.00  0.00     0.692 A 
HETATM    8  N4  UNL     1      -0.331 -15.794 -51.709  1.00  0.00    -0.177 N 
ATOM      9  H4  UNL     1      -0.890 -15.243 -52.360  1.00  0.00     0.185 HD
HETATM   10  C6  UNL     1      -0.934 -16.731 -50.974  1.00  0.00     0.150 A 
HETATM   11  N5  UNL     1      -2.340 -16.898 -51.180  1.00  0.00    -0.081 NA
HETATM   12  C7  UNL     1      -0.205 -17.519 -50.059  1.00  0.00     0.100 A 
ENDROOT
BRANCH  12  13
HETATM   13  C8  UNL     1      -0.891 -18.455 -49.224  1.00  0.00     0.158 C 
HETATM   14  N6  UNL     1      -1.860 -18.490 -48.270  1.00  0.00    -0.327 N 
ATOM     15  H6  UNL     1      -2.133 -19.452 -48.070  1.00  0.00     0.169 HD
BRANCH  13  16
HETATM   16  O3  UNL     1      -0.390 -19.706 -49.483  1.00  0.00    -0.345 OA
ATOM     17  H3  UNL     1      -1.121 -20.307 -49.566  1.00  0.00     0.219 HD
ENDBRANCH  13  16
BRANCH  14  18
HETATM   18  C9  UNL     1      -2.584 -17.608 -47.494  1.00  0.00     0.225 C 
BRANCH  18  19
HETATM   19  O4  UNL     1      -3.885 -17.522 -47.696  1.00  0.00    -0.356 OA
ATOM     20  H4  UNL     1      -4.251 -16.670 -47.902  1.00  0.00     0.218 HD
ENDBRANCH  18  19
ENDBRANCH  14  18
ENDBRANCH  12  13
BRANCH   7  21
HETATM   21  N3  UNL     1       1.627 -14.543 -52.411  1.00  0.00    -0.124 N 
HETATM   22  C3  UNL     1       1.005 -13.401 -53.091  1.00  0.00     0.180 C 
HETATM   23  C4  UNL     1       2.019 -13.003 -54.137  1.00  0.00     0.201 C 
HETATM   24  O1  UNL     1       3.246 -13.348 -53.510  1.00  0.00    -0.302 OA
HETATM   25  C5  UNL     1       3.017 -14.455 -52.700  1.00  0.00     0.381 C 
HETATM   26  O2  UNL     1       3.915 -15.237 -52.302  1.00  0.00    -0.237 OA
ENDBRANCH   7  21
TORSDOF 5
ENDMDL
MODEL 4
REMARK VINA RESULT: -5.250396908      3.792      5.985
REMARK  5 active torsions:
REMARK  status: ('A' for Active; 'I' for Inactive)
REMARK    1  A    between atoms: C2_7  and  N3_8 
REMARK    2  A    between atoms: C7_18  and  C8_19 
REMARK    3  A    between atoms: C8_19  and  O3_20 
REMARK    4  A    between atoms: N6_22  and  C9_24 
REMARK    5  A    between atoms: C9_24  and  O4_25 
ROOT
HETATM    1  N1  UNL     1       2.326 -19.082 -49.031  1.00  0.00    -0.384 N 
ATOM      2  H11 UNL     1       1.977 -19.108 -48.072  1.00  0.00     0.157 HD
ATOM      3  H12 UNL     1       3.198 -19.562 -49.255  1.00  0.00     0.157 HD
HETATM    4  C1  UNL     1       1.580 -18.479 -49.864  1.00  0.00     0.132 A 
HETATM    5  N2  UNL     1       2.048 -18.445 -51.151  1.00  0.00    -0.175 N 
ATOM      6  H2  UNL     1       2.921 -18.933 -51.354  1.00  0.00     0.186 HD
HETATM    7  C2  UNL     1       1.441 -17.819 -52.151  1.00  0.00     0.692 A 
HETATM    8  N4  UNL     1       0.293 -17.183 -51.860  1.00  0.00    -0.177 N 
ATOM      9  H4  UNL     1      -0.200 -16.691 -52.604  1.00  0.00     0.185 HD
HETATM   10  C6  UNL     1      -0.222 -17.176 -50.628  1.00  0.00     0.150 A 
HETATM   11  N5  UNL     1      -1.458 -16.475 -50.458  1.00  0.00    -0.081 NA
HETATM   12  C7  UNL     1       0.422 -17.841 -49.566  1.00  0.00     0.100 A 
ENDROOT
BRANCH  12  13
HETATM   13  C8  UNL     1      -0.107 -17.743 -48.241  1.00  0.00     0.158 C 
HETATM   14  N6  UNL     1      -1.244 -18.015 -47.546  1.00  0.00    -0.327 N 
ATOM     15  H6  UNL     1      -1.087 -17.913 -46.543  1.00  0.00     0.169 HD
BRANCH  13  16
HETATM   16  O3  UNL     1       0.859 -17.191 -47.435  1.00  0.00    -0.345 OA
ATOM     17  H3  UNL     1       1.314 -17.897 -46.992  1.00  0.00     0.219 HD
ENDBRANCH  13  16
BRANCH  14  18
HETATM   18  C9  UNL     1      -2.548 -18.389 -47.798  1.00  0.00     0.225 C 
BRANCH  18  19
HETATM   19  O4  UNL     1      -3.412 -17.450 -48.136  1.00  0.00    -0.356 OA
ATOM     20  H4  UNL     1      -3.986 -17.105 -47.462  1.00  0.00     0.218 HD
ENDBRANCH  18  19
ENDBRANCH  14  18
ENDBRANCH  12  13
BRANCH   7  21
HETATM   21  N3  UNL     1       1.988 -17.823 -53.476  1.00  0.00    -0.124 N 
HETATM   22  C3  UNL     1       1.283 -17.595 -54.743  1.00  0.00     0.180 C 
HETATM   23  C4  UNL     1       2.198 -18.199 -55.782  1.00  0.00     0.201 C 
HETATM   24  O1  UNL     1       3.481 -17.992 -55.208  1.00  0.00    -0.302 OA
HETATM   25  C5  UNL     1       3.347 -18.057 -53.825  1.00  0.00     0.381 C 
HETATM   26  O2  UNL     1       4.293 -18.288 -53.034  1.00  0.00    -0.237 OA
ENDBRANCH   7  21
TORSDOF 5
ENDMDL
MODEL 5
REMARK VINA RESULT: -5.178955058      1.503      1.734
REMARK  5 active torsions:
REMARK  status: ('A' for Active; 'I' for Inactive)
REMARK    1  A    between atoms: C2_7  and  N3_8 
REMARK    2  A    between atoms: C7_18  and  C8_19 
REMARK    3  A    between atoms: C8_19  and  O3_20 
REMARK    4  A    between atoms: N6_22  and  C9_24 
REMARK    5  A    between atoms: C9_24  and  O4_25 
ROOT
HETATM    1  N1  UNL     1      -0.646 -18.653 -47.823  1.00  0.00    -0.384 N 
ATOM      2  H11 UNL     1       0.006 -17.917 -47.552  1.00  0.00     0.157 HD
ATOM      3  H12 UNL     1      -1.325 -18.992 -47.142  1.00  0.00     0.157 HD
HETATM    4  C1  UNL     1      -0.562 -19.033 -49.033  1.00  0.00     0.132 A 
HETATM    5  N2  UNL     1      -1.437 -20.022 -49.398  1.00  0.00    -0.175 N 
ATOM      6  H2  UNL     1      -2.109 -20.344 -48.702  1.00  0.00     0.186 HD
HETATM    7  C2  UNL     1      -1.469 -20.586 -50.598  1.00  0.00     0.692 A 
HETATM    8  N4  UNL     1      -0.574 -20.145 -51.499  1.00  0.00    -0.177 N 
ATOM      9  H4  UNL     1      -0.569 -20.557 -52.432  1.00  0.00     0.185 HD
HETATM   10  C6  UNL     1       0.308 -19.184 -51.213  1.00  0.00     0.150 A 
HETATM   11  N5  UNL     1       1.193 -18.796 -52.267  1.00  0.00    -0.081 NA
HETATM   12  C7  UNL     1       0.341 -18.583 -49.938  1.00  0.00     0.100 A 
ENDROOT
BRANCH  12  13
HETATM   13  C8  UNL     1       1.353 -17.620 -49.633  1.00  0.00     0.158 C 
HETATM   14  N6  UNL     1       1.709 -16.344 -49.944  1.00  0.00    -0.327 N 
ATOM     15  H6  UNL     1       2.454 -16.019 -49.327  1.00  0.00     0.169 HD
BRANCH  13  16
HETATM   16  O3  UNL     1       2.233 -18.191 -48.747  1.00  0.00    -0.345 OA
ATOM     17  H3  UNL     1       2.318 -17.610 -47.999  1.00  0.00     0.219 HD
ENDBRANCH  13  16
BRANCH  14  18
HETATM   18  C9  UNL     1       1.361 -15.361 -50.847  1.00  0.00     0.225 C 
BRANCH  18  19
HETATM   19  O4  UNL     1       0.903 -15.733 -52.027  1.00  0.00    -0.356 OA
ATOM     20  H4  UNL     1       1.462 -16.271 -52.575  1.00  0.00     0.218 HD
ENDBRANCH  18  19
ENDBRANCH  14  18
ENDBRANCH  12  13
BRANCH   7  21
HETATM   21  N3  UNL     1      -2.413 -21.618 -50.914  1.00  0.00    -0.124 N 
HETATM   22  C3  UNL     1      -2.528 -22.384 -52.160  1.00  0.00     0.180 C 
HETATM   23  C4  UNL     1      -3.937 -22.928 -52.124  1.00  0.00     0.201 C 
HETATM   24  O1  UNL     1      -4.158 -23.094 -50.730  1.00  0.00    -0.302 OA
HETATM   25  C5  UNL     1      -3.443 -22.104 -50.062  1.00  0.00     0.381 C 
HETATM   26  O2  UNL     1      -3.691 -21.721 -48.894  1.00  0.00    -0.237 OA
ENDBRANCH   7  21
TORSDOF 5
ENDMDL
