MODEL 1
REMARK VINA RESULT: -5.342276907      0.000      0.000
REMARK  4 active torsions:
REMARK  status: ('A' for Active; 'I' for Inactive)
REMARK    1  A    between atoms: S1_2  and  N1_5 
REMARK    2  A    between atoms: N1_5  and  N2_7 
REMARK       I    between atoms: N2_7  and  C2_9 
REMARK    3  A    between atoms: C2_9  and  C3_11 
REMARK    4  A    between atoms: C5_17  and  O5_18 
ROOT
HETATM    1  N2  UNL     1       1.365 -15.793 -50.414  1.00  0.00    -0.256 N 
ATOM      2  H2  UNL     1       0.721 -15.252 -49.836  1.00  0.00     0.191 HD
HETATM    3  C2  UNL     1       1.259 -17.175 -50.430  1.00  0.00     0.281 C 
HETATM    4  O3  UNL     1       2.071 -17.844 -51.159  1.00  0.00    -0.265 OA
ENDROOT
BRANCH   3   5
HETATM    5  C3  UNL     1       0.281 -17.984 -49.675  1.00  0.00     0.130 A 
HETATM    6  S2  UNL     1      -0.804 -19.176 -50.300  1.00  0.00    -0.019 SA
HETATM    7  C4  UNL     1      -1.548 -19.625 -48.838  1.00  0.00     0.290 A 
HETATM    8  O4  UNL     1      -2.468 -20.496 -48.645  1.00  0.00    -0.260 OA
HETATM    9  N3  UNL     1      -0.943 -18.856 -47.938  1.00  0.00    -0.297 N 
HETATM   10  C5  UNL     1      -0.018 -18.022 -48.344  1.00  0.00     0.166 A 
ATOM     11  H3  UNL     1      -1.195 -18.914 -46.951  1.00  0.00     0.171 HD
BRANCH  10  12
HETATM   12  O5  UNL     1       0.663 -17.172 -47.413  1.00  0.00    -0.345 OA
ATOM     13  H5  UNL     1       0.288 -16.985 -46.561  1.00  0.00     0.219 HD
ENDBRANCH  10  12
ENDBRANCH   3   5
BRANCH   1  14
HETATM   14  N1  UNL     1       2.323 -15.129 -51.162  1.00  0.00    -0.225 N 
ATOM     15  H1  UNL     1       3.281 -15.009 -50.835  1.00  0.00     0.200 HD
BRANCH  14  16
HETATM   16  S1  UNL     1       1.798 -14.528 -52.659  1.00  0.00     0.240 S 
HETATM   17  C1  UNL     1       0.159 -13.835 -52.616  1.00  0.00     0.187 C 
HETATM   18  O1  UNL     1       1.861 -15.558 -53.757  1.00  0.00    -0.205 OA
HETATM   19  O2  UNL     1       2.728 -13.412 -53.086  1.00  0.00    -0.205 OA
ENDBRANCH  14  16
ENDBRANCH   1  14
TORSDOF 4
ENDMDL
MODEL 2
REMARK VINA RESULT: -5.257372185      0.934      1.127
REMARK  4 active torsions:
REMARK  status: ('A' for Active; 'I' for Inactive)
REMARK    1  A    between atoms: S1_2  and  N1_5 
REMARK    2  A    between atoms: N1_5  and  N2_7 
REMARK       I    between atoms: N2_7  and  C2_9 
REMARK    3  A    between atoms: C2_9  and  C3_11 
REMARK    4  A    between atoms: C5_17  and  O5_18 
ROOT
HETATM    1  N2  UNL     1       1.244 -15.752 -50.579  1.00  0.00    -0.256 N 
ATOM      2  H2  UNL     1       0.491 -15.220 -50.142  1.00  0.00     0.191 HD
HETATM    3  C2  UNL     1       1.270 -17.130 -50.434  1.00  0.00     0.281 C 
HETATM    4  O3  UNL     1       2.219 -17.788 -50.988  1.00  0.00    -0.265 OA
ENDROOT
BRANCH   3   5
HETATM    5  C3  UNL     1       0.292 -17.947 -49.688  1.00  0.00     0.130 A 
HETATM    6  S2  UNL     1      -0.814 -19.111 -50.332  1.00  0.00    -0.019 SA
HETATM    7  C4  UNL     1      -1.545 -19.589 -48.872  1.00  0.00     0.290 A 
HETATM    8  O4  UNL     1      -2.473 -20.455 -48.691  1.00  0.00    -0.260 OA
HETATM    9  N3  UNL     1      -0.922 -18.850 -47.960  1.00  0.00    -0.297 N 
HETATM   10  C5  UNL     1       0.007 -18.016 -48.356  1.00  0.00     0.166 A 
ATOM     11  H3  UNL     1      -1.163 -18.930 -46.972  1.00  0.00     0.171 HD
BRANCH  10  12
HETATM   12  O5  UNL     1       0.709 -17.197 -47.412  1.00  0.00    -0.345 OA
ATOM     13  H5  UNL     1       0.235 -16.670 -46.780  1.00  0.00     0.219 HD
ENDBRANCH  10  12
ENDBRANCH   3   5
BRANCH   1  14
HETATM   14  N1  UNL     1       2.215 -15.079 -51.302  1.00  0.00    -0.225 N 
ATOM     15  H1  UNL     1       3.181 -15.010 -50.982  1.00  0.00     0.200 HD
BRANCH  14  16
HETATM   16  S1  UNL     1       1.693 -14.375 -52.755  1.00  0.00     0.240 S 
HETATM   17  C1  UNL     1       1.462 -15.547 -54.074  1.00  0.00     0.187 C 
HETATM   18  O1  UNL     1       2.608 -13.279 -53.234  1.00  0.00    -0.205 OA
HETATM   19  O2  UNL     1       0.349 -13.718 -52.520  1.00  0.00    -0.205 OA
ENDBRANCH  14  16
ENDBRANCH   1  14
TORSDOF 4
ENDMDL
MODEL 3
REMARK VINA RESULT: -5.107283856      2.177      2.355
REMARK  4 active torsions:
REMARK  status: ('A' for Active; 'I' for Inactive)
REMARK    1  A    between atoms: S1_2  and  N1_5 
REMARK    2  A    between atoms: N1_5  and  N2_7 
REMARK       I    between atoms: N2_7  and  C2_9 
REMARK    3  A    between atoms: C2_9  and  C3_11 
REMARK    4  A    between atoms: C5_17  and  O5_18 
ROOT
HETATM    1  N2  UNL     1       1.401 -16.127 -52.418  1.00  0.00    -0.256 N 
ATOM      2  H2  UNL     1       0.675 -15.416 -52.327  1.00  0.00     0.191 HD
HETATM    3  C2  UNL     1       1.524 -17.097 -51.436  1.00  0.00     0.281 C 
HETATM    4  O3  UNL     1       2.439 -17.985 -51.562  1.00  0.00    -0.265 OA
ENDROOT
BRANCH   3   5
HETATM    5  C3  UNL     1       0.689 -17.223 -50.225  1.00  0.00     0.130 A 
HETATM    6  S2  UNL     1      -0.950 -16.710 -50.019  1.00  0.00    -0.019 SA
HETATM    7  C4  UNL     1      -1.165 -17.209 -48.407  1.00  0.00     0.290 A 
HETATM    8  O4  UNL     1      -2.207 -17.100 -47.670  1.00  0.00    -0.260 OA
HETATM    9  N3  UNL     1       0.011 -17.743 -48.093  1.00  0.00    -0.297 N 
HETATM   10  C5  UNL     1       0.957 -17.758 -48.999  1.00  0.00     0.166 A 
ATOM     11  H3  UNL     1       0.174 -18.134 -47.165  1.00  0.00     0.171 HD
BRANCH  10  12
HETATM   12  O5  UNL     1       2.242 -18.324 -48.710  1.00  0.00    -0.345 OA
ATOM     13  H5  UNL     1       2.970 -17.770 -48.453  1.00  0.00     0.219 HD
ENDBRANCH  10  12
ENDBRANCH   3   5
BRANCH   1  14
HETATM   14  N1  UNL     1       2.241 -16.097 -53.519  1.00  0.00    -0.225 N 
ATOM     15  H1  UNL     1       2.120 -16.728 -54.312  1.00  0.00     0.200 HD
BRANCH  14  16
HETATM   16  S1  UNL     1       3.483 -14.944 -53.465  1.00  0.00     0.240 S 
HETATM   17  C1  UNL     1       4.257 -14.653 -55.041  1.00  0.00     0.187 C 
HETATM   18  O1  UNL     1       4.550 -15.281 -52.456  1.00  0.00    -0.205 OA
HETATM   19  O2  UNL     1       2.898 -13.620 -53.020  1.00  0.00    -0.205 OA
ENDBRANCH  14  16
ENDBRANCH   1  14
TORSDOF 4
ENDMDL
MODEL 4
REMARK VINA RESULT: -5.068173352      2.163      2.227
REMARK  4 active torsions:
REMARK  status: ('A' for Active; 'I' for Inactive)
REMARK    1  A    between atoms: S1_2  and  N1_5 
REMARK    2  A    between atoms: N1_5  and  N2_7 
REMARK       I    between atoms: N2_7  and  C2_9 
REMARK    3  A    between atoms: C2_9  and  C3_11 
REMARK    4  A    between atoms: C5_17  and  O5_18 
ROOT
HETATM    1  N2  UNL     1       1.410 -16.279 -52.491  1.00  0.00    -0.256 N 
ATOM      2  H2  UNL     1       0.668 -15.580 -52.438  1.00  0.00     0.191 HD
HETATM    3  C2  UNL     1       1.550 -17.196 -51.462  1.00  0.00     0.281 C 
HETATM    4  O3  UNL     1       2.484 -18.069 -51.540  1.00  0.00    -0.265 OA
ENDROOT
BRANCH   3   5
HETATM    5  C3  UNL     1       0.712 -17.280 -50.249  1.00  0.00     0.130 A 
HETATM    6  S2  UNL     1      -0.922 -16.745 -50.060  1.00  0.00    -0.019 SA
HETATM    7  C4  UNL     1      -1.144 -17.197 -48.435  1.00  0.00     0.290 A 
HETATM    8  O4  UNL     1      -2.186 -17.057 -47.702  1.00  0.00    -0.260 OA
HETATM    9  N3  UNL     1       0.026 -17.734 -48.104  1.00  0.00    -0.297 N 
HETATM   10  C5  UNL     1       0.973 -17.783 -49.008  1.00  0.00     0.166 A 
ATOM     11  H3  UNL     1       0.184 -18.100 -47.165  1.00  0.00     0.171 HD
BRANCH  10  12
HETATM   12  O5  UNL     1       2.252 -18.353 -48.701  1.00  0.00    -0.345 OA
ATOM     13  H5  UNL     1       2.392 -18.823 -47.888  1.00  0.00     0.219 HD
ENDBRANCH  10  12
ENDBRANCH   3   5
BRANCH   1  14
HETATM   14  N1  UNL     1       2.254 -16.286 -53.590  1.00  0.00    -0.225 N 
ATOM     15  H1  UNL     1       2.166 -16.973 -54.338  1.00  0.00     0.200 HD
BRANCH  14  16
HETATM   16  S1  UNL     1       3.443 -15.076 -53.610  1.00  0.00     0.240 S 
HETATM   17  C1  UNL     1       2.801 -13.438 -53.342  1.00  0.00     0.187 C 
HETATM   18  O1  UNL     1       4.255 -15.077 -54.879  1.00  0.00    -0.205 OA
HETATM   19  O2  UNL     1       4.426 -15.344 -52.490  1.00  0.00    -0.205 OA
ENDBRANCH  14  16
ENDBRANCH   1  14
TORSDOF 4
ENDMDL
MODEL 5
REMARK VINA RESULT: -5.036475587      1.785      1.919
REMARK  4 active torsions:
REMARK  status: ('A' for Active; 'I' for Inactive)
REMARK    1  A    between atoms: S1_2  and  N1_5 
REMARK    2  A    between atoms: N1_5  and  N2_7 
REMARK       I    between atoms: N2_7  and  C2_9 
REMARK    3  A    between atoms: C2_9  and  C3_11 
REMARK    4  A    between atoms: C5_17  and  O5_18 
ROOT
HETATM    1  N2  UNL     1       1.604 -15.063 -51.228  1.00  0.00    -0.256 N 
ATOM      2  H2  UNL     1       1.028 -14.405 -50.704  1.00  0.00     0.191 HD
HETATM    3  C2  UNL     1       1.530 -16.414 -50.928  1.00  0.00     0.281 C 
HETATM    4  O3  UNL     1       2.257 -17.232 -51.593  1.00  0.00    -0.265 OA
ENDROOT
BRANCH   3   5
HETATM    5  C3  UNL     1       0.677 -17.032 -49.893  1.00  0.00     0.130 A 
HETATM    6  S2  UNL     1      -1.022 -16.806 -49.658  1.00  0.00    -0.019 SA
HETATM    7  C4  UNL     1      -1.225 -17.836 -48.320  1.00  0.00     0.290 A 
HETATM    8  O4  UNL     1      -2.299 -18.099 -47.670  1.00  0.00    -0.260 OA
HETATM    9  N3  UNL     1      -0.001 -18.308 -48.108  1.00  0.00    -0.297 N 
HETATM   10  C5  UNL     1       0.970 -17.912 -48.893  1.00  0.00     0.166 A 
ATOM     11  H3  UNL     1       0.180 -18.966 -47.349  1.00  0.00     0.171 HD
BRANCH  10  12
HETATM   12  O5  UNL     1       2.307 -18.392 -48.706  1.00  0.00    -0.345 OA
ATOM     13  H5  UNL     1       3.054 -17.835 -48.889  1.00  0.00     0.219 HD
ENDBRANCH  10  12
ENDBRANCH   3   5
BRANCH   1  14
HETATM   14  N1  UNL     1       2.442 -14.585 -52.222  1.00  0.00    -0.225 N 
ATOM     15  H1  UNL     1       3.453 -14.715 -52.190  1.00  0.00     0.200 HD
BRANCH  14  16
HETATM   16  S1  UNL     1       1.677 -13.768 -53.497  1.00  0.00     0.240 S 
HETATM   17  C1  UNL     1       2.603 -12.378 -54.112  1.00  0.00     0.187 C 
HETATM   18  O1  UNL     1       0.286 -13.308 -53.145  1.00  0.00    -0.205 OA
HETATM   19  O2  UNL     1       1.513 -14.726 -54.658  1.00  0.00    -0.205 OA
ENDBRANCH  14  16
ENDBRANCH   1  14
TORSDOF 4
ENDMDL
