MODEL 1
REMARK VINA RESULT: -6.443450214      0.000      0.000
REMARK  9 active torsions:
REMARK  status: ('A' for Active; 'I' for Inactive)
REMARK    1  A    between atoms: C2_2  and  N1_3 
REMARK    2  A    between atoms: C2_2  and  C10_15 
REMARK    3  A    between atoms: N1_3  and  C3_5 
REMARK    4  A    between atoms: C3_5  and  C4_6 
REMARK    5  A    between atoms: C4_6  and  O1_7 
REMARK    6  A    between atoms: C4_6  and  C5_9 
REMARK    7  A    between atoms: C5_9  and  O2_10 
REMARK    8  A    between atoms: O2_10  and  C6_11 
REMARK       I    between atoms: C10_15  and  N2_17 
REMARK    9  A    between atoms: N2_17  and  C11_19 
ROOT
HETATM    1  C1  UNL     1      11.899   3.685  -1.337  1.00  0.00     0.042 C 
HETATM    2  C2  UNL     1      11.752   5.131  -1.730  1.00  0.00     0.169 C 
ENDROOT
BRANCH   2   3
HETATM    3  N1  UNL     1      10.520   5.601  -2.107  1.00  0.00    -0.387 N 
ATOM      4  H1  UNL     1       9.723   5.048  -1.791  1.00  0.00     0.159 HD
BRANCH   3   5
HETATM    5  C3  UNL     1      10.208   6.726  -2.858  1.00  0.00     0.090 C 
BRANCH   5   6
HETATM    6  C4  UNL     1       9.028   6.635  -3.829  1.00  0.00     0.179 C 
BRANCH   6   7
HETATM    7  O1  UNL     1       9.135   7.828  -4.609  1.00  0.00    -0.388 OA
ATOM      8  H1  UNL     1       8.236   8.121  -4.700  1.00  0.00     0.210 HD
ENDBRANCH   6   7
BRANCH   6   9
HETATM    9  C5  UNL     1       7.698   6.622  -3.187  1.00  0.00     0.205 C 
BRANCH   9  10
HETATM   10  O2  UNL     1       7.694   6.958  -1.872  1.00  0.00    -0.379 OA
BRANCH  10  11
HETATM   11  C6  UNL     1       6.808   7.974  -1.548  1.00  0.00     0.050 C 
HETATM   12  C7  UNL     1       6.778   8.250  -0.067  1.00  0.00     0.045 C 
HETATM   13  C8  UNL     1       7.307   9.301  -2.152  1.00  0.00     0.045 C 
HETATM   14  C9  UNL     1       5.465   7.729  -2.111  1.00  0.00     0.045 C 
ENDBRANCH  10  11
ENDBRANCH   9  10
ENDBRANCH   6   9
ENDBRANCH   5   6
ENDBRANCH   3   5
ENDBRANCH   2   3
BRANCH   2  15
HETATM   15  C10 UNL     1      12.363   5.908  -0.559  1.00  0.00     0.240 C 
HETATM   16  O3  UNL     1      13.523   6.288  -0.583  1.00  0.00    -0.271 OA
HETATM   17  N2  UNL     1      11.489   6.137   0.533  1.00  0.00    -0.350 N 
ATOM     18  H2  UNL     1      10.543   5.816   0.329  1.00  0.00     0.163 HD
BRANCH  17  19
HETATM   19  C11 UNL     1      11.579   6.684   1.810  1.00  0.00     0.037 C 
HETATM   20  C12 UNL     1      11.904   8.121   2.048  1.00  0.00     0.036 C 
HETATM   21  C13 UNL     1      11.258   8.354   3.425  1.00  0.00    -0.011 C 
HETATM   22  C14 UNL     1      11.778   7.437   4.483  1.00  0.00     0.009 C 
HETATM   23  C18 UNL     1       9.831   7.881   3.055  1.00  0.00     0.012 C 
HETATM   24  C15 UNL     1      11.815   5.993   4.038  1.00  0.00    -0.011 C 
HETATM   25  C16 UNL     1      10.422   5.567   3.613  1.00  0.00     0.012 C 
HETATM   26  C19 UNL     1      12.522   5.893   2.704  1.00  0.00     0.036 C 
HETATM   27  C17 UNL     1      10.175   6.534   2.499  1.00  0.00     0.014 C 
ENDBRANCH  17  19
ENDBRANCH   2  15
TORSDOF 9
ENDMDL
MODEL 2
REMARK VINA RESULT: -6.418233392      2.216      4.016
REMARK  9 active torsions:
REMARK  status: ('A' for Active; 'I' for Inactive)
REMARK    1  A    between atoms: C2_2  and  N1_3 
REMARK    2  A    between atoms: C2_2  and  C10_15 
REMARK    3  A    between atoms: N1_3  and  C3_5 
REMARK    4  A    between atoms: C3_5  and  C4_6 
REMARK    5  A    between atoms: C4_6  and  O1_7 
REMARK    6  A    between atoms: C4_6  and  C5_9 
REMARK    7  A    between atoms: C5_9  and  O2_10 
REMARK    8  A    between atoms: O2_10  and  C6_11 
REMARK       I    between atoms: C10_15  and  N2_17 
REMARK    9  A    between atoms: N2_17  and  C11_19 
ROOT
HETATM    1  C1  UNL     1       9.300   6.155  -4.178  1.00  0.00     0.042 C 
HETATM    2  C2  UNL     1       9.071   7.159  -3.080  1.00  0.00     0.169 C 
ENDROOT
BRANCH   2   3
HETATM    3  N1  UNL     1       7.839   7.750  -2.960  1.00  0.00    -0.387 N 
ATOM      4  H1  UNL     1       7.040   7.148  -3.160  1.00  0.00     0.159 HD
BRANCH   3   5
HETATM    5  C3  UNL     1       7.530   9.056  -2.601  1.00  0.00     0.090 C 
BRANCH   5   6
HETATM    6  C4  UNL     1       6.553   9.268  -1.441  1.00  0.00     0.179 C 
BRANCH   6   7
HETATM    7  O1  UNL     1       6.978   8.320  -0.460  1.00  0.00    -0.388 OA
ATOM      8  H1  UNL     1       6.895   8.792   0.361  1.00  0.00     0.210 HD
ENDBRANCH   6   7
BRANCH   6   9
HETATM    9  C5  UNL     1       5.139   8.994  -1.766  1.00  0.00     0.205 C 
BRANCH   9  10
HETATM   10  O2  UNL     1       4.885   8.780  -3.082  1.00  0.00    -0.379 OA
BRANCH  10  11
HETATM   11  C6  UNL     1       3.896   7.838  -3.324  1.00  0.00     0.050 C 
HETATM   12  C7  UNL     1       4.468   6.473  -3.603  1.00  0.00     0.045 C 
HETATM   13  C8  UNL     1       3.065   7.627  -2.044  1.00  0.00     0.045 C 
HETATM   14  C9  UNL     1       2.957   8.289  -4.371  1.00  0.00     0.045 C 
ENDBRANCH  10  11
ENDBRANCH   9  10
ENDBRANCH   6   9
ENDBRANCH   5   6
ENDBRANCH   3   5
ENDBRANCH   2   3
BRANCH   2  15
HETATM   15  C10 UNL     1       9.523   6.439  -1.805  1.00  0.00     0.240 C 
HETATM   16  O3  UNL     1       8.718   6.043  -0.977  1.00  0.00    -0.271 OA
HETATM   17  N2  UNL     1      10.925   6.281  -1.669  1.00  0.00    -0.350 N 
ATOM     18  H2  UNL     1      11.421   6.602  -2.500  1.00  0.00     0.163 HD
BRANCH  17  19
HETATM   19  C11 UNL     1      11.805   5.803  -0.702  1.00  0.00     0.037 C 
HETATM   20  C12 UNL     1      12.608   4.559  -0.890  1.00  0.00     0.036 C 
HETATM   21  C13 UNL     1      13.801   4.824   0.046  1.00  0.00    -0.011 C 
HETATM   22  C14 UNL     1      13.396   5.069   1.462  1.00  0.00     0.009 C 
HETATM   23  C18 UNL     1      14.229   6.182  -0.562  1.00  0.00     0.012 C 
HETATM   24  C15 UNL     1      12.265   6.064   1.582  1.00  0.00    -0.011 C 
HETATM   25  C16 UNL     1      12.676   7.367   0.920  1.00  0.00     0.012 C 
HETATM   26  C19 UNL     1      11.137   5.663   0.657  1.00  0.00     0.036 C 
HETATM   27  C17 UNL     1      12.914   6.892  -0.478  1.00  0.00     0.014 C 
ENDBRANCH  17  19
ENDBRANCH   2  15
TORSDOF 9
ENDMDL
MODEL 3
REMARK VINA RESULT: -6.371361415      0.933      1.176
REMARK  9 active torsions:
REMARK  status: ('A' for Active; 'I' for Inactive)
REMARK    1  A    between atoms: C2_2  and  N1_3 
REMARK    2  A    between atoms: C2_2  and  C10_15 
REMARK    3  A    between atoms: N1_3  and  C3_5 
REMARK    4  A    between atoms: C3_5  and  C4_6 
REMARK    5  A    between atoms: C4_6  and  O1_7 
REMARK    6  A    between atoms: C4_6  and  C5_9 
REMARK    7  A    between atoms: C5_9  and  O2_10 
REMARK    8  A    between atoms: O2_10  and  C6_11 
REMARK       I    between atoms: C10_15  and  N2_17 
REMARK    9  A    between atoms: N2_17  and  C11_19 
ROOT
HETATM    1  C1  UNL     1      11.907   4.001  -1.027  1.00  0.00     0.042 C 
HETATM    2  C2  UNL     1      11.604   5.441  -1.342  1.00  0.00     0.169 C 
ENDROOT
BRANCH   2   3
HETATM    3  N1  UNL     1      10.453   5.751  -2.019  1.00  0.00    -0.387 N 
ATOM      4  H1  UNL     1       9.667   5.119  -1.864  1.00  0.00     0.159 HD
BRANCH   3   5
HETATM    5  C3  UNL     1      10.210   6.807  -2.888  1.00  0.00     0.090 C 
BRANCH   5   6
HETATM    6  C4  UNL     1       9.030   6.681  -3.857  1.00  0.00     0.179 C 
BRANCH   6   7
HETATM    7  O1  UNL     1       9.105   7.873  -4.641  1.00  0.00    -0.388 OA
ATOM      8  H1  UNL     1       9.341   8.544  -4.011  1.00  0.00     0.210 HD
ENDBRANCH   6   7
BRANCH   6   9
HETATM    9  C5  UNL     1       7.703   6.635  -3.212  1.00  0.00     0.205 C 
BRANCH   9  10
HETATM   10  O2  UNL     1       7.687   7.004  -1.906  1.00  0.00    -0.379 OA
BRANCH  10  11
HETATM   11  C6  UNL     1       6.795   8.024  -1.614  1.00  0.00     0.050 C 
HETATM   12  C7  UNL     1       6.717   8.304  -0.135  1.00  0.00     0.045 C 
HETATM   13  C8  UNL     1       7.320   9.348  -2.204  1.00  0.00     0.045 C 
HETATM   14  C9  UNL     1       5.471   7.784  -2.221  1.00  0.00     0.045 C 
ENDBRANCH  10  11
ENDBRANCH   9  10
ENDBRANCH   6   9
ENDBRANCH   5   6
ENDBRANCH   3   5
ENDBRANCH   2   3
BRANCH   2  15
HETATM   15  C10 UNL     1      11.724   6.160   0.006  1.00  0.00     0.240 C 
HETATM   16  O3  UNL     1      12.723   6.797   0.302  1.00  0.00    -0.271 OA
HETATM   17  N2  UNL     1      10.606   6.019   0.866  1.00  0.00    -0.350 N 
ATOM     18  H2  UNL     1       9.842   5.521   0.408  1.00  0.00     0.163 HD
BRANCH  17  19
HETATM   19  C11 UNL     1      10.272   6.380   2.168  1.00  0.00     0.037 C 
HETATM   20  C12 UNL     1      10.245   7.800   2.626  1.00  0.00     0.036 C 
HETATM   21  C13 UNL     1       9.248   7.722   3.796  1.00  0.00    -0.011 C 
HETATM   22  C14 UNL     1       9.660   6.755   4.858  1.00  0.00     0.009 C 
HETATM   23  C18 UNL     1       8.075   7.086   3.011  1.00  0.00     0.012 C 
HETATM   24  C15 UNL     1      10.083   5.417   4.296  1.00  0.00    -0.011 C 
HETATM   25  C16 UNL     1       8.945   4.840   3.474  1.00  0.00     0.012 C 
HETATM   26  C19 UNL     1      11.101   5.628   3.198  1.00  0.00     0.036 C 
HETATM   27  C17 UNL     1       8.798   5.908   2.436  1.00  0.00     0.014 C 
ENDBRANCH  17  19
ENDBRANCH   2  15
TORSDOF 9
ENDMDL
MODEL 4
REMARK VINA RESULT: -6.308042236      0.538      1.486
REMARK  9 active torsions:
REMARK  status: ('A' for Active; 'I' for Inactive)
REMARK    1  A    between atoms: C2_2  and  N1_3 
REMARK    2  A    between atoms: C2_2  and  C10_15 
REMARK    3  A    between atoms: N1_3  and  C3_5 
REMARK    4  A    between atoms: C3_5  and  C4_6 
REMARK    5  A    between atoms: C4_6  and  O1_7 
REMARK    6  A    between atoms: C4_6  and  C5_9 
REMARK    7  A    between atoms: C5_9  and  O2_10 
REMARK    8  A    between atoms: O2_10  and  C6_11 
REMARK       I    between atoms: C10_15  and  N2_17 
REMARK    9  A    between atoms: N2_17  and  C11_19 
ROOT
HETATM    1  C1  UNL     1      11.911   3.715  -1.290  1.00  0.00     0.042 C 
HETATM    2  C2  UNL     1      11.738   5.163  -1.662  1.00  0.00     0.169 C 
ENDROOT
BRANCH   2   3
HETATM    3  N1  UNL     1      10.514   5.602  -2.095  1.00  0.00    -0.387 N 
ATOM      4  H1  UNL     1       9.719   5.017  -1.835  1.00  0.00     0.159 HD
BRANCH   3   5
HETATM    5  C3  UNL     1      10.207   6.734  -2.840  1.00  0.00     0.090 C 
BRANCH   5   6
HETATM    6  C4  UNL     1       9.014   6.659  -3.798  1.00  0.00     0.179 C 
BRANCH   6   7
HETATM    7  O1  UNL     1       9.145   7.837  -4.596  1.00  0.00    -0.388 OA
ATOM      8  H1  UNL     1       8.428   8.388  -4.306  1.00  0.00     0.210 HD
ENDBRANCH   6   7
BRANCH   6   9
HETATM    9  C5  UNL     1       7.692   6.690  -3.142  1.00  0.00     0.205 C 
BRANCH   9  10
HETATM   10  O2  UNL     1       7.715   6.984  -1.818  1.00  0.00    -0.379 OA
BRANCH  10  11
HETATM   11  C6  UNL     1       6.917   8.059  -1.460  1.00  0.00     0.050 C 
HETATM   12  C7  UNL     1       7.326   9.329  -2.159  1.00  0.00     0.045 C 
HETATM   13  C8  UNL     1       5.479   7.819  -1.961  1.00  0.00     0.045 C 
HETATM   14  C9  UNL     1       6.835   8.215   0.007  1.00  0.00     0.045 C 
ENDBRANCH  10  11
ENDBRANCH   9  10
ENDBRANCH   6   9
ENDBRANCH   5   6
ENDBRANCH   3   5
ENDBRANCH   2   3
BRANCH   2  15
HETATM   15  C10 UNL     1      12.259   5.933  -0.443  1.00  0.00     0.240 C 
HETATM   16  O3  UNL     1      13.261   6.629  -0.509  1.00  0.00    -0.271 OA
HETATM   17  N2  UNL     1      11.501   5.768   0.743  1.00  0.00    -0.350 N 
ATOM     18  H2  UNL     1      10.659   5.218   0.576  1.00  0.00     0.163 HD
BRANCH  17  19
HETATM   19  C11 UNL     1      11.600   6.157   2.076  1.00  0.00     0.037 C 
HETATM   20  C12 UNL     1      12.847   5.975   2.876  1.00  0.00     0.036 C 
HETATM   21  C13 UNL     1      12.691   7.079   3.937  1.00  0.00    -0.011 C 
HETATM   22  C14 UNL     1      11.437   6.954   4.739  1.00  0.00     0.009 C 
HETATM   23  C18 UNL     1      12.505   8.265   2.958  1.00  0.00     0.012 C 
HETATM   24  C15 UNL     1      10.215   6.724   3.880  1.00  0.00    -0.011 C 
HETATM   25  C16 UNL     1      10.087   7.860   2.882  1.00  0.00     0.012 C 
HETATM   26  C19 UNL     1      10.476   5.582   2.923  1.00  0.00     0.036 C 
HETATM   27  C17 UNL     1      11.379   7.711   2.142  1.00  0.00     0.014 C 
ENDBRANCH  17  19
ENDBRANCH   2  15
TORSDOF 9
ENDMDL
MODEL 5
REMARK VINA RESULT: -6.286591623      2.367      4.287
REMARK  9 active torsions:
REMARK  status: ('A' for Active; 'I' for Inactive)
REMARK    1  A    between atoms: C2_2  and  N1_3 
REMARK    2  A    between atoms: C2_2  and  C10_15 
REMARK    3  A    between atoms: N1_3  and  C3_5 
REMARK    4  A    between atoms: C3_5  and  C4_6 
REMARK    5  A    between atoms: C4_6  and  O1_7 
REMARK    6  A    between atoms: C4_6  and  C5_9 
REMARK    7  A    between atoms: C5_9  and  O2_10 
REMARK    8  A    between atoms: O2_10  and  C6_11 
REMARK       I    between atoms: C10_15  and  N2_17 
REMARK    9  A    between atoms: N2_17  and  C11_19 
ROOT
HETATM    1  C1  UNL     1       9.755   6.551  -3.979  1.00  0.00     0.042 C 
HETATM    2  C2  UNL     1       8.605   6.753  -3.028  1.00  0.00     0.169 C 
ENDROOT
BRANCH   2   3
HETATM    3  N1  UNL     1       7.457   6.024  -3.201  1.00  0.00    -0.387 N 
ATOM      4  H1  UNL     1       7.552   5.182  -3.769  1.00  0.00     0.159 HD
BRANCH   3   5
HETATM    5  C3  UNL     1       6.183   6.273  -2.707  1.00  0.00     0.090 C 
BRANCH   5   6
HETATM    6  C4  UNL     1       5.659   7.711  -2.770  1.00  0.00     0.179 C 
BRANCH   6   7
HETATM    7  O1  UNL     1       5.954   8.237  -1.474  1.00  0.00    -0.388 OA
ATOM      8  H1  UNL     1       5.465   7.675  -0.885  1.00  0.00     0.210 HD
ENDBRANCH   6   7
BRANCH   6   9
HETATM    9  C5  UNL     1       4.205   7.830  -2.997  1.00  0.00     0.205 C 
BRANCH   9  10
HETATM   10  O2  UNL     1       3.798   7.547  -4.260  1.00  0.00    -0.379 OA
BRANCH  10  11
HETATM   11  C6  UNL     1       2.855   6.534  -4.340  1.00  0.00     0.050 C 
HETATM   12  C7  UNL     1       2.341   6.127  -2.984  1.00  0.00     0.045 C 
HETATM   13  C8  UNL     1       1.597   7.061  -5.059  1.00  0.00     0.045 C 
HETATM   14  C9  UNL     1       3.348   5.389  -5.132  1.00  0.00     0.045 C 
ENDBRANCH  10  11
ENDBRANCH   9  10
ENDBRANCH   6   9
ENDBRANCH   5   6
ENDBRANCH   3   5
ENDBRANCH   2   3
BRANCH   2  15
HETATM   15  C10 UNL     1       9.226   6.583  -1.637  1.00  0.00     0.240 C 
HETATM   16  O3  UNL     1       8.669   7.003  -0.635  1.00  0.00    -0.271 OA
HETATM   17  N2  UNL     1      10.478   5.918  -1.614  1.00  0.00    -0.350 N 
ATOM     18  H2  UNL     1      10.736   5.573  -2.539  1.00  0.00     0.163 HD
BRANCH  17  19
HETATM   19  C11 UNL     1      11.449   5.611  -0.665  1.00  0.00     0.037 C 
HETATM   20  C12 UNL     1      12.407   4.479  -0.833  1.00  0.00     0.036 C 
HETATM   21  C13 UNL     1      13.585   4.948   0.040  1.00  0.00    -0.011 C 
HETATM   22  C14 UNL     1      13.201   5.205   1.460  1.00  0.00     0.009 C 
HETATM   23  C18 UNL     1      13.802   6.320  -0.644  1.00  0.00     0.012 C 
HETATM   24  C15 UNL     1      11.949   6.044   1.584  1.00  0.00    -0.011 C 
HETATM   25  C16 UNL     1      12.155   7.356   0.850  1.00  0.00     0.012 C 
HETATM   26  C19 UNL     1      10.855   5.449   0.725  1.00  0.00     0.036 C 
HETATM   27  C17 UNL     1      12.406   6.850  -0.536  1.00  0.00     0.014 C 
ENDBRANCH  17  19
ENDBRANCH   2  15
TORSDOF 9
ENDMDL
