MODEL 1
REMARK VINA RESULT: -6.705197763      0.000      0.000
REMARK  10 active torsions:
REMARK  status: ('A' for Active; 'I' for Inactive)
REMARK    1  A    between atoms: C5_5  and  O1_6 
REMARK    2  A    between atoms: C8_10  and  C9_11 
REMARK    3  A    between atoms: C9_11  and  O2_12 
REMARK    4  A    between atoms: C9_11  and  C10_14 
REMARK    5  A    between atoms: C10_14  and  C11_15 
REMARK    6  A    between atoms: C11_15  and  O3_17 
REMARK    7  A    between atoms: C11_15  and  C13_19 
REMARK    8  A    between atoms: C13_19  and  C14_20 
REMARK    9  A    between atoms: C14_20  and  C15_21 
REMARK   10  A    between atoms: C15_21  and  C16_22 
ROOT
HETATM    1  C1  UNL     1       9.939   5.293   6.468  1.00  0.00     0.015 C 
HETATM    2  C2  UNL     1      10.387   5.774   5.320  1.00  0.00    -0.083 C 
HETATM    3  C3  UNL     1      11.833   5.767   5.059  1.00  0.00     0.036 C 
HETATM    4  C4  UNL     1      12.082   5.887   3.594  1.00  0.00     0.037 C 
HETATM    5  C5  UNL     1      11.349   7.088   3.057  1.00  0.00     0.131 C 
HETATM    6  C6  UNL     1       9.861   6.981   3.181  1.00  0.00     0.015 A 
HETATM    7  C7  UNL     1       9.340   8.428   3.168  1.00  0.00     0.023 C 
HETATM    8  C8  UNL     1       9.228   6.326   2.015  1.00  0.00    -0.043 A 
HETATM    9  C17 UNL     1       8.453   5.356   2.433  1.00  0.00    -0.015 A 
HETATM   10  C18 UNL     1       8.447   5.214   3.898  1.00  0.00     0.013 A 
HETATM   11  C19 UNL     1       8.886   3.825   4.300  1.00  0.00     0.015 C 
HETATM   12  C20 UNL     1       9.363   6.290   4.375  1.00  0.00     0.036 A 
ENDROOT
BRANCH   8  13
HETATM   13  C9  UNL     1       9.402   6.670   0.561  1.00  0.00     0.150 C 
BRANCH  13  14
HETATM   14  O2  UNL     1       8.273   7.347   0.166  1.00  0.00    -0.391 OA
ATOM     15  H2  UNL     1       7.821   6.795  -0.462  1.00  0.00     0.210 HD
ENDBRANCH  13  14
BRANCH  13  16
HETATM   16  C10 UNL     1       9.723   5.461  -0.222  1.00  0.00     0.073 C 
BRANCH  16  17
HETATM   17  C11 UNL     1      10.864   5.586  -1.177  1.00  0.00     0.057 C 
HETATM   18  C12 UNL     1      10.473   6.386  -2.419  1.00  0.00     0.045 C 
BRANCH  17  19
HETATM   19  O3  UNL     1      11.182   4.321  -1.646  1.00  0.00    -0.390 OA
ATOM     20  H3  UNL     1      12.065   4.109  -1.364  1.00  0.00     0.210 HD
ENDBRANCH  17  19
BRANCH  17  21
HETATM   21  C13 UNL     1      12.078   6.228  -0.624  1.00  0.00     0.038 C 
BRANCH  21  22
HETATM   22  C14 UNL     1      13.080   5.362   0.044  1.00  0.00     0.013 C 
BRANCH  22  23
HETATM   23  C15 UNL     1      14.388   5.220  -0.643  1.00  0.00     0.113 C 
BRANCH  23  24
HETATM   24  C16 UNL     1      14.632   3.762  -0.935  1.00  0.00     0.172 C 
HETATM   25  O4  UNL     1      15.819   3.394  -1.095  1.00  0.00    -0.648 OA
HETATM   26  O5  UNL     1      13.582   2.859  -1.025  1.00  0.00    -0.648 OA
ENDBRANCH  23  24
ENDBRANCH  22  23
ENDBRANCH  21  22
ENDBRANCH  17  21
ENDBRANCH  16  17
ENDBRANCH  13  16
ENDBRANCH   8  13
BRANCH   5  27
HETATM   27  O1  UNL     1      11.824   8.237   3.680  1.00  0.00    -0.394 OA
ATOM     28  H1  UNL     1      11.116   8.863   3.771  1.00  0.00     0.210 HD
ENDBRANCH   5  27
TORSDOF 10
ENDMDL
MODEL 2
REMARK VINA RESULT: -6.567530217      0.922      1.197
REMARK  10 active torsions:
REMARK  status: ('A' for Active; 'I' for Inactive)
REMARK    1  A    between atoms: C5_5  and  O1_6 
REMARK    2  A    between atoms: C8_10  and  C9_11 
REMARK    3  A    between atoms: C9_11  and  O2_12 
REMARK    4  A    between atoms: C9_11  and  C10_14 
REMARK    5  A    between atoms: C10_14  and  C11_15 
REMARK    6  A    between atoms: C11_15  and  O3_17 
REMARK    7  A    between atoms: C11_15  and  C13_19 
REMARK    8  A    between atoms: C13_19  and  C14_20 
REMARK    9  A    between atoms: C14_20  and  C15_21 
REMARK   10  A    between atoms: C15_21  and  C16_22 
ROOT
HETATM    1  C1  UNL     1       9.738   5.368   6.594  1.00  0.00     0.015 C 
HETATM    2  C2  UNL     1      10.256   5.822   5.464  1.00  0.00    -0.083 C 
HETATM    3  C3  UNL     1      11.716   5.819   5.296  1.00  0.00     0.036 C 
HETATM    4  C4  UNL     1      12.057   5.902   3.847  1.00  0.00     0.037 C 
HETATM    5  C5  UNL     1      11.353   7.083   3.232  1.00  0.00     0.131 C 
HETATM    6  C6  UNL     1       9.860   6.968   3.264  1.00  0.00     0.015 A 
HETATM    7  C7  UNL     1       9.333   8.410   3.179  1.00  0.00     0.023 C 
HETATM    8  C8  UNL     1       9.307   6.278   2.078  1.00  0.00    -0.043 A 
HETATM    9  C17 UNL     1       8.513   5.314   2.472  1.00  0.00    -0.015 A 
HETATM   10  C18 UNL     1       8.414   5.211   3.936  1.00  0.00     0.013 A 
HETATM   11  C19 UNL     1       8.834   3.836   4.403  1.00  0.00     0.015 C 
HETATM   12  C20 UNL     1       9.291   6.306   4.442  1.00  0.00     0.036 A 
ENDROOT
BRANCH   8  13
HETATM   13  C9  UNL     1       9.572   6.584   0.630  1.00  0.00     0.150 C 
BRANCH  13  14
HETATM   14  O2  UNL     1       8.431   7.156   0.120  1.00  0.00    -0.391 OA
ATOM     15  H2  UNL     1       7.799   6.457  -0.005  1.00  0.00     0.210 HD
ENDBRANCH  13  14
BRANCH  13  16
HETATM   16  C10 UNL     1      10.047   5.379  -0.077  1.00  0.00     0.073 C 
BRANCH  16  17
HETATM   17  C11 UNL     1      11.221   5.571  -0.979  1.00  0.00     0.057 C 
HETATM   18  C12 UNL     1      12.289   6.453  -0.332  1.00  0.00     0.045 C 
BRANCH  17  19
HETATM   19  O3  UNL     1      10.801   6.274  -2.099  1.00  0.00    -0.390 OA
ATOM     20  H3  UNL     1       9.959   5.928  -2.371  1.00  0.00     0.210 HD
ENDBRANCH  17  19
BRANCH  17  21
HETATM   21  C13 UNL     1      11.899   4.325  -1.402  1.00  0.00     0.038 C 
BRANCH  21  22
HETATM   22  C14 UNL     1      13.296   4.107  -0.954  1.00  0.00     0.013 C 
BRANCH  22  23
HETATM   23  C15 UNL     1      13.829   2.731  -1.112  1.00  0.00     0.113 C 
BRANCH  23  24
HETATM   24  C16 UNL     1      15.245   2.810  -1.621  1.00  0.00     0.172 C 
HETATM   25  O4  UNL     1      16.060   3.497  -0.961  1.00  0.00    -0.648 OA
HETATM   26  O5  UNL     1      15.634   2.150  -2.778  1.00  0.00    -0.648 OA
ENDBRANCH  23  24
ENDBRANCH  22  23
ENDBRANCH  21  22
ENDBRANCH  17  21
ENDBRANCH  16  17
ENDBRANCH  13  16
ENDBRANCH   8  13
BRANCH   5  27
HETATM   27  O1  UNL     1      11.781   8.251   3.853  1.00  0.00    -0.394 OA
ATOM     28  H1  UNL     1      12.528   8.603   3.384  1.00  0.00     0.210 HD
ENDBRANCH   5  27
TORSDOF 10
ENDMDL
MODEL 3
REMARK VINA RESULT: -6.257499318      1.600      2.105
REMARK  10 active torsions:
REMARK  status: ('A' for Active; 'I' for Inactive)
REMARK    1  A    between atoms: C5_5  and  O1_6 
REMARK    2  A    between atoms: C8_10  and  C9_11 
REMARK    3  A    between atoms: C9_11  and  O2_12 
REMARK    4  A    between atoms: C9_11  and  C10_14 
REMARK    5  A    between atoms: C10_14  and  C11_15 
REMARK    6  A    between atoms: C11_15  and  O3_17 
REMARK    7  A    between atoms: C11_15  and  C13_19 
REMARK    8  A    between atoms: C13_19  and  C14_20 
REMARK    9  A    between atoms: C14_20  and  C15_21 
REMARK   10  A    between atoms: C15_21  and  C16_22 
ROOT
HETATM    1  C1  UNL     1       8.225   5.312   6.357  1.00  0.00     0.015 C 
HETATM    2  C2  UNL     1       9.252   5.697   5.617  1.00  0.00    -0.083 C 
HETATM    3  C3  UNL     1      10.615   5.486   6.123  1.00  0.00     0.036 C 
HETATM    4  C4  UNL     1      11.586   5.533   4.993  1.00  0.00     0.037 C 
HETATM    5  C5  UNL     1      11.391   6.808   4.216  1.00  0.00     0.131 C 
HETATM    6  C6  UNL     1      10.046   6.908   3.565  1.00  0.00     0.015 A 
HETATM    7  C7  UNL     1       9.798   8.412   3.359  1.00  0.00     0.023 C 
HETATM    8  C8  UNL     1      10.012   6.316   2.210  1.00  0.00    -0.043 A 
HETATM    9  C17 UNL     1       9.013   5.472   2.133  1.00  0.00    -0.015 A 
HETATM   10  C18 UNL     1       8.247   5.371   3.385  1.00  0.00     0.013 A 
HETATM   11  C19 UNL     1       8.236   3.946   3.888  1.00  0.00     0.015 C 
HETATM   12  C20 UNL     1       8.926   6.324   4.310  1.00  0.00     0.036 A 
ENDROOT
BRANCH   8  13
HETATM   13  C9  UNL     1      10.943   6.595   1.062  1.00  0.00     0.150 C 
BRANCH  13  14
HETATM   14  O2  UNL     1      10.169   6.715  -0.068  1.00  0.00    -0.391 OA
ATOM     15  H2  UNL     1      10.665   6.342  -0.788  1.00  0.00     0.210 HD
ENDBRANCH  13  14
BRANCH  13  16
HETATM   16  C10 UNL     1      12.006   5.574   0.997  1.00  0.00     0.073 C 
BRANCH  16  17
HETATM   17  C11 UNL     1      13.304   6.020   0.410  1.00  0.00     0.057 C 
HETATM   18  C12 UNL     1      14.243   6.577   1.480  1.00  0.00     0.045 C 
BRANCH  17  19
HETATM   19  O3  UNL     1      13.056   7.084  -0.444  1.00  0.00    -0.390 OA
ATOM     20  H3  UNL     1      13.341   6.841  -1.317  1.00  0.00     0.210 HD
ENDBRANCH  17  19
BRANCH  17  21
HETATM   21  C13 UNL     1      14.060   4.972  -0.313  1.00  0.00     0.038 C 
BRANCH  21  22
HETATM   22  C14 UNL     1      13.288   3.950  -1.062  1.00  0.00     0.013 C 
BRANCH  22  23
HETATM   23  C15 UNL     1      13.874   2.587  -1.107  1.00  0.00     0.113 C 
BRANCH  23  24
HETATM   24  C16 UNL     1      14.448   2.346  -2.479  1.00  0.00     0.172 C 
HETATM   25  O4  UNL     1      15.692   2.229  -2.574  1.00  0.00    -0.648 OA
HETATM   26  O5  UNL     1      13.631   2.259  -3.597  1.00  0.00    -0.648 OA
ENDBRANCH  23  24
ENDBRANCH  22  23
ENDBRANCH  21  22
ENDBRANCH  17  21
ENDBRANCH  16  17
ENDBRANCH  13  16
ENDBRANCH   8  13
BRANCH   5  27
HETATM   27  O1  UNL     1      11.630   7.898   5.046  1.00  0.00    -0.394 OA
ATOM     28  H1  UNL     1      12.565   7.992   5.182  1.00  0.00     0.210 HD
ENDBRANCH   5  27
TORSDOF 10
ENDMDL
MODEL 4
REMARK VINA RESULT: -6.245750683      1.826      3.517
REMARK  10 active torsions:
REMARK  status: ('A' for Active; 'I' for Inactive)
REMARK    1  A    between atoms: C5_5  and  O1_6 
REMARK    2  A    between atoms: C8_10  and  C9_11 
REMARK    3  A    between atoms: C9_11  and  O2_12 
REMARK    4  A    between atoms: C9_11  and  C10_14 
REMARK    5  A    between atoms: C10_14  and  C11_15 
REMARK    6  A    between atoms: C11_15  and  O3_17 
REMARK    7  A    between atoms: C11_15  and  C13_19 
REMARK    8  A    between atoms: C13_19  and  C14_20 
REMARK    9  A    between atoms: C14_20  and  C15_21 
REMARK   10  A    between atoms: C15_21  and  C16_22 
ROOT
HETATM    1  C1  UNL     1      10.392   9.894   5.308  1.00  0.00     0.015 C 
HETATM    2  C2  UNL     1      10.269   8.815   4.552  1.00  0.00    -0.083 C 
HETATM    3  C3  UNL     1       8.949   8.475   4.003  1.00  0.00     0.036 C 
HETATM    4  C4  UNL     1       9.108   7.556   2.840  1.00  0.00     0.037 C 
HETATM    5  C5  UNL     1       9.946   6.372   3.246  1.00  0.00     0.131 C 
HETATM    6  C6  UNL     1      11.345   6.740   3.633  1.00  0.00     0.015 A 
HETATM    7  C7  UNL     1      11.833   5.602   4.546  1.00  0.00     0.023 C 
HETATM    8  C8  UNL     1      12.279   6.751   2.486  1.00  0.00    -0.043 A 
HETATM    9  C17 UNL     1      12.921   7.892   2.464  1.00  0.00    -0.015 A 
HETATM   10  C18 UNL     1      12.529   8.795   3.558  1.00  0.00     0.013 A 
HETATM   11  C19 UNL     1      12.013  10.104   3.007  1.00  0.00     0.015 C 
HETATM   12  C20 UNL     1      11.506   8.025   4.322  1.00  0.00     0.036 A 
ENDROOT
BRANCH   8  13
HETATM   13  C9  UNL     1      12.504   5.662   1.474  1.00  0.00     0.150 C 
BRANCH  13  14
HETATM   14  O2  UNL     1      13.772   5.173   1.678  1.00  0.00    -0.391 OA
ATOM     15  H2  UNL     1      14.083   4.841   0.844  1.00  0.00     0.210 HD
ENDBRANCH  13  14
BRANCH  13  16
HETATM   16  C10 UNL     1      12.227   6.155   0.111  1.00  0.00     0.073 C 
BRANCH  16  17
HETATM   17  C11 UNL     1      11.178   5.415  -0.651  1.00  0.00     0.057 C 
HETATM   18  C12 UNL     1      10.901   6.067  -2.005  1.00  0.00     0.045 C 
BRANCH  17  19
HETATM   19  O3  UNL     1       9.984   5.507   0.047  1.00  0.00    -0.390 OA
ATOM     20  H3  UNL     1       9.743   4.637   0.345  1.00  0.00     0.210 HD
ENDBRANCH  17  19
BRANCH  17  21
HETATM   21  C13 UNL     1      11.485   3.992  -0.920  1.00  0.00     0.038 C 
BRANCH  21  22
HETATM   22  C14 UNL     1      12.712   3.679  -1.693  1.00  0.00     0.013 C 
BRANCH  22  23
HETATM   23  C15 UNL     1      13.641   2.697  -1.081  1.00  0.00     0.113 C 
BRANCH  23  24
HETATM   24  C16 UNL     1      15.055   3.193  -1.243  1.00  0.00     0.172 C 
HETATM   25  O4  UNL     1      15.427   4.134  -0.504  1.00  0.00    -0.648 OA
HETATM   26  O5  UNL     1      15.914   2.631  -2.177  1.00  0.00    -0.648 OA
ENDBRANCH  23  24
ENDBRANCH  22  23
ENDBRANCH  21  22
ENDBRANCH  17  21
ENDBRANCH  16  17
ENDBRANCH  13  16
ENDBRANCH   8  13
BRANCH   5  27
HETATM   27  O1  UNL     1       9.306   5.682   4.270  1.00  0.00    -0.394 OA
ATOM     28  H1  UNL     1       9.604   4.780   4.277  1.00  0.00     0.210 HD
ENDBRANCH   5  27
TORSDOF 10
ENDMDL
MODEL 5
REMARK VINA RESULT: -6.240068053      1.627      2.094
REMARK  10 active torsions:
REMARK  status: ('A' for Active; 'I' for Inactive)
REMARK    1  A    between atoms: C5_5  and  O1_6 
REMARK    2  A    between atoms: C8_10  and  C9_11 
REMARK    3  A    between atoms: C9_11  and  O2_12 
REMARK    4  A    between atoms: C9_11  and  C10_14 
REMARK    5  A    between atoms: C10_14  and  C11_15 
REMARK    6  A    between atoms: C11_15  and  O3_17 
REMARK    7  A    between atoms: C11_15  and  C13_19 
REMARK    8  A    between atoms: C13_19  and  C14_20 
REMARK    9  A    between atoms: C14_20  and  C15_21 
REMARK   10  A    between atoms: C15_21  and  C16_22 
ROOT
HETATM    1  C1  UNL     1       7.998   5.795   6.581  1.00  0.00     0.015 C 
HETATM    2  C2  UNL     1       8.612   6.474   5.626  1.00  0.00    -0.083 C 
HETATM    3  C3  UNL     1       9.781   7.294   5.972  1.00  0.00     0.036 C 
HETATM    4  C4  UNL     1      10.583   7.570   4.746  1.00  0.00     0.037 C 
HETATM    5  C5  UNL     1       9.692   8.158   3.684  1.00  0.00     0.131 C 
HETATM    6  C6  UNL     1       8.614   7.224   3.229  1.00  0.00     0.015 A 
HETATM    7  C7  UNL     1       7.505   8.121   2.654  1.00  0.00     0.023 C 
HETATM    8  C8  UNL     1       9.035   6.355   2.108  1.00  0.00    -0.043 A 
HETATM    9  C17 UNL     1       8.775   5.107   2.408  1.00  0.00    -0.015 A 
HETATM   10  C18 UNL     1       8.160   4.950   3.736  1.00  0.00     0.013 A 
HETATM   11  C19 UNL     1       8.999   4.044   4.607  1.00  0.00     0.015 C 
HETATM   12  C20 UNL     1       8.049   6.343   4.257  1.00  0.00     0.036 A 
ENDROOT
BRANCH   8  13
HETATM   13  C9  UNL     1       9.664   6.773   0.807  1.00  0.00     0.150 C 
BRANCH  13  14
HETATM   14  O2  UNL     1       8.672   6.768  -0.144  1.00  0.00    -0.391 OA
ATOM     15  H2  UNL     1       8.444   7.674  -0.317  1.00  0.00     0.210 HD
ENDBRANCH  13  14
BRANCH  13  16
HETATM   16  C10 UNL     1      10.837   5.931   0.504  1.00  0.00     0.073 C 
BRANCH  16  17
HETATM   17  C11 UNL     1      12.161   6.481   0.921  1.00  0.00     0.057 C 
HETATM   18  C12 UNL     1      12.657   5.833   2.214  1.00  0.00     0.045 C 
BRANCH  17  19
HETATM   19  O3  UNL     1      11.999   7.824   1.229  1.00  0.00    -0.390 OA
ATOM     20  H3  UNL     1      11.138   8.097   0.934  1.00  0.00     0.210 HD
ENDBRANCH  17  19
BRANCH  17  21
HETATM   21  C13 UNL     1      13.246   6.329  -0.074  1.00  0.00     0.038 C 
BRANCH  21  22
HETATM   22  C14 UNL     1      14.137   5.149   0.044  1.00  0.00     0.013 C 
BRANCH  22  23
HETATM   23  C15 UNL     1      13.801   3.984  -0.812  1.00  0.00     0.113 C 
BRANCH  23  24
HETATM   24  C16 UNL     1      15.078   3.367  -1.322  1.00  0.00     0.172 C 
HETATM   25  O4  UNL     1      16.101   3.479  -0.607  1.00  0.00    -0.648 OA
HETATM   26  O5  UNL     1      15.121   2.701  -2.539  1.00  0.00    -0.648 OA
ENDBRANCH  23  24
ENDBRANCH  22  23
ENDBRANCH  21  22
ENDBRANCH  17  21
ENDBRANCH  16  17
ENDBRANCH  13  16
ENDBRANCH   8  13
BRANCH   5  27
HETATM   27  O1  UNL     1       9.157   9.358   4.140  1.00  0.00    -0.394 OA
ATOM     28  H1  UNL     1       9.252   9.407   5.084  1.00  0.00     0.210 HD
ENDBRANCH   5  27
TORSDOF 10
ENDMDL
