MODEL 1
REMARK VINA RESULT: -7.467098131      0.000      0.000
REMARK  9 active torsions:
REMARK  status: ('A' for Active; 'I' for Inactive)
REMARK    1  A    between atoms: O1_2  and  C2_3 
REMARK    2  A    between atoms: C2_3  and  O2_4 
REMARK    3  A    between atoms: O2_4  and  C3_5 
REMARK    4  A    between atoms: C3_5  and  C4_6 
REMARK    5  A    between atoms: C11_13  and  O3_14 
REMARK    6  A    between atoms: C12_16  and  O4_17 
REMARK    7  A    between atoms: C13_19  and  C14_20 
REMARK    8  A    between atoms: C15_21  and  C16_22 
REMARK    9  A    between atoms: C21_27  and  C22_28 
ROOT
HETATM    1  C2  UNL     1       4.541  62.277  23.603  1.00  0.00     0.166 C 
HETATM    2  C10 UNL     1       5.748  62.824  22.824  1.00  0.00     0.102 C 
HETATM    3  C11 UNL     1       5.316  62.959  21.404  1.00  0.00     0.152 C 
HETATM    4  C12 UNL     1       5.571  61.581  20.765  1.00  0.00     0.154 C 
HETATM    5  C13 UNL     1       5.163  60.574  21.829  1.00  0.00     0.044 C 
HETATM    6  C23 UNL     1       4.074  61.083  22.708  1.00  0.00     0.079 C 
ENDROOT
BRANCH   5   7
HETATM    7  C14 UNL     1       4.578  59.422  21.069  1.00  0.00    -0.023 C 
HETATM    8  C15 UNL     1       4.814  58.156  21.397  1.00  0.00    -0.025 C 
BRANCH   8   9
HETATM    9  C16 UNL     1       4.228  57.023  20.636  1.00  0.00     0.022 C 
HETATM   10  C17 UNL     1       3.092  57.441  19.757  1.00  0.00     0.009 C 
HETATM   11  C18 UNL     1       2.143  56.395  19.359  1.00  0.00     0.001 C 
HETATM   12  C19 UNL     1       2.155  55.118  20.092  1.00  0.00     0.001 C 
HETATM   13  C20 UNL     1       3.470  54.742  20.715  1.00  0.00     0.016 C 
HETATM   14  C21 UNL     1       3.867  55.931  21.603  1.00  0.00     0.094 C 
BRANCH  14  15
HETATM   15  C22 UNL     1       2.794  56.284  22.533  1.00  0.00     0.177 C 
HETATM   16  O5  UNL     1       2.642  57.412  23.066  1.00  0.00    -0.648 OA
HETATM   17  O6  UNL     1       1.866  55.302  22.858  1.00  0.00    -0.648 OA
ENDBRANCH  14  15
ENDBRANCH   8   9
ENDBRANCH   5   7
BRANCH   4  18
HETATM   18  O4  UNL     1       6.948  61.506  20.562  1.00  0.00    -0.392 OA
ATOM     19  H4  UNL     1       7.295  61.039  21.313  1.00  0.00     0.210 HD
ENDBRANCH   4  18
BRANCH   3  20
HETATM   20  O3  UNL     1       5.967  63.959  20.705  1.00  0.00    -0.393 OA
ATOM     21  H3  UNL     1       6.036  63.801  19.771  1.00  0.00     0.210 HD
ENDBRANCH   3  20
BRANCH   1  22
HETATM   22  O1  UNL     1       3.520  63.084  23.658  1.00  0.00    -0.360 OA
HETATM   23  C1  UNL     1       2.952  63.827  24.544  1.00  0.00     0.205 C 
ENDBRANCH   1  22
BRANCH   1  24
HETATM   24  O2  UNL     1       5.083  61.657  24.698  1.00  0.00    -0.350 OA
BRANCH  24  25
HETATM   25  C3  UNL     1       4.377  60.617  25.177  1.00  0.00     0.210 C 
BRANCH  25  26
HETATM   26  C4  UNL     1       5.305  59.498  25.609  1.00  0.00    -0.035 A 
HETATM   27  C5  UNL     1       6.094  59.627  26.728  1.00  0.00     0.009 A 
HETATM   28  C6  UNL     1       6.944  58.594  27.117  1.00  0.00     0.001 A 
HETATM   29  C7  UNL     1       7.021  57.420  26.399  1.00  0.00     0.000 A 
HETATM   30  C8  UNL     1       6.231  57.293  25.278  1.00  0.00     0.001 A 
HETATM   31  C9  UNL     1       5.381  58.328  24.890  1.00  0.00     0.009 A 
ENDBRANCH  25  26
ENDBRANCH  24  25
ENDBRANCH   1  24
TORSDOF 9
ENDMDL
MODEL 2
REMARK VINA RESULT: -7.041869524      1.786      5.676
REMARK  9 active torsions:
REMARK  status: ('A' for Active; 'I' for Inactive)
REMARK    1  A    between atoms: O1_2  and  C2_3 
REMARK    2  A    between atoms: C2_3  and  O2_4 
REMARK    3  A    between atoms: O2_4  and  C3_5 
REMARK    4  A    between atoms: C3_5  and  C4_6 
REMARK    5  A    between atoms: C11_13  and  O3_14 
REMARK    6  A    between atoms: C12_16  and  O4_17 
REMARK    7  A    between atoms: C13_19  and  C14_20 
REMARK    8  A    between atoms: C15_21  and  C16_22 
REMARK    9  A    between atoms: C21_27  and  C22_28 
ROOT
HETATM    1  C2  UNL     1       5.249  60.281  21.183  1.00  0.00     0.166 C 
HETATM    2  C10 UNL     1       4.754  61.736  21.192  1.00  0.00     0.102 C 
HETATM    3  C11 UNL     1       5.722  62.514  22.016  1.00  0.00     0.152 C 
HETATM    4  C12 UNL     1       5.231  62.375  23.468  1.00  0.00     0.154 C 
HETATM    5  C13 UNL     1       4.770  60.930  23.589  1.00  0.00     0.044 C 
HETATM    6  C23 UNL     1       5.532  60.012  22.698  1.00  0.00     0.079 C 
ENDROOT
BRANCH   5   7
HETATM    7  C14 UNL     1       5.115  60.528  24.991  1.00  0.00    -0.023 C 
HETATM    8  C15 UNL     1       5.651  59.348  25.285  1.00  0.00    -0.025 C 
BRANCH   8   9
HETATM    9  C16 UNL     1       5.988  58.961  26.679  1.00  0.00     0.022 C 
HETATM   10  C17 UNL     1       6.813  57.716  26.751  1.00  0.00     0.009 C 
HETATM   11  C18 UNL     1       6.787  56.977  28.019  1.00  0.00     0.001 C 
HETATM   12  C19 UNL     1       5.729  57.290  28.994  1.00  0.00     0.001 C 
HETATM   13  C20 UNL     1       5.181  58.688  28.928  1.00  0.00     0.016 C 
HETATM   14  C21 UNL     1       4.717  58.886  27.478  1.00  0.00     0.094 C 
BRANCH  14  15
HETATM   15  C22 UNL     1       3.807  57.819  27.058  1.00  0.00     0.177 C 
HETATM   16  O5  UNL     1       3.902  57.170  25.986  1.00  0.00    -0.648 OA
HETATM   17  O6  UNL     1       2.754  57.494  27.903  1.00  0.00    -0.648 OA
ENDBRANCH  14  15
ENDBRANCH   8   9
ENDBRANCH   5   7
BRANCH   4  18
HETATM   18  O4  UNL     1       4.129  63.221  23.580  1.00  0.00    -0.392 OA
ATOM     19  H4  UNL     1       4.415  64.064  23.250  1.00  0.00     0.210 HD
ENDBRANCH   4  18
BRANCH   3  20
HETATM   20  O3  UNL     1       5.834  63.845  21.655  1.00  0.00    -0.393 OA
ATOM     21  H3  UNL     1       6.698  64.214  21.791  1.00  0.00     0.210 HD
ENDBRANCH   3  20
BRANCH   1  22
HETATM   22  O1  UNL     1       6.392  60.100  20.584  1.00  0.00    -0.360 OA
HETATM   23  C1  UNL     1       7.148  60.762  19.778  1.00  0.00     0.205 C 
ENDBRANCH   1  22
BRANCH   1  24
HETATM   24  O2  UNL     1       4.130  59.532  20.934  1.00  0.00    -0.350 OA
BRANCH  24  25
HETATM   25  C3  UNL     1       4.344  58.386  20.262  1.00  0.00     0.210 C 
BRANCH  25  26
HETATM   26  C4  UNL     1       3.563  57.248  20.890  1.00  0.00    -0.035 A 
HETATM   27  C5  UNL     1       3.425  57.155  22.255  1.00  0.00     0.009 A 
HETATM   28  C6  UNL     1       2.705  56.105  22.823  1.00  0.00     0.001 A 
HETATM   29  C7  UNL     1       2.115  55.134  22.042  1.00  0.00     0.000 A 
HETATM   30  C8  UNL     1       2.256  55.229  20.675  1.00  0.00     0.001 A 
HETATM   31  C9  UNL     1       2.976  56.281  20.108  1.00  0.00     0.009 A 
ENDBRANCH  25  26
ENDBRANCH  24  25
ENDBRANCH   1  24
TORSDOF 9
ENDMDL
MODEL 3
REMARK VINA RESULT: -6.930953364      2.529      7.345
REMARK  9 active torsions:
REMARK  status: ('A' for Active; 'I' for Inactive)
REMARK    1  A    between atoms: O1_2  and  C2_3 
REMARK    2  A    between atoms: C2_3  and  O2_4 
REMARK    3  A    between atoms: O2_4  and  C3_5 
REMARK    4  A    between atoms: C3_5  and  C4_6 
REMARK    5  A    between atoms: C11_13  and  O3_14 
REMARK    6  A    between atoms: C12_16  and  O4_17 
REMARK    7  A    between atoms: C13_19  and  C14_20 
REMARK    8  A    between atoms: C15_21  and  C16_22 
REMARK    9  A    between atoms: C21_27  and  C22_28 
ROOT
HETATM    1  C2  UNL     1       4.417  58.381  23.783  1.00  0.00     0.166 C 
HETATM    2  C10 UNL     1       5.463  57.798  24.746  1.00  0.00     0.102 C 
HETATM    3  C11 UNL     1       4.997  58.114  26.127  1.00  0.00     0.152 C 
HETATM    4  C12 UNL     1       5.548  59.520  26.433  1.00  0.00     0.154 C 
HETATM    5  C13 UNL     1       5.387  60.295  25.135  1.00  0.00     0.044 C 
HETATM    6  C23 UNL     1       4.220  59.831  24.334  1.00  0.00     0.079 C 
ENDROOT
BRANCH   5   7
HETATM    7  C14 UNL     1       5.067  61.698  25.558  1.00  0.00    -0.023 C 
HETATM    8  C15 UNL     1       4.014  62.362  25.093  1.00  0.00    -0.025 C 
BRANCH   8   9
HETATM    9  C16 UNL     1       3.708  63.752  25.519  1.00  0.00     0.022 C 
HETATM   10  C17 UNL     1       4.433  64.148  26.766  1.00  0.00     0.009 C 
HETATM   11  C18 UNL     1       3.861  65.255  27.541  1.00  0.00     0.001 C 
HETATM   12  C19 UNL     1       2.478  65.672  27.256  1.00  0.00     0.001 C 
HETATM   13  C20 UNL     1       1.996  65.407  25.858  1.00  0.00     0.016 C 
HETATM   14  C21 UNL     1       2.216  63.906  25.618  1.00  0.00     0.094 C 
BRANCH  14  15
HETATM   15  C22 UNL     1       1.598  63.101  26.673  1.00  0.00     0.177 C 
HETATM   16  O5  UNL     1       2.188  62.218  27.345  1.00  0.00    -0.648 OA
HETATM   17  O6  UNL     1       0.258  63.324  26.959  1.00  0.00    -0.648 OA
ENDBRANCH  14  15
ENDBRANCH   8   9
ENDBRANCH   5   7
BRANCH   4  18
HETATM   18  O4  UNL     1       6.905  59.346  26.701  1.00  0.00    -0.392 OA
ATOM     19  H4  UNL     1       7.181  60.132  27.157  1.00  0.00     0.210 HD
ENDBRANCH   4  18
BRANCH   3  20
HETATM   20  O3  UNL     1       5.401  57.203  27.085  1.00  0.00    -0.393 OA
ATOM     21  H3  UNL     1       5.240  56.296  26.853  1.00  0.00     0.210 HD
ENDBRANCH   3  20
BRANCH   1  22
HETATM   22  O1  UNL     1       3.242  57.824  23.856  1.00  0.00    -0.360 OA
HETATM   23  C1  UNL     1       2.715  56.690  23.546  1.00  0.00     0.205 C 
ENDBRANCH   1  22
BRANCH   1  24
HETATM   24  O2  UNL     1       5.095  58.580  22.609  1.00  0.00    -0.350 OA
BRANCH  24  25
HETATM   25  C3  UNL     1       4.521  59.445  21.754  1.00  0.00     0.210 C 
BRANCH  25  26
HETATM   26  C4  UNL     1       5.558  60.389  21.177  1.00  0.00    -0.035 A 
HETATM   27  C5  UNL     1       5.545  61.728  21.490  1.00  0.00     0.009 A 
HETATM   28  C6  UNL     1       6.503  62.589  20.955  1.00  0.00     0.001 A 
HETATM   29  C7  UNL     1       7.484  62.129  20.103  1.00  0.00     0.000 A 
HETATM   30  C8  UNL     1       7.494  60.788  19.790  1.00  0.00     0.001 A 
HETATM   31  C9  UNL     1       6.536  59.928  20.326  1.00  0.00     0.009 A 
ENDBRANCH  25  26
ENDBRANCH  24  25
ENDBRANCH   1  24
TORSDOF 9
ENDMDL
MODEL 4
REMARK VINA RESULT: -6.894017252      2.582      6.627
REMARK  9 active torsions:
REMARK  status: ('A' for Active; 'I' for Inactive)
REMARK    1  A    between atoms: O1_2  and  C2_3 
REMARK    2  A    between atoms: C2_3  and  O2_4 
REMARK    3  A    between atoms: O2_4  and  C3_5 
REMARK    4  A    between atoms: C3_5  and  C4_6 
REMARK    5  A    between atoms: C11_13  and  O3_14 
REMARK    6  A    between atoms: C12_16  and  O4_17 
REMARK    7  A    between atoms: C13_19  and  C14_20 
REMARK    8  A    between atoms: C15_21  and  C16_22 
REMARK    9  A    between atoms: C21_27  and  C22_28 
ROOT
HETATM    1  C2  UNL     1       5.089  60.434  20.967  1.00  0.00     0.166 C 
HETATM    2  C10 UNL     1       4.881  59.217  20.052  1.00  0.00     0.102 C 
HETATM    3  C11 UNL     1       3.616  58.562  20.490  1.00  0.00     0.152 C 
HETATM    4  C12 UNL     1       4.023  57.599  21.620  1.00  0.00     0.154 C 
HETATM    5  C13 UNL     1       5.071  58.355  22.421  1.00  0.00     0.044 C 
HETATM    6  C23 UNL     1       4.859  59.829  22.391  1.00  0.00     0.079 C 
ENDROOT
BRANCH   5   7
HETATM    7  C14 UNL     1       4.852  57.935  23.843  1.00  0.00    -0.023 C 
HETATM    8  C15 UNL     1       5.823  57.946  24.750  1.00  0.00    -0.025 C 
BRANCH   8   9
HETATM    9  C16 UNL     1       5.593  57.526  26.157  1.00  0.00     0.022 C 
HETATM   10  C17 UNL     1       4.144  57.505  26.524  1.00  0.00     0.009 C 
HETATM   11  C18 UNL     1       3.822  57.598  27.953  1.00  0.00     0.001 C 
HETATM   12  C19 UNL     1       4.874  58.039  28.884  1.00  0.00     0.001 C 
HETATM   13  C20 UNL     1       6.284  57.755  28.449  1.00  0.00     0.016 C 
HETATM   14  C21 UNL     1       6.428  58.391  27.058  1.00  0.00     0.094 C 
BRANCH  14  15
HETATM   15  C22 UNL     1       6.032  59.800  27.073  1.00  0.00     0.177 C 
HETATM   16  O5  UNL     1       5.102  60.296  26.388  1.00  0.00    -0.648 OA
HETATM   17  O6  UNL     1       6.734  60.663  27.904  1.00  0.00    -0.648 OA
ENDBRANCH  14  15
ENDBRANCH   8   9
ENDBRANCH   5   7
BRANCH   4  18
HETATM   18  O4  UNL     1       4.621  56.508  20.993  1.00  0.00    -0.392 OA
ATOM     19  H4  UNL     1       5.182  56.108  21.647  1.00  0.00     0.210 HD
ENDBRANCH   4  18
BRANCH   3  20
HETATM   20  O3  UNL     1       2.945  57.892  19.483  1.00  0.00    -0.393 OA
ATOM     21  H3  UNL     1       3.141  58.205  18.608  1.00  0.00     0.210 HD
ENDBRANCH   3  20
BRANCH   1  22
HETATM   22  O1  UNL     1       4.189  61.368  20.842  1.00  0.00    -0.360 OA
HETATM   23  C1  UNL     1       4.087  62.621  21.120  1.00  0.00     0.205 C 
ENDBRANCH   1  22
BRANCH   1  24
HETATM   24  O2  UNL     1       6.439  60.667  20.939  1.00  0.00    -0.350 OA
BRANCH  24  25
HETATM   25  C3  UNL     1       7.122  59.969  20.013  1.00  0.00     0.210 C 
BRANCH  25  26
HETATM   26  C4  UNL     1       7.653  60.895  18.935  1.00  0.00    -0.035 A 
HETATM   27  C5  UNL     1       7.743  62.250  19.149  1.00  0.00     0.009 A 
HETATM   28  C6  UNL     1       8.232  63.093  18.153  1.00  0.00     0.001 A 
HETATM   29  C7  UNL     1       8.637  62.599  16.931  1.00  0.00     0.000 A 
HETATM   30  C8  UNL     1       8.545  61.241  16.718  1.00  0.00     0.001 A 
HETATM   31  C9  UNL     1       8.056  60.400  17.717  1.00  0.00     0.009 A 
ENDBRANCH  25  26
ENDBRANCH  24  25
ENDBRANCH   1  24
TORSDOF 9
ENDMDL
MODEL 5
REMARK VINA RESULT: -6.880774572      2.407      6.269
REMARK  9 active torsions:
REMARK  status: ('A' for Active; 'I' for Inactive)
REMARK    1  A    between atoms: O1_2  and  C2_3 
REMARK    2  A    between atoms: C2_3  and  O2_4 
REMARK    3  A    between atoms: O2_4  and  C3_5 
REMARK    4  A    between atoms: C3_5  and  C4_6 
REMARK    5  A    between atoms: C11_13  and  O3_14 
REMARK    6  A    between atoms: C12_16  and  O4_17 
REMARK    7  A    between atoms: C13_19  and  C14_20 
REMARK    8  A    between atoms: C15_21  and  C16_22 
REMARK    9  A    between atoms: C21_27  and  C22_28 
ROOT
HETATM    1  C2  UNL     1       3.198  57.614  26.838  1.00  0.00     0.166 C 
HETATM    2  C10 UNL     1       4.457  57.147  27.587  1.00  0.00     0.102 C 
HETATM    3  C11 UNL     1       5.085  58.365  28.172  1.00  0.00     0.152 C 
HETATM    4  C12 UNL     1       5.995  58.929  27.065  1.00  0.00     0.154 C 
HETATM    5  C13 UNL     1       5.205  58.747  25.778  1.00  0.00     0.044 C 
HETATM    6  C23 UNL     1       3.734  58.818  25.996  1.00  0.00     0.079 C 
ENDROOT
BRANCH   5   7
HETATM    7  C14 UNL     1       5.556  59.936  24.934  1.00  0.00    -0.023 C 
HETATM    8  C15 UNL     1       4.670  60.549  24.158  1.00  0.00    -0.025 C 
BRANCH   8   9
HETATM    9  C16 UNL     1       5.030  61.726  23.326  1.00  0.00     0.022 C 
HETATM   10  C17 UNL     1       3.845  62.560  22.959  1.00  0.00     0.009 C 
HETATM   11  C18 UNL     1       3.982  63.421  21.779  1.00  0.00     0.001 C 
HETATM   12  C19 UNL     1       5.100  63.174  20.854  1.00  0.00     0.001 C 
HETATM   13  C20 UNL     1       6.317  62.538  21.464  1.00  0.00     0.016 C 
HETATM   14  C21 UNL     1       5.821  61.251  22.139  1.00  0.00     0.094 C 
BRANCH  14  15
HETATM   15  C22 UNL     1       5.061  60.418  21.207  1.00  0.00     0.177 C 
HETATM   16  O5  UNL     1       3.811  60.284  21.212  1.00  0.00    -0.648 OA
HETATM   17  O6  UNL     1       5.767  59.718  20.237  1.00  0.00    -0.648 OA
ENDBRANCH  14  15
ENDBRANCH   8   9
ENDBRANCH   5   7
BRANCH   4  18
HETATM   18  O4  UNL     1       7.117  58.104  27.038  1.00  0.00    -0.392 OA
ATOM     19  H4  UNL     1       7.826  58.641  26.705  1.00  0.00     0.210 HD
ENDBRANCH   4  18
BRANCH   3  20
HETATM   20  O3  UNL     1       5.800  58.134  29.333  1.00  0.00    -0.393 OA
ATOM     21  H3  UNL     1       5.963  58.913  29.851  1.00  0.00     0.210 HD
ENDBRANCH   3  20
BRANCH   1  22
HETATM   22  O1  UNL     1       2.268  58.115  27.600  1.00  0.00    -0.360 OA
HETATM   23  C1  UNL     1       1.609  59.218  27.679  1.00  0.00     0.205 C 
ENDBRANCH   1  22
BRANCH   1  24
HETATM   24  O2  UNL     1       2.973  56.646  25.895  1.00  0.00    -0.350 OA
BRANCH  24  25
HETATM   25  C3  UNL     1       2.079  56.969  24.943  1.00  0.00     0.210 C 
BRANCH  25  26
HETATM   26  C4  UNL     1       2.547  56.478  23.586  1.00  0.00    -0.035 A 
HETATM   27  C5  UNL     1       1.985  55.365  23.005  1.00  0.00     0.009 A 
HETATM   28  C6  UNL     1       2.422  54.921  21.758  1.00  0.00     0.001 A 
HETATM   29  C7  UNL     1       3.423  55.577  21.074  1.00  0.00     0.000 A 
HETATM   30  C8  UNL     1       3.985  56.690  21.658  1.00  0.00     0.001 A 
HETATM   31  C9  UNL     1       3.547  57.133  22.905  1.00  0.00     0.009 A 
ENDBRANCH  25  26
ENDBRANCH  24  25
ENDBRANCH   1  24
TORSDOF 9
ENDMDL
