MODEL 1
REMARK VINA RESULT: -7.704840511      0.000      0.000
REMARK  9 active torsions:
REMARK  status: ('A' for Active; 'I' for Inactive)
REMARK    1  A    between atoms: C2_2  and  C3_3 
REMARK    2  A    between atoms: C2_2  and  C14_16 
REMARK    3  A    between atoms: C3_3  and  N1_4 
REMARK    4  A    between atoms: C6_7  and  C7_8 
REMARK    5  A    between atoms: C14_16  and  O2_17 
REMARK    6  A    between atoms: C14_16  and  N2_19 
REMARK    7  A    between atoms: N2_19  and  C15_22 
REMARK    8  A    between atoms: C15_22  and  C16_23 
REMARK    9  A    between atoms: C20_30  and  C21_31 
ROOT
HETATM    1  N2  UNL     1       5.190  62.800  23.215  1.00  0.00    -0.047 N 
ATOM      2  H21 UNL     1       5.713  63.646  23.443  1.00  0.00     0.280 HD
ATOM      3  H22 UNL     1       5.732  62.131  23.764  1.00  0.00     0.280 HD
ENDROOT
BRANCH   1   4
HETATM    4  C14 UNL     1       5.247  62.506  21.820  1.00  0.00     0.323 C 
BRANCH   4   5
HETATM    5  C2  UNL     1       5.714  61.125  21.454  1.00  0.00     0.056 C 
HETATM    6  C1  UNL     1       6.782  61.206  20.426  1.00  0.00     0.016 C 
BRANCH   5   7
HETATM    7  C3  UNL     1       4.498  60.348  21.011  1.00  0.00     0.134 C 
BRANCH   7   8
HETATM    8  N1  UNL     1       4.390  59.041  21.619  1.00  0.00    -0.351 N 
HETATM    9  C4  UNL     1       4.732  58.771  22.999  1.00  0.00     0.127 C 
HETATM   10  C5  UNL     1       4.216  57.379  23.296  1.00  0.00     0.039 C 
HETATM   11  C6  UNL     1       4.315  56.715  21.967  1.00  0.00     0.112 C 
HETATM   12  C13 UNL     1       3.959  57.822  21.030  1.00  0.00     0.228 C 
HETATM   13  O1  UNL     1       3.387  57.664  19.938  1.00  0.00    -0.273 OA
BRANCH  11  14
HETATM   14  C7  UNL     1       3.414  55.554  21.819  1.00  0.00    -0.045 A 
HETATM   15  C8  UNL     1       3.639  54.542  20.928  1.00  0.00     0.008 A 
HETATM   16  C9  UNL     1       2.758  53.481  20.838  1.00  0.00     0.001 A 
HETATM   17  C10 UNL     1       1.633  53.419  21.642  1.00  0.00     0.000 A 
HETATM   18  C11 UNL     1       1.398  54.423  22.533  1.00  0.00     0.001 A 
HETATM   19  C12 UNL     1       2.293  55.495  22.622  1.00  0.00     0.008 A 
ENDBRANCH  11  14
ENDBRANCH   7   8
ENDBRANCH   5   7
ENDBRANCH   4   5
BRANCH   4  20
HETATM   20  O2  UNL     1       6.028  63.499  21.222  1.00  0.00    -0.369 OA
ATOM     21  H2  UNL     1       6.435  64.067  21.865  1.00  0.00     0.212 HD
ENDBRANCH   4  20
ENDBRANCH   1   4
BRANCH   1  22
HETATM   22  C15 UNL     1       3.840  62.877  23.663  1.00  0.00     0.268 C 
BRANCH  22  23
HETATM   23  C16 UNL     1       3.761  62.510  25.161  1.00  0.00     0.217 C 
HETATM   24  N3  UNL     1       4.758  63.312  25.801  1.00  0.00    -0.069 N 
HETATM   25  C17 UNL     1       4.856  63.037  27.198  1.00  0.00     0.233 C 
ATOM     26  H32 UNL     1       5.663  63.212  25.341  1.00  0.00     0.277 HD
ATOM     27  H31 UNL     1       4.599  64.304  25.630  1.00  0.00     0.277 HD
HETATM   28  C18 UNL     1       5.265  61.613  27.406  1.00  0.00     0.028 C 
HETATM   29  C19 UNL     1       5.116  60.740  26.207  1.00  0.00     0.010 C 
HETATM   30  C20 UNL     1       3.923  61.037  25.358  1.00  0.00     0.040 C 
BRANCH  30  31
HETATM   31  C21 UNL     1       2.638  60.389  25.851  1.00  0.00     0.082 C 
HETATM   32  C22 UNL     1       1.670  60.141  24.730  1.00  0.00     0.025 C 
HETATM   33  C23 UNL     1       0.429  59.524  25.395  1.00  0.00     0.004 C 
HETATM   34  C24 UNL     1       0.862  58.119  25.792  1.00  0.00     0.019 C 
HETATM   35  C25 UNL     1       2.234  58.050  26.365  1.00  0.00     0.114 C 
HETATM   36  N4  UNL     1       2.836  59.282  26.724  1.00  0.00    -0.417 N 
ATOM     37  H4  UNL     1       3.389  59.372  27.576  1.00  0.00     0.153 HD
ENDBRANCH  30  31
ENDBRANCH  22  23
ENDBRANCH   1  22
TORSDOF 9
ENDMDL
MODEL 2
REMARK VINA RESULT: -7.675114653      2.130      6.057
REMARK  9 active torsions:
REMARK  status: ('A' for Active; 'I' for Inactive)
REMARK    1  A    between atoms: C2_2  and  C3_3 
REMARK    2  A    between atoms: C2_2  and  C14_16 
REMARK    3  A    between atoms: C3_3  and  N1_4 
REMARK    4  A    between atoms: C6_7  and  C7_8 
REMARK    5  A    between atoms: C14_16  and  O2_17 
REMARK    6  A    between atoms: C14_16  and  N2_19 
REMARK    7  A    between atoms: N2_19  and  C15_22 
REMARK    8  A    between atoms: C15_22  and  C16_23 
REMARK    9  A    between atoms: C20_30  and  C21_31 
ROOT
HETATM    1  N2  UNL     1       2.136  60.417  25.203  1.00  0.00    -0.047 N 
ATOM      2  H21 UNL     1       1.317  60.677  25.752  1.00  0.00     0.280 HD
ATOM      3  H22 UNL     1       2.760  60.159  25.967  1.00  0.00     0.280 HD
ENDROOT
BRANCH   1   4
HETATM    4  C14 UNL     1       2.643  61.523  24.458  1.00  0.00     0.323 C 
BRANCH   4   5
HETATM    5  C2  UNL     1       4.119  61.505  24.170  1.00  0.00     0.056 C 
HETATM    6  C1  UNL     1       4.863  62.120  25.298  1.00  0.00     0.016 C 
BRANCH   5   7
HETATM    7  C3  UNL     1       4.322  62.206  22.849  1.00  0.00     0.134 C 
BRANCH   7   8
HETATM    8  N1  UNL     1       5.180  61.487  21.935  1.00  0.00    -0.351 N 
HETATM    9  C4  UNL     1       5.121  60.053  21.743  1.00  0.00     0.127 C 
HETATM   10  C5  UNL     1       5.968  59.755  20.525  1.00  0.00     0.039 C 
HETATM   11  C6  UNL     1       6.990  60.837  20.579  1.00  0.00     0.112 C 
HETATM   12  C13 UNL     1       6.200  61.998  21.088  1.00  0.00     0.228 C 
HETATM   13  O1  UNL     1       6.426  63.185  20.799  1.00  0.00    -0.273 OA
BRANCH  11  14
HETATM   14  C7  UNL     1       7.615  61.124  19.272  1.00  0.00    -0.045 A 
HETATM   15  C8  UNL     1       8.348  62.252  19.025  1.00  0.00     0.008 A 
HETATM   16  C9  UNL     1       8.908  62.463  17.780  1.00  0.00     0.001 A 
HETATM   17  C10 UNL     1       8.741  61.543  16.759  1.00  0.00     0.000 A 
HETATM   18  C11 UNL     1       8.012  60.415  16.994  1.00  0.00     0.001 A 
HETATM   19  C12 UNL     1       7.447  60.206  18.256  1.00  0.00     0.008 A 
ENDBRANCH  11  14
ENDBRANCH   7   8
ENDBRANCH   5   7
ENDBRANCH   4   5
BRANCH   4  20
HETATM   20  O2  UNL     1       2.255  62.685  25.131  1.00  0.00    -0.369 OA
ATOM     21  H2  UNL     1       1.320  62.838  25.067  1.00  0.00     0.212 HD
ENDBRANCH   4  20
ENDBRANCH   1   4
BRANCH   1  22
HETATM   22  C15 UNL     1       1.866  59.310  24.347  1.00  0.00     0.268 C 
BRANCH  22  23
HETATM   23  C16 UNL     1       2.639  58.066  24.836  1.00  0.00     0.217 C 
HETATM   24  N3  UNL     1       2.979  58.341  26.198  1.00  0.00    -0.069 N 
HETATM   25  C17 UNL     1       3.764  57.300  26.778  1.00  0.00     0.233 C 
ATOM     26  H32 UNL     1       3.442  59.246  26.287  1.00  0.00     0.277 HD
ATOM     27  H31 UNL     1       2.146  58.531  26.755  1.00  0.00     0.277 HD
HETATM   28  C18 UNL     1       5.058  57.171  26.040  1.00  0.00     0.028 C 
HETATM   29  C19 UNL     1       5.088  57.844  24.710  1.00  0.00     0.010 C 
HETATM   30  C20 UNL     1       3.806  57.780  23.946  1.00  0.00     0.040 C 
BRANCH  30  31
HETATM   31  C21 UNL     1       3.617  56.490  23.164  1.00  0.00     0.082 C 
HETATM   32  C22 UNL     1       2.229  55.939  23.319  1.00  0.00     0.025 C 
HETATM   33  C23 UNL     1       2.218  54.634  22.506  1.00  0.00     0.004 C 
HETATM   34  C24 UNL     1       2.248  55.084  21.052  1.00  0.00     0.019 C 
HETATM   35  C25 UNL     1       3.177  56.218  20.792  1.00  0.00     0.114 C 
HETATM   36  N4  UNL     1       4.094  56.540  21.823  1.00  0.00    -0.417 N 
ATOM     37  H4  UNL     1       5.059  56.796  21.613  1.00  0.00     0.153 HD
ENDBRANCH  30  31
ENDBRANCH  22  23
ENDBRANCH   1  22
TORSDOF 9
ENDMDL
MODEL 3
REMARK VINA RESULT: -7.562132206      2.473      5.464
REMARK  9 active torsions:
REMARK  status: ('A' for Active; 'I' for Inactive)
REMARK    1  A    between atoms: C2_2  and  C3_3 
REMARK    2  A    between atoms: C2_2  and  C14_16 
REMARK    3  A    between atoms: C3_3  and  N1_4 
REMARK    4  A    between atoms: C6_7  and  C7_8 
REMARK    5  A    between atoms: C14_16  and  O2_17 
REMARK    6  A    between atoms: C14_16  and  N2_19 
REMARK    7  A    between atoms: N2_19  and  C15_22 
REMARK    8  A    between atoms: C15_22  and  C16_23 
REMARK    9  A    between atoms: C20_30  and  C21_31 
ROOT
HETATM    1  N2  UNL     1       5.216  61.753  26.444  1.00  0.00    -0.047 N 
ATOM      2  H21 UNL     1       6.171  61.930  26.132  1.00  0.00     0.280 HD
ATOM      3  H22 UNL     1       4.931  61.106  25.709  1.00  0.00     0.280 HD
ENDROOT
BRANCH   1   4
HETATM    4  C14 UNL     1       4.429  62.943  26.434  1.00  0.00     0.323 C 
BRANCH   4   5
HETATM    5  C2  UNL     1       3.649  63.209  25.176  1.00  0.00     0.056 C 
HETATM    6  C1  UNL     1       2.656  64.286  25.414  1.00  0.00     0.016 C 
BRANCH   5   7
HETATM    7  C3  UNL     1       3.038  61.898  24.747  1.00  0.00     0.134 C 
BRANCH   7   8
HETATM    8  N1  UNL     1       3.616  61.354  23.539  1.00  0.00    -0.351 N 
HETATM    9  C4  UNL     1       2.910  60.459  22.647  1.00  0.00     0.127 C 
HETATM   10  C5  UNL     1       3.754  60.361  21.394  1.00  0.00     0.039 C 
HETATM   11  C6  UNL     1       5.131  60.559  21.924  1.00  0.00     0.112 C 
HETATM   12  C13 UNL     1       4.916  61.566  23.006  1.00  0.00     0.228 C 
HETATM   13  O1  UNL     1       5.750  62.421  23.349  1.00  0.00    -0.273 OA
BRANCH  11  14
HETATM   14  C7  UNL     1       6.092  61.034  20.908  1.00  0.00    -0.045 A 
HETATM   15  C8  UNL     1       6.293  62.358  20.632  1.00  0.00     0.008 A 
HETATM   16  C9  UNL     1       7.208  62.740  19.669  1.00  0.00     0.001 A 
HETATM   17  C10 UNL     1       7.937  61.797  18.965  1.00  0.00     0.000 A 
HETATM   18  C11 UNL     1       7.743  60.474  19.231  1.00  0.00     0.001 A 
HETATM   19  C12 UNL     1       6.816  60.092  20.207  1.00  0.00     0.008 A 
ENDBRANCH  11  14
ENDBRANCH   7   8
ENDBRANCH   5   7
ENDBRANCH   4   5
BRANCH   4  20
HETATM   20  O2  UNL     1       5.281  64.003  26.756  1.00  0.00    -0.369 OA
ATOM     21  H2  UNL     1       5.226  64.237  27.675  1.00  0.00     0.212 HD
ENDBRANCH   4  20
ENDBRANCH   1   4
BRANCH   1  22
HETATM   22  C15 UNL     1       5.187  61.137  27.728  1.00  0.00     0.268 C 
BRANCH  22  23
HETATM   23  C16 UNL     1       5.010  59.610  27.576  1.00  0.00     0.217 C 
HETATM   24  N3  UNL     1       5.520  59.046  28.787  1.00  0.00    -0.069 N 
HETATM   25  C17 UNL     1       5.487  57.620  28.772  1.00  0.00     0.233 C 
ATOM     26  H32 UNL     1       6.458  59.391  28.989  1.00  0.00     0.277 HD
ATOM     27  H31 UNL     1       5.032  59.419  29.601  1.00  0.00     0.277 HD
HETATM   28  C18 UNL     1       6.357  57.104  27.670  1.00  0.00     0.028 C 
HETATM   29  C19 UNL     1       6.740  58.122  26.650  1.00  0.00     0.010 C 
HETATM   30  C20 UNL     1       5.675  59.120  26.329  1.00  0.00     0.040 C 
BRANCH  30  31
HETATM   31  C21 UNL     1       4.663  58.634  25.303  1.00  0.00     0.082 C 
HETATM   32  C22 UNL     1       5.236  57.569  24.413  1.00  0.00     0.025 C 
HETATM   33  C23 UNL     1       4.111  57.218  23.425  1.00  0.00     0.004 C 
HETATM   34  C24 UNL     1       3.089  56.457  24.258  1.00  0.00     0.019 C 
HETATM   35  C25 UNL     1       2.859  57.039  25.609  1.00  0.00     0.114 C 
HETATM   36  N4  UNL     1       3.379  58.337  25.840  1.00  0.00    -0.417 N 
ATOM     37  H4  UNL     1       2.852  59.031  26.370  1.00  0.00     0.153 HD
ENDBRANCH  30  31
ENDBRANCH  22  23
ENDBRANCH   1  22
TORSDOF 9
ENDMDL
MODEL 4
REMARK VINA RESULT: -7.329313171      1.401      2.092
REMARK  9 active torsions:
REMARK  status: ('A' for Active; 'I' for Inactive)
REMARK    1  A    between atoms: C2_2  and  C3_3 
REMARK    2  A    between atoms: C2_2  and  C14_16 
REMARK    3  A    between atoms: C3_3  and  N1_4 
REMARK    4  A    between atoms: C6_7  and  C7_8 
REMARK    5  A    between atoms: C14_16  and  O2_17 
REMARK    6  A    between atoms: C14_16  and  N2_19 
REMARK    7  A    between atoms: N2_19  and  C15_22 
REMARK    8  A    between atoms: C15_22  and  C16_23 
REMARK    9  A    between atoms: C20_30  and  C21_31 
ROOT
HETATM    1  N2  UNL     1       5.095  61.929  23.856  1.00  0.00    -0.047 N 
ATOM      2  H21 UNL     1       5.722  62.629  24.252  1.00  0.00     0.280 HD
ATOM      3  H22 UNL     1       5.602  61.090  24.138  1.00  0.00     0.280 HD
ENDROOT
BRANCH   1   4
HETATM    4  C14 UNL     1       5.008  62.042  22.437  1.00  0.00     0.323 C 
BRANCH   4   5
HETATM    5  C2  UNL     1       5.555  60.885  21.647  1.00  0.00     0.056 C 
HETATM    6  C1  UNL     1       6.476  61.381  20.595  1.00  0.00     0.016 C 
BRANCH   5   7
HETATM    7  C3  UNL     1       4.373  60.114  21.111  1.00  0.00     0.134 C 
BRANCH   7   8
HETATM    8  N1  UNL     1       4.247  58.785  21.664  1.00  0.00    -0.351 N 
HETATM    9  C4  UNL     1       4.555  58.459  23.040  1.00  0.00     0.127 C 
HETATM   10  C5  UNL     1       4.028  57.059  23.270  1.00  0.00     0.039 C 
HETATM   11  C6  UNL     1       4.155  56.448  21.919  1.00  0.00     0.112 C 
HETATM   12  C13 UNL     1       3.825  57.593  21.018  1.00  0.00     0.228 C 
HETATM   13  O1  UNL     1       3.278  57.480  19.908  1.00  0.00    -0.273 OA
BRANCH  11  14
HETATM   14  C7  UNL     1       3.254  55.297  21.704  1.00  0.00    -0.045 A 
HETATM   15  C8  UNL     1       3.519  54.296  20.811  1.00  0.00     0.008 A 
HETATM   16  C9  UNL     1       2.636  53.245  20.657  1.00  0.00     0.001 A 
HETATM   17  C10 UNL     1       1.468  53.182  21.398  1.00  0.00     0.000 A 
HETATM   18  C11 UNL     1       1.193  54.175  22.290  1.00  0.00     0.001 A 
HETATM   19  C12 UNL     1       2.090  55.237  22.443  1.00  0.00     0.008 A 
ENDBRANCH  11  14
ENDBRANCH   7   8
ENDBRANCH   5   7
ENDBRANCH   4   5
BRANCH   4  20
HETATM   20  O2  UNL     1       5.612  63.251  22.082  1.00  0.00    -0.369 OA
ATOM     21  H2  UNL     1       5.187  63.995  22.491  1.00  0.00     0.212 HD
ENDBRANCH   4  20
ENDBRANCH   1   4
BRANCH   1  22
HETATM   22  C15 UNL     1       3.801  61.986  24.450  1.00  0.00     0.268 C 
BRANCH  22  23
HETATM   23  C16 UNL     1       3.822  61.288  25.827  1.00  0.00     0.217 C 
HETATM   24  N3  UNL     1       3.316  62.254  26.751  1.00  0.00    -0.069 N 
HETATM   25  C17 UNL     1       3.335  61.776  28.095  1.00  0.00     0.233 C 
ATOM     26  H32 UNL     1       3.812  63.141  26.667  1.00  0.00     0.277 HD
ATOM     27  H31 UNL     1       2.382  62.566  26.483  1.00  0.00     0.277 HD
HETATM   28  C18 UNL     1       4.744  61.495  28.513  1.00  0.00     0.028 C 
HETATM   29  C19 UNL     1       5.721  61.410  27.390  1.00  0.00     0.010 C 
HETATM   30  C20 UNL     1       5.193  60.778  26.144  1.00  0.00     0.040 C 
BRANCH  30  31
HETATM   31  C21 UNL     1       5.241  59.258  26.154  1.00  0.00     0.082 C 
HETATM   32  C22 UNL     1       6.497  58.743  26.796  1.00  0.00     0.025 C 
HETATM   33  C23 UNL     1       6.405  57.212  26.694  1.00  0.00     0.004 C 
HETATM   34  C24 UNL     1       5.324  56.822  27.693  1.00  0.00     0.019 C 
HETATM   35  C25 UNL     1       4.143  57.728  27.687  1.00  0.00     0.114 C 
HETATM   36  N4  UNL     1       4.042  58.635  26.602  1.00  0.00    -0.417 N 
ATOM     37  H4  UNL     1       3.145  58.833  26.159  1.00  0.00     0.153 HD
ENDBRANCH  30  31
ENDBRANCH  22  23
ENDBRANCH   1  22
TORSDOF 9
ENDMDL
MODEL 5
REMARK VINA RESULT: -7.318565495      2.154      5.833
REMARK  9 active torsions:
REMARK  status: ('A' for Active; 'I' for Inactive)
REMARK    1  A    between atoms: C2_2  and  C3_3 
REMARK    2  A    between atoms: C2_2  and  C14_16 
REMARK    3  A    between atoms: C3_3  and  N1_4 
REMARK    4  A    between atoms: C6_7  and  C7_8 
REMARK    5  A    between atoms: C14_16  and  O2_17 
REMARK    6  A    between atoms: C14_16  and  N2_19 
REMARK    7  A    between atoms: N2_19  and  C15_22 
REMARK    8  A    between atoms: C15_22  and  C16_23 
REMARK    9  A    between atoms: C20_30  and  C21_31 
ROOT
HETATM    1  N2  UNL     1       2.431  58.053  25.220  1.00  0.00    -0.047 N 
ATOM      2  H21 UNL     1       1.459  58.348  25.131  1.00  0.00     0.280 HD
ATOM      3  H22 UNL     1       2.817  58.550  24.417  1.00  0.00     0.280 HD
ENDROOT
BRANCH   1   4
HETATM    4  C14 UNL     1       2.568  56.639  25.081  1.00  0.00     0.323 C 
BRANCH   4   5
HETATM    5  C2  UNL     1       2.330  56.084  23.704  1.00  0.00     0.056 C 
HETATM    6  C1  UNL     1       1.555  54.822  23.793  1.00  0.00     0.016 C 
BRANCH   5   7
HETATM    7  C3  UNL     1       3.681  55.927  23.050  1.00  0.00     0.134 C 
BRANCH   7   8
HETATM    8  N1  UNL     1       4.005  56.987  22.123  1.00  0.00    -0.351 N 
HETATM    9  C4  UNL     1       3.731  56.920  20.704  1.00  0.00     0.127 C 
HETATM   10  C5  UNL     1       3.960  58.315  20.163  1.00  0.00     0.039 C 
HETATM   11  C6  UNL     1       5.011  58.840  21.078  1.00  0.00     0.112 C 
HETATM   12  C13 UNL     1       4.623  58.239  22.389  1.00  0.00     0.228 C 
HETATM   13  O1  UNL     1       4.822  58.770  23.494  1.00  0.00    -0.273 OA
BRANCH  11  14
HETATM   14  C7  UNL     1       5.059  60.315  21.137  1.00  0.00    -0.045 A 
HETATM   15  C8  UNL     1       3.955  61.089  21.364  1.00  0.00     0.008 A 
HETATM   16  C9  UNL     1       4.065  62.466  21.409  1.00  0.00     0.001 A 
HETATM   17  C10 UNL     1       5.287  63.090  21.226  1.00  0.00     0.000 A 
HETATM   18  C11 UNL     1       6.394  62.327  20.997  1.00  0.00     0.001 A 
HETATM   19  C12 UNL     1       6.278  60.934  20.954  1.00  0.00     0.008 A 
ENDBRANCH  11  14
ENDBRANCH   7   8
ENDBRANCH   5   7
ENDBRANCH   4   5
BRANCH   4  20
HETATM   20  O2  UNL     1       1.733  56.050  26.035  1.00  0.00    -0.369 OA
ATOM     21  H2  UNL     1       1.821  56.459  26.887  1.00  0.00     0.212 HD
ENDBRANCH   4  20
ENDBRANCH   1   4
BRANCH   1  22
HETATM   22  C15 UNL     1       3.008  58.501  26.443  1.00  0.00     0.268 C 
BRANCH  22  23
HETATM   23  C16 UNL     1       3.150  60.038  26.426  1.00  0.00     0.217 C 
HETATM   24  N3  UNL     1       2.570  60.459  25.188  1.00  0.00    -0.069 N 
HETATM   25  C17 UNL     1       2.684  61.868  24.991  1.00  0.00     0.233 C 
ATOM     26  H32 UNL     1       2.964  59.943  24.401  1.00  0.00     0.277 HD
ATOM     27  H31 UNL     1       1.601  60.153  25.112  1.00  0.00     0.277 HD
HETATM   28  C18 UNL     1       4.128  62.255  24.932  1.00  0.00     0.028 C 
HETATM   29  C19 UNL     1       5.073  61.221  25.442  1.00  0.00     0.010 C 
HETATM   30  C20 UNL     1       4.577  60.443  26.618  1.00  0.00     0.040 C 
BRANCH  30  31
HETATM   31  C21 UNL     1       4.792  61.139  27.953  1.00  0.00     0.082 C 
HETATM   32  C22 UNL     1       6.111  61.854  28.006  1.00  0.00     0.025 C 
HETATM   33  C23 UNL     1       6.185  62.465  29.414  1.00  0.00     0.004 C 
HETATM   34  C24 UNL     1       5.177  63.606  29.395  1.00  0.00     0.019 C 
HETATM   35  C25 UNL     1       3.904  63.272  28.698  1.00  0.00     0.114 C 
HETATM   36  N4  UNL     1       3.679  61.905  28.402  1.00  0.00    -0.417 N 
ATOM     37  H4  UNL     1       2.756  61.485  28.508  1.00  0.00     0.153 HD
ENDBRANCH  30  31
ENDBRANCH  22  23
ENDBRANCH   1  22
TORSDOF 9
ENDMDL
