MODEL 1
REMARK VINA RESULT: -6.781842374      0.000      0.000
REMARK  9 active torsions:
REMARK  status: ('A' for Active; 'I' for Inactive)
REMARK    1  A    between atoms: C4_4  and  C5_5 
REMARK    2  A    between atoms: C5_5  and  C6_6 
REMARK    3  A    between atoms: C6_6  and  C7_7 
REMARK    4  A    between atoms: C8_8  and  C9_9 
REMARK    5  A    between atoms: C10_10  and  C11_11 
REMARK    6  A    between atoms: C14_16  and  C15_17 
REMARK    7  A    between atoms: C17_19  and  C18_20 
REMARK    8  A    between atoms: C19_23  and  C20_24 
REMARK    9  A    between atoms: C21_25  and  C22_26 
ROOT
HETATM    1  C1  UNL     1       1.916  54.798  22.835  1.00  0.00     0.037 C 
HETATM    2  C2  UNL     1       1.262  54.127  21.911  1.00  0.00    -0.004 C 
HETATM    3  C3  UNL     1       0.419  54.808  20.905  1.00  0.00     0.062 C 
HETATM    4  C4  UNL     1       0.326  54.067  19.635  1.00  0.00     0.018 C 
HETATM    5  C17 UNL     1       0.431  52.583  19.661  1.00  0.00     0.118 C 
HETATM    6  C19 UNL     1       1.406  51.981  20.617  1.00  0.00     0.119 C 
HETATM    7  N1  UNL     1       1.380  52.724  21.895  1.00  0.00    -0.385 N 
ATOM      8  H1  UNL     1       1.449  52.214  22.775  1.00  0.00     0.160 HD
ENDROOT
BRANCH   4   9
HETATM    9  C5  UNL     1       1.224  54.672  18.584  1.00  0.00     0.090 C 
BRANCH   9  10
HETATM   10  C6  UNL     1       1.982  55.591  18.804  1.00  0.00    -0.155 C 
BRANCH  10  11
HETATM   11  C7  UNL     1       2.883  56.683  19.066  1.00  0.00     0.050 C 
HETATM   12  C8  UNL     1       3.590  56.702  20.223  1.00  0.00     0.007 C 
BRANCH  12  13
HETATM   13  C9  UNL     1       4.515  57.787  20.528  1.00  0.00    -0.003 C 
HETATM   14  C10 UNL     1       4.404  58.556  21.569  1.00  0.00    -0.019 C 
BRANCH  14  15
HETATM   15  C11 UNL     1       5.314  59.641  21.895  1.00  0.00     0.046 C 
HETATM   16  C12 UNL     1       4.938  60.907  21.162  1.00  0.00     0.188 C 
HETATM   17  O1  UNL     1       3.758  61.336  21.852  1.00  0.00    -0.320 OA
HETATM   18  C13 UNL     1       3.948  61.063  23.199  1.00  0.00     0.263 C 
HETATM   19  O2  UNL     1       3.260  61.514  24.130  1.00  0.00    -0.265 OA
HETATM   20  C14 UNL     1       5.098  60.153  23.328  1.00  0.00     0.095 C 
BRANCH  20  21
HETATM   21  C15 UNL     1       4.867  59.073  24.317  1.00  0.00     0.011 C 
HETATM   22  C16 UNL     1       5.601  59.330  25.611  1.00  0.00     0.006 C 
ENDBRANCH  20  21
ENDBRANCH  14  15
ENDBRANCH  12  13
ENDBRANCH  10  11
ENDBRANCH   9  10
ENDBRANCH   4   9
BRANCH   5  23
HETATM   23  C18 UNL     1       0.438  52.085  18.293  1.00  0.00     0.179 C 
HETATM   24  O3  UNL     1       1.353  51.411  17.756  1.00  0.00    -0.648 OA
HETATM   25  O4  UNL     1      -0.649  52.361  17.473  1.00  0.00    -0.648 OA
ENDBRANCH   5  23
BRANCH   6  26
HETATM   26  C20 UNL     1       2.822  51.983  20.233  1.00  0.00    -0.001 C 
HETATM   27  C21 UNL     1       3.790  51.210  20.632  1.00  0.00    -0.002 C 
BRANCH  27  28
HETATM   28  C22 UNL     1       3.753  50.124  21.575  1.00  0.00    -0.005 C 
HETATM   29  C23 UNL     1       4.840  49.413  21.801  1.00  0.00    -0.031 C 
HETATM   30  C24 UNL     1       4.907  48.280  22.745  1.00  0.00     0.036 C 
ENDBRANCH  27  28
ENDBRANCH   6  26
TORSDOF 9
ENDMDL
MODEL 2
REMARK VINA RESULT: -6.639277197      5.583      9.316
REMARK  9 active torsions:
REMARK  status: ('A' for Active; 'I' for Inactive)
REMARK    1  A    between atoms: C4_4  and  C5_5 
REMARK    2  A    between atoms: C5_5  and  C6_6 
REMARK    3  A    between atoms: C6_6  and  C7_7 
REMARK    4  A    between atoms: C8_8  and  C9_9 
REMARK    5  A    between atoms: C10_10  and  C11_11 
REMARK    6  A    between atoms: C14_16  and  C15_17 
REMARK    7  A    between atoms: C17_19  and  C18_20 
REMARK    8  A    between atoms: C19_23  and  C20_24 
REMARK    9  A    between atoms: C21_25  and  C22_26 
ROOT
HETATM    1  C1  UNL     1       4.454  56.726  22.602  1.00  0.00     0.037 C 
HETATM    2  C2  UNL     1       4.225  57.952  22.185  1.00  0.00    -0.004 C 
HETATM    3  C3  UNL     1       3.581  58.962  23.054  1.00  0.00     0.062 C 
HETATM    4  C4  UNL     1       3.990  60.341  22.735  1.00  0.00     0.018 C 
HETATM    5  C17 UNL     1       4.367  60.671  21.334  1.00  0.00     0.118 C 
HETATM    6  C19 UNL     1       5.133  59.645  20.569  1.00  0.00     0.119 C 
HETATM    7  N1  UNL     1       4.610  58.296  20.875  1.00  0.00    -0.385 N 
ATOM      8  H1  UNL     1       4.527  57.607  20.128  1.00  0.00     0.160 HD
ENDROOT
BRANCH   4   9
HETATM    9  C5  UNL     1       5.012  60.849  23.722  1.00  0.00     0.090 C 
BRANCH   9  10
HETATM   10  C6  UNL     1       4.757  61.656  24.589  1.00  0.00    -0.155 C 
BRANCH  10  11
HETATM   11  C7  UNL     1       4.455  62.615  25.620  1.00  0.00     0.050 C 
HETATM   12  C8  UNL     1       3.458  63.513  25.422  1.00  0.00     0.007 C 
BRANCH  12  13
HETATM   13  C9  UNL     1       3.115  64.499  26.439  1.00  0.00    -0.003 C 
HETATM   14  C10 UNL     1       2.928  65.760  26.186  1.00  0.00    -0.019 C 
BRANCH  14  15
HETATM   15  C11 UNL     1       2.583  66.761  27.180  1.00  0.00     0.046 C 
HETATM   16  C12 UNL     1       3.474  67.976  27.062  1.00  0.00     0.188 C 
HETATM   17  O1  UNL     1       2.991  68.610  25.872  1.00  0.00    -0.320 OA
HETATM   18  C13 UNL     1       1.611  68.464  25.860  1.00  0.00     0.263 C 
HETATM   19  O2  UNL     1       0.826  69.089  25.128  1.00  0.00    -0.265 OA
HETATM   20  C14 UNL     1       1.246  67.447  26.860  1.00  0.00     0.095 C 
BRANCH  20  21
HETATM   21  C15 UNL     1       0.201  66.513  26.373  1.00  0.00     0.011 C 
HETATM   22  C16 UNL     1      -0.604  65.930  27.509  1.00  0.00     0.006 C 
ENDBRANCH  20  21
ENDBRANCH  14  15
ENDBRANCH  12  13
ENDBRANCH  10  11
ENDBRANCH   9  10
ENDBRANCH   4   9
BRANCH   5  23
HETATM   23  C18 UNL     1       4.850  62.043  21.285  1.00  0.00     0.179 C 
HETATM   24  O3  UNL     1       6.042  62.401  21.109  1.00  0.00    -0.648 OA
HETATM   25  O4  UNL     1       3.941  63.081  21.445  1.00  0.00    -0.648 OA
ENDBRANCH   5  23
BRANCH   6  26
HETATM   26  C20 UNL     1       6.572  59.535  20.833  1.00  0.00    -0.001 C 
HETATM   27  C21 UNL     1       7.579  59.721  20.029  1.00  0.00    -0.002 C 
BRANCH  27  28
HETATM   28  C22 UNL     1       7.573  60.085  18.638  1.00  0.00    -0.005 C 
HETATM   29  C23 UNL     1       8.273  61.125  18.228  1.00  0.00    -0.031 C 
HETATM   30  C24 UNL     1       8.334  61.582  16.826  1.00  0.00     0.036 C 
ENDBRANCH  27  28
ENDBRANCH   6  26
TORSDOF 9
ENDMDL
MODEL 3
REMARK VINA RESULT: -6.612493148      5.620      9.234
REMARK  9 active torsions:
REMARK  status: ('A' for Active; 'I' for Inactive)
REMARK    1  A    between atoms: C4_4  and  C5_5 
REMARK    2  A    between atoms: C5_5  and  C6_6 
REMARK    3  A    between atoms: C6_6  and  C7_7 
REMARK    4  A    between atoms: C8_8  and  C9_9 
REMARK    5  A    between atoms: C10_10  and  C11_11 
REMARK    6  A    between atoms: C14_16  and  C15_17 
REMARK    7  A    between atoms: C17_19  and  C18_20 
REMARK    8  A    between atoms: C19_23  and  C20_24 
REMARK    9  A    between atoms: C21_25  and  C22_26 
ROOT
HETATM    1  C1  UNL     1       4.500  56.985  22.219  1.00  0.00     0.037 C 
HETATM    2  C2  UNL     1       4.307  58.252  21.920  1.00  0.00    -0.004 C 
HETATM    3  C3  UNL     1       3.689  59.193  22.880  1.00  0.00     0.062 C 
HETATM    4  C4  UNL     1       4.137  60.583  22.692  1.00  0.00     0.018 C 
HETATM    5  C17 UNL     1       4.529  61.034  21.329  1.00  0.00     0.118 C 
HETATM    6  C19 UNL     1       5.268  60.063  20.471  1.00  0.00     0.119 C 
HETATM    7  N1  UNL     1       4.706  58.707  20.648  1.00  0.00    -0.385 N 
ATOM      8  H1  UNL     1       4.606  58.094  19.840  1.00  0.00     0.160 HD
ENDROOT
BRANCH   4   9
HETATM    9  C5  UNL     1       5.170  60.966  23.725  1.00  0.00     0.090 C 
BRANCH   9  10
HETATM   10  C6  UNL     1       5.151  60.565  24.867  1.00  0.00    -0.155 C 
BRANCH  10  11
HETATM   11  C7  UNL     1       5.126  60.087  26.225  1.00  0.00     0.050 C 
HETATM   12  C8  UNL     1       5.892  59.023  26.572  1.00  0.00     0.007 C 
BRANCH  12  13
HETATM   13  C9  UNL     1       5.901  58.508  27.935  1.00  0.00    -0.003 C 
HETATM   14  C10 UNL     1       5.302  57.412  28.295  1.00  0.00    -0.019 C 
BRANCH  14  15
HETATM   15  C11 UNL     1       5.298  56.877  29.646  1.00  0.00     0.046 C 
HETATM   16  C12 UNL     1       3.896  56.540  30.095  1.00  0.00     0.188 C 
HETATM   17  O1  UNL     1       3.596  55.358  29.343  1.00  0.00    -0.320 OA
HETATM   18  C13 UNL     1       4.760  54.604  29.282  1.00  0.00     0.263 C 
HETATM   19  O2  UNL     1       4.830  53.414  28.935  1.00  0.00    -0.265 OA
HETATM   20  C14 UNL     1       5.885  55.458  29.698  1.00  0.00     0.095 C 
BRANCH  20  21
HETATM   21  C15 UNL     1       7.086  55.279  28.847  1.00  0.00     0.011 C 
HETATM   22  C16 UNL     1       8.360  55.562  29.607  1.00  0.00     0.006 C 
ENDBRANCH  20  21
ENDBRANCH  14  15
ENDBRANCH  12  13
ENDBRANCH  10  11
ENDBRANCH   9  10
ENDBRANCH   4   9
BRANCH   5  23
HETATM   23  C18 UNL     1       5.050  62.390  21.411  1.00  0.00     0.179 C 
HETATM   24  O3  UNL     1       6.255  62.728  21.286  1.00  0.00    -0.648 OA
HETATM   25  O4  UNL     1       4.168  63.436  21.649  1.00  0.00    -0.648 OA
ENDBRANCH   5  23
BRANCH   6  26
HETATM   26  C20 UNL     1       6.702  59.889  20.725  1.00  0.00    -0.001 C 
HETATM   27  C21 UNL     1       7.710  60.014  19.910  1.00  0.00    -0.002 C 
BRANCH  27  28
HETATM   28  C22 UNL     1       7.709  60.360  18.514  1.00  0.00    -0.005 C 
HETATM   29  C23 UNL     1       8.493  61.326  18.076  1.00  0.00    -0.031 C 
HETATM   30  C24 UNL     1       8.566  61.757  16.666  1.00  0.00     0.036 C 
ENDBRANCH  27  28
ENDBRANCH   6  26
TORSDOF 9
ENDMDL
MODEL 4
REMARK VINA RESULT: -6.575542140      6.569      9.580
REMARK  9 active torsions:
REMARK  status: ('A' for Active; 'I' for Inactive)
REMARK    1  A    between atoms: C4_4  and  C5_5 
REMARK    2  A    between atoms: C5_5  and  C6_6 
REMARK    3  A    between atoms: C6_6  and  C7_7 
REMARK    4  A    between atoms: C8_8  and  C9_9 
REMARK    5  A    between atoms: C10_10  and  C11_11 
REMARK    6  A    between atoms: C14_16  and  C15_17 
REMARK    7  A    between atoms: C17_19  and  C18_20 
REMARK    8  A    between atoms: C19_23  and  C20_24 
REMARK    9  A    between atoms: C21_25  and  C22_26 
ROOT
HETATM    1  C1  UNL     1       4.839  63.323  21.937  1.00  0.00     0.037 C 
HETATM    2  C2  UNL     1       4.023  62.631  22.702  1.00  0.00    -0.004 C 
HETATM    3  C3  UNL     1       3.342  61.413  22.211  1.00  0.00     0.062 C 
HETATM    4  C4  UNL     1       3.046  60.447  23.284  1.00  0.00     0.018 C 
HETATM    5  C17 UNL     1       2.797  60.957  24.659  1.00  0.00     0.118 C 
HETATM    6  C19 UNL     1       3.623  62.109  25.125  1.00  0.00     0.119 C 
HETATM    7  N1  UNL     1       3.804  63.075  24.020  1.00  0.00    -0.385 N 
ATOM      8  H1  UNL     1       3.770  64.075  24.216  1.00  0.00     0.160 HD
ENDROOT
BRANCH   4   9
HETATM    9  C5  UNL     1       4.038  59.309  23.282  1.00  0.00     0.090 C 
BRANCH   9  10
HETATM   10  C6  UNL     1       4.817  59.107  22.376  1.00  0.00    -0.155 C 
BRANCH  10  11
HETATM   11  C7  UNL     1       5.743  58.865  21.301  1.00  0.00     0.050 C 
HETATM   12  C8  UNL     1       6.500  59.888  20.831  1.00  0.00     0.007 C 
BRANCH  12  13
HETATM   13  C9  UNL     1       7.453  59.689  19.745  1.00  0.00    -0.003 C 
HETATM   14  C10 UNL     1       7.134  59.751  18.487  1.00  0.00    -0.019 C 
BRANCH  14  15
HETATM   15  C11 UNL     1       8.065  59.559  17.388  1.00  0.00     0.046 C 
HETATM   16  C12 UNL     1       7.497  58.618  16.351  1.00  0.00     0.188 C 
HETATM   17  O1  UNL     1       6.496  59.417  15.711  1.00  0.00    -0.320 OA
HETATM   18  C13 UNL     1       6.996  60.708  15.621  1.00  0.00     0.263 C 
HETATM   19  O2  UNL     1       6.528  61.615  14.913  1.00  0.00    -0.265 OA
HETATM   20  C14 UNL     1       8.170  60.812  16.504  1.00  0.00     0.095 C 
BRANCH  20  21
HETATM   21  C15 UNL     1       8.200  62.080  17.272  1.00  0.00     0.011 C 
HETATM   22  C16 UNL     1       9.471  62.219  18.075  1.00  0.00     0.006 C 
ENDBRANCH  20  21
ENDBRANCH  14  15
ENDBRANCH  12  13
ENDBRANCH  10  11
ENDBRANCH   9  10
ENDBRANCH   4   9
BRANCH   5  23
HETATM   23  C18 UNL     1       2.653  59.826  25.564  1.00  0.00     0.179 C 
HETATM   24  O3  UNL     1       3.464  59.492  26.465  1.00  0.00    -0.648 OA
HETATM   25  O4  UNL     1       1.531  59.015  25.453  1.00  0.00    -0.648 OA
ENDBRANCH   5  23
BRANCH   6  26
HETATM   26  C20 UNL     1       4.989  61.826  25.576  1.00  0.00    -0.001 C 
HETATM   27  C21 UNL     1       5.617  62.248  26.636  1.00  0.00    -0.002 C 
BRANCH  27  28
HETATM   28  C22 UNL     1       5.150  63.124  27.677  1.00  0.00    -0.005 C 
HETATM   29  C23 UNL     1       5.568  62.953  28.916  1.00  0.00    -0.031 C 
HETATM   30  C24 UNL     1       5.150  63.795  30.054  1.00  0.00     0.036 C 
ENDBRANCH  27  28
ENDBRANCH   6  26
TORSDOF 9
ENDMDL
MODEL 5
REMARK VINA RESULT: -6.550647961      5.954      9.261
REMARK  9 active torsions:
REMARK  status: ('A' for Active; 'I' for Inactive)
REMARK    1  A    between atoms: C4_4  and  C5_5 
REMARK    2  A    between atoms: C5_5  and  C6_6 
REMARK    3  A    between atoms: C6_6  and  C7_7 
REMARK    4  A    between atoms: C8_8  and  C9_9 
REMARK    5  A    between atoms: C10_10  and  C11_11 
REMARK    6  A    between atoms: C14_16  and  C15_17 
REMARK    7  A    between atoms: C17_19  and  C18_20 
REMARK    8  A    between atoms: C19_23  and  C20_24 
REMARK    9  A    between atoms: C21_25  and  C22_26 
ROOT
HETATM    1  C1  UNL     1       4.025  57.369  24.183  1.00  0.00     0.037 C 
HETATM    2  C2  UNL     1       4.130  58.536  24.780  1.00  0.00    -0.004 C 
HETATM    3  C3  UNL     1       5.271  59.443  24.520  1.00  0.00     0.062 C 
HETATM    4  C4  UNL     1       4.928  60.864  24.699  1.00  0.00     0.018 C 
HETATM    5  C17 UNL     1       3.874  61.230  25.683  1.00  0.00     0.118 C 
HETATM    6  C19 UNL     1       2.690  60.328  25.787  1.00  0.00     0.119 C 
HETATM    7  N1  UNL     1       3.122  58.918  25.686  1.00  0.00    -0.385 N 
ATOM      8  H1  UNL     1       2.685  58.213  26.279  1.00  0.00     0.160 HD
ENDROOT
BRANCH   4   9
HETATM    9  C5  UNL     1       4.710  61.544  23.369  1.00  0.00     0.090 C 
BRANCH   9  10
HETATM   10  C6  UNL     1       5.459  61.417  22.425  1.00  0.00    -0.155 C 
BRANCH  10  11
HETATM   11  C7  UNL     1       6.350  61.266  21.304  1.00  0.00     0.050 C 
HETATM   12  C8  UNL     1       6.661  60.022  20.863  1.00  0.00     0.007 C 
BRANCH  12  13
HETATM   13  C9  UNL     1       7.556  59.822  19.730  1.00  0.00    -0.003 C 
HETATM   14  C10 UNL     1       7.162  59.826  18.492  1.00  0.00    -0.019 C 
BRANCH  14  15
HETATM   15  C11 UNL     1       8.035  59.631  17.346  1.00  0.00     0.046 C 
HETATM   16  C12 UNL     1       7.417  58.682  16.346  1.00  0.00     0.188 C 
HETATM   17  O1  UNL     1       6.379  59.472  15.755  1.00  0.00    -0.320 OA
HETATM   18  C13 UNL     1       6.868  60.765  15.631  1.00  0.00     0.263 C 
HETATM   19  O2  UNL     1       6.358  61.666  14.944  1.00  0.00    -0.265 OA
HETATM   20  C14 UNL     1       8.086  60.879  16.451  1.00  0.00     0.095 C 
BRANCH  20  21
HETATM   21  C15 UNL     1       8.150  62.152  17.209  1.00  0.00     0.011 C 
HETATM   22  C16 UNL     1       9.431  62.269  18.000  1.00  0.00     0.006 C 
ENDBRANCH  20  21
ENDBRANCH  14  15
ENDBRANCH  12  13
ENDBRANCH  10  11
ENDBRANCH   9  10
ENDBRANCH   4   9
BRANCH   5  23
HETATM   23  C18 UNL     1       3.622  62.661  25.596  1.00  0.00     0.179 C 
HETATM   24  O3  UNL     1       2.710  63.212  24.929  1.00  0.00    -0.648 OA
HETATM   25  O4  UNL     1       4.444  63.532  26.300  1.00  0.00    -0.648 OA
ENDBRANCH   5  23
BRANCH   6  26
HETATM   26  C20 UNL     1       1.648  60.455  24.763  1.00  0.00    -0.001 C 
HETATM   27  C21 UNL     1       0.355  60.525  24.899  1.00  0.00    -0.002 C 
BRANCH  27  28
HETATM   28  C22 UNL     1      -0.433  60.496  26.102  1.00  0.00    -0.005 C 
HETATM   29  C23 UNL     1      -1.045  59.384  26.459  1.00  0.00    -0.031 C 
HETATM   30  C24 UNL     1      -1.875  59.249  27.672  1.00  0.00     0.036 C 
ENDBRANCH  27  28
ENDBRANCH   6  26
TORSDOF 9
ENDMDL
