MODEL 1
REMARK VINA RESULT: -8.051047337      0.000      0.000
REMARK  9 active torsions:
REMARK  status: ('A' for Active; 'I' for Inactive)
REMARK    1  A    between atoms: O1_1  and  C1_3 
REMARK    2  A    between atoms: C1_3  and  C2_4 
REMARK    3  A    between atoms: C2_4  and  C3_5 
REMARK    4  A    between atoms: C4_6  and  C5_7 
REMARK    5  A    between atoms: C5_7  and  N1_8 
REMARK    6  A    between atoms: N1_8  and  C6_10 
REMARK    7  A    between atoms: C15_19  and  O2_20 
REMARK    8  A    between atoms: N2_24  and  C18_25 
REMARK    9  A    between atoms: C18_25  and  C19_26 
ROOT
HETATM    1  C3  UNL     1     -13.137   7.290  -3.272  1.00  0.00     0.231 C 
HETATM    2  C4  UNL     1     -12.607   6.306  -2.292  1.00  0.00     0.038 C 
HETATM    3  C16 UNL     1     -11.213   6.828  -2.018  1.00  0.00     0.038 C 
HETATM    4  C17 UNL     1     -10.937   7.883  -3.076  1.00  0.00     0.273 C 
HETATM    5  N2  UNL     1     -11.975   7.613  -4.090  1.00  0.00     0.097 N 
ENDROOT
BRANCH   2   6
HETATM    6  C5  UNL     1     -13.406   6.149  -1.019  1.00  0.00     0.121 C 
BRANCH   6   7
HETATM    7  N1  UNL     1     -12.525   5.998   0.080  1.00  0.00    -0.414 N 
ATOM      8  H1  UNL     1     -11.596   6.420   0.079  1.00  0.00     0.153 HD
BRANCH   7   9
HETATM    9  C6  UNL     1     -12.998   5.225   1.195  1.00  0.00     0.110 C 
HETATM   10  C7  UNL     1     -14.353   4.686   0.860  1.00  0.00     0.032 C 
HETATM   11  C8  UNL     1     -14.762   3.450   1.588  1.00  0.00     0.041 C 
HETATM   12  C9  UNL     1     -13.899   3.086   2.712  1.00  0.00    -0.049 A 
HETATM   13  C10 UNL     1     -14.427   2.377   3.769  1.00  0.00     0.007 A 
HETATM   14  C14 UNL     1     -12.570   3.421   2.767  1.00  0.00    -0.021 A 
HETATM   15  C11 UNL     1     -13.632   2.022   4.845  1.00  0.00     0.001 A 
HETATM   16  C12 UNL     1     -12.280   2.366   4.895  1.00  0.00     0.001 A 
HETATM   17  C13 UNL     1     -11.747   3.074   3.842  1.00  0.00     0.010 A 
HETATM   18  C15 UNL     1     -12.001   4.195   1.613  1.00  0.00     0.174 C 
BRANCH  18  19
HETATM   19  O2  UNL     1     -10.854   4.873   2.083  1.00  0.00    -0.389 OA
ATOM     20  H2  UNL     1     -10.593   4.466   2.901  1.00  0.00     0.210 HD
ENDBRANCH  18  19
ENDBRANCH   7   9
ENDBRANCH   6   7
ENDBRANCH   2   6
BRANCH   1  21
HETATM   21  C2  UNL     1     -13.648   8.524  -2.563  1.00  0.00     0.062 C 
BRANCH  21  22
HETATM   22  C1  UNL     1     -14.651   9.278  -3.418  1.00  0.00     0.166 C 
BRANCH  22  23
HETATM   23  O1  UNL     1     -15.369   8.316  -4.151  1.00  0.00    -0.401 OA
ATOM     24  H1  UNL     1     -15.524   8.685  -5.012  1.00  0.00     0.209 HD
ENDBRANCH  22  23
ENDBRANCH  21  22
ENDBRANCH   1  21
BRANCH   5  25
HETATM   25  C18 UNL     1     -11.541   6.409  -4.754  1.00  0.00     0.311 C 
BRANCH  25  26
HETATM   26  C19 UNL     1     -11.876   6.420  -6.207  1.00  0.00    -0.030 A 
HETATM   27  C20 UNL     1     -12.935   7.155  -6.682  1.00  0.00     0.009 A 
HETATM   28  C21 UNL     1     -13.244   7.157  -8.048  1.00  0.00     0.001 A 
HETATM   29  C22 UNL     1     -12.447   6.395  -8.897  1.00  0.00     0.000 A 
HETATM   30  C23 UNL     1     -11.384   5.656  -8.421  1.00  0.00     0.001 A 
HETATM   31  C24 UNL     1     -11.106   5.673  -7.081  1.00  0.00     0.009 A 
ENDBRANCH  25  26
ENDBRANCH   5  25
TORSDOF 9
ENDMDL
MODEL 2
REMARK VINA RESULT: -7.951855568      1.985      2.862
REMARK  9 active torsions:
REMARK  status: ('A' for Active; 'I' for Inactive)
REMARK    1  A    between atoms: O1_1  and  C1_3 
REMARK    2  A    between atoms: C1_3  and  C2_4 
REMARK    3  A    between atoms: C2_4  and  C3_5 
REMARK    4  A    between atoms: C4_6  and  C5_7 
REMARK    5  A    between atoms: C5_7  and  N1_8 
REMARK    6  A    between atoms: N1_8  and  C6_10 
REMARK    7  A    between atoms: C15_19  and  O2_20 
REMARK    8  A    between atoms: N2_24  and  C18_25 
REMARK    9  A    between atoms: C18_25  and  C19_26 
ROOT
HETATM    1  C3  UNL     1     -11.411   6.785  -3.475  1.00  0.00     0.231 C 
HETATM    2  C4  UNL     1     -11.314   7.074  -2.021  1.00  0.00     0.038 C 
HETATM    3  C16 UNL     1     -11.418   8.583  -1.975  1.00  0.00     0.038 C 
HETATM    4  C17 UNL     1     -11.259   9.066  -3.406  1.00  0.00     0.273 C 
HETATM    5  N2  UNL     1     -10.686   7.891  -4.089  1.00  0.00     0.097 N 
ENDROOT
BRANCH   2   6
HETATM    6  C5  UNL     1     -12.357   6.415  -1.148  1.00  0.00     0.121 C 
BRANCH   6   7
HETATM    7  N1  UNL     1     -11.898   6.373   0.192  1.00  0.00    -0.414 N 
ATOM      8  H1  UNL     1     -11.100   6.927   0.499  1.00  0.00     0.153 HD
BRANCH   7   9
HETATM    9  C6  UNL     1     -12.609   5.513   1.098  1.00  0.00     0.110 C 
HETATM   10  C7  UNL     1     -13.863   5.047   0.428  1.00  0.00     0.032 C 
HETATM   11  C8  UNL     1     -14.430   3.760   0.926  1.00  0.00     0.041 C 
HETATM   12  C9  UNL     1     -13.835   3.268   2.170  1.00  0.00    -0.049 A 
HETATM   13  C10 UNL     1     -14.586   2.479   3.013  1.00  0.00     0.007 A 
HETATM   14  C14 UNL     1     -12.547   3.558   2.541  1.00  0.00    -0.021 A 
HETATM   15  C11 UNL     1     -14.047   2.002   4.196  1.00  0.00     0.001 A 
HETATM   16  C12 UNL     1     -12.735   2.301   4.569  1.00  0.00     0.001 A 
HETATM   17  C13 UNL     1     -11.980   3.088   3.730  1.00  0.00     0.010 A 
HETATM   18  C15 UNL     1     -11.735   4.420   1.619  1.00  0.00     0.174 C 
BRANCH  18  19
HETATM   19  O2  UNL     1     -10.712   5.017   2.389  1.00  0.00    -0.389 OA
ATOM     20  H2  UNL     1      -9.881   4.792   1.989  1.00  0.00     0.210 HD
ENDBRANCH  18  19
ENDBRANCH   7   9
ENDBRANCH   6   7
ENDBRANCH   2   6
BRANCH   1  21
HETATM   21  C2  UNL     1     -12.854   6.783  -3.923  1.00  0.00     0.062 C 
BRANCH  21  22
HETATM   22  C1  UNL     1     -12.978   6.421  -5.393  1.00  0.00     0.166 C 
BRANCH  22  23
HETATM   23  O1  UNL     1     -14.351   6.391  -5.692  1.00  0.00    -0.401 OA
ATOM     24  H1  UNL     1     -14.427   6.338  -6.637  1.00  0.00     0.209 HD
ENDBRANCH  22  23
ENDBRANCH  21  22
ENDBRANCH   1  21
BRANCH   5  25
HETATM   25  C18 UNL     1      -9.316   7.835  -3.644  1.00  0.00     0.311 C 
BRANCH  25  26
HETATM   26  C19 UNL     1      -8.568   6.708  -4.272  1.00  0.00    -0.030 A 
HETATM   27  C20 UNL     1      -8.292   6.707  -5.617  1.00  0.00     0.009 A 
HETATM   28  C21 UNL     1      -7.591   5.644  -6.199  1.00  0.00     0.001 A 
HETATM   29  C22 UNL     1      -7.189   4.598  -5.372  1.00  0.00     0.000 A 
HETATM   30  C23 UNL     1      -7.467   4.598  -4.021  1.00  0.00     0.001 A 
HETATM   31  C24 UNL     1      -8.153   5.652  -3.480  1.00  0.00     0.009 A 
ENDBRANCH  25  26
ENDBRANCH   5  25
TORSDOF 9
ENDMDL
MODEL 3
REMARK VINA RESULT: -7.933446675      1.861      2.677
REMARK  9 active torsions:
REMARK  status: ('A' for Active; 'I' for Inactive)
REMARK    1  A    between atoms: O1_1  and  C1_3 
REMARK    2  A    between atoms: C1_3  and  C2_4 
REMARK    3  A    between atoms: C2_4  and  C3_5 
REMARK    4  A    between atoms: C4_6  and  C5_7 
REMARK    5  A    between atoms: C5_7  and  N1_8 
REMARK    6  A    between atoms: N1_8  and  C6_10 
REMARK    7  A    between atoms: C15_19  and  O2_20 
REMARK    8  A    between atoms: N2_24  and  C18_25 
REMARK    9  A    between atoms: C18_25  and  C19_26 
ROOT
HETATM    1  C3  UNL     1     -12.288   6.933  -2.487  1.00  0.00     0.231 C 
HETATM    2  C4  UNL     1     -12.355   6.786  -1.010  1.00  0.00     0.038 C 
HETATM    3  C16 UNL     1     -11.906   8.146  -0.521  1.00  0.00     0.038 C 
HETATM    4  C17 UNL     1     -11.327   8.864  -1.727  1.00  0.00     0.273 C 
HETATM    5  N2  UNL     1     -11.111   7.769  -2.692  1.00  0.00     0.097 N 
ENDROOT
BRANCH   2   6
HETATM    6  C5  UNL     1     -13.705   6.407  -0.447  1.00  0.00     0.121 C 
BRANCH   6   7
HETATM    7  N1  UNL     1     -13.751   5.009  -0.220  1.00  0.00    -0.414 N 
ATOM      8  H1  UNL     1     -13.770   4.345  -0.993  1.00  0.00     0.153 HD
BRANCH   7   9
HETATM    9  C6  UNL     1     -13.769   4.570   1.148  1.00  0.00     0.110 C 
HETATM   10  C7  UNL     1     -15.100   3.946   1.430  1.00  0.00     0.032 C 
HETATM   11  C8  UNL     1     -15.134   2.955   2.544  1.00  0.00     0.041 C 
HETATM   12  C9  UNL     1     -13.929   2.924   3.375  1.00  0.00    -0.049 A 
HETATM   13  C10 UNL     1     -14.025   2.529   4.691  1.00  0.00     0.007 A 
HETATM   14  C14 UNL     1     -12.691   3.274   2.899  1.00  0.00    -0.021 A 
HETATM   15  C11 UNL     1     -12.900   2.493   5.498  1.00  0.00     0.001 A 
HETATM   16  C12 UNL     1     -11.642   2.851   5.008  1.00  0.00     0.001 A 
HETATM   17  C13 UNL     1     -11.541   3.245   3.694  1.00  0.00     0.010 A 
HETATM   18  C15 UNL     1     -12.594   3.705   1.465  1.00  0.00     0.174 C 
BRANCH  18  19
HETATM   19  O2  UNL     1     -11.431   4.497   1.339  1.00  0.00    -0.389 OA
ATOM     20  H2  UNL     1     -10.745   3.948   0.978  1.00  0.00     0.210 HD
ENDBRANCH  18  19
ENDBRANCH   7   9
ENDBRANCH   6   7
ENDBRANCH   2   6
BRANCH   1  21
HETATM   21  C2  UNL     1     -13.527   7.624  -3.010  1.00  0.00     0.062 C 
BRANCH  21  22
HETATM   22  C1  UNL     1     -13.473   7.793  -4.518  1.00  0.00     0.166 C 
BRANCH  22  23
HETATM   23  O1  UNL     1     -13.860   6.564  -5.082  1.00  0.00    -0.401 OA
ATOM     24  H1  UNL     1     -14.810   6.546  -5.078  1.00  0.00     0.209 HD
ENDBRANCH  22  23
ENDBRANCH  21  22
ENDBRANCH   1  21
BRANCH   5  25
HETATM   25  C18 UNL     1      -9.961   7.057  -2.194  1.00  0.00     0.311 C 
BRANCH  25  26
HETATM   26  C19 UNL     1      -9.380   6.145  -3.220  1.00  0.00    -0.030 A 
HETATM   27  C20 UNL     1      -9.996   5.963  -4.433  1.00  0.00     0.009 A 
HETATM   28  C21 UNL     1      -9.445   5.102  -5.390  1.00  0.00     0.001 A 
HETATM   29  C22 UNL     1      -8.261   4.444  -5.069  1.00  0.00     0.000 A 
HETATM   30  C23 UNL     1      -7.641   4.625  -3.850  1.00  0.00     0.001 A 
HETATM   31  C24 UNL     1      -8.204   5.473  -2.935  1.00  0.00     0.009 A 
ENDBRANCH  25  26
ENDBRANCH   5  25
TORSDOF 9
ENDMDL
MODEL 4
REMARK VINA RESULT: -7.816936711      0.907      1.288
REMARK  9 active torsions:
REMARK  status: ('A' for Active; 'I' for Inactive)
REMARK    1  A    between atoms: O1_1  and  C1_3 
REMARK    2  A    between atoms: C1_3  and  C2_4 
REMARK    3  A    between atoms: C2_4  and  C3_5 
REMARK    4  A    between atoms: C4_6  and  C5_7 
REMARK    5  A    between atoms: C5_7  and  N1_8 
REMARK    6  A    between atoms: N1_8  and  C6_10 
REMARK    7  A    between atoms: C15_19  and  O2_20 
REMARK    8  A    between atoms: N2_24  and  C18_25 
REMARK    9  A    between atoms: C18_25  and  C19_26 
ROOT
HETATM    1  C3  UNL     1     -12.115   7.305  -3.332  1.00  0.00     0.231 C 
HETATM    2  C4  UNL     1     -11.884   6.335  -2.230  1.00  0.00     0.038 C 
HETATM    3  C16 UNL     1     -10.513   6.729  -1.724  1.00  0.00     0.038 C 
HETATM    4  C17 UNL     1      -9.934   7.681  -2.756  1.00  0.00     0.273 C 
HETATM    5  N2  UNL     1     -10.796   7.457  -3.932  1.00  0.00     0.097 N 
ENDROOT
BRANCH   2   6
HETATM    6  C5  UNL     1     -12.912   6.340  -1.123  1.00  0.00     0.121 C 
BRANCH   6   7
HETATM    7  N1  UNL     1     -12.259   6.280   0.133  1.00  0.00    -0.414 N 
ATOM      8  H1  UNL     1     -11.406   6.808   0.315  1.00  0.00     0.153 HD
BRANCH   7   9
HETATM    9  C6  UNL     1     -12.851   5.442   1.138  1.00  0.00     0.110 C 
HETATM   10  C7  UNL     1     -14.192   4.989   0.651  1.00  0.00     0.032 C 
HETATM   11  C8  UNL     1     -14.705   3.717   1.238  1.00  0.00     0.041 C 
HETATM   12  C9  UNL     1     -13.953   3.229   2.395  1.00  0.00    -0.049 A 
HETATM   13  C10 UNL     1     -14.594   2.461   3.343  1.00  0.00     0.007 A 
HETATM   14  C14 UNL     1     -12.623   3.502   2.585  1.00  0.00    -0.021 A 
HETATM   15  C11 UNL     1     -13.905   1.988   4.447  1.00  0.00     0.001 A 
HETATM   16  C12 UNL     1     -12.551   2.270   4.635  1.00  0.00     0.001 A 
HETATM   17  C13 UNL     1     -11.906   3.035   3.691  1.00  0.00     0.010 A 
HETATM   18  C15 UNL     1     -11.931   4.340   1.550  1.00  0.00     0.174 C 
BRANCH  18  19
HETATM   19  O2  UNL     1     -10.804   4.929   2.165  1.00  0.00    -0.389 OA
ATOM     20  H2  UNL     1     -11.030   5.826   2.384  1.00  0.00     0.210 HD
ENDBRANCH  18  19
ENDBRANCH   7   9
ENDBRANCH   6   7
ENDBRANCH   2   6
BRANCH   1  21
HETATM   21  C2  UNL     1     -12.604   8.627  -2.784  1.00  0.00     0.062 C 
BRANCH  21  22
HETATM   22  C1  UNL     1     -13.747   9.182  -3.616  1.00  0.00     0.166 C 
BRANCH  22  23
HETATM   23  O1  UNL     1     -14.824   8.288  -3.480  1.00  0.00    -0.401 OA
ATOM     24  H1  UNL     1     -14.827   7.741  -4.257  1.00  0.00     0.209 HD
ENDBRANCH  22  23
ENDBRANCH  21  22
ENDBRANCH   1  21
BRANCH   5  25
HETATM   25  C18 UNL     1     -10.387   6.176  -4.453  1.00  0.00     0.311 C 
BRANCH  25  26
HETATM   26  C19 UNL     1     -10.426   6.139  -5.943  1.00  0.00    -0.030 A 
HETATM   27  C20 UNL     1      -9.325   6.485  -6.687  1.00  0.00     0.009 A 
HETATM   28  C21 UNL     1      -9.372   6.449  -8.086  1.00  0.00     0.001 A 
HETATM   29  C22 UNL     1     -10.563   6.053  -8.689  1.00  0.00     0.000 A 
HETATM   30  C23 UNL     1     -11.670   5.706  -7.942  1.00  0.00     0.001 A 
HETATM   31  C24 UNL     1     -11.594   5.751  -6.576  1.00  0.00     0.009 A 
ENDBRANCH  25  26
ENDBRANCH   5  25
TORSDOF 9
ENDMDL
MODEL 5
REMARK VINA RESULT: -7.790085779      0.758      1.103
REMARK  9 active torsions:
REMARK  status: ('A' for Active; 'I' for Inactive)
REMARK    1  A    between atoms: O1_1  and  C1_3 
REMARK    2  A    between atoms: C1_3  and  C2_4 
REMARK    3  A    between atoms: C2_4  and  C3_5 
REMARK    4  A    between atoms: C4_6  and  C5_7 
REMARK    5  A    between atoms: C5_7  and  N1_8 
REMARK    6  A    between atoms: N1_8  and  C6_10 
REMARK    7  A    between atoms: C15_19  and  O2_20 
REMARK    8  A    between atoms: N2_24  and  C18_25 
REMARK    9  A    between atoms: C18_25  and  C19_26 
ROOT
HETATM    1  C3  UNL     1     -12.808   7.568  -3.219  1.00  0.00     0.231 C 
HETATM    2  C4  UNL     1     -12.087   6.754  -2.207  1.00  0.00     0.038 C 
HETATM    3  C16 UNL     1     -11.160   7.765  -1.567  1.00  0.00     0.038 C 
HETATM    4  C17 UNL     1     -11.195   8.998  -2.454  1.00  0.00     0.273 C 
HETATM    5  N2  UNL     1     -11.786   8.487  -3.706  1.00  0.00     0.097 N 
ENDROOT
BRANCH   2   6
HETATM    6  C5  UNL     1     -12.953   6.062  -1.180  1.00  0.00     0.121 C 
BRANCH   6   7
HETATM    7  N1  UNL     1     -12.315   6.099   0.084  1.00  0.00    -0.414 N 
ATOM      8  H1  UNL     1     -11.478   6.660   0.242  1.00  0.00     0.153 HD
BRANCH   7   9
HETATM    9  C6  UNL     1     -12.899   5.312   1.134  1.00  0.00     0.110 C 
HETATM   10  C7  UNL     1     -14.260   4.870   0.697  1.00  0.00     0.032 C 
HETATM   11  C8  UNL     1     -14.785   3.632   1.344  1.00  0.00     0.041 C 
HETATM   12  C9  UNL     1     -14.014   3.171   2.501  1.00  0.00    -0.049 A 
HETATM   13  C10 UNL     1     -14.647   2.453   3.492  1.00  0.00     0.007 A 
HETATM   14  C14 UNL     1     -12.674   3.423   2.647  1.00  0.00    -0.021 A 
HETATM   15  C11 UNL     1     -13.941   2.007   4.596  1.00  0.00     0.001 A 
HETATM   16  C12 UNL     1     -12.577   2.266   4.740  1.00  0.00     0.001 A 
HETATM   17  C13 UNL     1     -11.940   2.982   3.753  1.00  0.00     0.010 A 
HETATM   18  C15 UNL     1     -11.992   4.207   1.565  1.00  0.00     0.174 C 
BRANCH  18  19
HETATM   19  O2  UNL     1     -10.838   4.794   2.131  1.00  0.00    -0.389 OA
ATOM     20  H2  UNL     1     -10.202   4.103   2.273  1.00  0.00     0.210 HD
ENDBRANCH  18  19
ENDBRANCH   7   9
ENDBRANCH   6   7
ENDBRANCH   2   6
BRANCH   1  21
HETATM   21  C2  UNL     1     -13.945   8.330  -2.577  1.00  0.00     0.062 C 
BRANCH  21  22
HETATM   22  C1  UNL     1     -14.702   9.161  -3.599  1.00  0.00     0.166 C 
BRANCH  22  23
HETATM   23  O1  UNL     1     -15.439   8.263  -4.391  1.00  0.00    -0.401 OA
ATOM     24  H1  UNL     1     -16.027   7.799  -3.807  1.00  0.00     0.209 HD
ENDBRANCH  22  23
ENDBRANCH  21  22
ENDBRANCH   1  21
BRANCH   5  25
HETATM   25  C18 UNL     1     -10.738   7.711  -4.321  1.00  0.00     0.311 C 
BRANCH  25  26
HETATM   26  C19 UNL     1     -11.123   7.229  -5.679  1.00  0.00    -0.030 A 
HETATM   27  C20 UNL     1     -11.102   5.890  -5.984  1.00  0.00     0.009 A 
HETATM   28  C21 UNL     1     -11.462   5.446  -7.262  1.00  0.00     0.001 A 
HETATM   29  C22 UNL     1     -11.839   6.401  -8.202  1.00  0.00     0.000 A 
HETATM   30  C23 UNL     1     -11.860   7.746  -7.897  1.00  0.00     0.001 A 
HETATM   31  C24 UNL     1     -11.502   8.151  -6.638  1.00  0.00     0.009 A 
ENDBRANCH  25  26
ENDBRANCH   5  25
TORSDOF 9
ENDMDL
