MODEL 1
REMARK VINA RESULT: -8.159890873      0.000      0.000
REMARK  7 active torsions:
REMARK  status: ('A' for Active; 'I' for Inactive)
REMARK    1  A    between atoms: C2_2  and  C3_3 
REMARK    2  A    between atoms: C3_3  and  C4_4 
REMARK    3  A    between atoms: C4_4  and  O1_7 
REMARK    4  A    between atoms: C8_10  and  C9_11 
REMARK    5  A    between atoms: C18_20  and  C20_22 
REMARK    6  A    between atoms: C20_22  and  C21_23 
REMARK    7  A    between atoms: C21_23  and  C22_24 
ROOT
HETATM    1  C3  UNL     1     -11.505 -10.269 -17.200  1.00  0.00     0.109 C 
HETATM    2  C7  UNL     1     -11.235  -9.156 -16.198  1.00  0.00     0.055 C 
HETATM    3  C8  UNL     1      -9.801  -8.692 -16.476  1.00  0.00     0.027 C 
HETATM    4  C12 UNL     1      -9.768  -8.054 -17.835  1.00  0.00    -0.009 C 
HETATM    5  C13 UNL     1      -9.968  -6.541 -17.719  1.00  0.00     0.018 C 
HETATM    6  C14 UNL     1      -8.454  -8.283 -18.484  1.00  0.00     0.013 C 
HETATM    7  C15 UNL     1      -8.447  -7.398 -19.722  1.00  0.00     0.006 C 
HETATM    8  C16 UNL     1      -9.557  -7.678 -20.660  1.00  0.00    -0.008 C 
HETATM    9  C17 UNL     1      -8.898  -8.349 -21.879  1.00  0.00     0.011 C 
HETATM   10  C18 UNL     1     -10.735  -8.401 -20.168  1.00  0.00    -0.013 C 
HETATM   11  C19 UNL     1     -10.699  -9.788 -20.851  1.00  0.00     0.018 C 
HETATM   12  C26 UNL     1     -10.912  -8.559 -18.686  1.00  0.00     0.140 C 
HETATM   13  O2  UNL     1     -11.026  -9.918 -18.456  1.00  0.00    -0.366 OA
ENDROOT
BRANCH   1  14
HETATM   14  C2  UNL     1     -10.734 -11.468 -16.770  1.00  0.00     0.004 C 
HETATM   15  C1  UNL     1      -9.819 -12.087 -17.486  1.00  0.00     0.010 C 
ENDBRANCH   1  14
BRANCH   1  16
HETATM   16  C4  UNL     1     -12.957 -10.627 -17.222  1.00  0.00     0.085 C 
HETATM   17  C5  UNL     1     -13.798  -9.367 -17.147  1.00  0.00     0.049 C 
HETATM   18  C6  UNL     1     -13.339 -11.331 -18.496  1.00  0.00     0.049 C 
BRANCH  16  19
HETATM   19  O1  UNL     1     -13.243 -11.490 -16.175  1.00  0.00    -0.387 OA
ATOM     20  H1  UNL     1     -13.923 -12.099 -16.438  1.00  0.00     0.210 HD
ENDBRANCH  16  19
ENDBRANCH   1  16
BRANCH   3  21
HETATM   21  C9  UNL     1      -9.249  -7.934 -15.365  1.00  0.00    -0.088 C 
HETATM   22  C10 UNL     1      -7.941  -7.604 -15.325  1.00  0.00     0.014 C 
HETATM   23  C11 UNL     1     -10.085  -7.441 -14.251  1.00  0.00     0.043 C 
ENDBRANCH   3  21
BRANCH  10  24
HETATM   24  C20 UNL     1     -12.040  -7.775 -20.656  1.00  0.00     0.016 C 
BRANCH  24  25
HETATM   25  C21 UNL     1     -12.245  -6.356 -20.290  1.00  0.00     0.028 C 
BRANCH  25  26
HETATM   26  C22 UNL     1     -13.739  -6.191 -20.131  1.00  0.00    -0.025 C 
HETATM   27  C23 UNL     1     -14.303  -5.940 -18.956  1.00  0.00    -0.091 C 
HETATM   28  C24 UNL     1     -15.773  -5.783 -18.826  1.00  0.00     0.042 C 
HETATM   29  C25 UNL     1     -13.470  -5.811 -17.737  1.00  0.00     0.042 C 
ENDBRANCH  25  26
ENDBRANCH  24  25
ENDBRANCH  10  24
TORSDOF 7
ENDMDL
MODEL 2
REMARK VINA RESULT: -8.075159718      1.533      4.273
REMARK  7 active torsions:
REMARK  status: ('A' for Active; 'I' for Inactive)
REMARK    1  A    between atoms: C2_2  and  C3_3 
REMARK    2  A    between atoms: C3_3  and  C4_4 
REMARK    3  A    between atoms: C4_4  and  O1_7 
REMARK    4  A    between atoms: C8_10  and  C9_11 
REMARK    5  A    between atoms: C18_20  and  C20_22 
REMARK    6  A    between atoms: C20_22  and  C21_23 
REMARK    7  A    between atoms: C21_23  and  C22_24 
ROOT
HETATM    1  C3  UNL     1     -11.862 -10.483 -16.891  1.00  0.00     0.109 C 
HETATM    2  C7  UNL     1     -12.961  -9.827 -17.712  1.00  0.00     0.055 C 
HETATM    3  C8  UNL     1     -13.192  -8.456 -17.070  1.00  0.00     0.027 C 
HETATM    4  C12 UNL     1     -11.959  -7.624 -17.277  1.00  0.00    -0.009 C 
HETATM    5  C13 UNL     1     -12.094  -6.775 -18.544  1.00  0.00     0.018 C 
HETATM    6  C14 UNL     1     -11.760  -6.698 -16.136  1.00  0.00     0.013 C 
HETATM    7  C15 UNL     1     -10.647  -5.752 -16.563  1.00  0.00     0.006 C 
HETATM    8  C16 UNL     1      -9.384  -6.440 -16.914  1.00  0.00    -0.008 C 
HETATM    9  C17 UNL     1      -8.408  -6.101 -15.773  1.00  0.00     0.011 C 
HETATM   10  C18 UNL     1      -9.422  -7.871 -17.237  1.00  0.00    -0.013 C 
HETATM   11  C19 UNL     1      -8.706  -8.589 -16.070  1.00  0.00     0.018 C 
HETATM   12  C26 UNL     1     -10.754  -8.511 -17.500  1.00  0.00     0.140 C 
HETATM   13  O2  UNL     1     -10.853  -9.568 -16.613  1.00  0.00    -0.366 OA
ENDROOT
BRANCH   1  14
HETATM   14  C2  UNL     1     -12.446 -10.881 -15.580  1.00  0.00     0.004 C 
HETATM   15  C1  UNL     1     -12.062 -10.434 -14.402  1.00  0.00     0.010 C 
ENDBRANCH   1  14
BRANCH   1  16
HETATM   16  C4  UNL     1     -11.347 -11.712 -17.569  1.00  0.00     0.085 C 
HETATM   17  C5  UNL     1     -11.595 -11.616 -19.063  1.00  0.00     0.049 C 
HETATM   18  C6  UNL     1      -9.863 -11.873 -17.383  1.00  0.00     0.049 C 
BRANCH  16  19
HETATM   19  O1  UNL     1     -11.953 -12.835 -17.026  1.00  0.00    -0.387 OA
ATOM     20  H1  UNL     1     -12.166 -13.450 -17.718  1.00  0.00     0.210 HD
ENDBRANCH  16  19
ENDBRANCH   1  16
BRANCH   3  21
HETATM   21  C9  UNL     1     -14.466  -7.877 -17.466  1.00  0.00    -0.088 C 
HETATM   22  C10 UNL     1     -15.322  -8.549 -18.263  1.00  0.00     0.014 C 
HETATM   23  C11 UNL     1     -14.918  -6.554 -16.986  1.00  0.00     0.043 C 
ENDBRANCH   3  21
BRANCH  10  24
HETATM   24  C20 UNL     1      -8.574  -8.207 -18.463  1.00  0.00     0.016 C 
BRANCH  24  25
HETATM   25  C21 UNL     1      -9.288  -8.882 -19.569  1.00  0.00     0.028 C 
BRANCH  25  26
HETATM   26  C22 UNL     1      -9.241  -7.916 -20.730  1.00  0.00    -0.025 C 
HETATM   27  C23 UNL     1     -10.207  -7.850 -21.638  1.00  0.00    -0.091 C 
HETATM   28  C24 UNL     1     -10.136  -6.893 -22.769  1.00  0.00     0.042 C 
HETATM   29  C25 UNL     1     -11.389  -8.740 -21.539  1.00  0.00     0.042 C 
ENDBRANCH  25  26
ENDBRANCH  24  25
ENDBRANCH  10  24
TORSDOF 7
ENDMDL
MODEL 3
REMARK VINA RESULT: -8.035076644      1.910      4.945
REMARK  7 active torsions:
REMARK  status: ('A' for Active; 'I' for Inactive)
REMARK    1  A    between atoms: C2_2  and  C3_3 
REMARK    2  A    between atoms: C3_3  and  C4_4 
REMARK    3  A    between atoms: C4_4  and  O1_7 
REMARK    4  A    between atoms: C8_10  and  C9_11 
REMARK    5  A    between atoms: C18_20  and  C20_22 
REMARK    6  A    between atoms: C20_22  and  C21_23 
REMARK    7  A    between atoms: C21_23  and  C22_24 
ROOT
HETATM    1  C3  UNL     1     -10.615  -7.519 -15.552  1.00  0.00     0.109 C 
HETATM    2  C7  UNL     1     -10.102  -8.786 -16.219  1.00  0.00     0.055 C 
HETATM    3  C8  UNL     1     -11.307  -9.730 -16.291  1.00  0.00     0.027 C 
HETATM    4  C12 UNL     1     -12.314  -9.137 -17.233  1.00  0.00    -0.009 C 
HETATM    5  C13 UNL     1     -12.113  -9.689 -18.647  1.00  0.00     0.018 C 
HETATM    6  C14 UNL     1     -13.691  -9.485 -16.808  1.00  0.00     0.013 C 
HETATM    7  C15 UNL     1     -14.598  -9.052 -17.951  1.00  0.00     0.006 C 
HETATM    8  C16 UNL     1     -14.492  -7.612 -18.280  1.00  0.00    -0.008 C 
HETATM    9  C17 UNL     1     -15.816  -6.990 -17.799  1.00  0.00     0.011 C 
HETATM   10  C18 UNL     1     -13.308  -6.868 -17.836  1.00  0.00    -0.013 C 
HETATM   11  C19 UNL     1     -13.804  -5.895 -16.741  1.00  0.00     0.018 C 
HETATM   12  C26 UNL     1     -12.120  -7.641 -17.343  1.00  0.00     0.140 C 
HETATM   13  O2  UNL     1     -11.856  -7.167 -16.071  1.00  0.00    -0.366 OA
ENDROOT
BRANCH   1  14
HETATM   14  C2  UNL     1     -10.827  -7.816 -14.109  1.00  0.00     0.004 C 
HETATM   15  C1  UNL     1     -11.987  -7.804 -13.486  1.00  0.00     0.010 C 
ENDBRANCH   1  14
BRANCH   1  16
HETATM   16  C4  UNL     1      -9.615  -6.413 -15.663  1.00  0.00     0.085 C 
HETATM   17  C5  UNL     1      -8.694  -6.431 -14.458  1.00  0.00     0.049 C 
HETATM   18  C6  UNL     1      -8.745  -6.566 -16.881  1.00  0.00     0.049 C 
BRANCH  16  19
HETATM   19  O1  UNL     1     -10.273  -5.197 -15.780  1.00  0.00    -0.387 OA
ATOM     20  H1  UNL     1     -11.212  -5.342 -15.788  1.00  0.00     0.210 HD
ENDBRANCH  16  19
ENDBRANCH   1  16
BRANCH   3  21
HETATM   21  C9  UNL     1     -10.905 -11.109 -16.520  1.00  0.00    -0.088 C 
HETATM   22  C10 UNL     1      -9.770 -11.405 -17.186  1.00  0.00     0.014 C 
HETATM   23  C11 UNL     1     -11.679 -12.255 -16.000  1.00  0.00     0.043 C 
ENDBRANCH   3  21
BRANCH  10  24
HETATM   24  C20 UNL     1     -12.759  -5.955 -18.931  1.00  0.00     0.016 C 
BRANCH  24  25
HETATM   25  C21 UNL     1     -13.161  -6.299 -20.312  1.00  0.00     0.028 C 
BRANCH  25  26
HETATM   26  C22 UNL     1     -11.904  -6.800 -20.986  1.00  0.00    -0.025 C 
HETATM   27  C23 UNL     1     -11.853  -7.063 -22.286  1.00  0.00    -0.091 C 
HETATM   28  C24 UNL     1     -10.606  -7.554 -22.924  1.00  0.00     0.042 C 
HETATM   29  C25 UNL     1     -13.051  -6.869 -23.137  1.00  0.00     0.042 C 
ENDBRANCH  25  26
ENDBRANCH  24  25
ENDBRANCH  10  24
TORSDOF 7
ENDMDL
MODEL 4
REMARK VINA RESULT: -7.909970770      1.169      1.644
REMARK  7 active torsions:
REMARK  status: ('A' for Active; 'I' for Inactive)
REMARK    1  A    between atoms: C2_2  and  C3_3 
REMARK    2  A    between atoms: C3_3  and  C4_4 
REMARK    3  A    between atoms: C4_4  and  O1_7 
REMARK    4  A    between atoms: C8_10  and  C9_11 
REMARK    5  A    between atoms: C18_20  and  C20_22 
REMARK    6  A    between atoms: C20_22  and  C21_23 
REMARK    7  A    between atoms: C21_23  and  C22_24 
ROOT
HETATM    1  C3  UNL     1     -11.723 -10.447 -16.884  1.00  0.00     0.109 C 
HETATM    2  C7  UNL     1     -12.127  -9.451 -15.807  1.00  0.00     0.055 C 
HETATM    3  C8  UNL     1     -10.826  -8.776 -15.363  1.00  0.00     0.027 C 
HETATM    4  C12 UNL     1     -10.300  -7.964 -16.511  1.00  0.00    -0.009 C 
HETATM    5  C13 UNL     1     -10.791  -6.517 -16.412  1.00  0.00     0.018 C 
HETATM    6  C14 UNL     1      -8.817  -7.935 -16.491  1.00  0.00     0.013 C 
HETATM    7  C15 UNL     1      -8.411  -6.900 -17.530  1.00  0.00     0.006 C 
HETATM    8  C16 UNL     1      -8.917  -7.192 -18.890  1.00  0.00    -0.008 C 
HETATM    9  C17 UNL     1      -7.677  -7.607 -19.703  1.00  0.00     0.011 C 
HETATM   10  C18 UNL     1     -10.045  -8.119 -19.043  1.00  0.00    -0.013 C 
HETATM   11  C19 UNL     1      -9.466  -9.386 -19.713  1.00  0.00     0.018 C 
HETATM   12  C26 UNL     1     -10.835  -8.493 -17.823  1.00  0.00     0.140 C 
HETATM   13  O2  UNL     1     -10.802  -9.873 -17.753  1.00  0.00    -0.366 OA
ENDROOT
BRANCH   1  14
HETATM   14  C2  UNL     1     -11.030 -11.584 -16.219  1.00  0.00     0.004 C 
HETATM   15  C1  UNL     1      -9.949 -12.190 -16.666  1.00  0.00     0.010 C 
ENDBRANCH   1  14
BRANCH   1  16
HETATM   16  C4  UNL     1     -12.924 -10.980 -17.598  1.00  0.00     0.085 C 
HETATM   17  C5  UNL     1     -14.015  -9.926 -17.626  1.00  0.00     0.049 C 
HETATM   18  C6  UNL     1     -12.616 -11.329 -19.028  1.00  0.00     0.049 C 
BRANCH  16  19
HETATM   19  O1  UNL     1     -13.359 -12.142 -16.977  1.00  0.00    -0.387 OA
ATOM     20  H1  UNL     1     -12.653 -12.778 -16.958  1.00  0.00     0.210 HD
ENDBRANCH  16  19
ENDBRANCH   1  16
BRANCH   3  21
HETATM   21  C9  UNL     1     -10.970  -8.108 -14.080  1.00  0.00    -0.088 C 
HETATM   22  C10 UNL     1     -12.184  -7.919 -13.522  1.00  0.00     0.014 C 
HETATM   23  C11 UNL     1      -9.808  -7.645 -13.293  1.00  0.00     0.043 C 
ENDBRANCH   3  21
BRANCH  10  24
HETATM   24  C20 UNL     1     -11.081  -7.605 -20.042  1.00  0.00     0.016 C 
BRANCH  24  25
HETATM   25  C21 UNL     1     -12.476  -7.559 -19.550  1.00  0.00     0.028 C 
BRANCH  25  26
HETATM   26  C22 UNL     1     -12.926  -6.129 -19.741  1.00  0.00    -0.025 C 
HETATM   27  C23 UNL     1     -13.754  -5.528 -18.896  1.00  0.00    -0.091 C 
HETATM   28  C24 UNL     1     -14.181  -4.122 -19.107  1.00  0.00     0.042 C 
HETATM   29  C25 UNL     1     -14.277  -6.254 -17.715  1.00  0.00     0.042 C 
ENDBRANCH  25  26
ENDBRANCH  24  25
ENDBRANCH  10  24
TORSDOF 7
ENDMDL
MODEL 5
REMARK VINA RESULT: -7.902094937      1.381      2.165
REMARK  7 active torsions:
REMARK  status: ('A' for Active; 'I' for Inactive)
REMARK    1  A    between atoms: C2_2  and  C3_3 
REMARK    2  A    between atoms: C3_3  and  C4_4 
REMARK    3  A    between atoms: C4_4  and  O1_7 
REMARK    4  A    between atoms: C8_10  and  C9_11 
REMARK    5  A    between atoms: C18_20  and  C20_22 
REMARK    6  A    between atoms: C20_22  and  C21_23 
REMARK    7  A    between atoms: C21_23  and  C22_24 
ROOT
HETATM    1  C3  UNL     1     -11.495 -10.446 -17.121  1.00  0.00     0.109 C 
HETATM    2  C7  UNL     1     -11.438  -9.255 -16.176  1.00  0.00     0.055 C 
HETATM    3  C8  UNL     1     -10.016  -8.699 -16.299  1.00  0.00     0.027 C 
HETATM    4  C12 UNL     1      -9.844  -8.147 -17.684  1.00  0.00    -0.009 C 
HETATM    5  C13 UNL     1     -10.162  -6.649 -17.705  1.00  0.00     0.018 C 
HETATM    6  C14 UNL     1      -8.442  -8.313 -18.140  1.00  0.00     0.013 C 
HETATM    7  C15 UNL     1      -8.329  -7.509 -19.427  1.00  0.00     0.006 C 
HETATM    8  C16 UNL     1      -9.282  -7.932 -20.478  1.00  0.00    -0.008 C 
HETATM    9  C17 UNL     1      -8.420  -8.625 -21.549  1.00  0.00     0.011 C 
HETATM   10  C18 UNL     1     -10.463  -8.713 -20.092  1.00  0.00    -0.013 C 
HETATM   11  C19 UNL     1     -10.239 -10.133 -20.662  1.00  0.00     0.018 C 
HETATM   12  C26 UNL     1     -10.826  -8.791 -18.638  1.00  0.00     0.140 C 
HETATM   13  O2  UNL     1     -10.876 -10.138 -18.327  1.00  0.00    -0.366 OA
ENDROOT
BRANCH   1  14
HETATM   14  C2  UNL     1     -10.707 -11.552 -16.510  1.00  0.00     0.004 C 
HETATM   15  C1  UNL     1      -9.750 -12.231 -17.106  1.00  0.00     0.010 C 
ENDBRANCH   1  14
BRANCH   1  16
HETATM   16  C4  UNL     1     -12.902 -10.917 -17.306  1.00  0.00     0.085 C 
HETATM   17  C5  UNL     1     -13.843  -9.727 -17.327  1.00  0.00     0.049 C 
HETATM   18  C6  UNL     1     -13.083 -11.639 -18.613  1.00  0.00     0.049 C 
BRANCH  16  19
HETATM   19  O1  UNL     1     -13.234 -11.808 -16.296  1.00  0.00    -0.387 OA
ATOM     20  H1  UNL     1     -12.515 -12.412 -16.154  1.00  0.00     0.210 HD
ENDBRANCH  16  19
ENDBRANCH   1  16
BRANCH   3  21
HETATM   21  C9  UNL     1      -9.672  -7.833 -15.184  1.00  0.00    -0.088 C 
HETATM   22  C10 UNL     1     -10.584  -7.506 -14.244  1.00  0.00     0.014 C 
HETATM   23  C11 UNL     1      -8.307  -7.304 -14.984  1.00  0.00     0.043 C 
ENDBRANCH   3  21
BRANCH  10  24
HETATM   24  C20 UNL     1     -11.730  -8.222 -20.789  1.00  0.00     0.016 C 
BRANCH  24  25
HETATM   25  C21 UNL     1     -11.816  -6.761 -21.007  1.00  0.00     0.028 C 
BRANCH  25  26
HETATM   26  C22 UNL     1     -12.710  -6.583 -22.213  1.00  0.00    -0.025 C 
HETATM   27  C23 UNL     1     -12.248  -6.658 -23.455  1.00  0.00    -0.091 C 
HETATM   28  C24 UNL     1     -13.147  -6.479 -24.622  1.00  0.00     0.042 C 
HETATM   29  C25 UNL     1     -10.812  -6.922 -23.705  1.00  0.00     0.042 C 
ENDBRANCH  25  26
ENDBRANCH  24  25
ENDBRANCH  10  24
TORSDOF 7
ENDMDL
