MODEL 1
REMARK VINA RESULT: -9.086067145      0.000      0.000
REMARK  6 active torsions:
REMARK  status: ('A' for Active; 'I' for Inactive)
REMARK    1  A    between atoms: N1_2  and  C3_4 
REMARK    2  A    between atoms: C3_4  and  C4_5 
REMARK    3  A    between atoms: C4_5  and  C5_6 
REMARK    4  A    between atoms: C5_6  and  C6_7 
REMARK    5  A    between atoms: C6_7  and  C7_8 
REMARK    6  A    between atoms: C24_25  and  O1_26 
ROOT
HETATM    1  C7  UNL     1     -13.414  -5.648 -19.572  1.00  0.00    -0.005 C 
HETATM    2  C8  UNL     1     -14.518  -4.690 -19.224  1.00  0.00     0.006 C 
HETATM    3  C9  UNL     1     -15.306  -5.383 -18.156  1.00  0.00     0.006 C 
HETATM    4  C10 UNL     1     -14.358  -6.389 -17.513  1.00  0.00    -0.000 A 
HETATM    5  C11 UNL     1     -13.018  -5.916 -17.119  1.00  0.00    -0.000 A 
HETATM    6  C12 UNL     1     -12.121  -6.629 -16.195  1.00  0.00     0.006 C 
HETATM    7  C13 UNL     1     -12.587  -7.948 -15.693  1.00  0.00     0.008 C 
HETATM    8  C14 UNL     1     -12.029  -9.018 -16.612  1.00  0.00     0.025 C 
HETATM    9  C15 UNL     1     -11.964 -10.291 -15.865  1.00  0.00     0.001 C 
HETATM   10  C16 UNL     1     -13.235 -10.689 -15.175  1.00  0.00     0.006 C 
HETATM   11  C17 UNL     1     -12.995 -11.889 -14.295  1.00  0.00     0.000 C 
HETATM   12  C18 UNL     1     -11.640 -12.500 -14.472  1.00  0.00     0.001 C 
HETATM   13  C19 UNL     1     -11.454 -12.732 -15.975  1.00  0.00     0.009 C 
HETATM   14  C20 UNL     1     -11.431 -11.434 -16.721  1.00  0.00    -0.040 C 
HETATM   15  C21 UNL     1     -10.006 -11.166 -17.144  1.00  0.00     0.015 C 
HETATM   16  C22 UNL     1     -12.346 -11.507 -17.924  1.00  0.00     0.012 C 
HETATM   17  C23 UNL     1     -12.278 -10.234 -18.702  1.00  0.00     0.039 C 
HETATM   18  C24 UNL     1     -12.792  -9.038 -17.885  1.00  0.00     0.062 C 
HETATM   19  C25 UNL     1     -12.495  -7.817 -18.668  1.00  0.00     0.048 C 
HETATM   20  C26 UNL     1     -13.274  -6.609 -18.424  1.00  0.00    -0.026 A 
ENDROOT
BRANCH   1  21
HETATM   21  C6  UNL     1     -13.679  -6.274 -20.896  1.00  0.00     0.005 C 
BRANCH  21  22
HETATM   22  C5  UNL     1     -12.585  -6.032 -21.904  1.00  0.00     0.002 C 
BRANCH  22  23
HETATM   23  C4  UNL     1     -12.105  -7.324 -22.519  1.00  0.00     0.030 C 
BRANCH  23  24
HETATM   24  C3  UNL     1     -10.932  -7.114 -23.444  1.00  0.00     0.271 C 
BRANCH  24  25
HETATM   25  N1  UNL     1      -9.817  -7.961 -23.125  1.00  0.00     0.080 N 
HETATM   26  C1  UNL     1      -8.718  -7.602 -24.012  1.00  0.00     0.309 C 
HETATM   27  C2  UNL     1      -9.348  -7.809 -21.778  1.00  0.00     0.309 C 
ENDBRANCH  24  25
ENDBRANCH  23  24
ENDBRANCH  22  23
ENDBRANCH  21  22
ENDBRANCH   1  21
BRANCH  18  28
HETATM   28  O1  UNL     1     -14.149  -9.279 -17.699  1.00  0.00    -0.389 OA
ATOM     29  H1  UNL     1     -14.476  -9.991 -18.237  1.00  0.00     0.210 HD
ENDBRANCH  18  28
TORSDOF 6
ENDMDL
MODEL 2
REMARK VINA RESULT: -8.449557427      2.402      4.850
REMARK  6 active torsions:
REMARK  status: ('A' for Active; 'I' for Inactive)
REMARK    1  A    between atoms: N1_2  and  C3_4 
REMARK    2  A    between atoms: C3_4  and  C4_5 
REMARK    3  A    between atoms: C4_5  and  C5_6 
REMARK    4  A    between atoms: C5_6  and  C6_7 
REMARK    5  A    between atoms: C6_7  and  C7_8 
REMARK    6  A    between atoms: C24_25  and  O1_26 
ROOT
HETATM    1  C7  UNL     1     -11.401  -8.277 -21.929  1.00  0.00    -0.005 C 
HETATM    2  C8  UNL     1     -10.341  -7.813 -22.889  1.00  0.00     0.006 C 
HETATM    3  C9  UNL     1      -9.366  -7.052 -22.046  1.00  0.00     0.006 C 
HETATM    4  C10 UNL     1      -9.536  -7.573 -20.623  1.00  0.00    -0.000 A 
HETATM    5  C11 UNL     1      -9.556  -9.034 -20.424  1.00  0.00    -0.000 A 
HETATM    6  C12 UNL     1      -9.364  -9.700 -19.126  1.00  0.00     0.006 C 
HETATM    7  C13 UNL     1      -9.214  -8.821 -17.937  1.00  0.00     0.008 C 
HETATM    8  C14 UNL     1     -10.587  -8.637 -17.320  1.00  0.00     0.025 C 
HETATM    9  C15 UNL     1     -10.418  -8.294 -15.893  1.00  0.00     0.001 C 
HETATM   10  C16 UNL     1      -9.475  -7.160 -15.618  1.00  0.00     0.006 C 
HETATM   11  C17 UNL     1      -9.235  -7.031 -14.137  1.00  0.00     0.000 C 
HETATM   12  C18 UNL     1     -10.125  -7.903 -13.307  1.00  0.00     0.001 C 
HETATM   13  C19 UNL     1     -11.561  -7.638 -13.772  1.00  0.00     0.009 C 
HETATM   14  C20 UNL     1     -11.754  -8.070 -15.194  1.00  0.00    -0.040 C 
HETATM   15  C21 UNL     1     -12.575  -9.338 -15.187  1.00  0.00     0.015 C 
HETATM   16  C22 UNL     1     -12.451  -6.980 -15.979  1.00  0.00     0.012 C 
HETATM   17  C23 UNL     1     -12.697  -7.432 -17.381  1.00  0.00     0.039 C 
HETATM   18  C24 UNL     1     -11.384  -7.688 -18.138  1.00  0.00     0.062 C 
HETATM   19  C25 UNL     1     -11.742  -8.316 -19.430  1.00  0.00     0.048 C 
HETATM   20  C26 UNL     1     -10.810  -8.223 -20.547  1.00  0.00    -0.026 A 
ENDROOT
BRANCH   1  21
HETATM   21  C6  UNL     1     -12.645  -7.484 -22.120  1.00  0.00     0.005 C 
BRANCH  21  22
HETATM   22  C5  UNL     1     -12.416  -5.994 -22.099  1.00  0.00     0.002 C 
BRANCH  22  23
HETATM   23  C4  UNL     1     -12.997  -5.362 -20.857  1.00  0.00     0.030 C 
BRANCH  23  24
HETATM   24  C3  UNL     1     -14.325  -5.968 -20.476  1.00  0.00     0.271 C 
BRANCH  24  25
HETATM   25  N1  UNL     1     -15.100  -5.113 -19.622  1.00  0.00     0.080 N 
HETATM   26  C1  UNL     1     -15.900  -5.963 -18.750  1.00  0.00     0.309 C 
HETATM   27  C2  UNL     1     -14.302  -4.267 -18.782  1.00  0.00     0.309 C 
ENDBRANCH  24  25
ENDBRANCH  23  24
ENDBRANCH  22  23
ENDBRANCH  21  22
ENDBRANCH   1  21
BRANCH  18  28
HETATM   28  O1  UNL     1     -10.783  -6.440 -18.258  1.00  0.00    -0.389 OA
ATOM     29  H1  UNL     1     -11.393  -5.759 -18.516  1.00  0.00     0.210 HD
ENDBRANCH  18  28
TORSDOF 6
ENDMDL
MODEL 3
REMARK VINA RESULT: -8.367296852      1.186      1.498
REMARK  6 active torsions:
REMARK  status: ('A' for Active; 'I' for Inactive)
REMARK    1  A    between atoms: N1_2  and  C3_4 
REMARK    2  A    between atoms: C3_4  and  C4_5 
REMARK    3  A    between atoms: C4_5  and  C5_6 
REMARK    4  A    between atoms: C5_6  and  C6_7 
REMARK    5  A    between atoms: C6_7  and  C7_8 
REMARK    6  A    between atoms: C24_25  and  O1_26 
ROOT
HETATM    1  C7  UNL     1     -13.893  -5.098 -18.888  1.00  0.00    -0.005 C 
HETATM    2  C8  UNL     1     -15.380  -4.893 -18.967  1.00  0.00     0.006 C 
HETATM    3  C9  UNL     1     -15.966  -6.258 -18.785  1.00  0.00     0.006 C 
HETATM    4  C10 UNL     1     -14.916  -7.076 -18.041  1.00  0.00    -0.000 A 
HETATM    5  C11 UNL     1     -14.299  -6.476 -16.844  1.00  0.00    -0.000 A 
HETATM    6  C12 UNL     1     -13.548  -7.231 -15.828  1.00  0.00     0.006 C 
HETATM    7  C13 UNL     1     -13.348  -8.681 -16.081  1.00  0.00     0.008 C 
HETATM    8  C14 UNL     1     -12.014  -8.850 -16.784  1.00  0.00     0.025 C 
HETATM    9  C15 UNL     1     -11.523 -10.221 -16.535  1.00  0.00     0.001 C 
HETATM   10  C16 UNL     1     -12.506 -11.313 -16.834  1.00  0.00     0.006 C 
HETATM   11  C17 UNL     1     -11.969 -12.640 -16.362  1.00  0.00     0.000 C 
HETATM   12  C18 UNL     1     -10.543 -12.582 -15.910  1.00  0.00     0.001 C 
HETATM   13  C19 UNL     1      -9.750 -11.907 -17.034  1.00  0.00     0.009 C 
HETATM   14  C20 UNL     1     -10.190 -10.487 -17.225  1.00  0.00    -0.040 C 
HETATM   15  C21 UNL     1      -9.111  -9.588 -16.671  1.00  0.00     0.015 C 
HETATM   16  C22 UNL     1     -10.424 -10.207 -18.693  1.00  0.00     0.012 C 
HETATM   17  C23 UNL     1     -10.804  -8.777 -18.891  1.00  0.00     0.039 C 
HETATM   18  C24 UNL     1     -12.139  -8.441 -18.206  1.00  0.00     0.062 C 
HETATM   19  C25 UNL     1     -12.314  -6.973 -18.293  1.00  0.00     0.048 C 
HETATM   20  C26 UNL     1     -13.657  -6.412 -18.197  1.00  0.00    -0.026 A 
ENDROOT
BRANCH   1  21
HETATM   21  C6  UNL     1     -13.288  -4.973 -20.242  1.00  0.00     0.005 C 
BRANCH  21  22
HETATM   22  C5  UNL     1     -13.551  -6.163 -21.128  1.00  0.00     0.002 C 
BRANCH  22  23
HETATM   23  C4  UNL     1     -12.446  -6.355 -22.139  1.00  0.00     0.030 C 
BRANCH  23  24
HETATM   24  C3  UNL     1     -11.916  -7.767 -22.144  1.00  0.00     0.271 C 
BRANCH  24  25
HETATM   25  N1  UNL     1     -10.629  -7.872 -22.772  1.00  0.00     0.080 N 
HETATM   26  C1  UNL     1     -10.658  -7.063 -23.983  1.00  0.00     0.309 C 
HETATM   27  C2  UNL     1      -9.552  -7.386 -21.957  1.00  0.00     0.309 C 
ENDBRANCH  24  25
ENDBRANCH  23  24
ENDBRANCH  22  23
ENDBRANCH  21  22
ENDBRANCH   1  21
BRANCH  18  28
HETATM   28  O1  UNL     1     -13.099  -9.172 -18.898  1.00  0.00    -0.389 OA
ATOM     29  H1  UNL     1     -13.304 -10.000 -18.481  1.00  0.00     0.210 HD
ENDBRANCH  18  28
TORSDOF 6
ENDMDL
MODEL 4
REMARK VINA RESULT: -7.747237408      2.680      6.546
REMARK  6 active torsions:
REMARK  status: ('A' for Active; 'I' for Inactive)
REMARK    1  A    between atoms: N1_2  and  C3_4 
REMARK    2  A    between atoms: C3_4  and  C4_5 
REMARK    3  A    between atoms: C4_5  and  C5_6 
REMARK    4  A    between atoms: C5_6  and  C6_7 
REMARK    5  A    between atoms: C6_7  and  C7_8 
REMARK    6  A    between atoms: C24_25  and  O1_26 
ROOT
HETATM    1  C7  UNL     1     -11.867  -7.289 -14.181  1.00  0.00    -0.005 C 
HETATM    2  C8  UNL     1     -10.943  -7.542 -13.023  1.00  0.00     0.006 C 
HETATM    3  C9  UNL     1      -9.757  -8.232 -13.621  1.00  0.00     0.006 C 
HETATM    4  C10 UNL     1      -9.737  -7.843 -15.095  1.00  0.00    -0.000 A 
HETATM    5  C11 UNL     1      -9.887  -6.416 -15.432  1.00  0.00    -0.000 A 
HETATM    6  C12 UNL     1      -9.551  -5.829 -16.739  1.00  0.00     0.006 C 
HETATM    7  C13 UNL     1      -9.100  -6.767 -17.800  1.00  0.00     0.008 C 
HETATM    8  C14 UNL     1     -10.316  -7.170 -18.611  1.00  0.00     0.025 C 
HETATM    9  C15 UNL     1      -9.866  -7.593 -19.953  1.00  0.00     0.001 C 
HETATM   10  C16 UNL     1      -8.768  -8.615 -19.962  1.00  0.00     0.006 C 
HETATM   11  C17 UNL     1      -8.263  -8.822 -21.366  1.00  0.00     0.000 C 
HETATM   12  C18 UNL     1      -9.089  -8.135 -22.408  1.00  0.00     0.001 C 
HETATM   13  C19 UNL     1     -10.544  -8.546 -22.159  1.00  0.00     0.009 C 
HETATM   14  C20 UNL     1     -11.027  -8.038 -20.835  1.00  0.00    -0.040 C 
HETATM   15  C21 UNL     1     -11.973  -6.889 -21.094  1.00  0.00     0.015 C 
HETATM   16  C22 UNL     1     -11.721  -9.147 -20.073  1.00  0.00     0.012 C 
HETATM   17  C23 UNL     1     -12.255  -8.627 -18.779  1.00  0.00     0.039 C 
HETATM   18  C24 UNL     1     -11.129  -8.150 -17.847  1.00  0.00     0.062 C 
HETATM   19  C25 UNL     1     -11.774  -7.479 -16.695  1.00  0.00     0.048 C 
HETATM   20  C26 UNL     1     -11.044  -7.369 -15.438  1.00  0.00    -0.026 A 
ENDROOT
BRANCH   1  21
HETATM   21  C6  UNL     1     -13.027  -8.218 -14.121  1.00  0.00     0.005 C 
BRANCH  21  22
HETATM   22  C5  UNL     1     -12.834  -9.357 -13.152  1.00  0.00     0.002 C 
BRANCH  22  23
HETATM   23  C4  UNL     1     -13.112 -10.690 -13.803  1.00  0.00     0.030 C 
BRANCH  23  24
HETATM   24  C3  UNL     1     -12.303 -10.890 -15.060  1.00  0.00     0.271 C 
BRANCH  24  25
HETATM   25  N1  UNL     1     -12.455 -12.207 -15.613  1.00  0.00     0.080 N 
HETATM   26  C1  UNL     1     -12.548 -12.072 -17.061  1.00  0.00     0.309 C 
HETATM   27  C2  UNL     1     -11.351 -13.078 -15.333  1.00  0.00     0.309 C 
ENDBRANCH  24  25
ENDBRANCH  23  24
ENDBRANCH  22  23
ENDBRANCH  21  22
ENDBRANCH   1  21
BRANCH  18  28
HETATM   28  O1  UNL     1     -10.420  -9.299 -17.513  1.00  0.00    -0.389 OA
ATOM     29  H1  UNL     1     -10.954  -9.946 -17.067  1.00  0.00     0.210 HD
ENDBRANCH  18  28
TORSDOF 6
ENDMDL
MODEL 5
REMARK VINA RESULT: -7.727847376      2.610      7.011
REMARK  6 active torsions:
REMARK  status: ('A' for Active; 'I' for Inactive)
REMARK    1  A    between atoms: N1_2  and  C3_4 
REMARK    2  A    between atoms: C3_4  and  C4_5 
REMARK    3  A    between atoms: C4_5  and  C5_6 
REMARK    4  A    between atoms: C5_6  and  C6_7 
REMARK    5  A    between atoms: C6_7  and  C7_8 
REMARK    6  A    between atoms: C24_25  and  O1_26 
ROOT
HETATM    1  C7  UNL     1     -12.321 -11.765 -14.348  1.00  0.00    -0.005 C 
HETATM    2  C8  UNL     1     -12.777 -13.195 -14.255  1.00  0.00     0.006 C 
HETATM    3  C9  UNL     1     -13.095 -13.588 -15.664  1.00  0.00     0.006 C 
HETATM    4  C10 UNL     1     -12.291 -12.652 -16.559  1.00  0.00    -0.000 A 
HETATM    5  C11 UNL     1     -10.861 -12.466 -16.251  1.00  0.00    -0.000 A 
HETATM    6  C12 UNL     1      -9.875 -11.895 -17.183  1.00  0.00     0.006 C 
HETATM    7  C13 UNL     1     -10.390 -11.413 -18.491  1.00  0.00     0.008 C 
HETATM    8  C14 UNL     1     -10.696  -9.934 -18.353  1.00  0.00     0.025 C 
HETATM    9  C15 UNL     1     -10.641  -9.317 -19.694  1.00  0.00     0.001 C 
HETATM   10  C16 UNL     1     -11.458 -10.007 -20.746  1.00  0.00     0.006 C 
HETATM   11  C17 UNL     1     -11.172  -9.411 -22.100  1.00  0.00     0.000 C 
HETATM   12  C18 UNL     1     -10.326  -8.178 -22.045  1.00  0.00     0.001 C 
HETATM   13  C19 UNL     1     -10.983  -7.236 -21.030  1.00  0.00     0.009 C 
HETATM   14  C20 UNL     1     -10.958  -7.826 -19.654  1.00  0.00    -0.040 C 
HETATM   15  C21 UNL     1      -9.921  -7.080 -18.847  1.00  0.00     0.015 C 
HETATM   16  C22 UNL     1     -12.324  -7.714 -19.013  1.00  0.00     0.012 C 
HETATM   17  C23 UNL     1     -12.285  -8.247 -17.619  1.00  0.00     0.039 C 
HETATM   18  C24 UNL     1     -11.957  -9.749 -17.591  1.00  0.00     0.062 C 
HETATM   19  C25 UNL     1     -11.747 -10.122 -16.174  1.00  0.00     0.048 C 
HETATM   20  C26 UNL     1     -11.916 -11.514 -15.774  1.00  0.00    -0.026 A 
ENDROOT
BRANCH   1  21
HETATM   21  C6  UNL     1     -13.373 -10.858 -13.816  1.00  0.00     0.005 C 
BRANCH  21  22
HETATM   22  C5  UNL     1     -12.837  -9.790 -12.897  1.00  0.00     0.002 C 
BRANCH  22  23
HETATM   23  C4  UNL     1     -12.892  -8.426 -13.543  1.00  0.00     0.030 C 
BRANCH  23  24
HETATM   24  C3  UNL     1     -11.766  -7.533 -13.088  1.00  0.00     0.271 C 
BRANCH  24  25
HETATM   25  N1  UNL     1     -10.527  -7.821 -13.755  1.00  0.00     0.080 N 
HETATM   26  C1  UNL     1     -10.483  -7.021 -14.972  1.00  0.00     0.309 C 
HETATM   27  C2  UNL     1      -9.367  -7.486 -12.980  1.00  0.00     0.309 C 
ENDBRANCH  24  25
ENDBRANCH  23  24
ENDBRANCH  22  23
ENDBRANCH  21  22
ENDBRANCH   1  21
BRANCH  18  28
HETATM   28  O1  UNL     1     -13.047 -10.372 -18.190  1.00  0.00    -0.389 OA
ATOM     29  H1  UNL     1     -13.873  -9.948 -17.987  1.00  0.00     0.210 HD
ENDBRANCH  18  28
TORSDOF 6
ENDMDL
