MODEL 1
REMARK VINA RESULT: -8.817351934      0.000      0.000
REMARK  9 active torsions:
REMARK  status: ('A' for Active; 'I' for Inactive)
REMARK    1  A    between atoms: C2_2  and  C4_4 
REMARK    2  A    between atoms: C4_4  and  C5_5 
REMARK    3  A    between atoms: C5_5  and  C6_6 
REMARK    4  A    between atoms: C6_6  and  C7_7 
REMARK    5  A    between atoms: C7_7  and  C9_9 
REMARK    6  A    between atoms: C11_11  and  C12_12 
REMARK    7  A    between atoms: C12_12  and  C13_13 
REMARK    8  A    between atoms: C14_14  and  C15_15 
REMARK    9  A    between atoms: C23_25  and  O3_27 
ROOT
HETATM    1  C13 UNL     1       7.755   9.181  20.023  1.00  0.00    -0.003 C 
HETATM    2  C14 UNL     1       7.003   9.390  18.957  1.00  0.00    -0.019 C 
ENDROOT
BRANCH   1   3
HETATM    3  C12 UNL     1       7.308   9.288  21.399  1.00  0.00     0.009 C 
BRANCH   3   4
HETATM    4  C11 UNL     1       6.451   8.397  21.909  1.00  0.00    -0.027 C 
HETATM    5  C10 UNL     1       5.008   8.385  21.904  1.00  0.00     0.042 C 
HETATM    6  C9  UNL     1       4.581   7.216  22.312  1.00  0.00     0.051 C 
HETATM    7  O4  UNL     1       5.686   6.400  22.606  1.00  0.00    -0.345 OA
HETATM    8  C25 UNL     1       6.868   7.168  22.626  1.00  0.00     0.157 C 
HETATM    9  C26 UNL     1       7.295   7.540  24.011  1.00  0.00     0.045 C 
BRANCH   6  10
HETATM   10  C7  UNL     1       3.177   6.768  22.461  1.00  0.00     0.038 C 
HETATM   11  C8  UNL     1       2.888   6.479  23.935  1.00  0.00     0.017 C 
BRANCH  10  12
HETATM   12  C6  UNL     1       2.944   5.484  21.716  1.00  0.00     0.011 C 
BRANCH  12  13
HETATM   13  C5  UNL     1       3.089   5.687  20.236  1.00  0.00     0.001 C 
BRANCH  13  14
HETATM   14  C4  UNL     1       1.945   6.475  19.689  1.00  0.00     0.004 C 
BRANCH  14  15
HETATM   15  C2  UNL     1       0.899   5.539  19.138  1.00  0.00    -0.023 C 
HETATM   16  C1  UNL     1       1.642   4.423  18.420  1.00  0.00     0.009 C 
HETATM   17  C3  UNL     1       0.025   6.301  18.152  1.00  0.00     0.009 C 
ENDBRANCH  14  15
ENDBRANCH  13  14
ENDBRANCH  12  13
ENDBRANCH  10  12
ENDBRANCH   6  10
ENDBRANCH   3   4
ENDBRANCH   1   3
BRANCH   2  18
HETATM   18  C15 UNL     1       5.591   9.763  19.007  1.00  0.00     0.048 C 
HETATM   19  C16 UNL     1       4.709   8.895  18.154  1.00  0.00     0.025 C 
HETATM   20  C17 UNL     1       5.471   8.080  17.138  1.00  0.00     0.184 C 
HETATM   21  C20 UNL     1       3.635   9.660  17.425  1.00  0.00     0.002 C 
HETATM   22  O1  UNL     1       4.568   7.042  16.721  1.00  0.00    -0.321 OA
HETATM   23  C18 UNL     1       3.240   7.410  16.434  1.00  0.00     0.259 C 
HETATM   24  O2  UNL     1       2.558   6.617  15.751  1.00  0.00    -0.265 OA
HETATM   25  C19 UNL     1       2.632   8.664  16.896  1.00  0.00     0.116 C 
HETATM   26  C21 UNL     1       3.013  10.609  18.427  1.00  0.00     0.008 C 
HETATM   27  C22 UNL     1       4.011  11.687  18.715  1.00  0.00     0.038 C 
HETATM   28  C23 UNL     1       5.437  11.248  18.678  1.00  0.00     0.061 C 
HETATM   29  C24 UNL     1       6.156  11.638  17.425  1.00  0.00     0.046 C 
BRANCH  28  30
HETATM   30  O3  UNL     1       6.090  11.918  19.742  1.00  0.00    -0.390 OA
ATOM     31  H3  UNL     1       7.012  11.888  19.513  1.00  0.00     0.210 HD
ENDBRANCH  28  30
ENDBRANCH   2  18
TORSDOF 9
ENDMDL
MODEL 2
REMARK VINA RESULT: -8.751384468      1.587      2.352
REMARK  9 active torsions:
REMARK  status: ('A' for Active; 'I' for Inactive)
REMARK    1  A    between atoms: C2_2  and  C4_4 
REMARK    2  A    between atoms: C4_4  and  C5_5 
REMARK    3  A    between atoms: C5_5  and  C6_6 
REMARK    4  A    between atoms: C6_6  and  C7_7 
REMARK    5  A    between atoms: C7_7  and  C9_9 
REMARK    6  A    between atoms: C11_11  and  C12_12 
REMARK    7  A    between atoms: C12_12  and  C13_13 
REMARK    8  A    between atoms: C14_14  and  C15_15 
REMARK    9  A    between atoms: C23_25  and  O3_27 
ROOT
HETATM    1  C13 UNL     1       6.104  11.415  18.588  1.00  0.00    -0.003 C 
HETATM    2  C14 UNL     1       5.548  10.756  17.586  1.00  0.00    -0.019 C 
ENDROOT
BRANCH   1   3
HETATM    3  C12 UNL     1       5.712  11.312  19.980  1.00  0.00     0.009 C 
BRANCH   3   4
HETATM    4  C11 UNL     1       5.687  10.125  20.597  1.00  0.00    -0.027 C 
HETATM    5  C10 UNL     1       4.766   9.605  21.580  1.00  0.00     0.042 C 
HETATM    6  C9  UNL     1       4.979   8.324  21.741  1.00  0.00     0.051 C 
HETATM    7  O4  UNL     1       6.027   7.922  20.896  1.00  0.00    -0.345 OA
HETATM    8  C25 UNL     1       6.679   9.050  20.357  1.00  0.00     0.157 C 
HETATM    9  C26 UNL     1       7.943   9.391  21.081  1.00  0.00     0.045 C 
BRANCH   6  10
HETATM   10  C7  UNL     1       4.266   7.396  22.649  1.00  0.00     0.038 C 
HETATM   11  C8  UNL     1       5.175   7.036  23.825  1.00  0.00     0.017 C 
BRANCH  10  12
HETATM   12  C6  UNL     1       3.937   6.109  21.947  1.00  0.00     0.011 C 
BRANCH  12  13
HETATM   13  C5  UNL     1       2.689   6.247  21.125  1.00  0.00     0.001 C 
BRANCH  13  14
HETATM   14  C4  UNL     1       2.822   5.525  19.825  1.00  0.00     0.004 C 
BRANCH  14  15
HETATM   15  C2  UNL     1       1.584   4.702  19.572  1.00  0.00    -0.023 C 
HETATM   16  C1  UNL     1       1.999   3.552  18.667  1.00  0.00     0.009 C 
HETATM   17  C3  UNL     1       0.549   5.569  18.870  1.00  0.00     0.009 C 
ENDBRANCH  14  15
ENDBRANCH  13  14
ENDBRANCH  12  13
ENDBRANCH  10  12
ENDBRANCH   6  10
ENDBRANCH   3   4
ENDBRANCH   1   3
BRANCH   2  18
HETATM   18  C15 UNL     1       4.441   9.814  17.736  1.00  0.00     0.048 C 
HETATM   19  C16 UNL     1       4.747   8.440  17.209  1.00  0.00     0.025 C 
HETATM   20  C17 UNL     1       5.953   8.398  16.303  1.00  0.00     0.184 C 
HETATM   21  C20 UNL     1       3.593   7.807  16.476  1.00  0.00     0.002 C 
HETATM   22  O1  UNL     1       6.338   7.016  16.237  1.00  0.00    -0.321 OA
HETATM   23  C18 UNL     1       5.319   6.063  16.051  1.00  0.00     0.259 C 
HETATM   24  O2  UNL     1       5.657   4.930  15.647  1.00  0.00    -0.265 OA
HETATM   25  C19 UNL     1       3.900   6.339  16.306  1.00  0.00     0.116 C 
HETATM   26  C21 UNL     1       2.357   8.030  17.322  1.00  0.00     0.008 C 
HETATM   27  C22 UNL     1       2.006   9.483  17.243  1.00  0.00     0.038 C 
HETATM   28  C23 UNL     1       3.174  10.405  17.118  1.00  0.00     0.061 C 
HETATM   29  C24 UNL     1       3.394  10.916  15.730  1.00  0.00     0.046 C 
BRANCH  28  30
HETATM   30  O3  UNL     1       2.879  11.534  17.922  1.00  0.00    -0.390 OA
ATOM     31  H3  UNL     1       3.622  12.114  17.798  1.00  0.00     0.210 HD
ENDBRANCH  28  30
ENDBRANCH   2  18
TORSDOF 9
ENDMDL
MODEL 3
REMARK VINA RESULT: -8.615657421      1.225      1.591
REMARK  9 active torsions:
REMARK  status: ('A' for Active; 'I' for Inactive)
REMARK    1  A    between atoms: C2_2  and  C4_4 
REMARK    2  A    between atoms: C4_4  and  C5_5 
REMARK    3  A    between atoms: C5_5  and  C6_6 
REMARK    4  A    between atoms: C6_6  and  C7_7 
REMARK    5  A    between atoms: C7_7  and  C9_9 
REMARK    6  A    between atoms: C11_11  and  C12_12 
REMARK    7  A    between atoms: C12_12  and  C13_13 
REMARK    8  A    between atoms: C14_14  and  C15_15 
REMARK    9  A    between atoms: C23_25  and  O3_27 
ROOT
HETATM    1  C13 UNL     1       6.834  10.734  19.756  1.00  0.00    -0.003 C 
HETATM    2  C14 UNL     1       6.324  10.497  18.560  1.00  0.00    -0.019 C 
ENDROOT
BRANCH   1   3
HETATM    3  C12 UNL     1       6.141  10.543  21.016  1.00  0.00     0.009 C 
BRANCH   3   4
HETATM    4  C11 UNL     1       5.685   9.336  21.367  1.00  0.00    -0.027 C 
HETATM    5  C10 UNL     1       4.353   8.915  21.732  1.00  0.00     0.042 C 
HETATM    6  C9  UNL     1       4.308   7.607  21.779  1.00  0.00     0.051 C 
HETATM    7  O4  UNL     1       5.575   7.091  21.457  1.00  0.00    -0.345 OA
HETATM    8  C25 UNL     1       6.535   8.124  21.449  1.00  0.00     0.157 C 
HETATM    9  C26 UNL     1       7.334   8.182  22.713  1.00  0.00     0.045 C 
BRANCH   6  10
HETATM   10  C7  UNL     1       3.144   6.753  22.111  1.00  0.00     0.038 C 
HETATM   11  C8  UNL     1       3.204   6.364  23.589  1.00  0.00     0.017 C 
BRANCH  10  12
HETATM   12  C6  UNL     1       3.178   5.473  21.326  1.00  0.00     0.011 C 
BRANCH  12  13
HETATM   13  C5  UNL     1       2.928   5.729  19.868  1.00  0.00     0.001 C 
BRANCH  13  14
HETATM   14  C4  UNL     1       1.648   6.471  19.668  1.00  0.00     0.004 C 
BRANCH  14  15
HETATM   15  C2  UNL     1       0.967   5.983  18.414  1.00  0.00    -0.023 C 
HETATM   16  C1  UNL     1      -0.260   6.858  18.210  1.00  0.00     0.009 C 
HETATM   17  C3  UNL     1       0.546   4.534  18.614  1.00  0.00     0.009 C 
ENDBRANCH  14  15
ENDBRANCH  13  14
ENDBRANCH  12  13
ENDBRANCH  10  12
ENDBRANCH   6  10
ENDBRANCH   3   4
ENDBRANCH   1   3
BRANCH   2  18
HETATM   18  C15 UNL     1       4.969  10.001  18.327  1.00  0.00     0.048 C 
HETATM   19  C16 UNL     1       4.930   8.638  17.694  1.00  0.00     0.025 C 
HETATM   20  C17 UNL     1       6.244   8.222  17.081  1.00  0.00     0.184 C 
HETATM   21  C20 UNL     1       3.860   8.495  16.643  1.00  0.00     0.002 C 
HETATM   22  O1  UNL     1       6.156   6.798  16.909  1.00  0.00    -0.321 OA
HETATM   23  C18 UNL     1       4.964   6.279  16.370  1.00  0.00     0.259 C 
HETATM   24  O2  UNL     1       5.001   5.124  15.897  1.00  0.00    -0.265 OA
HETATM   25  C19 UNL     1       3.699   7.025  16.342  1.00  0.00     0.116 C 
HETATM   26  C21 UNL     1       2.594   9.094  17.217  1.00  0.00     0.008 C 
HETATM   27  C22 UNL     1       2.774  10.580  17.265  1.00  0.00     0.038 C 
HETATM   28  C23 UNL     1       4.170  11.034  17.533  1.00  0.00     0.061 C 
HETATM   29  C24 UNL     1       4.894  11.509  16.313  1.00  0.00     0.046 C 
BRANCH  28  30
HETATM   30  O3  UNL     1       4.069  12.149  18.401  1.00  0.00    -0.390 OA
ATOM     31  H3  UNL     1       4.891  12.613  18.290  1.00  0.00     0.210 HD
ENDBRANCH  28  30
ENDBRANCH   2  18
TORSDOF 9
ENDMDL
MODEL 4
REMARK VINA RESULT: -8.462992207      2.006      4.849
REMARK  9 active torsions:
REMARK  status: ('A' for Active; 'I' for Inactive)
REMARK    1  A    between atoms: C2_2  and  C4_4 
REMARK    2  A    between atoms: C4_4  and  C5_5 
REMARK    3  A    between atoms: C5_5  and  C6_6 
REMARK    4  A    between atoms: C6_6  and  C7_7 
REMARK    5  A    between atoms: C7_7  and  C9_9 
REMARK    6  A    between atoms: C11_11  and  C12_12 
REMARK    7  A    between atoms: C12_12  and  C13_13 
REMARK    8  A    between atoms: C14_14  and  C15_15 
REMARK    9  A    between atoms: C23_25  and  O3_27 
ROOT
HETATM    1  C13 UNL     1       3.325   8.865  14.939  1.00  0.00    -0.003 C 
HETATM    2  C14 UNL     1       3.450  10.153  15.208  1.00  0.00    -0.019 C 
ENDROOT
BRANCH   1   3
HETATM    3  C12 UNL     1       4.290   7.839  15.281  1.00  0.00     0.009 C 
BRANCH   3   4
HETATM    4  C11 UNL     1       4.057   6.992  16.290  1.00  0.00    -0.027 C 
HETATM    5  C10 UNL     1       2.812   6.587  16.897  1.00  0.00     0.042 C 
HETATM    6  C9  UNL     1       3.027   5.572  17.697  1.00  0.00     0.051 C 
HETATM    7  O4  UNL     1       4.394   5.248  17.671  1.00  0.00    -0.345 OA
HETATM    8  C25 UNL     1       5.124   6.263  17.018  1.00  0.00     0.157 C 
HETATM    9  C26 UNL     1       5.787   7.206  17.972  1.00  0.00     0.045 C 
BRANCH   6  10
HETATM   10  C7  UNL     1       2.035   4.843  18.520  1.00  0.00     0.038 C 
HETATM   11  C8  UNL     1       0.767   5.688  18.656  1.00  0.00     0.017 C 
BRANCH  10  12
HETATM   12  C6  UNL     1       2.555   4.618  19.911  1.00  0.00     0.011 C 
BRANCH  12  13
HETATM   13  C5  UNL     1       2.402   5.854  20.749  1.00  0.00     0.001 C 
BRANCH  13  14
HETATM   14  C4  UNL     1       3.730   6.472  21.039  1.00  0.00     0.004 C 
BRANCH  14  15
HETATM   15  C2  UNL     1       4.116   6.199  22.471  1.00  0.00    -0.023 C 
HETATM   16  C1  UNL     1       3.077   6.887  23.345  1.00  0.00     0.009 C 
HETATM   17  C3  UNL     1       5.492   6.794  22.734  1.00  0.00     0.009 C 
ENDBRANCH  14  15
ENDBRANCH  13  14
ENDBRANCH  12  13
ENDBRANCH  10  12
ENDBRANCH   6  10
ENDBRANCH   3   4
ENDBRANCH   1   3
BRANCH   2  18
HETATM   18  C15 UNL     1       4.596  10.740  15.900  1.00  0.00     0.048 C 
HETATM   19  C16 UNL     1       4.577  10.518  17.387  1.00  0.00     0.025 C 
HETATM   20  C17 UNL     1       3.229  10.088  17.913  1.00  0.00     0.184 C 
HETATM   21  C20 UNL     1       5.023  11.720  18.179  1.00  0.00     0.002 C 
HETATM   22  O1  UNL     1       3.483   9.535  19.215  1.00  0.00    -0.321 OA
HETATM   23  C18 UNL     1       4.347  10.245  20.069  1.00  0.00     0.259 C 
HETATM   24  O2  UNL     1       4.299   9.977  21.288  1.00  0.00    -0.265 OA
HETATM   25  C19 UNL     1       5.285  11.270  19.596  1.00  0.00     0.116 C 
HETATM   26  C21 UNL     1       6.277  12.247  17.514  1.00  0.00     0.008 C 
HETATM   27  C22 UNL     1       5.874  12.873  16.214  1.00  0.00     0.038 C 
HETATM   28  C23 UNL     1       4.718  12.219  15.535  1.00  0.00     0.061 C 
HETATM   29  C24 UNL     1       3.427  12.960  15.694  1.00  0.00     0.046 C 
BRANCH  28  30
HETATM   30  O3  UNL     1       5.015  12.220  14.149  1.00  0.00    -0.390 OA
ATOM     31  H3  UNL     1       4.502  12.938  13.796  1.00  0.00     0.210 HD
ENDBRANCH  28  30
ENDBRANCH   2  18
TORSDOF 9
ENDMDL
MODEL 5
REMARK VINA RESULT: -8.418268990      1.972      5.075
REMARK  9 active torsions:
REMARK  status: ('A' for Active; 'I' for Inactive)
REMARK    1  A    between atoms: C2_2  and  C4_4 
REMARK    2  A    between atoms: C4_4  and  C5_5 
REMARK    3  A    between atoms: C5_5  and  C6_6 
REMARK    4  A    between atoms: C6_6  and  C7_7 
REMARK    5  A    between atoms: C7_7  and  C9_9 
REMARK    6  A    between atoms: C11_11  and  C12_12 
REMARK    7  A    between atoms: C12_12  and  C13_13 
REMARK    8  A    between atoms: C14_14  and  C15_15 
REMARK    9  A    between atoms: C23_25  and  O3_27 
ROOT
HETATM    1  C13 UNL     1       2.563   6.312  16.525  1.00  0.00    -0.003 C 
HETATM    2  C14 UNL     1       3.830   6.477  16.188  1.00  0.00    -0.019 C 
ENDROOT
BRANCH   1   3
HETATM    3  C12 UNL     1       1.947   6.804  17.742  1.00  0.00     0.009 C 
BRANCH   3   4
HETATM    4  C11 UNL     1       2.233   6.248  18.924  1.00  0.00    -0.027 C 
HETATM    5  C10 UNL     1       3.224   6.609  19.909  1.00  0.00     0.042 C 
HETATM    6  C9  UNL     1       3.006   5.940  21.013  1.00  0.00     0.051 C 
HETATM    7  O4  UNL     1       1.883   5.115  20.836  1.00  0.00    -0.345 OA
HETATM    8  C25 UNL     1       1.521   5.068  19.474  1.00  0.00     0.157 C 
HETATM    9  C26 UNL     1       2.022   3.839  18.782  1.00  0.00     0.045 C 
BRANCH   6  10
HETATM   10  C7  UNL     1       3.778   6.001  22.276  1.00  0.00     0.038 C 
HETATM   11  C8  UNL     1       3.082   6.949  23.254  1.00  0.00     0.017 C 
BRANCH  10  12
HETATM   12  C6  UNL     1       5.152   6.561  22.035  1.00  0.00     0.011 C 
BRANCH  12  13
HETATM   13  C5  UNL     1       5.200   8.025  22.357  1.00  0.00     0.001 C 
BRANCH  13  14
HETATM   14  C4  UNL     1       5.967   8.777  21.320  1.00  0.00     0.004 C 
BRANCH  14  15
HETATM   15  C2  UNL     1       5.352  10.139  21.120  1.00  0.00    -0.023 C 
HETATM   16  C1  UNL     1       4.233   9.971  20.103  1.00  0.00     0.009 C 
HETATM   17  C3  UNL     1       6.414  11.084  20.574  1.00  0.00     0.009 C 
ENDBRANCH  14  15
ENDBRANCH  13  14
ENDBRANCH  12  13
ENDBRANCH  10  12
ENDBRANCH   6  10
ENDBRANCH   3   4
ENDBRANCH   1   3
BRANCH   2  18
HETATM   18  C15 UNL     1       4.811   7.189  17.004  1.00  0.00     0.048 C 
HETATM   19  C16 UNL     1       4.798   8.678  16.795  1.00  0.00     0.025 C 
HETATM   20  C17 UNL     1       4.073   9.103  15.542  1.00  0.00     0.184 C 
HETATM   21  C20 UNL     1       6.173   9.293  16.768  1.00  0.00     0.002 C 
HETATM   22  O1  UNL     1       3.798  10.503  15.712  1.00  0.00    -0.321 OA
HETATM   23  C18 UNL     1       4.837  11.317  16.201  1.00  0.00     0.259 C 
HETATM   24  O2  UNL     1       4.736  12.549  16.022  1.00  0.00    -0.265 OA
HETATM   25  C19 UNL     1       6.016  10.788  16.899  1.00  0.00     0.116 C 
HETATM   26  C21 UNL     1       6.944   8.703  17.930  1.00  0.00     0.008 C 
HETATM   27  C22 UNL     1       7.244   7.274  17.599  1.00  0.00     0.038 C 
HETATM   28  C23 UNL     1       6.199   6.585  16.788  1.00  0.00     0.061 C 
HETATM   29  C24 UNL     1       6.549   6.450  15.340  1.00  0.00     0.046 C 
BRANCH  28  30
HETATM   30  O3  UNL     1       6.096   5.268  17.302  1.00  0.00    -0.390 OA
ATOM     31  H3  UNL     1       6.706   5.249  18.031  1.00  0.00     0.210 HD
ENDBRANCH  28  30
ENDBRANCH   2  18
TORSDOF 9
ENDMDL
