MODEL 1
REMARK VINA RESULT: -6.251302957      0.000      0.000
REMARK  3 active torsions:
REMARK  status: ('A' for Active; 'I' for Inactive)
REMARK    1  A    between atoms: C2_2  and  O1_4 
REMARK    2  A    between atoms: C2_2  and  C4_6 
REMARK    3  A    between atoms: C14_16  and  O2_17 
ROOT
HETATM    1  C4  UNL     1       4.563  55.516  51.242  1.00  0.00     0.022 C 
HETATM    2  C5  UNL     1       3.386  56.426  51.244  1.00  0.00     0.011 C 
HETATM    3  C6  UNL     1       3.323  56.964  49.836  1.00  0.00     0.042 C 
HETATM    4  C7  UNL     1       4.795  57.251  49.570  1.00  0.00     0.097 C 
HETATM    5  C8  UNL     1       5.125  57.325  48.123  1.00  0.00     0.041 C 
HETATM    6  C9  UNL     1       4.688  58.567  47.435  1.00  0.00     0.006 C 
HETATM    7  C10 UNL     1       5.609  59.747  47.666  1.00  0.00     0.041 C 
HETATM    8  C11 UNL     1       5.641  60.159  49.115  1.00  0.00     0.096 C 
HETATM    9  C12 UNL     1       6.669  61.252  49.260  1.00  0.00     0.044 C 
HETATM   10  C13 UNL     1       6.288  62.287  50.285  1.00  0.00     0.035 C 
HETATM   11  C14 UNL     1       4.970  62.945  50.006  1.00  0.00     0.118 C 
HETATM   12  C15 UNL     1       4.118  62.081  49.103  1.00  0.00     0.035 C 
HETATM   13  C16 UNL     1       4.312  60.642  49.579  1.00  0.00     0.044 C 
HETATM   14  O3  UNL     1       6.116  59.056  49.838  1.00  0.00    -0.229 OA
HETATM   15  O4  UNL     1       5.137  58.355  50.303  1.00  0.00    -0.229 OA
HETATM   16  C17 UNL     1       5.426  55.964  50.119  1.00  0.00     0.049 C 
ENDROOT
BRANCH   1  17
HETATM   17  C2  UNL     1       4.145  54.073  51.163  1.00  0.00     0.054 C 
HETATM   18  C1  UNL     1       4.400  53.459  49.827  1.00  0.00     0.045 C 
HETATM   19  C3  UNL     1       2.710  53.851  51.536  1.00  0.00     0.045 C 
BRANCH  17  20
HETATM   20  O1  UNL     1       4.926  53.372  52.104  1.00  0.00    -0.390 OA
ATOM     21  H1  UNL     1       4.393  53.250  52.880  1.00  0.00     0.210 HD
ENDBRANCH  17  20
ENDBRANCH   1  17
BRANCH  11  22
HETATM   22  O2  UNL     1       5.076  64.218  49.487  1.00  0.00    -0.396 OA
ATOM     23  H2  UNL     1       4.447  64.835  49.843  1.00  0.00     0.210 HD
ENDBRANCH  11  22
TORSDOF 3
ENDMDL
MODEL 2
REMARK VINA RESULT: -6.144454199      2.365      6.742
REMARK  3 active torsions:
REMARK  status: ('A' for Active; 'I' for Inactive)
REMARK    1  A    between atoms: C2_2  and  O1_4 
REMARK    2  A    between atoms: C2_2  and  C4_6 
REMARK    3  A    between atoms: C14_16  and  O2_17 
ROOT
HETATM    1  C4  UNL     1       5.677  62.638  48.581  1.00  0.00     0.022 C 
HETATM    2  C5  UNL     1       6.192  62.233  49.916  1.00  0.00     0.011 C 
HETATM    3  C6  UNL     1       6.416  60.745  49.799  1.00  0.00     0.042 C 
HETATM    4  C7  UNL     1       5.158  60.322  49.053  1.00  0.00     0.097 C 
HETATM    5  C8  UNL     1       5.301  59.015  48.359  1.00  0.00     0.041 C 
HETATM    6  C9  UNL     1       5.264  57.821  49.241  1.00  0.00     0.006 C 
HETATM    7  C10 UNL     1       3.865  57.407  49.648  1.00  0.00     0.041 C 
HETATM    8  C11 UNL     1       3.188  58.463  50.483  1.00  0.00     0.096 C 
HETATM    9  C12 UNL     1       1.771  58.014  50.733  1.00  0.00     0.044 C 
HETATM   10  C13 UNL     1       1.258  58.408  52.092  1.00  0.00     0.035 C 
HETATM   11  C14 UNL     1       2.098  57.889  53.220  1.00  0.00     0.118 C 
HETATM   12  C15 UNL     1       3.495  57.559  52.742  1.00  0.00     0.035 C 
HETATM   13  C16 UNL     1       3.893  58.675  51.777  1.00  0.00     0.044 C 
HETATM   14  O3  UNL     1       3.116  59.618  49.693  1.00  0.00    -0.229 OA
HETATM   15  O4  UNL     1       4.113  60.402  49.933  1.00  0.00    -0.229 OA
HETATM   16  C17 UNL     1       5.102  61.411  47.973  1.00  0.00     0.049 C 
ENDROOT
BRANCH   1  17
HETATM   17  C2  UNL     1       6.748  63.295  47.753  1.00  0.00     0.054 C 
HETATM   18  C1  UNL     1       7.588  62.321  46.997  1.00  0.00     0.045 C 
HETATM   19  C3  UNL     1       7.643  64.196  48.551  1.00  0.00     0.045 C 
BRANCH  17  20
HETATM   20  O1  UNL     1       6.089  64.106  46.807  1.00  0.00    -0.390 OA
ATOM     21  H1  UNL     1       5.220  64.288  47.145  1.00  0.00     0.210 HD
ENDBRANCH  17  20
ENDBRANCH   1  17
BRANCH  11  22
HETATM   22  O2  UNL     1       1.550  56.806  53.875  1.00  0.00    -0.396 OA
ATOM     23  H2  UNL     1       0.919  57.039  54.546  1.00  0.00     0.210 HD
ENDBRANCH  11  22
TORSDOF 3
ENDMDL
MODEL 3
REMARK VINA RESULT: -6.014351647      1.900      6.869
REMARK  3 active torsions:
REMARK  status: ('A' for Active; 'I' for Inactive)
REMARK    1  A    between atoms: C2_2  and  O1_4 
REMARK    2  A    between atoms: C2_2  and  C4_6 
REMARK    3  A    between atoms: C14_16  and  O2_17 
ROOT
HETATM    1  C4  UNL     1       6.356  61.546  48.994  1.00  0.00     0.022 C 
HETATM    2  C5  UNL     1       5.749  60.520  48.105  1.00  0.00     0.011 C 
HETATM    3  C6  UNL     1       4.271  60.590  48.402  1.00  0.00     0.042 C 
HETATM    4  C7  UNL     1       4.286  60.700  49.921  1.00  0.00     0.097 C 
HETATM    5  C8  UNL     1       3.034  61.272  50.479  1.00  0.00     0.041 C 
HETATM    6  C9  UNL     1       1.865  60.355  50.488  1.00  0.00     0.006 C 
HETATM    7  C10 UNL     1       1.877  59.365  51.634  1.00  0.00     0.041 C 
HETATM    8  C11 UNL     1       3.047  58.419  51.546  1.00  0.00     0.096 C 
HETATM    9  C12 UNL     1       3.039  57.559  52.784  1.00  0.00     0.044 C 
HETATM   10  C13 UNL     1       3.503  56.151  52.528  1.00  0.00     0.035 C 
HETATM   11  C14 UNL     1       2.698  55.438  51.483  1.00  0.00     0.118 C 
HETATM   12  C15 UNL     1       1.983  56.427  50.589  1.00  0.00     0.035 C 
HETATM   13  C16 UNL     1       2.971  57.563  50.330  1.00  0.00     0.044 C 
HETATM   14  O3  UNL     1       4.206  59.203  51.603  1.00  0.00    -0.229 OA
HETATM   15  O4  UNL     1       4.638  59.473  50.417  1.00  0.00    -0.229 OA
HETATM   16  C17 UNL     1       5.392  61.748  50.107  1.00  0.00     0.049 C 
ENDROOT
BRANCH   1  17
HETATM   17  C2  UNL     1       6.696  62.802  48.237  1.00  0.00     0.054 C 
HETATM   18  C1  UNL     1       7.555  62.553  47.042  1.00  0.00     0.045 C 
HETATM   19  C3  UNL     1       7.342  63.851  49.092  1.00  0.00     0.045 C 
BRANCH  17  20
HETATM   20  O1  UNL     1       5.479  63.341  47.776  1.00  0.00    -0.390 OA
ATOM     21  H1  UNL     1       4.912  63.447  48.530  1.00  0.00     0.210 HD
ENDBRANCH  17  20
ENDBRANCH   1  17
BRANCH  11  22
HETATM   22  O2  UNL     1       1.803  54.521  51.992  1.00  0.00    -0.396 OA
ATOM     23  H2  UNL     1       1.005  54.437  51.484  1.00  0.00     0.210 HD
ENDBRANCH  11  22
TORSDOF 3
ENDMDL
MODEL 4
REMARK VINA RESULT: -5.924166044      1.864      2.377
REMARK  3 active torsions:
REMARK  status: ('A' for Active; 'I' for Inactive)
REMARK    1  A    between atoms: C2_2  and  O1_4 
REMARK    2  A    between atoms: C2_2  and  C4_6 
REMARK    3  A    between atoms: C14_16  and  O2_17 
ROOT
HETATM    1  C4  UNL     1       3.107  56.658  53.189  1.00  0.00     0.022 C 
HETATM    2  C5  UNL     1       2.438  57.971  53.386  1.00  0.00     0.011 C 
HETATM    3  C6  UNL     1       1.960  58.361  52.009  1.00  0.00     0.042 C 
HETATM    4  C7  UNL     1       3.170  57.983  51.165  1.00  0.00     0.097 C 
HETATM    5  C8  UNL     1       2.843  57.786  49.728  1.00  0.00     0.041 C 
HETATM    6  C9  UNL     1       2.606  59.032  48.955  1.00  0.00     0.006 C 
HETATM    7  C10 UNL     1       3.877  59.736  48.529  1.00  0.00     0.041 C 
HETATM    8  C11 UNL     1       4.673  60.222  49.713  1.00  0.00     0.096 C 
HETATM    9  C12 UNL     1       5.966  60.796  49.194  1.00  0.00     0.044 C 
HETATM   10  C13 UNL     1       6.447  61.981  49.988  1.00  0.00     0.035 C 
HETATM   11  C14 UNL     1       5.453  63.101  50.048  1.00  0.00     0.118 C 
HETATM   12  C15 UNL     1       4.055  62.596  49.766  1.00  0.00     0.035 C 
HETATM   13  C16 UNL     1       3.931  61.254  50.487  1.00  0.00     0.044 C 
HETATM   14  O3  UNL     1       5.005  59.090  50.469  1.00  0.00    -0.229 OA
HETATM   15  O4  UNL     1       4.150  58.905  51.418  1.00  0.00    -0.229 OA
HETATM   16  C17 UNL     1       3.494  56.604  51.755  1.00  0.00     0.049 C 
ENDROOT
BRANCH   1  17
HETATM   17  C2  UNL     1       2.231  55.518  53.635  1.00  0.00     0.054 C 
HETATM   18  C1  UNL     1       1.580  54.798  52.502  1.00  0.00     0.045 C 
HETATM   19  C3  UNL     1       1.179  55.933  54.620  1.00  0.00     0.045 C 
BRANCH  17  20
HETATM   20  O1  UNL     1       3.068  54.597  54.294  1.00  0.00    -0.390 OA
ATOM     21  H1  UNL     1       3.007  54.773  55.226  1.00  0.00     0.210 HD
ENDBRANCH  17  20
ENDBRANCH   1  17
BRANCH  11  22
HETATM   22  O2  UNL     1       5.752  64.163  49.221  1.00  0.00    -0.396 OA
ATOM     23  H2  UNL     1       6.089  63.908  48.371  1.00  0.00     0.210 HD
ENDBRANCH  11  22
TORSDOF 3
ENDMDL
MODEL 5
REMARK VINA RESULT: -5.919309990      2.379      7.032
REMARK  3 active torsions:
REMARK  status: ('A' for Active; 'I' for Inactive)
REMARK    1  A    between atoms: C2_2  and  O1_4 
REMARK    2  A    between atoms: C2_2  and  C4_6 
REMARK    3  A    between atoms: C14_16  and  O2_17 
ROOT
HETATM    1  C4  UNL     1       4.582  60.571  50.467  1.00  0.00     0.022 C 
HETATM    2  C5  UNL     1       5.352  59.309  50.309  1.00  0.00     0.011 C 
HETATM    3  C6  UNL     1       4.320  58.286  49.901  1.00  0.00     0.042 C 
HETATM    4  C7  UNL     1       3.177  58.637  50.845  1.00  0.00     0.097 C 
HETATM    5  C8  UNL     1       1.856  58.146  50.372  1.00  0.00     0.041 C 
HETATM    6  C9  UNL     1       1.629  56.687  50.527  1.00  0.00     0.006 C 
HETATM    7  C10 UNL     1       1.234  56.278  51.931  1.00  0.00     0.041 C 
HETATM    8  C11 UNL     1       2.332  56.554  52.926  1.00  0.00     0.096 C 
HETATM    9  C12 UNL     1       1.802  56.228  54.299  1.00  0.00     0.044 C 
HETATM   10  C13 UNL     1       2.849  55.650  55.213  1.00  0.00     0.035 C 
HETATM   11  C14 UNL     1       3.491  54.407  54.674  1.00  0.00     0.118 C 
HETATM   12  C15 UNL     1       3.330  54.327  53.172  1.00  0.00     0.035 C 
HETATM   13  C16 UNL     1       3.547  55.744  52.641  1.00  0.00     0.044 C 
HETATM   14  O3  UNL     1       2.565  57.936  52.897  1.00  0.00    -0.229 OA
HETATM   15  O4  UNL     1       3.538  58.221  52.098  1.00  0.00    -0.229 OA
HETATM   16  C17 UNL     1       3.173  60.166  50.712  1.00  0.00     0.049 C 
ENDROOT
BRANCH   1  17
HETATM   17  C2  UNL     1       4.766  61.483  49.284  1.00  0.00     0.054 C 
HETATM   18  C1  UNL     1       5.917  61.097  48.417  1.00  0.00     0.045 C 
HETATM   19  C3  UNL     1       4.905  62.926  49.667  1.00  0.00     0.045 C 
BRANCH  17  20
HETATM   20  O1  UNL     1       3.597  61.377  48.504  1.00  0.00    -0.390 OA
ATOM     21  H1  UNL     1       3.848  61.508  47.598  1.00  0.00     0.210 HD
ENDBRANCH  17  20
ENDBRANCH   1  17
BRANCH  11  22
HETATM   22  O2  UNL     1       3.044  53.243  55.264  1.00  0.00    -0.396 OA
ATOM     23  H2  UNL     1       3.740  52.653  55.530  1.00  0.00     0.210 HD
ENDBRANCH  11  22
TORSDOF 3
ENDMDL
