MODEL 1
REMARK VINA RESULT: -7.827067285      0.000      0.000
REMARK  6 active torsions:
REMARK  status: ('A' for Active; 'I' for Inactive)
REMARK       I    between atoms: C1_2  and  N5_13 
REMARK    1  A    between atoms: N2_3  and  N3_5 
REMARK    2  A    between atoms: N3_5  and  S1_7 
REMARK    3  A    between atoms: S1_7  and  N4_8 
REMARK    4  A    between atoms: N5_13  and  C2_15 
REMARK    5  A    between atoms: C2_15  and  C3_16 
REMARK    6  A    between atoms: C3_16  and  N6_17 
ROOT
HETATM    1  N1  UNL     1     -20.159  18.395 -12.428  1.00  0.00    -0.062 NA
HETATM    2  C1  UNL     1     -19.319  19.513 -12.679  1.00  0.00     0.203 C 
HETATM    3  N2  UNL     1     -19.592  20.629 -12.118  1.00  0.00    -0.263 N 
ATOM      4  H2  UNL     1     -18.974  21.417 -12.314  1.00  0.00     0.190 HD
HETATM    5  N5  UNL     1     -18.215  19.328 -13.545  1.00  0.00    -0.362 N 
ATOM      6  H5  UNL     1     -18.258  18.637 -14.293  1.00  0.00     0.162 HD
ENDROOT
BRANCH   3   7
HETATM    7  N3  UNL     1     -20.656  20.851 -11.270  1.00  0.00    -0.208 N 
ATOM      8  H3  UNL     1     -21.565  21.089 -11.667  1.00  0.00     0.201 HD
BRANCH   7   9
HETATM    9  S1  UNL     1     -20.494  20.740  -9.565  1.00  0.00     0.330 S 
HETATM   10  O1  UNL     1     -19.490  19.692  -9.158  1.00  0.00    -0.181 OA
HETATM   11  O2  UNL     1     -20.020  22.046  -8.970  1.00  0.00    -0.181 OA
BRANCH   9  12
HETATM   12  N4  UNL     1     -22.017  20.359  -8.847  1.00  0.00    -0.310 N 
ATOM     13  H42 UNL     1     -22.843  20.955  -8.907  1.00  0.00     0.170 HD
ATOM     14  H41 UNL     1     -21.963  19.463  -8.364  1.00  0.00     0.170 HD
ENDBRANCH   9  12
ENDBRANCH   7   9
ENDBRANCH   3   7
BRANCH   5  15
HETATM   15  C2  UNL     1     -17.034  20.122 -13.359  1.00  0.00     0.150 C 
BRANCH  15  16
HETATM   16  C3  UNL     1     -16.162  20.170 -14.586  1.00  0.00     0.257 C 
BRANCH  16  17
HETATM   17  N6  UNL     1     -14.826  19.863 -14.233  1.00  0.00    -0.065 N 
HETATM   18  C4  UNL     1     -14.100  19.110 -15.245  1.00  0.00     0.238 C 
HETATM   19  C5  UNL     1     -13.079  18.257 -14.483  1.00  0.00     0.034 C 
HETATM   20  C6  UNL     1     -13.201  18.845 -13.108  1.00  0.00     0.015 C 
HETATM   21  C7  UNL     1     -12.802  20.300 -13.201  1.00  0.00     0.034 C 
HETATM   22  C9  UNL     1     -14.731  18.997 -13.042  1.00  0.00     0.242 C 
HETATM   23  C8  UNL     1     -14.038  20.987 -13.793  1.00  0.00     0.238 C 
ENDBRANCH  16  17
ENDBRANCH  15  16
ENDBRANCH   5  15
TORSDOF 6
ENDMDL
MODEL 2
REMARK VINA RESULT: -7.796748609      2.331      2.613
REMARK  6 active torsions:
REMARK  status: ('A' for Active; 'I' for Inactive)
REMARK       I    between atoms: C1_2  and  N5_13 
REMARK    1  A    between atoms: N2_3  and  N3_5 
REMARK    2  A    between atoms: N3_5  and  S1_7 
REMARK    3  A    between atoms: S1_7  and  N4_8 
REMARK    4  A    between atoms: N5_13  and  C2_15 
REMARK    5  A    between atoms: C2_15  and  C3_16 
REMARK    6  A    between atoms: C3_16  and  N6_17 
ROOT
HETATM    1  N1  UNL     1     -19.791  20.630 -12.088  1.00  0.00    -0.062 NA
HETATM    2  C1  UNL     1     -18.687  19.891 -12.594  1.00  0.00     0.203 C 
HETATM    3  N2  UNL     1     -18.547  18.671 -12.240  1.00  0.00    -0.263 N 
ATOM      4  H2  UNL     1     -17.748  18.161 -12.617  1.00  0.00     0.190 HD
HETATM    5  N5  UNL     1     -17.796  20.553 -13.471  1.00  0.00    -0.362 N 
ATOM      6  H5  UNL     1     -17.649  21.559 -13.393  1.00  0.00     0.162 HD
ENDROOT
BRANCH   3   7
HETATM    7  N3  UNL     1     -19.392  17.989 -11.389  1.00  0.00    -0.208 N 
ATOM      8  H3  UNL     1     -20.379  18.244 -11.362  1.00  0.00     0.201 HD
BRANCH   7   9
HETATM    9  S1  UNL     1     -18.829  16.725 -10.375  1.00  0.00     0.330 S 
HETATM   10  O1  UNL     1     -19.384  15.383 -10.779  1.00  0.00    -0.181 OA
HETATM   11  O2  UNL     1     -17.323  16.602 -10.431  1.00  0.00    -0.181 OA
BRANCH   9  12
HETATM   12  N4  UNL     1     -19.269  17.037  -8.735  1.00  0.00    -0.310 N 
ATOM     13  H42 UNL     1     -19.879  17.800  -8.442  1.00  0.00     0.170 HD
ATOM     14  H41 UNL     1     -18.831  16.354  -8.118  1.00  0.00     0.170 HD
ENDBRANCH   9  12
ENDBRANCH   7   9
ENDBRANCH   3   7
BRANCH   5  15
HETATM   15  C2  UNL     1     -17.101  19.796 -14.472  1.00  0.00     0.150 C 
BRANCH  15  16
HETATM   16  C3  UNL     1     -15.900  20.518 -15.024  1.00  0.00     0.257 C 
BRANCH  16  17
HETATM   17  N6  UNL     1     -14.725  20.034 -14.398  1.00  0.00    -0.065 N 
HETATM   18  C4  UNL     1     -13.895  19.199 -15.254  1.00  0.00     0.238 C 
HETATM   19  C5  UNL     1     -13.185  18.213 -14.319  1.00  0.00     0.034 C 
HETATM   20  C6  UNL     1     -13.532  18.802 -12.984  1.00  0.00     0.015 C 
HETATM   21  C7  UNL     1     -12.941  20.192 -12.935  1.00  0.00     0.034 C 
HETATM   22  C9  UNL     1     -15.007  19.155 -13.247  1.00  0.00     0.242 C 
HETATM   23  C8  UNL     1     -13.917  21.041 -13.756  1.00  0.00     0.238 C 
ENDBRANCH  16  17
ENDBRANCH  15  16
ENDBRANCH   5  15
TORSDOF 6
ENDMDL
MODEL 3
REMARK VINA RESULT: -7.646815483      1.780      2.253
REMARK  6 active torsions:
REMARK  status: ('A' for Active; 'I' for Inactive)
REMARK       I    between atoms: C1_2  and  N5_13 
REMARK    1  A    between atoms: N2_3  and  N3_5 
REMARK    2  A    between atoms: N3_5  and  S1_7 
REMARK    3  A    between atoms: S1_7  and  N4_8 
REMARK    4  A    between atoms: N5_13  and  C2_15 
REMARK    5  A    between atoms: C2_15  and  C3_16 
REMARK    6  A    between atoms: C3_16  and  N6_17 
ROOT
HETATM    1  N1  UNL     1     -19.697  18.436 -14.998  1.00  0.00    -0.062 NA
HETATM    2  C1  UNL     1     -18.913  19.290 -14.176  1.00  0.00     0.203 C 
HETATM    3  N2  UNL     1     -19.066  19.235 -12.908  1.00  0.00    -0.263 N 
ATOM      4  H2  UNL     1     -18.492  19.858 -12.339  1.00  0.00     0.190 HD
HETATM    5  N5  UNL     1     -17.998  20.161 -14.812  1.00  0.00    -0.362 N 
ATOM      6  H5  UNL     1     -18.189  20.513 -15.750  1.00  0.00     0.162 HD
ENDROOT
BRANCH   3   7
HETATM    7  N3  UNL     1     -19.945  18.402 -12.249  1.00  0.00    -0.208 N 
ATOM      8  H3  UNL     1     -20.789  18.092 -12.730  1.00  0.00     0.201 HD
BRANCH   7   9
HETATM    9  S1  UNL     1     -19.659  17.871 -10.642  1.00  0.00     0.330 S 
HETATM   10  O1  UNL     1     -19.459  19.023  -9.691  1.00  0.00    -0.181 OA
HETATM   11  O2  UNL     1     -20.825  17.070 -10.110  1.00  0.00    -0.181 OA
BRANCH   9  12
HETATM   12  N4  UNL     1     -18.261  16.859 -10.591  1.00  0.00    -0.310 N 
ATOM     13  H42 UNL     1     -17.320  17.193 -10.379  1.00  0.00     0.170 HD
ATOM     14  H41 UNL     1     -18.517  15.895 -10.801  1.00  0.00     0.170 HD
ENDBRANCH   9  12
ENDBRANCH   7   9
ENDBRANCH   3   7
BRANCH   5  15
HETATM   15  C2  UNL     1     -16.798  20.546 -14.125  1.00  0.00     0.150 C 
BRANCH  15  16
HETATM   16  C3  UNL     1     -15.593  20.579 -15.027  1.00  0.00     0.257 C 
BRANCH  16  17
HETATM   17  N6  UNL     1     -14.485  19.999 -14.363  1.00  0.00    -0.065 N 
HETATM   18  C4  UNL     1     -13.710  19.081 -15.185  1.00  0.00     0.238 C 
HETATM   19  C5  UNL     1     -13.120  18.047 -14.220  1.00  0.00     0.034 C 
HETATM   20  C6  UNL     1     -13.450  18.681 -12.901  1.00  0.00     0.015 C 
HETATM   21  C7  UNL     1     -12.736  20.012 -12.848  1.00  0.00     0.034 C 
HETATM   22  C9  UNL     1     -14.879  19.163 -13.212  1.00  0.00     0.242 C 
HETATM   23  C8  UNL     1     -13.608  20.936 -13.707  1.00  0.00     0.238 C 
ENDBRANCH  16  17
ENDBRANCH  15  16
ENDBRANCH   5  15
TORSDOF 6
ENDMDL
MODEL 4
REMARK VINA RESULT: -7.505130742      2.113      2.809
REMARK  6 active torsions:
REMARK  status: ('A' for Active; 'I' for Inactive)
REMARK       I    between atoms: C1_2  and  N5_13 
REMARK    1  A    between atoms: N2_3  and  N3_5 
REMARK    2  A    between atoms: N3_5  and  S1_7 
REMARK    3  A    between atoms: S1_7  and  N4_8 
REMARK    4  A    between atoms: N5_13  and  C2_15 
REMARK    5  A    between atoms: C2_15  and  C3_16 
REMARK    6  A    between atoms: C3_16  and  N6_17 
ROOT
HETATM    1  N1  UNL     1     -19.546  18.725 -15.181  1.00  0.00    -0.062 NA
HETATM    2  C1  UNL     1     -18.949  19.464 -14.123  1.00  0.00     0.203 C 
HETATM    3  N2  UNL     1     -19.369  19.283 -12.930  1.00  0.00    -0.263 N 
ATOM      4  H2  UNL     1     -18.924  19.824 -12.188  1.00  0.00     0.190 HD
HETATM    5  N5  UNL     1     -17.910  20.366 -14.453  1.00  0.00    -0.362 N 
ATOM      6  H5  UNL     1     -17.891  20.818 -15.367  1.00  0.00     0.162 HD
ENDROOT
BRANCH   3   7
HETATM    7  N3  UNL     1     -20.377  18.415 -12.566  1.00  0.00    -0.208 N 
ATOM      8  H3  UNL     1     -21.212  18.352 -13.150  1.00  0.00     0.201 HD
BRANCH   7   9
HETATM    9  S1  UNL     1     -20.268  17.438 -11.160  1.00  0.00     0.330 S 
HETATM   10  O1  UNL     1     -21.035  18.024 -10.001  1.00  0.00    -0.181 OA
HETATM   11  O2  UNL     1     -20.839  16.059 -11.400  1.00  0.00    -0.181 OA
BRANCH   9  12
HETATM   12  N4  UNL     1     -18.616  17.249 -10.695  1.00  0.00    -0.310 N 
ATOM     13  H42 UNL     1     -18.246  17.506  -9.779  1.00  0.00     0.170 HD
ATOM     14  H41 UNL     1     -18.079  16.849 -11.463  1.00  0.00     0.170 HD
ENDBRANCH   9  12
ENDBRANCH   7   9
ENDBRANCH   3   7
BRANCH   5  15
HETATM   15  C2  UNL     1     -16.881  20.638 -13.490  1.00  0.00     0.150 C 
BRANCH  15  16
HETATM   16  C3  UNL     1     -16.264  19.386 -12.923  1.00  0.00     0.257 C 
BRANCH  16  17
HETATM   17  N6  UNL     1     -14.870  19.388 -13.171  1.00  0.00    -0.065 N 
HETATM   18  C4  UNL     1     -14.100  18.571 -12.245  1.00  0.00     0.238 C 
HETATM   19  C5  UNL     1     -12.722  19.237 -12.143  1.00  0.00     0.034 C 
HETATM   20  C6  UNL     1     -12.819  20.241 -13.253  1.00  0.00     0.015 C 
HETATM   21  C7  UNL     1     -13.008  19.473 -14.542  1.00  0.00     0.034 C 
HETATM   22  C9  UNL     1     -14.262  20.724 -13.022  1.00  0.00     0.242 C 
HETATM   23  C8  UNL     1     -14.492  19.087 -14.529  1.00  0.00     0.238 C 
ENDBRANCH  16  17
ENDBRANCH  15  16
ENDBRANCH   5  15
TORSDOF 6
ENDMDL
MODEL 5
REMARK VINA RESULT: -7.483979662      0.487      1.294
REMARK  6 active torsions:
REMARK  status: ('A' for Active; 'I' for Inactive)
REMARK       I    between atoms: C1_2  and  N5_13 
REMARK    1  A    between atoms: N2_3  and  N3_5 
REMARK    2  A    between atoms: N3_5  and  S1_7 
REMARK    3  A    between atoms: S1_7  and  N4_8 
REMARK    4  A    between atoms: N5_13  and  C2_15 
REMARK    5  A    between atoms: C2_15  and  C3_16 
REMARK    6  A    between atoms: C3_16  and  N6_17 
ROOT
HETATM    1  N1  UNL     1     -20.302  18.087 -12.181  1.00  0.00    -0.062 NA
HETATM    2  C1  UNL     1     -19.554  19.248 -12.516  1.00  0.00     0.203 C 
HETATM    3  N2  UNL     1     -19.866  20.362 -11.971  1.00  0.00    -0.263 N 
ATOM      4  H2  UNL     1     -19.314  21.181 -12.227  1.00  0.00     0.190 HD
HETATM    5  N5  UNL     1     -18.494  19.107 -13.442  1.00  0.00    -0.362 N 
ATOM      6  H5  UNL     1     -18.535  18.390 -14.166  1.00  0.00     0.162 HD
ENDROOT
BRANCH   3   7
HETATM    7  N3  UNL     1     -20.890  20.543 -11.065  1.00  0.00    -0.208 N 
ATOM      8  H3  UNL     1     -21.846  20.631 -11.409  1.00  0.00     0.201 HD
BRANCH   7   9
HETATM    9  S1  UNL     1     -20.600  20.625  -9.375  1.00  0.00     0.330 S 
HETATM   10  O1  UNL     1     -19.579  19.610  -8.925  1.00  0.00    -0.181 OA
HETATM   11  O2  UNL     1     -20.066  21.980  -8.972  1.00  0.00    -0.181 OA
BRANCH   9  12
HETATM   12  N4  UNL     1     -22.069  20.360  -8.507  1.00  0.00    -0.310 N 
ATOM     13  H42 UNL     1     -22.758  21.086  -8.315  1.00  0.00     0.170 HD
ATOM     14  H41 UNL     1     -22.136  19.383  -8.223  1.00  0.00     0.170 HD
ENDBRANCH   9  12
ENDBRANCH   7   9
ENDBRANCH   3   7
BRANCH   5  15
HETATM   15  C2  UNL     1     -17.359  19.980 -13.353  1.00  0.00     0.150 C 
BRANCH  15  16
HETATM   16  C3  UNL     1     -16.474  19.916 -14.570  1.00  0.00     0.257 C 
BRANCH  16  17
HETATM   17  N6  UNL     1     -15.134  19.687 -14.173  1.00  0.00    -0.065 N 
HETATM   18  C4  UNL     1     -15.001  19.009 -12.892  1.00  0.00     0.238 C 
HETATM   19  C5  UNL     1     -13.679  19.502 -12.290  1.00  0.00     0.034 C 
HETATM   20  C6  UNL     1     -13.099  20.234 -13.464  1.00  0.00     0.015 C 
HETATM   21  C7  UNL     1     -12.903  19.226 -14.574  1.00  0.00     0.034 C 
HETATM   22  C9  UNL     1     -14.373  20.935 -13.970  1.00  0.00     0.242 C 
HETATM   23  C8  UNL     1     -14.307  19.042 -15.162  1.00  0.00     0.238 C 
ENDBRANCH  16  17
ENDBRANCH  15  16
ENDBRANCH   5  15
TORSDOF 6
ENDMDL
