MODEL 1
REMARK VINA RESULT: -7.022507726      0.000      0.000
REMARK  6 active torsions:
REMARK  status: ('A' for Active; 'I' for Inactive)
REMARK    1  A    between atoms: C2_2  and  C3_3 
REMARK    2  A    between atoms: C3_3  and  N1_4 
REMARK       I    between atoms: N2_6  and  C5_8 
REMARK    3  A    between atoms: N4_10  and  C6_12 
REMARK    4  A    between atoms: C6_12  and  C7_13 
REMARK    5  A    between atoms: C7_13  and  N5_14 
REMARK    6  A    between atoms: N5_14  and  N6_16 
ROOT
HETATM    1  N1  UNL     1     -14.568  19.372 -13.287  1.00  0.00    -0.333 N 
HETATM    2  C4  UNL     1     -15.970  19.695 -13.123  1.00  0.00     0.177 C 
HETATM    3  N2  UNL     1     -16.946  18.856 -13.328  1.00  0.00    -0.312 N 
ATOM      4  H2  UNL     1     -16.686  17.915 -13.623  1.00  0.00     0.170 HD
HETATM    5  C5  UNL     1     -18.306  19.110 -13.187  1.00  0.00     0.189 C 
HETATM    6  N3  UNL     1     -19.072  19.219 -14.405  1.00  0.00    -0.063 NA
HETATM    7  N4  UNL     1     -18.853  19.237 -12.048  1.00  0.00    -0.363 N 
ATOM      8  H4  UNL     1     -18.235  19.142 -11.242  1.00  0.00     0.162 HD
HETATM    9  C9  UNL     1     -16.066  21.077 -12.702  1.00  0.00     0.287 C 
HETATM   10  O1  UNL     1     -17.127  21.726 -12.457  1.00  0.00    -0.264 OA
HETATM   11  N7  UNL     1     -14.727  21.535 -12.627  1.00  0.00    -0.328 N 
ATOM     12  H7  UNL     1     -14.436  22.512 -12.593  1.00  0.00     0.165 HD
HETATM   13  C10 UNL     1     -13.832  20.389 -12.607  1.00  0.00     0.103 C 
HETATM   14  C11 UNL     1     -12.497  20.738 -13.217  1.00  0.00     0.063 C 
HETATM   15  C12 UNL     1     -13.635  19.940 -11.175  1.00  0.00     0.063 C 
ENDROOT
BRANCH   1  16
HETATM   16  C3  UNL     1     -14.143  18.191 -14.037  1.00  0.00     0.153 C 
BRANCH  16  17
HETATM   17  C2  UNL     1     -13.657  18.461 -15.383  1.00  0.00    -0.017 C 
HETATM   18  C1  UNL     1     -12.501  18.022 -15.854  1.00  0.00     0.008 C 
ENDBRANCH  16  17
ENDBRANCH   1  16
BRANCH   7  19
HETATM   19  C6  UNL     1     -20.222  19.495 -11.758  1.00  0.00     0.138 C 
BRANCH  19  20
HETATM   20  C7  UNL     1     -20.435  20.840 -11.152  1.00  0.00     0.132 C 
BRANCH  20  21
HETATM   21  N5  UNL     1     -19.792  20.979  -9.863  1.00  0.00    -0.241 NA
HETATM   22  C8  UNL     1     -20.674  21.788  -9.018  1.00  0.00     0.135 C 
BRANCH  21  23
HETATM   23  N6  UNL     1     -19.677  19.719  -9.256  1.00  0.00    -0.364 NA
ATOM     24  H62 UNL     1     -18.785  19.704  -8.761  1.00  0.00     0.171 HD
ATOM     25  H61 UNL     1     -20.414  19.607  -8.560  1.00  0.00     0.171 HD
ENDBRANCH  21  23
ENDBRANCH  20  21
ENDBRANCH  19  20
ENDBRANCH   7  19
TORSDOF 6
ENDMDL
MODEL 2
REMARK VINA RESULT: -6.988755408      1.401      1.991
REMARK  6 active torsions:
REMARK  status: ('A' for Active; 'I' for Inactive)
REMARK    1  A    between atoms: C2_2  and  C3_3 
REMARK    2  A    between atoms: C3_3  and  N1_4 
REMARK       I    between atoms: N2_6  and  C5_8 
REMARK    3  A    between atoms: N4_10  and  C6_12 
REMARK    4  A    between atoms: C6_12  and  C7_13 
REMARK    5  A    between atoms: C7_13  and  N5_14 
REMARK    6  A    between atoms: N5_14  and  N6_16 
ROOT
HETATM    1  N1  UNL     1     -14.470  19.340 -13.301  1.00  0.00    -0.333 N 
HETATM    2  C4  UNL     1     -15.874  19.681 -13.214  1.00  0.00     0.177 C 
HETATM    3  N2  UNL     1     -16.848  18.868 -13.515  1.00  0.00    -0.312 N 
ATOM      4  H2  UNL     1     -16.584  17.935 -13.830  1.00  0.00     0.170 HD
HETATM    5  C5  UNL     1     -18.210  19.141 -13.450  1.00  0.00     0.189 C 
HETATM    6  N3  UNL     1     -18.894  19.312 -14.710  1.00  0.00    -0.063 NA
HETATM    7  N4  UNL     1     -18.828  19.234 -12.345  1.00  0.00    -0.363 N 
ATOM      8  H4  UNL     1     -18.265  19.097 -11.506  1.00  0.00     0.162 HD
HETATM    9  C9  UNL     1     -15.976  21.048 -12.745  1.00  0.00     0.287 C 
HETATM   10  O1  UNL     1     -17.040  21.705 -12.543  1.00  0.00    -0.264 OA
HETATM   11  N7  UNL     1     -14.637  21.477 -12.566  1.00  0.00    -0.328 N 
ATOM     12  H7  UNL     1     -14.334  22.447 -12.475  1.00  0.00     0.165 HD
HETATM   13  C10 UNL     1     -13.763  20.315 -12.535  1.00  0.00     0.103 C 
HETATM   14  C11 UNL     1     -12.386  20.664 -13.044  1.00  0.00     0.063 C 
HETATM   15  C12 UNL     1     -13.667  19.807 -11.112  1.00  0.00     0.063 C 
ENDROOT
BRANCH   1  16
HETATM   16  C3  UNL     1     -14.015  18.180 -14.069  1.00  0.00     0.153 C 
BRANCH  16  17
HETATM   17  C2  UNL     1     -13.521  18.485 -15.404  1.00  0.00    -0.017 C 
HETATM   18  C1  UNL     1     -12.426  17.957 -15.926  1.00  0.00     0.008 C 
ENDBRANCH  16  17
ENDBRANCH   1  16
BRANCH   7  19
HETATM   19  C6  UNL     1     -20.208  19.506 -12.133  1.00  0.00     0.138 C 
BRANCH  19  20
HETATM   20  C7  UNL     1     -20.881  18.452 -11.322  1.00  0.00     0.132 C 
BRANCH  20  21
HETATM   21  N5  UNL     1     -20.473  17.114 -11.697  1.00  0.00    -0.241 NA
HETATM   22  C8  UNL     1     -19.916  16.475 -10.503  1.00  0.00     0.135 C 
BRANCH  21  23
HETATM   23  N6  UNL     1     -21.599  16.369 -12.079  1.00  0.00    -0.364 NA
ATOM     24  H62 UNL     1     -21.534  16.221 -13.085  1.00  0.00     0.171 HD
ATOM     25  H61 UNL     1     -21.569  15.452 -11.633  1.00  0.00     0.171 HD
ENDBRANCH  21  23
ENDBRANCH  20  21
ENDBRANCH  19  20
ENDBRANCH   7  19
TORSDOF 6
ENDMDL
MODEL 3
REMARK VINA RESULT: -6.939050665      2.093      7.071
REMARK  6 active torsions:
REMARK  status: ('A' for Active; 'I' for Inactive)
REMARK    1  A    between atoms: C2_2  and  C3_3 
REMARK    2  A    between atoms: C3_3  and  N1_4 
REMARK       I    between atoms: N2_6  and  C5_8 
REMARK    3  A    between atoms: N4_10  and  C6_12 
REMARK    4  A    between atoms: C6_12  and  C7_13 
REMARK    5  A    between atoms: C7_13  and  N5_14 
REMARK    6  A    between atoms: N5_14  and  N6_16 
ROOT
HETATM    1  N1  UNL     1     -20.686  19.638 -11.001  1.00  0.00    -0.333 N 
HETATM    2  C4  UNL     1     -19.650  19.894 -11.981  1.00  0.00     0.177 C 
HETATM    3  N2  UNL     1     -18.815  20.893 -11.925  1.00  0.00    -0.312 N 
ATOM      4  H2  UNL     1     -18.913  21.527 -11.132  1.00  0.00     0.170 HD
HETATM    5  C5  UNL     1     -17.806  21.186 -12.835  1.00  0.00     0.189 C 
HETATM    6  N3  UNL     1     -18.024  22.322 -13.697  1.00  0.00    -0.063 NA
HETATM    7  N4  UNL     1     -16.742  20.496 -12.907  1.00  0.00    -0.363 N 
ATOM      8  H4  UNL     1     -16.673  19.712 -12.258  1.00  0.00     0.162 HD
HETATM    9  C9  UNL     1     -19.724  18.859 -12.992  1.00  0.00     0.287 C 
HETATM   10  O1  UNL     1     -18.986  18.740 -14.014  1.00  0.00    -0.264 OA
HETATM   11  N7  UNL     1     -20.795  18.022 -12.586  1.00  0.00    -0.328 N 
ATOM     12  H7  UNL     1     -21.272  17.343 -13.179  1.00  0.00     0.165 HD
HETATM   13  C10 UNL     1     -21.104  18.287 -11.190  1.00  0.00     0.103 C 
HETATM   14  C11 UNL     1     -22.560  18.015 -10.901  1.00  0.00     0.063 C 
HETATM   15  C12 UNL     1     -20.238  17.406 -10.315  1.00  0.00     0.063 C 
ENDROOT
BRANCH   1  16
HETATM   16  C3  UNL     1     -21.113  20.674 -10.060  1.00  0.00     0.153 C 
BRANCH  16  17
HETATM   17  C2  UNL     1     -20.895  20.354  -8.657  1.00  0.00    -0.017 C 
HETATM   18  C1  UNL     1     -21.870  20.146  -7.785  1.00  0.00     0.008 C 
ENDBRANCH  16  17
ENDBRANCH   1  16
BRANCH   7  19
HETATM   19  C6  UNL     1     -15.636  20.681 -13.782  1.00  0.00     0.138 C 
BRANCH  19  20
HETATM   20  C7  UNL     1     -14.392  21.067 -13.058  1.00  0.00     0.132 C 
BRANCH  20  21
HETATM   21  N5  UNL     1     -13.430  19.988 -12.986  1.00  0.00    -0.241 NA
HETATM   22  C8  UNL     1     -13.290  19.435 -14.335  1.00  0.00     0.135 C 
BRANCH  21  23
HETATM   23  N6  UNL     1     -12.176  20.498 -12.616  1.00  0.00    -0.364 NA
ATOM     24  H62 UNL     1     -11.728  19.796 -12.028  1.00  0.00     0.171 HD
ATOM     25  H61 UNL     1     -11.596  20.616 -13.446  1.00  0.00     0.171 HD
ENDBRANCH  21  23
ENDBRANCH  20  21
ENDBRANCH  19  20
ENDBRANCH   7  19
TORSDOF 6
ENDMDL
MODEL 4
REMARK VINA RESULT: -6.808387495      5.027      7.480
REMARK  6 active torsions:
REMARK  status: ('A' for Active; 'I' for Inactive)
REMARK    1  A    between atoms: C2_2  and  C3_3 
REMARK    2  A    between atoms: C3_3  and  N1_4 
REMARK       I    between atoms: N2_6  and  C5_8 
REMARK    3  A    between atoms: N4_10  and  C6_12 
REMARK    4  A    between atoms: C6_12  and  C7_13 
REMARK    5  A    between atoms: C7_13  and  N5_14 
REMARK    6  A    between atoms: N5_14  and  N6_16 
ROOT
HETATM    1  N1  UNL     1     -20.686  18.312  -9.956  1.00  0.00    -0.333 N 
HETATM    2  C4  UNL     1     -20.281  18.062  -8.588  1.00  0.00     0.177 C 
HETATM    3  N2  UNL     1     -19.153  17.507  -8.244  1.00  0.00    -0.312 N 
ATOM      4  H2  UNL     1     -18.527  17.238  -9.002  1.00  0.00     0.170 HD
HETATM    5  C5  UNL     1     -18.715  17.244  -6.951  1.00  0.00     0.189 C 
HETATM    6  N3  UNL     1     -18.718  15.861  -6.538  1.00  0.00    -0.063 NA
HETATM    7  N4  UNL     1     -18.327  18.167  -6.170  1.00  0.00    -0.363 N 
ATOM      8  H4  UNL     1     -18.357  19.114  -6.547  1.00  0.00     0.162 HD
HETATM    9  C9  UNL     1     -21.337  18.535  -7.715  1.00  0.00     0.287 C 
HETATM   10  O1  UNL     1     -21.353  18.490  -6.449  1.00  0.00    -0.264 OA
HETATM   11  N7  UNL     1     -22.332  19.049  -8.583  1.00  0.00    -0.328 N 
ATOM     12  H7  UNL     1     -23.300  19.242  -8.325  1.00  0.00     0.165 HD
HETATM   13  C10 UNL     1     -21.753  19.258  -9.901  1.00  0.00     0.103 C 
HETATM   14  C11 UNL     1     -22.801  19.113 -10.977  1.00  0.00     0.063 C 
HETATM   15  C12 UNL     1     -21.149  20.645  -9.962  1.00  0.00     0.063 C 
ENDROOT
BRANCH   1  16
HETATM   16  C3  UNL     1     -20.026  17.644 -11.077  1.00  0.00     0.153 C 
BRANCH  16  17
HETATM   17  C2  UNL     1     -19.037  18.452 -11.776  1.00  0.00    -0.017 C 
HETATM   18  C1  UNL     1     -19.319  19.249 -12.795  1.00  0.00     0.008 C 
ENDBRANCH  16  17
ENDBRANCH   1  16
BRANCH   7  19
HETATM   19  C6  UNL     1     -17.856  18.042  -4.833  1.00  0.00     0.138 C 
BRANCH  19  20
HETATM   20  C7  UNL     1     -16.380  18.223  -4.727  1.00  0.00     0.132 C 
BRANCH  20  21
HETATM   21  N5  UNL     1     -15.715  18.148  -6.010  1.00  0.00    -0.241 NA
HETATM   22  C8  UNL     1     -14.395  18.764  -5.857  1.00  0.00     0.135 C 
BRANCH  21  23
HETATM   23  N6  UNL     1     -15.507  16.804  -6.355  1.00  0.00    -0.364 NA
ATOM     24  H62 UNL     1     -16.426  16.376  -6.465  1.00  0.00     0.171 HD
ATOM     25  H61 UNL     1     -15.036  16.751  -7.257  1.00  0.00     0.171 HD
ENDBRANCH  21  23
ENDBRANCH  20  21
ENDBRANCH  19  20
ENDBRANCH   7  19
TORSDOF 6
ENDMDL
MODEL 5
REMARK VINA RESULT: -6.768199157      1.736      2.409
REMARK  6 active torsions:
REMARK  status: ('A' for Active; 'I' for Inactive)
REMARK    1  A    between atoms: C2_2  and  C3_3 
REMARK    2  A    between atoms: C3_3  and  N1_4 
REMARK       I    between atoms: N2_6  and  C5_8 
REMARK    3  A    between atoms: N4_10  and  C6_12 
REMARK    4  A    between atoms: C6_12  and  C7_13 
REMARK    5  A    between atoms: C7_13  and  N5_14 
REMARK    6  A    between atoms: N5_14  and  N6_16 
ROOT
HETATM    1  N1  UNL     1     -15.297  18.970 -13.247  1.00  0.00    -0.333 N 
HETATM    2  C4  UNL     1     -16.722  19.200 -13.129  1.00  0.00     0.177 C 
HETATM    3  N2  UNL     1     -17.422  18.947 -12.059  1.00  0.00    -0.312 N 
ATOM      4  H2  UNL     1     -16.915  18.562 -11.262  1.00  0.00     0.170 HD
HETATM    5  C5  UNL     1     -18.787  19.148 -11.891  1.00  0.00     0.189 C 
HETATM    6  N3  UNL     1     -19.614  17.965 -11.865  1.00  0.00    -0.063 NA
HETATM    7  N4  UNL     1     -19.288  20.307 -11.763  1.00  0.00    -0.363 N 
ATOM      8  H4  UNL     1     -18.628  21.085 -11.792  1.00  0.00     0.162 HD
HETATM    9  C9  UNL     1     -17.193  19.746 -14.386  1.00  0.00     0.287 C 
HETATM   10  O1  UNL     1     -18.382  20.076 -14.673  1.00  0.00    -0.264 OA
HETATM   11  N7  UNL     1     -16.042  19.825 -15.209  1.00  0.00    -0.328 N 
ATOM     12  H7  UNL     1     -16.047  19.939 -16.223  1.00  0.00     0.165 HD
HETATM   13  C10 UNL     1     -14.853  19.718 -14.379  1.00  0.00     0.103 C 
HETATM   14  C11 UNL     1     -13.711  19.106 -15.151  1.00  0.00     0.063 C 
HETATM   15  C12 UNL     1     -14.460  21.099 -13.897  1.00  0.00     0.063 C 
ENDROOT
BRANCH   1  16
HETATM   16  C3  UNL     1     -14.586  18.106 -12.305  1.00  0.00     0.153 C 
BRANCH  16  17
HETATM   17  C2  UNL     1     -13.742  18.807 -11.348  1.00  0.00    -0.017 C 
HETATM   18  C1  UNL     1     -12.481  19.137 -11.577  1.00  0.00     0.008 C 
ENDBRANCH  16  17
ENDBRANCH   1  16
BRANCH   7  19
HETATM   19  C6  UNL     1     -20.655  20.656 -11.585  1.00  0.00     0.138 C 
BRANCH  19  20
HETATM   20  C7  UNL     1     -21.212  20.152 -10.297  1.00  0.00     0.132 C 
BRANCH  20  21
HETATM   21  N5  UNL     1     -21.224  21.162  -9.261  1.00  0.00    -0.241 NA
HETATM   22  C8  UNL     1     -21.437  20.478  -7.984  1.00  0.00     0.135 C 
BRANCH  21  23
HETATM   23  N6  UNL     1     -19.967  21.783  -9.193  1.00  0.00    -0.364 NA
ATOM     24  H62 UNL     1     -19.992  22.582  -9.826  1.00  0.00     0.171 HD
ATOM     25  H61 UNL     1     -19.813  22.143  -8.252  1.00  0.00     0.171 HD
ENDBRANCH  21  23
ENDBRANCH  20  21
ENDBRANCH  19  20
ENDBRANCH   7  19
TORSDOF 6
ENDMDL
