MODEL 1
REMARK VINA RESULT: -7.243132186      0.000      0.000
REMARK  7 active torsions:
REMARK  status: ('A' for Active; 'I' for Inactive)
REMARK    1  A    between atoms: C2_2  and  O1_3 
REMARK    2  A    between atoms: O1_3  and  C3_4 
REMARK    3  A    between atoms: C3_4  and  C4_6 
REMARK    4  A    between atoms: C5_8  and  N1_9 
REMARK       I    between atoms: N1_9  and  C6_11 
REMARK       I    between atoms: C6_11  and  N2_13 
REMARK    5  A    between atoms: N2_13  and  S2_15 
REMARK    6  A    between atoms: S2_15  and  C7_18 
REMARK    7  A    between atoms: C11_24  and  O6_25 
ROOT
HETATM    1  N1  UNL     1      18.765 -17.035  11.488  1.00  0.00    -0.288 N 
ATOM      2  H1  UNL     1      18.116 -17.384  10.782  1.00  0.00     0.172 HD
HETATM    3  C6  UNL     1      18.268 -16.893  12.794  1.00  0.00     0.335 C 
HETATM    4  O3  UNL     1      18.912 -17.236  13.808  1.00  0.00    -0.246 OA
HETATM    5  N2  UNL     1      16.984 -16.340  12.950  1.00  0.00    -0.231 N 
ATOM      6  H2  UNL     1      16.491 -16.065  12.100  1.00  0.00     0.183 HD
ENDROOT
BRANCH   1   7
HETATM    7  C5  UNL     1      19.959 -16.767  11.098  1.00  0.00     0.153 A 
HETATM    8  S1  UNL     1      20.847 -17.264   9.743  1.00  0.00    -0.046 SA
HETATM    9  C4  UNL     1      22.324 -16.435  10.068  1.00  0.00     0.105 A 
HETATM   10  C13 UNL     1      22.011 -15.805  11.250  1.00  0.00     0.030 A 
HETATM   11  N3  UNL     1      20.834 -15.979  11.751  1.00  0.00    -0.339 N 
HETATM   12  C14 UNL     1      23.063 -14.928  11.907  1.00  0.00     0.070 C 
ATOM     13  H3  UNL     1      20.571 -15.528  12.627  1.00  0.00     0.168 HD
BRANCH   9  14
HETATM   14  C3  UNL     1      23.567 -16.380   9.317  1.00  0.00     0.302 C 
HETATM   15  O2  UNL     1      24.672 -16.628   9.892  1.00  0.00    -0.259 OA
BRANCH  14  16
HETATM   16  O1  UNL     1      23.599 -16.069   7.995  1.00  0.00    -0.317 OA
BRANCH  16  17
HETATM   17  C2  UNL     1      24.504 -16.720   7.088  1.00  0.00     0.174 C 
HETATM   18  C1  UNL     1      24.460 -15.967   5.784  1.00  0.00     0.034 C 
ENDBRANCH  16  17
ENDBRANCH  14  16
ENDBRANCH   9  14
ENDBRANCH   1   7
BRANCH   5  19
HETATM   19  S2  UNL     1      16.169 -16.084  14.453  1.00  0.00     0.276 S 
HETATM   20  O4  UNL     1      14.913 -16.849  14.581  1.00  0.00    -0.199 OA
HETATM   21  O5  UNL     1      17.126 -16.377  15.598  1.00  0.00    -0.199 OA
BRANCH  19  22
HETATM   22  C7  UNL     1      15.825 -14.342  14.574  1.00  0.00     0.155 A 
HETATM   23  S3  UNL     1      14.360 -13.562  14.960  1.00  0.00    -0.066 SA
HETATM   24  C8  UNL     1      14.887 -11.945  14.899  1.00  0.00     0.061 A 
HETATM   25 BR1  UNL     1      13.845 -10.362  15.235  1.00  0.00    -0.042 Br
HETATM   26  C9  UNL     1      16.212 -12.058  14.574  1.00  0.00    -0.002 A 
HETATM   27  C10 UNL     1      17.043 -10.791  14.440  1.00  0.00     0.053 C 
HETATM   28  C11 UNL     1      16.694 -13.307  14.406  1.00  0.00     0.106 A 
BRANCH  28  29
HETATM   29  O6  UNL     1      18.061 -13.544  14.064  1.00  0.00    -0.353 OA
HETATM   30  C12 UNL     1      18.501 -13.241  12.736  1.00  0.00     0.210 C 
ENDBRANCH  28  29
ENDBRANCH  19  22
ENDBRANCH   5  19
TORSDOF 7
ENDMDL
MODEL 2
REMARK VINA RESULT: -7.221260076      3.968      9.487
REMARK  7 active torsions:
REMARK  status: ('A' for Active; 'I' for Inactive)
REMARK    1  A    between atoms: C2_2  and  O1_3 
REMARK    2  A    between atoms: O1_3  and  C3_4 
REMARK    3  A    between atoms: C3_4  and  C4_6 
REMARK    4  A    between atoms: C5_8  and  N1_9 
REMARK       I    between atoms: N1_9  and  C6_11 
REMARK       I    between atoms: C6_11  and  N2_13 
REMARK    5  A    between atoms: N2_13  and  S2_15 
REMARK    6  A    between atoms: S2_15  and  C7_18 
REMARK    7  A    between atoms: C11_24  and  O6_25 
ROOT
HETATM    1  N1  UNL     1      16.688 -14.268  14.333  1.00  0.00    -0.288 N 
ATOM      2  H1  UNL     1      17.387 -13.525  14.360  1.00  0.00     0.172 HD
HETATM    3  C6  UNL     1      17.023 -15.431  13.619  1.00  0.00     0.335 C 
HETATM    4  O3  UNL     1      16.781 -16.581  14.040  1.00  0.00    -0.246 OA
HETATM    5  N2  UNL     1      17.663 -15.274  12.376  1.00  0.00    -0.231 N 
ATOM      6  H2  UNL     1      17.839 -14.319  12.062  1.00  0.00     0.183 HD
ENDROOT
BRANCH   1   7
HETATM    7  C5  UNL     1      15.586 -14.053  14.956  1.00  0.00     0.153 A 
HETATM    8  S1  UNL     1      14.516 -12.739  14.946  1.00  0.00    -0.046 SA
HETATM    9  C4  UNL     1      13.358 -13.323  16.082  1.00  0.00     0.105 A 
HETATM   10  C13 UNL     1      13.904 -14.545  16.401  1.00  0.00     0.030 A 
HETATM   11  N3  UNL     1      15.011 -14.895  15.836  1.00  0.00    -0.339 N 
HETATM   12  C14 UNL     1      13.175 -15.428  17.399  1.00  0.00     0.070 C 
ATOM     13  H3  UNL     1      15.442 -15.793  16.052  1.00  0.00     0.168 HD
BRANCH   9  14
HETATM   14  C3  UNL     1      12.128 -12.726  16.576  1.00  0.00     0.302 C 
HETATM   15  O2  UNL     1      12.101 -12.178  17.721  1.00  0.00    -0.259 OA
BRANCH  14  16
HETATM   16  O1  UNL     1      10.982 -12.729  15.849  1.00  0.00    -0.317 OA
BRANCH  16  17
HETATM   17  C2  UNL     1      10.626 -13.835  15.002  1.00  0.00     0.174 C 
HETATM   18  C1  UNL     1       9.779 -14.777  15.816  1.00  0.00     0.034 C 
ENDBRANCH  16  17
ENDBRANCH  14  16
ENDBRANCH   9  14
ENDBRANCH   1   7
BRANCH   5  19
HETATM   19  S2  UNL     1      18.177 -16.554  11.335  1.00  0.00     0.276 S 
HETATM   20  O4  UNL     1      17.870 -17.900  11.859  1.00  0.00    -0.199 OA
HETATM   21  O5  UNL     1      17.588 -16.341   9.949  1.00  0.00    -0.199 OA
BRANCH  19  22
HETATM   22  C7  UNL     1      19.936 -16.383  11.119  1.00  0.00     0.155 A 
HETATM   23  S3  UNL     1      20.907 -16.857   9.802  1.00  0.00    -0.066 SA
HETATM   24  C8  UNL     1      22.417 -16.311  10.365  1.00  0.00     0.061 A 
HETATM   25 BR1  UNL     1      24.113 -16.430   9.463  1.00  0.00    -0.042 Br
HETATM   26  C9  UNL     1      22.120 -15.763  11.584  1.00  0.00    -0.002 A 
HETATM   27  C10 UNL     1      23.242 -15.144  12.402  1.00  0.00     0.053 C 
HETATM   28  C11 UNL     1      20.827 -15.804  11.971  1.00  0.00     0.106 A 
BRANCH  28  29
HETATM   29  O6  UNL     1      20.402 -15.265  13.224  1.00  0.00    -0.353 OA
HETATM   30  C12 UNL     1      20.373 -16.124  14.369  1.00  0.00     0.210 C 
ENDBRANCH  28  29
ENDBRANCH  19  22
ENDBRANCH   5  19
TORSDOF 7
ENDMDL
MODEL 3
REMARK VINA RESULT: -7.206989061      6.524      9.990
REMARK  7 active torsions:
REMARK  status: ('A' for Active; 'I' for Inactive)
REMARK    1  A    between atoms: C2_2  and  O1_3 
REMARK    2  A    between atoms: O1_3  and  C3_4 
REMARK    3  A    between atoms: C3_4  and  C4_6 
REMARK    4  A    between atoms: C5_8  and  N1_9 
REMARK       I    between atoms: N1_9  and  C6_11 
REMARK       I    between atoms: C6_11  and  N2_13 
REMARK    5  A    between atoms: N2_13  and  S2_15 
REMARK    6  A    between atoms: S2_15  and  C7_18 
REMARK    7  A    between atoms: C11_24  and  O6_25 
ROOT
HETATM    1  N1  UNL     1      21.416 -12.388   8.176  1.00  0.00    -0.288 N 
ATOM      2  H1  UNL     1      22.212 -12.895   7.788  1.00  0.00     0.172 HD
HETATM    3  C6  UNL     1      20.991 -11.243   7.482  1.00  0.00     0.335 C 
HETATM    4  O3  UNL     1      19.788 -10.978   7.278  1.00  0.00    -0.246 OA
HETATM    5  N2  UNL     1      21.979 -10.367   6.997  1.00  0.00    -0.231 N 
ATOM      6  H2  UNL     1      22.951 -10.612   7.187  1.00  0.00     0.183 HD
ENDROOT
BRANCH   1   7
HETATM    7  C5  UNL     1      20.896 -12.858   9.253  1.00  0.00     0.153 A 
HETATM    8  S1  UNL     1      20.780 -14.435   9.861  1.00  0.00    -0.046 SA
HETATM    9  C4  UNL     1      19.921 -14.101  11.318  1.00  0.00     0.105 A 
HETATM   10  C13 UNL     1      19.780 -12.735  11.227  1.00  0.00     0.030 A 
HETATM   11  N3  UNL     1      20.268 -12.130  10.196  1.00  0.00    -0.339 N 
HETATM   12  C14 UNL     1      19.063 -12.002  12.347  1.00  0.00     0.070 C 
ATOM     13  H3  UNL     1      20.179 -11.119  10.098  1.00  0.00     0.168 HD
BRANCH   9  14
HETATM   14  C3  UNL     1      19.468 -14.986  12.378  1.00  0.00     0.302 C 
HETATM   15  O2  UNL     1      20.184 -15.160  13.413  1.00  0.00    -0.259 OA
BRANCH  14  16
HETATM   16  O1  UNL     1      18.286 -15.650  12.309  1.00  0.00    -0.317 OA
BRANCH  16  17
HETATM   17  C2  UNL     1      18.185 -17.048  12.626  1.00  0.00     0.174 C 
HETATM   18  C1  UNL     1      18.339 -17.819  11.340  1.00  0.00     0.034 C 
ENDBRANCH  16  17
ENDBRANCH  14  16
ENDBRANCH   9  14
ENDBRANCH   1   7
BRANCH   5  19
HETATM   19  S2  UNL     1      21.692  -8.912   6.109  1.00  0.00     0.276 S 
HETATM   20  O4  UNL     1      20.670  -8.039   6.719  1.00  0.00    -0.199 OA
HETATM   21  O5  UNL     1      23.010  -8.181   5.905  1.00  0.00    -0.199 OA
BRANCH  19  22
HETATM   22  C7  UNL     1      21.174  -9.389   4.474  1.00  0.00     0.155 A 
HETATM   23  S3  UNL     1      19.935  -8.731   3.506  1.00  0.00    -0.066 SA
HETATM   24  C8  UNL     1      20.122  -9.704   2.123  1.00  0.00     0.061 A 
HETATM   25 BR1  UNL     1      19.109  -9.621   0.489  1.00  0.00    -0.042 Br
HETATM   26  C9  UNL     1      21.162 -10.530   2.457  1.00  0.00    -0.002 A 
HETATM   27  C10 UNL     1      21.638 -11.556   1.441  1.00  0.00     0.053 C 
HETATM   28  C11 UNL     1      21.705 -10.362   3.682  1.00  0.00     0.106 A 
BRANCH  28  29
HETATM   29  O6  UNL     1      22.793 -11.167   4.137  1.00  0.00    -0.353 OA
HETATM   30  C12 UNL     1      24.128 -10.771   3.806  1.00  0.00     0.210 C 
ENDBRANCH  28  29
ENDBRANCH  19  22
ENDBRANCH   5  19
TORSDOF 7
ENDMDL
MODEL 4
REMARK VINA RESULT: -7.136575500      4.574      7.656
REMARK  7 active torsions:
REMARK  status: ('A' for Active; 'I' for Inactive)
REMARK    1  A    between atoms: C2_2  and  O1_3 
REMARK    2  A    between atoms: O1_3  and  C3_4 
REMARK    3  A    between atoms: C3_4  and  C4_6 
REMARK    4  A    between atoms: C5_8  and  N1_9 
REMARK       I    between atoms: N1_9  and  C6_11 
REMARK       I    between atoms: C6_11  and  N2_13 
REMARK    5  A    between atoms: N2_13  and  S2_15 
REMARK    6  A    between atoms: S2_15  and  C7_18 
REMARK    7  A    between atoms: C11_24  and  O6_25 
ROOT
HETATM    1  N1  UNL     1      20.759 -11.897   9.816  1.00  0.00    -0.288 N 
ATOM      2  H1  UNL     1      21.554 -11.589   9.257  1.00  0.00     0.172 HD
HETATM    3  C6  UNL     1      21.032 -12.763  10.888  1.00  0.00     0.335 C 
HETATM    4  O3  UNL     1      20.503 -12.642  12.013  1.00  0.00    -0.246 OA
HETATM    5  N2  UNL     1      21.949 -13.807  10.668  1.00  0.00    -0.231 N 
ATOM      6  H2  UNL     1      22.357 -13.879   9.736  1.00  0.00     0.183 HD
ENDROOT
BRANCH   1   7
HETATM    7  C5  UNL     1      19.602 -11.456   9.475  1.00  0.00     0.153 A 
HETATM    8  S1  UNL     1      19.121 -10.298   8.335  1.00  0.00    -0.046 SA
HETATM    9  C4  UNL     1      17.417 -10.357   8.590  1.00  0.00     0.105 A 
HETATM   10  C13 UNL     1      17.337 -11.309   9.579  1.00  0.00     0.030 A 
HETATM   11  N3  UNL     1      18.430 -11.846  10.010  1.00  0.00    -0.339 N 
HETATM   12  C14 UNL     1      15.967 -11.690  10.114  1.00  0.00     0.070 C 
ATOM     13  H3  UNL     1      18.405 -12.554  10.744  1.00  0.00     0.168 HD
BRANCH   9  14
HETATM   14  C3  UNL     1      16.335  -9.630   7.947  1.00  0.00     0.302 C 
HETATM   15  O2  UNL     1      15.943  -9.964   6.786  1.00  0.00    -0.259 OA
BRANCH  14  16
HETATM   16  O1  UNL     1      15.709  -8.586   8.548  1.00  0.00    -0.317 OA
BRANCH  16  17
HETATM   17  C2  UNL     1      16.398  -7.718   9.464  1.00  0.00     0.174 C 
HETATM   18  C1  UNL     1      15.727  -7.849  10.807  1.00  0.00     0.034 C 
ENDBRANCH  16  17
ENDBRANCH  14  16
ENDBRANCH   9  14
ENDBRANCH   1   7
BRANCH   5  19
HETATM   19  S2  UNL     1      22.445 -14.979  11.838  1.00  0.00     0.276 S 
HETATM   20  O4  UNL     1      23.273 -16.063  11.273  1.00  0.00    -0.199 OA
HETATM   21  O5  UNL     1      23.149 -14.274  12.987  1.00  0.00    -0.199 OA
BRANCH  19  22
HETATM   22  C7  UNL     1      20.968 -15.665  12.555  1.00  0.00     0.155 A 
HETATM   23  S3  UNL     1      20.527 -15.785  14.196  1.00  0.00    -0.066 SA
HETATM   24  C8  UNL     1      18.996 -16.506  14.017  1.00  0.00     0.061 A 
HETATM   25 BR1  UNL     1      17.760 -16.989  15.411  1.00  0.00    -0.042 Br
HETATM   26  C9  UNL     1      18.866 -16.635  12.660  1.00  0.00    -0.002 A 
HETATM   27  C10 UNL     1      17.588 -17.242  12.101  1.00  0.00     0.053 C 
HETATM   28  C11 UNL     1      19.895 -16.196  11.905  1.00  0.00     0.106 A 
BRANCH  28  29
HETATM   29  O6  UNL     1      19.869 -16.282  10.479  1.00  0.00    -0.353 OA
HETATM   30  C12 UNL     1      20.493 -17.405   9.846  1.00  0.00     0.210 C 
ENDBRANCH  28  29
ENDBRANCH  19  22
ENDBRANCH   5  19
TORSDOF 7
ENDMDL
MODEL 5
REMARK VINA RESULT: -7.103687334      5.022      6.563
REMARK  7 active torsions:
REMARK  status: ('A' for Active; 'I' for Inactive)
REMARK    1  A    between atoms: C2_2  and  O1_3 
REMARK    2  A    between atoms: O1_3  and  C3_4 
REMARK    3  A    between atoms: C3_4  and  C4_6 
REMARK    4  A    between atoms: C5_8  and  N1_9 
REMARK       I    between atoms: N1_9  and  C6_11 
REMARK       I    between atoms: C6_11  and  N2_13 
REMARK    5  A    between atoms: N2_13  and  S2_15 
REMARK    6  A    between atoms: S2_15  and  C7_18 
REMARK    7  A    between atoms: C11_24  and  O6_25 
ROOT
HETATM    1  N1  UNL     1      21.042 -11.732   8.629  1.00  0.00    -0.288 N 
ATOM      2  H1  UNL     1      20.897 -10.901   9.203  1.00  0.00     0.172 HD
HETATM    3  C6  UNL     1      21.001 -12.974   9.283  1.00  0.00     0.335 C 
HETATM    4  O3  UNL     1      20.414 -13.971   8.813  1.00  0.00    -0.246 OA
HETATM    5  N2  UNL     1      21.651 -13.081  10.526  1.00  0.00    -0.231 N 
ATOM      6  H2  UNL     1      22.124 -12.248  10.876  1.00  0.00     0.183 HD
ENDROOT
BRANCH   1   7
HETATM    7  C5  UNL     1      21.247 -11.543   7.374  1.00  0.00     0.153 A 
HETATM    8  S1  UNL     1      21.038 -10.184   6.384  1.00  0.00    -0.046 SA
HETATM    9  C4  UNL     1      21.536 -10.865   4.880  1.00  0.00     0.105 A 
HETATM   10  C13 UNL     1      21.842 -12.149   5.268  1.00  0.00     0.030 A 
HETATM   11  N3  UNL     1      21.693 -12.473   6.509  1.00  0.00    -0.339 N 
HETATM   12  C14 UNL     1      22.347 -13.124   4.219  1.00  0.00     0.070 C 
ATOM     13  H3  UNL     1      21.909 -13.417   6.828  1.00  0.00     0.168 HD
BRANCH   9  14
HETATM   14  C3  UNL     1      21.633 -10.274   3.556  1.00  0.00     0.302 C 
HETATM   15  O2  UNL     1      20.607 -10.206   2.811  1.00  0.00    -0.259 OA
BRANCH  14  16
HETATM   16  O1  UNL     1      22.801  -9.779   3.071  1.00  0.00    -0.317 OA
BRANCH  16  17
HETATM   17  C2  UNL     1      23.486 -10.401   1.971  1.00  0.00     0.174 C 
HETATM   18  C1  UNL     1      23.455  -9.438   0.813  1.00  0.00     0.034 C 
ENDBRANCH  16  17
ENDBRANCH  14  16
ENDBRANCH   9  14
ENDBRANCH   1   7
BRANCH   5  19
HETATM   19  S2  UNL     1      21.718 -14.499  11.513  1.00  0.00     0.276 S 
HETATM   20  O4  UNL     1      22.026 -15.729  10.758  1.00  0.00    -0.199 OA
HETATM   21  O5  UNL     1      22.705 -14.273  12.648  1.00  0.00    -0.199 OA
BRANCH  19  22
HETATM   22  C7  UNL     1      20.134 -14.663  12.306  1.00  0.00     0.155 A 
HETATM   23  S3  UNL     1      19.281 -16.080  12.717  1.00  0.00    -0.066 SA
HETATM   24  C8  UNL     1      17.918 -15.375  13.453  1.00  0.00     0.061 A 
HETATM   25 BR1  UNL     1      16.415 -16.282  14.241  1.00  0.00    -0.042 Br
HETATM   26  C9  UNL     1      18.167 -14.033  13.357  1.00  0.00    -0.002 A 
HETATM   27  C10 UNL     1      17.153 -13.056  13.932  1.00  0.00     0.053 C 
HETATM   28  C11 UNL     1      19.321 -13.668  12.759  1.00  0.00     0.106 A 
BRANCH  28  29
HETATM   29  O6  UNL     1      19.684 -12.295  12.603  1.00  0.00    -0.353 OA
HETATM   30  C12 UNL     1      18.875 -11.461  11.766  1.00  0.00     0.210 C 
ENDBRANCH  28  29
ENDBRANCH  19  22
ENDBRANCH   5  19
TORSDOF 7
ENDMDL
