MODEL 1
REMARK VINA RESULT: -9.281833855      0.000      0.000
REMARK  10 active torsions:
REMARK  status: ('A' for Active; 'I' for Inactive)
REMARK    1  A    between atoms: C2_2  and  C3_3 
REMARK       I    between atoms: C3_3  and  N1_5 
REMARK    2  A    between atoms: N1_5  and  C4_7 
REMARK    3  A    between atoms: C6_9  and  N2_10 
REMARK    4  A    between atoms: N2_10  and  S1_12 
REMARK    5  A    between atoms: S1_12  and  C7_15 
REMARK    6  A    between atoms: C10_19  and  N3_20 
REMARK    7  A    between atoms: N3_20  and  C11_22 
REMARK    8  A    between atoms: C14_25  and  C15_26 
REMARK    9  A    between atoms: C16_27  and  C18_30 
REMARK   10  A    between atoms: C18_30  and  O5_32 
ROOT
HETATM    1  C15 UNL     1       6.751  35.359 -11.471  1.00  0.00     0.040 C 
HETATM    2  C16 UNL     1       5.619  35.082 -12.094  1.00  0.00     0.120 C 
HETATM    3  C17 UNL     1       5.553  34.708 -13.467  1.00  0.00     0.105 C 
HETATM    4  N4  UNL     1       5.474  34.414 -14.604  1.00  0.00    -0.191 NA
ENDROOT
BRANCH   2   5
HETATM    5  C18 UNL     1       4.341  35.161 -11.348  1.00  0.00     0.303 C 
HETATM    6  O4  UNL     1       4.276  34.662 -10.203  1.00  0.00    -0.258 OA
BRANCH   5   7
HETATM    7  O5  UNL     1       3.222  35.761 -11.866  1.00  0.00    -0.322 OA
HETATM    8  C19 UNL     1       2.150  35.107 -12.485  1.00  0.00     0.213 C 
ENDBRANCH   5   7
ENDBRANCH   2   5
BRANCH   1   9
HETATM    9  C14 UNL     1       8.007  35.289 -12.173  1.00  0.00    -0.035 A 
HETATM   10  C13 UNL     1       8.563  36.449 -12.667  1.00  0.00     0.013 A 
HETATM   11  C12 UNL     1       9.781  36.454 -13.324  1.00  0.00     0.030 A 
HETATM   12  C11 UNL     1      10.421  35.239 -13.468  1.00  0.00     0.032 A 
HETATM   13  C21 UNL     1       9.902  34.056 -12.989  1.00  0.00     0.030 A 
HETATM   14  C20 UNL     1       8.668  34.109 -12.331  1.00  0.00     0.013 A 
BRANCH  12  15
HETATM   15  N3  UNL     1      11.688  35.194 -14.145  1.00  0.00    -0.355 N 
ATOM     16  H3  UNL     1      11.710  35.256 -15.163  1.00  0.00     0.166 HD
BRANCH  15  17
HETATM   17  C10 UNL     1      12.790  35.078 -13.501  1.00  0.00     0.048 A 
HETATM   18  C9  UNL     1      13.989  35.156 -14.166  1.00  0.00     0.045 A 
HETATM   19  C6  UNL     1      14.055  35.348 -15.538  1.00  0.00     0.059 A 
HETATM   20  C24 UNL     1      15.165  35.039 -13.418  1.00  0.00     0.049 A 
HETATM   21  C5  UNL     1      15.286  35.422 -16.137  1.00  0.00     0.060 A 
HETATM   22  C4  UNL     1      16.476  35.310 -15.423  1.00  0.00     0.039 A 
HETATM   23  C25 UNL     1      16.397  35.121 -14.078  1.00  0.00     0.060 A 
HETATM   24  N5  UNL     1      15.163  34.854 -12.082  1.00  0.00    -0.365 N 
HETATM   25  C23 UNL     1      13.986  34.779 -11.449  1.00  0.00     0.090 A 
ATOM     26  H5  UNL     1      16.039  34.773 -11.566  1.00  0.00     0.165 HD
HETATM   27  C22 UNL     1      12.797  34.888 -12.130  1.00  0.00     0.047 A 
BRANCH  19  28
HETATM   28  N2  UNL     1      12.864  35.435 -16.327  1.00  0.00    -0.278 N 
ATOM     29  H2  UNL     1      12.354  36.313 -16.423  1.00  0.00     0.179 HD
BRANCH  28  30
HETATM   30  S1  UNL     1      12.324  33.993 -17.108  1.00  0.00     0.289 S 
HETATM   31  O2  UNL     1      12.607  34.048 -18.590  1.00  0.00    -0.198 OA
HETATM   32  O3  UNL     1      10.836  33.844 -16.975  1.00  0.00    -0.198 OA
BRANCH  30  33
HETATM   33  C7  UNL     1      13.044  32.555 -16.420  1.00  0.00     0.221 C 
HETATM   34  C8  UNL     1      13.981  31.875 -17.068  1.00  0.00     0.071 C 
HETATM   35  F1  UNL     1      12.658  32.104 -15.202  1.00  0.00    -0.192 F 
ENDBRANCH  30  33
ENDBRANCH  28  30
ENDBRANCH  19  28
BRANCH  22  36
HETATM   36  N1  UNL     1      17.662  35.427 -16.170  1.00  0.00    -0.324 N 
HETATM   37  C3  UNL     1      18.505  34.358 -16.469  1.00  0.00     0.244 C 
HETATM   38  O1  UNL     1      18.296  33.191 -16.115  1.00  0.00    -0.268 OA
ATOM     39  H1  UNL     1      17.922  36.352 -16.514  1.00  0.00     0.169 HD
BRANCH  37  40
HETATM   40  C2  UNL     1      19.729  34.616 -17.256  1.00  0.00     0.064 C 
HETATM   41  C1  UNL     1      19.898  35.771 -17.862  1.00  0.00     0.017 C 
ENDBRANCH  37  40
ENDBRANCH  22  36
ENDBRANCH  15  17
ENDBRANCH  12  15
ENDBRANCH   1   9
TORSDOF 10
ENDMDL
MODEL 2
REMARK VINA RESULT: -8.783697242      1.204      1.335
REMARK  10 active torsions:
REMARK  status: ('A' for Active; 'I' for Inactive)
REMARK    1  A    between atoms: C2_2  and  C3_3 
REMARK       I    between atoms: C3_3  and  N1_5 
REMARK    2  A    between atoms: N1_5  and  C4_7 
REMARK    3  A    between atoms: C6_9  and  N2_10 
REMARK    4  A    between atoms: N2_10  and  S1_12 
REMARK    5  A    between atoms: S1_12  and  C7_15 
REMARK    6  A    between atoms: C10_19  and  N3_20 
REMARK    7  A    between atoms: N3_20  and  C11_22 
REMARK    8  A    between atoms: C14_25  and  C15_26 
REMARK    9  A    between atoms: C16_27  and  C18_30 
REMARK   10  A    between atoms: C18_30  and  O5_32 
ROOT
HETATM    1  C15 UNL     1       6.684  35.416 -11.545  1.00  0.00     0.040 C 
HETATM    2  C16 UNL     1       5.570  35.096 -12.180  1.00  0.00     0.120 C 
HETATM    3  C17 UNL     1       5.539  34.667 -13.538  1.00  0.00     0.105 C 
HETATM    4  N4  UNL     1       5.489  34.328 -14.664  1.00  0.00    -0.191 NA
ENDROOT
BRANCH   2   5
HETATM    5  C18 UNL     1       4.275  35.184 -11.465  1.00  0.00     0.303 C 
HETATM    6  O4  UNL     1       4.183  34.700 -10.316  1.00  0.00    -0.258 OA
BRANCH   5   7
HETATM    7  O5  UNL     1       3.168  35.780 -12.016  1.00  0.00    -0.322 OA
HETATM    8  C19 UNL     1       2.116  35.120 -12.661  1.00  0.00     0.213 C 
ENDBRANCH   5   7
ENDBRANCH   2   5
BRANCH   1   9
HETATM    9  C14 UNL     1       7.956  35.338 -12.217  1.00  0.00    -0.035 A 
HETATM   10  C13 UNL     1       8.528  36.493 -12.701  1.00  0.00     0.013 A 
HETATM   11  C12 UNL     1       9.761  36.491 -13.330  1.00  0.00     0.030 A 
HETATM   12  C11 UNL     1      10.399  35.272 -13.454  1.00  0.00     0.032 A 
HETATM   13  C21 UNL     1       9.864  34.093 -12.983  1.00  0.00     0.030 A 
HETATM   14  C20 UNL     1       8.616  34.154 -12.355  1.00  0.00     0.013 A 
BRANCH  12  15
HETATM   15  N3  UNL     1      11.682  35.219 -14.101  1.00  0.00    -0.355 N 
ATOM     16  H3  UNL     1      11.731  35.307 -15.116  1.00  0.00     0.166 HD
BRANCH  15  17
HETATM   17  C10 UNL     1      12.765  35.064 -13.433  1.00  0.00     0.048 A 
HETATM   18  C9  UNL     1      13.982  35.167 -14.061  1.00  0.00     0.045 A 
HETATM   19  C6  UNL     1      14.088  35.426 -15.419  1.00  0.00     0.059 A 
HETATM   20  C24 UNL     1      15.137  35.006 -13.286  1.00  0.00     0.049 A 
HETATM   21  C5  UNL     1      15.335  35.522 -15.979  1.00  0.00     0.060 A 
HETATM   22  C4  UNL     1      16.504  35.367 -15.239  1.00  0.00     0.039 A 
HETATM   23  C25 UNL     1      16.387  35.112 -13.908  1.00  0.00     0.060 A 
HETATM   24  N5  UNL     1      15.096  34.755 -11.962  1.00  0.00    -0.365 N 
HETATM   25  C23 UNL     1      13.902  34.657 -11.366  1.00  0.00     0.090 A 
ATOM     26  H5  UNL     1      15.957  34.643 -11.426  1.00  0.00     0.165 HD
HETATM   27  C22 UNL     1      12.733  34.807 -12.074  1.00  0.00     0.047 A 
BRANCH  19  28
HETATM   28  N2  UNL     1      12.919  35.560 -16.235  1.00  0.00    -0.278 N 
ATOM     29  H2  UNL     1      12.377  36.423 -16.247  1.00  0.00     0.179 HD
BRANCH  28  30
HETATM   30  S1  UNL     1      12.465  34.199 -17.196  1.00  0.00     0.289 S 
HETATM   31  O2  UNL     1      11.022  33.829 -16.953  1.00  0.00    -0.198 OA
HETATM   32  O3  UNL     1      13.272  32.991 -16.819  1.00  0.00    -0.198 OA
BRANCH  30  33
HETATM   33  C7  UNL     1      12.727  34.475 -18.904  1.00  0.00     0.221 C 
HETATM   34  C8  UNL     1      13.102  35.663 -19.361  1.00  0.00     0.071 C 
HETATM   35  F1  UNL     1      12.552  33.475 -19.800  1.00  0.00    -0.192 F 
ENDBRANCH  30  33
ENDBRANCH  28  30
ENDBRANCH  19  28
BRANCH  22  36
HETATM   36  N1  UNL     1      17.711  35.513 -15.946  1.00  0.00    -0.324 N 
HETATM   37  C3  UNL     1      18.531  34.449 -16.319  1.00  0.00     0.244 C 
HETATM   38  O1  UNL     1      18.280  33.263 -16.074  1.00  0.00    -0.268 OA
ATOM     39  H1  UNL     1      18.006  36.456 -16.202  1.00  0.00     0.169 HD
BRANCH  37  40
HETATM   40  C2  UNL     1      19.781  34.738 -17.053  1.00  0.00     0.064 C 
HETATM   41  C1  UNL     1      19.868  35.798 -17.826  1.00  0.00     0.017 C 
ENDBRANCH  37  40
ENDBRANCH  22  36
ENDBRANCH  15  17
ENDBRANCH  12  15
ENDBRANCH   1   9
TORSDOF 10
ENDMDL
MODEL 3
REMARK VINA RESULT: -8.727158926      1.092      1.474
REMARK  10 active torsions:
REMARK  status: ('A' for Active; 'I' for Inactive)
REMARK    1  A    between atoms: C2_2  and  C3_3 
REMARK       I    between atoms: C3_3  and  N1_5 
REMARK    2  A    between atoms: N1_5  and  C4_7 
REMARK    3  A    between atoms: C6_9  and  N2_10 
REMARK    4  A    between atoms: N2_10  and  S1_12 
REMARK    5  A    between atoms: S1_12  and  C7_15 
REMARK    6  A    between atoms: C10_19  and  N3_20 
REMARK    7  A    between atoms: N3_20  and  C11_22 
REMARK    8  A    between atoms: C14_25  and  C15_26 
REMARK    9  A    between atoms: C16_27  and  C18_30 
REMARK   10  A    between atoms: C18_30  and  O5_32 
ROOT
HETATM    1  C15 UNL     1       6.664  35.381 -11.563  1.00  0.00     0.040 C 
HETATM    2  C16 UNL     1       5.564  35.114 -12.243  1.00  0.00     0.120 C 
HETATM    3  C17 UNL     1       5.569  34.650 -13.590  1.00  0.00     0.105 C 
HETATM    4  N4  UNL     1       5.551  34.284 -14.709  1.00  0.00    -0.191 NA
ENDROOT
BRANCH   2   5
HETATM    5  C18 UNL     1       4.244  35.301 -11.594  1.00  0.00     0.303 C 
HETATM    6  O4  UNL     1       4.116  35.005 -10.386  1.00  0.00    -0.258 OA
BRANCH   5   7
HETATM    7  O5  UNL     1       3.154  35.789 -12.270  1.00  0.00    -0.322 OA
HETATM    8  C19 UNL     1       2.068  35.036 -12.730  1.00  0.00     0.213 C 
ENDBRANCH   5   7
ENDBRANCH   2   5
BRANCH   1   9
HETATM    9  C14 UNL     1       7.959  35.207 -12.170  1.00  0.00    -0.035 A 
HETATM   10  C13 UNL     1       8.532  33.954 -12.174  1.00  0.00     0.013 A 
HETATM   11  C12 UNL     1       9.760  33.714 -12.765  1.00  0.00     0.030 A 
HETATM   12  C11 UNL     1      10.393  34.790 -13.356  1.00  0.00     0.032 A 
HETATM   13  C21 UNL     1       9.855  36.058 -13.376  1.00  0.00     0.030 A 
HETATM   14  C20 UNL     1       8.611  36.245 -12.764  1.00  0.00     0.013 A 
BRANCH  12  15
HETATM   15  N3  UNL     1      11.671  34.590 -13.982  1.00  0.00    -0.355 N 
ATOM     16  H3  UNL     1      11.707  34.338 -14.970  1.00  0.00     0.166 HD
BRANCH  15  17
HETATM   17  C10 UNL     1      12.766  34.719 -13.328  1.00  0.00     0.048 A 
HETATM   18  C9  UNL     1      13.954  34.878 -13.999  1.00  0.00     0.045 A 
HETATM   19  C6  UNL     1      14.019  34.893 -15.384  1.00  0.00     0.059 A 
HETATM   20  C24 UNL     1      15.121  35.032 -13.241  1.00  0.00     0.049 A 
HETATM   21  C5  UNL     1      15.237  35.061 -15.987  1.00  0.00     0.060 A 
HETATM   22  C4  UNL     1      16.418  35.216 -15.266  1.00  0.00     0.039 A 
HETATM   23  C25 UNL     1      16.341  35.199 -13.907  1.00  0.00     0.060 A 
HETATM   24  N5  UNL     1      15.120  35.028 -11.893  1.00  0.00    -0.365 N 
HETATM   25  C23 UNL     1      13.953  34.872 -11.255  1.00  0.00     0.090 A 
ATOM     26  H5  UNL     1      15.989  35.142 -11.371  1.00  0.00     0.165 HD
HETATM   27  C22 UNL     1      12.775  34.717 -11.944  1.00  0.00     0.047 A 
BRANCH  19  28
HETATM   28  N2  UNL     1      12.842  34.702 -16.176  1.00  0.00    -0.278 N 
ATOM     29  H2  UNL     1      12.165  35.454 -16.310  1.00  0.00     0.179 HD
BRANCH  28  30
HETATM   30  S1  UNL     1      12.615  33.149 -16.896  1.00  0.00     0.289 S 
HETATM   31  O2  UNL     1      13.329  32.081 -16.103  1.00  0.00    -0.198 OA
HETATM   32  O3  UNL     1      13.212  33.111 -18.273  1.00  0.00    -0.198 OA
BRANCH  30  33
HETATM   33  C7  UNL     1      10.924  32.734 -17.062  1.00  0.00     0.221 C 
HETATM   34  C8  UNL     1      10.300  32.002 -16.148  1.00  0.00     0.071 C 
HETATM   35  F1  UNL     1      10.211  33.155 -18.133  1.00  0.00    -0.192 F 
ENDBRANCH  30  33
ENDBRANCH  28  30
ENDBRANCH  19  28
BRANCH  22  36
HETATM   36  N1  UNL     1      17.590  35.400 -16.022  1.00  0.00    -0.324 N 
HETATM   37  C3  UNL     1      18.488  34.380 -16.330  1.00  0.00     0.244 C 
HETATM   38  O1  UNL     1      18.347  33.203 -15.977  1.00  0.00    -0.268 OA
ATOM     39  H1  UNL     1      17.795  36.339 -16.366  1.00  0.00     0.169 HD
BRANCH  37  40
HETATM   40  C2  UNL     1      19.690  34.708 -17.126  1.00  0.00     0.064 C 
HETATM   41  C1  UNL     1      19.687  35.741 -17.939  1.00  0.00     0.017 C 
ENDBRANCH  37  40
ENDBRANCH  22  36
ENDBRANCH  15  17
ENDBRANCH  12  15
ENDBRANCH   1   9
TORSDOF 10
ENDMDL
MODEL 4
REMARK VINA RESULT: -8.655888015      1.077      1.431
REMARK  10 active torsions:
REMARK  status: ('A' for Active; 'I' for Inactive)
REMARK    1  A    between atoms: C2_2  and  C3_3 
REMARK       I    between atoms: C3_3  and  N1_5 
REMARK    2  A    between atoms: N1_5  and  C4_7 
REMARK    3  A    between atoms: C6_9  and  N2_10 
REMARK    4  A    between atoms: N2_10  and  S1_12 
REMARK    5  A    between atoms: S1_12  and  C7_15 
REMARK    6  A    between atoms: C10_19  and  N3_20 
REMARK    7  A    between atoms: N3_20  and  C11_22 
REMARK    8  A    between atoms: C14_25  and  C15_26 
REMARK    9  A    between atoms: C16_27  and  C18_30 
REMARK   10  A    between atoms: C18_30  and  O5_32 
ROOT
HETATM    1  C15 UNL     1       6.639  35.363 -11.674  1.00  0.00     0.040 C 
HETATM    2  C16 UNL     1       5.510  35.156 -12.328  1.00  0.00     0.120 C 
HETATM    3  C17 UNL     1       5.458  34.668 -13.665  1.00  0.00     0.105 C 
HETATM    4  N4  UNL     1       5.394  34.282 -14.776  1.00  0.00    -0.191 NA
ENDROOT
BRANCH   2   5
HETATM    5  C18 UNL     1       4.218  35.442 -11.658  1.00  0.00     0.303 C 
HETATM    6  O4  UNL     1       3.501  36.367 -12.097  1.00  0.00    -0.258 OA
BRANCH   5   7
HETATM    7  O5  UNL     1       3.778  34.728 -10.573  1.00  0.00    -0.322 OA
HETATM    8  C19 UNL     1       4.501  34.489  -9.398  1.00  0.00     0.213 C 
ENDBRANCH   5   7
ENDBRANCH   2   5
BRANCH   1   9
HETATM    9  C14 UNL     1       7.907  35.092 -12.301  1.00  0.00    -0.035 A 
HETATM   10  C13 UNL     1       8.654  36.145 -12.781  1.00  0.00     0.013 A 
HETATM   11  C12 UNL     1       9.893  35.955 -13.368  1.00  0.00     0.030 A 
HETATM   12  C11 UNL     1      10.353  34.655 -13.454  1.00  0.00     0.032 A 
HETATM   13  C21 UNL     1       9.640  33.574 -12.986  1.00  0.00     0.030 A 
HETATM   14  C20 UNL     1       8.394  33.824 -12.401  1.00  0.00     0.013 A 
BRANCH  12  15
HETATM   15  N3  UNL     1      11.634  34.409 -14.057  1.00  0.00    -0.355 N 
ATOM     16  H3  UNL     1      11.675  34.075 -15.020  1.00  0.00     0.166 HD
BRANCH  15  17
HETATM   17  C10 UNL     1      12.727  34.598 -13.413  1.00  0.00     0.048 A 
HETATM   18  C9  UNL     1      13.904  34.786 -14.094  1.00  0.00     0.045 A 
HETATM   19  C6  UNL     1      13.961  34.767 -15.480  1.00  0.00     0.059 A 
HETATM   20  C24 UNL     1      15.068  35.005 -13.348  1.00  0.00     0.049 A 
HETATM   21  C5  UNL     1      15.169  34.967 -16.095  1.00  0.00     0.060 A 
HETATM   22  C4  UNL     1      16.347  35.188 -15.385  1.00  0.00     0.039 A 
HETATM   23  C25 UNL     1      16.277  35.203 -14.026  1.00  0.00     0.060 A 
HETATM   24  N5  UNL     1      15.073  35.037 -12.001  1.00  0.00    -0.365 N 
HETATM   25  C23 UNL     1      13.917  34.851 -11.351  1.00  0.00     0.090 A 
ATOM     26  H5  UNL     1      15.940  35.199 -11.486  1.00  0.00     0.165 HD
HETATM   27  C22 UNL     1      12.742  34.633 -12.030  1.00  0.00     0.047 A 
BRANCH  19  28
HETATM   28  N2  UNL     1      12.789  34.510 -16.260  1.00  0.00    -0.278 N 
ATOM     29  H2  UNL     1      12.078  35.227 -16.401  1.00  0.00     0.179 HD
BRANCH  28  30
HETATM   30  S1  UNL     1      12.629  32.937 -16.954  1.00  0.00     0.289 S 
HETATM   31  O2  UNL     1      13.643  31.986 -16.365  1.00  0.00    -0.198 OA
HETATM   32  O3  UNL     1      12.907  32.977 -18.428  1.00  0.00    -0.198 OA
BRANCH  30  33
HETATM   33  C7  UNL     1      11.018  32.283 -16.756  1.00  0.00     0.221 C 
HETATM   34  C8  UNL     1      10.107  32.391 -17.714  1.00  0.00     0.071 C 
HETATM   35  F1  UNL     1      10.666  31.648 -15.612  1.00  0.00    -0.192 F 
ENDBRANCH  30  33
ENDBRANCH  28  30
ENDBRANCH  19  28
BRANCH  22  36
HETATM   36  N1  UNL     1      17.506  35.398 -16.152  1.00  0.00    -0.324 N 
HETATM   37  C3  UNL     1      18.450  34.410 -16.426  1.00  0.00     0.244 C 
HETATM   38  O1  UNL     1      18.366  33.242 -16.029  1.00  0.00    -0.268 OA
ATOM     39  H1  UNL     1      17.666  36.332 -16.532  1.00  0.00     0.169 HD
BRANCH  37  40
HETATM   40  C2  UNL     1      19.634  34.764 -17.239  1.00  0.00     0.064 C 
HETATM   41  C1  UNL     1      20.779  35.046 -16.658  1.00  0.00     0.017 C 
ENDBRANCH  37  40
ENDBRANCH  22  36
ENDBRANCH  15  17
ENDBRANCH  12  15
ENDBRANCH   1   9
TORSDOF 10
ENDMDL
MODEL 5
REMARK VINA RESULT: -8.619957884      1.424      1.527
REMARK  10 active torsions:
REMARK  status: ('A' for Active; 'I' for Inactive)
REMARK    1  A    between atoms: C2_2  and  C3_3 
REMARK       I    between atoms: C3_3  and  N1_5 
REMARK    2  A    between atoms: N1_5  and  C4_7 
REMARK    3  A    between atoms: C6_9  and  N2_10 
REMARK    4  A    between atoms: N2_10  and  S1_12 
REMARK    5  A    between atoms: S1_12  and  C7_15 
REMARK    6  A    between atoms: C10_19  and  N3_20 
REMARK    7  A    between atoms: N3_20  and  C11_22 
REMARK    8  A    between atoms: C14_25  and  C15_26 
REMARK    9  A    between atoms: C16_27  and  C18_30 
REMARK   10  A    between atoms: C18_30  and  O5_32 
ROOT
HETATM    1  C15 UNL     1       6.675  35.065 -11.502  1.00  0.00     0.040 C 
HETATM    2  C16 UNL     1       5.565  34.991 -12.216  1.00  0.00     0.120 C 
HETATM    3  C17 UNL     1       5.539  34.589 -13.583  1.00  0.00     0.105 C 
HETATM    4  N4  UNL     1       5.498  34.277 -14.717  1.00  0.00    -0.191 NA
ENDROOT
BRANCH   2   5
HETATM    5  C18 UNL     1       4.270  35.342 -11.586  1.00  0.00     0.303 C 
HETATM    6  O4  UNL     1       4.115  35.134 -10.363  1.00  0.00    -0.258 OA
BRANCH   5   7
HETATM    7  O5  UNL     1       3.231  35.890 -12.295  1.00  0.00    -0.322 OA
HETATM    8  C19 UNL     1       2.148  35.190 -12.839  1.00  0.00     0.213 C 
ENDBRANCH   5   7
ENDBRANCH   2   5
BRANCH   1   9
HETATM    9  C14 UNL     1       7.946  34.728 -12.090  1.00  0.00    -0.035 A 
HETATM   10  C13 UNL     1       8.680  35.717 -12.707  1.00  0.00     0.013 A 
HETATM   11  C12 UNL     1       9.921  35.465 -13.265  1.00  0.00     0.030 A 
HETATM   12  C11 UNL     1      10.397  34.171 -13.179  1.00  0.00     0.032 A 
HETATM   13  C21 UNL     1       9.697  33.153 -12.571  1.00  0.00     0.030 A 
HETATM   14  C20 UNL     1       8.447  33.463 -12.022  1.00  0.00     0.013 A 
BRANCH  12  15
HETATM   15  N3  UNL     1      11.681  33.862 -13.747  1.00  0.00    -0.355 N 
ATOM     16  H3  UNL     1      11.727  33.291 -14.591  1.00  0.00     0.166 HD
BRANCH  15  17
HETATM   17  C10 UNL     1      12.769  34.285 -13.216  1.00  0.00     0.048 A 
HETATM   18  C9  UNL     1      13.884  34.481 -13.994  1.00  0.00     0.045 A 
HETATM   19  C6  UNL     1      13.882  34.222 -15.356  1.00  0.00     0.059 A 
HETATM   20  C24 UNL     1      15.043  34.959 -13.373  1.00  0.00     0.049 A 
HETATM   21  C5  UNL     1      15.029  34.445 -16.073  1.00  0.00     0.060 A 
HETATM   22  C4  UNL     1      16.200  34.921 -15.488  1.00  0.00     0.039 A 
HETATM   23  C25 UNL     1      16.188  35.169 -14.150  1.00  0.00     0.060 A 
HETATM   24  N5  UNL     1      15.102  35.231 -12.053  1.00  0.00    -0.365 N 
HETATM   25  C23 UNL     1      14.007  35.034 -11.309  1.00  0.00     0.090 A 
ATOM     26  H5  UNL     1      15.964  35.579 -11.631  1.00  0.00     0.165 HD
HETATM   27  C22 UNL     1      12.839  34.567 -11.863  1.00  0.00     0.047 A 
BRANCH  19  28
HETATM   28  N2  UNL     1      12.718  33.699 -16.004  1.00  0.00    -0.278 N 
ATOM     29  H2  UNL     1      12.433  32.727 -15.880  1.00  0.00     0.179 HD
BRANCH  28  30
HETATM   30  S1  UNL     1      11.816  34.779 -17.005  1.00  0.00     0.289 S 
HETATM   31  O2  UNL     1      11.268  35.929 -16.194  1.00  0.00    -0.198 OA
HETATM   32  O3  UNL     1      10.624  34.083 -17.594  1.00  0.00    -0.198 OA
BRANCH  30  33
HETATM   33  C7  UNL     1      12.761  35.393 -18.342  1.00  0.00     0.221 C 
HETATM   34  C8  UNL     1      13.178  34.595 -19.316  1.00  0.00     0.071 C 
HETATM   35  F1  UNL     1      13.087  36.706 -18.412  1.00  0.00    -0.192 F 
ENDBRANCH  30  33
ENDBRANCH  28  30
ENDBRANCH  19  28
BRANCH  22  36
HETATM   36  N1  UNL     1      17.291  35.121 -16.353  1.00  0.00    -0.324 N 
HETATM   37  C3  UNL     1      18.330  34.207 -16.523  1.00  0.00     0.244 C 
HETATM   38  O1  UNL     1      18.400  33.121 -15.937  1.00  0.00    -0.268 OA
ATOM     39  H1  UNL     1      17.324  35.988 -16.889  1.00  0.00     0.169 HD
BRANCH  37  40
HETATM   40  C2  UNL     1      19.425  34.543 -17.457  1.00  0.00     0.064 C 
HETATM   41  C1  UNL     1      20.566  35.012 -17.003  1.00  0.00     0.017 C 
ENDBRANCH  37  40
ENDBRANCH  22  36
ENDBRANCH  15  17
ENDBRANCH  12  15
ENDBRANCH   1   9
TORSDOF 10
ENDMDL
