MODEL 1
REMARK VINA RESULT: -7.300751857      0.000      0.000
REMARK  6 active torsions:
REMARK  status: ('A' for Active; 'I' for Inactive)
REMARK    1  A    between atoms: C2_2  and  O1_5 
REMARK    2  A    between atoms: O1_5  and  C4_6 
REMARK    3  A    between atoms: C4_6  and  N2_10 
REMARK    4  A    between atoms: N3_12  and  C5_14 
REMARK    5  A    between atoms: C6_15  and  N4_16 
REMARK    6  A    between atoms: C10_22  and  N5_23 
ROOT
HETATM    1  N2  UNL     1       5.803  10.971  45.752  1.00  0.00    -0.265 N 
ATOM      2  H2  UNL     1       4.826  10.700  45.863  1.00  0.00     0.190 HD
HETATM    3  N3  UNL     1       6.104  12.149  45.384  1.00  0.00    -0.293 N 
ATOM      4  H3  UNL     1       7.090  12.392  45.282  1.00  0.00     0.187 HD
ENDROOT
BRANCH   3   5
HETATM    5  C5  UNL     1       5.126  13.140  45.110  1.00  0.00     0.114 A 
HETATM    6  C6  UNL     1       4.695  13.965  46.139  1.00  0.00     0.133 A 
HETATM    7  C7  UNL     1       3.742  14.918  45.836  1.00  0.00     0.038 A 
HETATM    8  C8  UNL     1       3.221  15.066  44.568  1.00  0.00     0.005 A 
HETATM    9  C9  UNL     1       3.666  14.234  43.562  1.00  0.00     0.038 A 
HETATM   10  C10 UNL     1       4.631  13.264  43.850  1.00  0.00     0.133 A 
BRANCH   6  11
HETATM   11  N4  UNL     1       5.238  13.801  47.435  1.00  0.00    -0.113 N 
HETATM   12  O2  UNL     1       5.976  14.655  47.945  1.00  0.00    -0.532 OA
HETATM   13  O3  UNL     1       4.932  12.667  48.134  1.00  0.00    -0.532 OA
ENDBRANCH   6  11
BRANCH  10  14
HETATM   14  N5  UNL     1       5.028  12.457  42.749  1.00  0.00    -0.113 N 
HETATM   15  O4  UNL     1       5.177  12.941  41.629  1.00  0.00    -0.532 OA
HETATM   16  O5  UNL     1       5.255  11.096  42.921  1.00  0.00    -0.532 OA
ENDBRANCH  10  14
ENDBRANCH   3   5
BRANCH   1  17
HETATM   17  C4  UNL     1       6.841  10.036  46.007  1.00  0.00     0.234 C 
HETATM   18  N1  UNL     1       7.107   9.763  47.238  1.00  0.00    -0.364 N 
ATOM     19  H12 UNL     1       7.852   9.091  47.421  1.00  0.00     0.159 HD
ATOM     20  H11 UNL     1       6.572  10.222  47.976  1.00  0.00     0.159 HD
BRANCH  17  21
HETATM   21  O1  UNL     1       7.567   9.414  45.008  1.00  0.00    -0.279 OA
BRANCH  21  22
HETATM   22  C2  UNL     1       7.190   8.097  44.600  1.00  0.00     0.206 C 
HETATM   23  C1  UNL     1       6.881   8.063  43.127  1.00  0.00     0.084 C 
HETATM   24  C3  UNL     1       8.325   7.125  44.929  1.00  0.00     0.084 C 
HETATM   25  F1  UNL     1       6.055   7.775  45.315  1.00  0.00    -0.212 F 
ENDBRANCH  21  22
ENDBRANCH  17  21
ENDBRANCH   1  17
TORSDOF 6
ENDMDL
MODEL 2
REMARK VINA RESULT: -7.222868583      1.209      3.402
REMARK  6 active torsions:
REMARK  status: ('A' for Active; 'I' for Inactive)
REMARK    1  A    between atoms: C2_2  and  O1_5 
REMARK    2  A    between atoms: O1_5  and  C4_6 
REMARK    3  A    between atoms: C4_6  and  N2_10 
REMARK    4  A    between atoms: N3_12  and  C5_14 
REMARK    5  A    between atoms: C6_15  and  N4_16 
REMARK    6  A    between atoms: C10_22  and  N5_23 
ROOT
HETATM    1  N2  UNL     1       6.972  10.956  45.380  1.00  0.00    -0.265 N 
ATOM      2  H2  UNL     1       7.535  11.801  45.276  1.00  0.00     0.190 HD
HETATM    3  N3  UNL     1       5.750  10.954  45.037  1.00  0.00    -0.293 N 
ATOM      4  H3  UNL     1       5.212  10.095  45.151  1.00  0.00     0.187 HD
ENDROOT
BRANCH   3   5
HETATM    5  C5  UNL     1       5.102  12.098  44.502  1.00  0.00     0.114 A 
HETATM    6  C6  UNL     1       5.130  12.309  43.131  1.00  0.00     0.133 A 
HETATM    7  C7  UNL     1       4.489  13.433  42.645  1.00  0.00     0.038 A 
HETATM    8  C8  UNL     1       3.839  14.327  43.469  1.00  0.00     0.005 A 
HETATM    9  C9  UNL     1       3.826  14.095  44.828  1.00  0.00     0.038 A 
HETATM   10  C10 UNL     1       4.468  12.963  45.337  1.00  0.00     0.133 A 
BRANCH   6  11
HETATM   11  N4  UNL     1       5.800  11.382  42.298  1.00  0.00    -0.113 N 
HETATM   12  O2  UNL     1       5.191  10.690  41.471  1.00  0.00    -0.532 OA
HETATM   13  O3  UNL     1       7.156  11.257  42.418  1.00  0.00    -0.532 OA
ENDBRANCH   6  11
BRANCH  10  14
HETATM   14  N5  UNL     1       4.398  12.808  46.749  1.00  0.00    -0.113 N 
HETATM   15  O4  UNL     1       3.433  13.228  47.386  1.00  0.00    -0.532 OA
HETATM   16  O5  UNL     1       5.425  12.175  47.439  1.00  0.00    -0.532 OA
ENDBRANCH  10  14
ENDBRANCH   3   5
BRANCH   1  17
HETATM   17  C4  UNL     1       7.548   9.770  45.908  1.00  0.00     0.234 C 
HETATM   18  N1  UNL     1       7.392   9.542  47.167  1.00  0.00    -0.364 N 
ATOM     19  H12 UNL     1       7.805   8.690  47.547  1.00  0.00     0.159 HD
ATOM     20  H11 UNL     1       6.869  10.212  47.732  1.00  0.00     0.159 HD
BRANCH  17  21
HETATM   21  O1  UNL     1       8.257   8.862  45.143  1.00  0.00    -0.279 OA
BRANCH  21  22
HETATM   22  C2  UNL     1       7.557   7.768  44.547  1.00  0.00     0.206 C 
HETATM   23  C1  UNL     1       7.288   8.036  43.091  1.00  0.00     0.084 C 
HETATM   24  C3  UNL     1       8.387   6.493  44.710  1.00  0.00     0.084 C 
HETATM   25  F1  UNL     1       6.359   7.654  45.222  1.00  0.00    -0.212 F 
ENDBRANCH  21  22
ENDBRANCH  17  21
ENDBRANCH   1  17
TORSDOF 6
ENDMDL
MODEL 3
REMARK VINA RESULT: -7.193976417      0.113      3.210
REMARK  6 active torsions:
REMARK  status: ('A' for Active; 'I' for Inactive)
REMARK    1  A    between atoms: C2_2  and  O1_5 
REMARK    2  A    between atoms: O1_5  and  C4_6 
REMARK    3  A    between atoms: C4_6  and  N2_10 
REMARK    4  A    between atoms: N3_12  and  C5_14 
REMARK    5  A    between atoms: C6_15  and  N4_16 
REMARK    6  A    between atoms: C10_22  and  N5_23 
ROOT
HETATM    1  N2  UNL     1       5.860  10.971  45.873  1.00  0.00    -0.265 N 
ATOM      2  H2  UNL     1       4.906  10.766  46.168  1.00  0.00     0.190 HD
HETATM    3  N3  UNL     1       6.137  12.082  45.324  1.00  0.00    -0.293 N 
ATOM      4  H3  UNL     1       7.100  12.260  45.039  1.00  0.00     0.187 HD
ENDROOT
BRANCH   3   5
HETATM    5  C5  UNL     1       5.161  13.086  45.090  1.00  0.00     0.114 A 
HETATM    6  C6  UNL     1       4.627  13.223  43.816  1.00  0.00     0.133 A 
HETATM    7  C7  UNL     1       3.679  14.212  43.626  1.00  0.00     0.038 A 
HETATM    8  C8  UNL     1       3.263  15.043  44.643  1.00  0.00     0.005 A 
HETATM    9  C9  UNL     1       3.809  14.886  45.900  1.00  0.00     0.038 A 
HETATM   10  C10 UNL     1       4.768  13.891  46.112  1.00  0.00     0.133 A 
BRANCH   6  11
HETATM   11  N4  UNL     1       5.064  12.363  42.782  1.00  0.00    -0.113 N 
HETATM   12  O2  UNL     1       5.439  12.800  41.686  1.00  0.00    -0.532 OA
HETATM   13  O3  UNL     1       5.070  11.016  43.011  1.00  0.00    -0.532 OA
ENDBRANCH   6  11
BRANCH  10  14
HETATM   14  N5  UNL     1       5.270  13.805  47.439  1.00  0.00    -0.113 N 
HETATM   15  O4  UNL     1       5.976  14.695  47.910  1.00  0.00    -0.532 OA
HETATM   16  O5  UNL     1       4.969  12.706  48.235  1.00  0.00    -0.532 OA
ENDBRANCH  10  14
ENDBRANCH   3   5
BRANCH   1  17
HETATM   17  C4  UNL     1       6.894  10.018  46.072  1.00  0.00     0.234 C 
HETATM   18  N1  UNL     1       7.178   9.692  47.287  1.00  0.00    -0.364 N 
ATOM     19  H12 UNL     1       7.920   9.007  47.430  1.00  0.00     0.159 HD
ATOM     20  H11 UNL     1       6.658  10.124  48.051  1.00  0.00     0.159 HD
BRANCH  17  21
HETATM   21  O1  UNL     1       7.599   9.432  45.037  1.00  0.00    -0.279 OA
BRANCH  21  22
HETATM   22  C2  UNL     1       7.227   8.122  44.604  1.00  0.00     0.206 C 
HETATM   23  C1  UNL     1       6.921   8.113  43.131  1.00  0.00     0.084 C 
HETATM   24  C3  UNL     1       8.365   7.149  44.918  1.00  0.00     0.084 C 
HETATM   25  F1  UNL     1       6.093   7.783  45.311  1.00  0.00    -0.212 F 
ENDBRANCH  21  22
ENDBRANCH  17  21
ENDBRANCH   1  17
TORSDOF 6
ENDMDL
MODEL 4
REMARK VINA RESULT: -7.100666618      0.763      1.024
REMARK  6 active torsions:
REMARK  status: ('A' for Active; 'I' for Inactive)
REMARK    1  A    between atoms: C2_2  and  O1_5 
REMARK    2  A    between atoms: O1_5  and  C4_6 
REMARK    3  A    between atoms: C4_6  and  N2_10 
REMARK    4  A    between atoms: N3_12  and  C5_14 
REMARK    5  A    between atoms: C6_15  and  N4_16 
REMARK    6  A    between atoms: C10_22  and  N5_23 
ROOT
HETATM    1  N2  UNL     1       5.966  10.948  45.787  1.00  0.00    -0.265 N 
ATOM      2  H2  UNL     1       4.997  10.639  45.862  1.00  0.00     0.190 HD
HETATM    3  N3  UNL     1       6.234  12.138  45.433  1.00  0.00    -0.293 N 
ATOM      4  H3  UNL     1       7.212  12.420  45.367  1.00  0.00     0.187 HD
ENDROOT
BRANCH   3   5
HETATM    5  C5  UNL     1       5.227  13.091  45.125  1.00  0.00     0.114 A 
HETATM    6  C6  UNL     1       4.756  13.922  46.131  1.00  0.00     0.133 A 
HETATM    7  C7  UNL     1       3.776  14.837  45.794  1.00  0.00     0.038 A 
HETATM    8  C8  UNL     1       3.268  14.941  44.517  1.00  0.00     0.005 A 
HETATM    9  C9  UNL     1       3.754  14.103  43.535  1.00  0.00     0.038 A 
HETATM   10  C10 UNL     1       4.745  13.171  43.857  1.00  0.00     0.133 A 
BRANCH   6  11
HETATM   11  N4  UNL     1       5.287  13.804  47.436  1.00  0.00    -0.113 N 
HETATM   12  O2  UNL     1       5.998  14.687  47.933  1.00  0.00    -0.532 OA
HETATM   13  O3  UNL     1       4.998  12.681  48.160  1.00  0.00    -0.532 OA
ENDBRANCH   6  11
BRANCH  10  14
HETATM   14  N5  UNL     1       5.183  12.355  42.778  1.00  0.00    -0.113 N 
HETATM   15  O4  UNL     1       5.321  12.817  41.647  1.00  0.00    -0.532 OA
HETATM   16  O5  UNL     1       5.465  11.009  42.985  1.00  0.00    -0.532 OA
ENDBRANCH  10  14
ENDBRANCH   3   5
BRANCH   1  17
HETATM   17  C4  UNL     1       7.030  10.054  46.078  1.00  0.00     0.234 C 
HETATM   18  N1  UNL     1       7.157   9.657  47.298  1.00  0.00    -0.364 N 
ATOM     19  H12 UNL     1       7.922   9.014  47.507  1.00  0.00     0.159 HD
ATOM     20  H11 UNL     1       6.500   9.994  48.002  1.00  0.00     0.159 HD
BRANCH  17  21
HETATM   21  O1  UNL     1       7.922   9.596  45.125  1.00  0.00    -0.279 OA
BRANCH  21  22
HETATM   22  C2  UNL     1       7.654   8.355  44.470  1.00  0.00     0.206 C 
HETATM   23  C1  UNL     1       8.542   7.265  45.008  1.00  0.00     0.084 C 
HETATM   24  C3  UNL     1       6.181   7.990  44.670  1.00  0.00     0.084 C 
HETATM   25  F1  UNL     1       7.925   8.551  43.132  1.00  0.00    -0.212 F 
ENDBRANCH  21  22
ENDBRANCH  17  21
ENDBRANCH   1  17
TORSDOF 6
ENDMDL
MODEL 5
REMARK VINA RESULT: -6.944267699      2.886      6.888
REMARK  6 active torsions:
REMARK  status: ('A' for Active; 'I' for Inactive)
REMARK    1  A    between atoms: C2_2  and  O1_5 
REMARK    2  A    between atoms: O1_5  and  C4_6 
REMARK    3  A    between atoms: C4_6  and  N2_10 
REMARK    4  A    between atoms: N3_12  and  C5_14 
REMARK    5  A    between atoms: C6_15  and  N4_16 
REMARK    6  A    between atoms: C10_22  and  N5_23 
ROOT
HETATM    1  N2  UNL     1       7.449   8.842  44.983  1.00  0.00    -0.265 N 
ATOM      2  H2  UNL     1       6.894   8.001  45.138  1.00  0.00     0.190 HD
HETATM    3  N3  UNL     1       8.209   8.932  43.971  1.00  0.00    -0.293 N 
ATOM      4  H3  UNL     1       8.752   9.786  43.840  1.00  0.00     0.187 HD
ENDROOT
BRANCH   3   5
HETATM    5  C5  UNL     1       8.335   7.892  43.012  1.00  0.00     0.114 A 
HETATM    6  C6  UNL     1       7.560   7.938  41.862  1.00  0.00     0.133 A 
HETATM    7  C7  UNL     1       7.709   6.909  40.952  1.00  0.00     0.038 A 
HETATM    8  C8  UNL     1       8.585   5.864  41.153  1.00  0.00     0.005 A 
HETATM    9  C9  UNL     1       9.344   5.842  42.305  1.00  0.00     0.038 A 
HETATM   10  C10 UNL     1       9.208   6.875  43.237  1.00  0.00     0.133 A 
BRANCH   6  11
HETATM   11  N4  UNL     1       6.665   9.016  41.669  1.00  0.00    -0.113 N 
HETATM   12  O2  UNL     1       5.804   9.307  42.511  1.00  0.00    -0.532 OA
HETATM   13  O3  UNL     1       6.763   9.750  40.520  1.00  0.00    -0.532 OA
ENDBRANCH   6  11
BRANCH  10  14
HETATM   14  N5  UNL     1      10.033   6.765  44.389  1.00  0.00    -0.113 N 
HETATM   15  O4  UNL     1      11.248   6.600  44.286  1.00  0.00    -0.532 OA
HETATM   16  O5  UNL     1       9.478   6.843  45.661  1.00  0.00    -0.532 OA
ENDBRANCH  10  14
ENDBRANCH   3   5
BRANCH   1  17
HETATM   17  C4  UNL     1       7.378   9.928  45.897  1.00  0.00     0.234 C 
HETATM   18  N1  UNL     1       7.153   9.649  47.136  1.00  0.00    -0.364 N 
ATOM     19  H12 UNL     1       7.102  10.429  47.792  1.00  0.00     0.159 HD
ATOM     20  H11 UNL     1       7.033   8.674  47.412  1.00  0.00     0.159 HD
BRANCH  17  21
HETATM   21  O1  UNL     1       7.540  11.249  45.523  1.00  0.00    -0.279 OA
BRANCH  21  22
HETATM   22  C2  UNL     1       6.415  11.962  45.006  1.00  0.00     0.206 C 
HETATM   23  C1  UNL     1       6.091  13.149  45.873  1.00  0.00     0.084 C 
HETATM   24  C3  UNL     1       6.720  12.413  43.576  1.00  0.00     0.084 C 
HETATM   25  F1  UNL     1       5.353  11.081  45.019  1.00  0.00    -0.212 F 
ENDBRANCH  21  22
ENDBRANCH  17  21
ENDBRANCH   1  17
TORSDOF 6
ENDMDL
