MODEL 1
REMARK VINA RESULT: -8.470389620      0.000      0.000
REMARK  3 active torsions:
REMARK  status: ('A' for Active; 'I' for Inactive)
REMARK       I    between atoms: C1_2  and  N1_3 
REMARK       I    between atoms: C1_2  and  N3_14 
REMARK    1  A    between atoms: N1_3  and  C2_5 
REMARK    2  A    between atoms: C5_8  and  N2_9 
REMARK    3  A    between atoms: C11_19  and  N4_20 
ROOT
HETATM    1  O1  UNL     1       8.513   8.853  44.328  1.00  0.00    -0.246 OA
HETATM    2  C1  UNL     1       8.558   9.090  43.106  1.00  0.00     0.335 C 
HETATM    3  N1  UNL     1       7.810  10.224  42.704  1.00  0.00    -0.308 N 
ATOM      4  H1  UNL     1       7.811  10.453  41.710  1.00  0.00     0.170 HD
HETATM    5  N3  UNL     1       9.293   8.301  42.177  1.00  0.00    -0.219 N 
HETATM    6  C8  UNL     1       9.368   8.529  40.865  1.00  0.00     0.200 A 
HETATM    7  F1  UNL     1       8.814   9.505  40.085  1.00  0.00    -0.185 F 
HETATM    8  C9  UNL     1      10.169   7.568  40.236  1.00  0.00     0.066 A 
HETATM    9  C10 UNL     1      10.564   6.757  41.245  1.00  0.00     0.060 A 
HETATM   10  C11 UNL     1      10.025   7.197  42.482  1.00  0.00     0.186 A 
ENDROOT
BRANCH   3  11
HETATM   11  C2  UNL     1       7.062  11.068  43.562  1.00  0.00     0.036 A 
HETATM   12  C3  UNL     1       7.743  12.084  44.248  1.00  0.00     0.032 A 
HETATM   13  C4  UNL     1       7.128  12.945  45.121  1.00  0.00     0.038 A 
HETATM   14  C5  UNL     1       5.773  12.826  45.355  1.00  0.00     0.103 A 
HETATM   15  C6  UNL     1       5.080  11.842  44.700  1.00  0.00     0.038 A 
HETATM   16  C7  UNL     1       5.733  10.984  43.820  1.00  0.00     0.032 A 
BRANCH  14  17
HETATM   17  N2  UNL     1       5.139  13.725  46.264  1.00  0.00    -0.116 N 
HETATM   18  O2  UNL     1       4.204  14.455  45.879  1.00  0.00    -0.532 OA
HETATM   19  O3  UNL     1       5.534  13.811  47.567  1.00  0.00    -0.532 OA
ENDBRANCH  14  17
ENDBRANCH   3  11
BRANCH  10  20
HETATM   20  N4  UNL     1      10.269   6.545  43.700  1.00  0.00    -0.097 N 
HETATM   21  O4  UNL     1      11.219   6.695  44.426  1.00  0.00    -0.531 OA
HETATM   22  O5  UNL     1       9.330   5.606  44.162  1.00  0.00    -0.531 OA
ENDBRANCH  10  20
TORSDOF 3
ENDMDL
MODEL 2
REMARK VINA RESULT: -8.346441637      0.194      1.042
REMARK  3 active torsions:
REMARK  status: ('A' for Active; 'I' for Inactive)
REMARK       I    between atoms: C1_2  and  N1_3 
REMARK       I    between atoms: C1_2  and  N3_14 
REMARK    1  A    between atoms: N1_3  and  C2_5 
REMARK    2  A    between atoms: C5_8  and  N2_9 
REMARK    3  A    between atoms: C11_19  and  N4_20 
ROOT
HETATM    1  O1  UNL     1       8.662   8.817  44.308  1.00  0.00    -0.246 OA
HETATM    2  C1  UNL     1       8.620   9.028  43.080  1.00  0.00     0.335 C 
HETATM    3  N1  UNL     1       7.885  10.180  42.711  1.00  0.00    -0.308 N 
ATOM      4  H1  UNL     1       7.816  10.388  41.715  1.00  0.00     0.170 HD
HETATM    5  N3  UNL     1       9.251   8.191  42.116  1.00  0.00    -0.219 N 
HETATM    6  C8  UNL     1       9.231   8.389  40.797  1.00  0.00     0.200 A 
HETATM    7  F1  UNL     1       8.652   9.369  40.040  1.00  0.00    -0.185 F 
HETATM    8  C9  UNL     1       9.944   7.385  40.131  1.00  0.00     0.066 A 
HETATM    9  C10 UNL     1      10.388   6.581  41.125  1.00  0.00     0.060 A 
HETATM   10  C11 UNL     1       9.964   7.067  42.390  1.00  0.00     0.186 A 
ENDROOT
BRANCH   3  11
HETATM   11  C2  UNL     1       7.237  11.070  43.604  1.00  0.00     0.036 A 
HETATM   12  C3  UNL     1       5.855  10.923  43.796  1.00  0.00     0.032 A 
HETATM   13  C4  UNL     1       5.119  11.740  44.616  1.00  0.00     0.038 A 
HETATM   14  C5  UNL     1       5.745  12.766  45.295  1.00  0.00     0.103 A 
HETATM   15  C6  UNL     1       7.094  12.935  45.128  1.00  0.00     0.038 A 
HETATM   16  C7  UNL     1       7.813  12.089  44.289  1.00  0.00     0.032 A 
BRANCH  14  17
HETATM   17  N2  UNL     1       4.973  13.612  46.147  1.00  0.00    -0.116 N 
HETATM   18  O2  UNL     1       3.945  14.171  45.715  1.00  0.00    -0.532 OA
HETATM   19  O3  UNL     1       5.334  13.832  47.444  1.00  0.00    -0.532 OA
ENDBRANCH  14  17
ENDBRANCH   3  11
BRANCH  10  20
HETATM   20  N4  UNL     1      10.279   6.432  43.600  1.00  0.00    -0.097 N 
HETATM   21  O4  UNL     1      11.252   6.618  44.287  1.00  0.00    -0.531 OA
HETATM   22  O5  UNL     1       9.393   5.464  44.105  1.00  0.00    -0.531 OA
ENDBRANCH  10  20
TORSDOF 3
ENDMDL
MODEL 3
REMARK VINA RESULT: -8.267793025      2.524      7.611
REMARK  3 active torsions:
REMARK  status: ('A' for Active; 'I' for Inactive)
REMARK       I    between atoms: C1_2  and  N1_3 
REMARK       I    between atoms: C1_2  and  N3_14 
REMARK    1  A    between atoms: N1_3  and  C2_5 
REMARK    2  A    between atoms: C5_8  and  N2_9 
REMARK    3  A    between atoms: C11_19  and  N4_20 
ROOT
HETATM    1  O1  UNL     1       6.147  11.269  45.957  1.00  0.00    -0.246 OA
HETATM    2  C1  UNL     1       5.611  11.767  44.948  1.00  0.00     0.335 C 
HETATM    3  N1  UNL     1       5.813  11.030  43.757  1.00  0.00    -0.308 N 
ATOM      4  H1  UNL     1       5.398  11.404  42.903  1.00  0.00     0.170 HD
HETATM    5  N3  UNL     1       4.856  12.974  44.973  1.00  0.00    -0.219 N 
HETATM    6  C8  UNL     1       4.265  13.532  43.916  1.00  0.00     0.200 A 
HETATM    7  F1  UNL     1       4.206  13.146  42.606  1.00  0.00    -0.185 F 
HETATM    8  C9  UNL     1       3.605  14.713  44.279  1.00  0.00     0.066 A 
HETATM    9  C10 UNL     1       3.838  14.826  45.607  1.00  0.00     0.060 A 
HETATM   10  C11 UNL     1       4.626  13.741  46.072  1.00  0.00     0.186 A 
ENDROOT
BRANCH   3  11
HETATM   11  C2  UNL     1       6.539   9.818  43.646  1.00  0.00     0.036 A 
HETATM   12  C3  UNL     1       5.835   8.612  43.775  1.00  0.00     0.032 A 
HETATM   13  C4  UNL     1       6.435   7.380  43.710  1.00  0.00     0.038 A 
HETATM   14  C5  UNL     1       7.798   7.296  43.509  1.00  0.00     0.103 A 
HETATM   15  C6  UNL     1       8.514   8.458  43.379  1.00  0.00     0.038 A 
HETATM   16  C7  UNL     1       7.875   9.692  43.450  1.00  0.00     0.032 A 
BRANCH  14  17
HETATM   17  N2  UNL     1       8.417   6.012  43.441  1.00  0.00    -0.116 N 
HETATM   18  O2  UNL     1       9.379   5.736  44.186  1.00  0.00    -0.532 OA
HETATM   19  O3  UNL     1       7.978   5.058  42.570  1.00  0.00    -0.532 OA
ENDBRANCH  14  17
ENDBRANCH   3  11
BRANCH  10  20
HETATM   20  N4  UNL     1       5.022  13.599  47.410  1.00  0.00    -0.097 N 
HETATM   21  O4  UNL     1       4.650  12.760  48.192  1.00  0.00    -0.531 OA
HETATM   22  O5  UNL     1       5.951  14.511  47.940  1.00  0.00    -0.531 OA
ENDBRANCH  10  20
TORSDOF 3
ENDMDL
MODEL 4
REMARK VINA RESULT: -8.162222786      2.419      7.518
REMARK  3 active torsions:
REMARK  status: ('A' for Active; 'I' for Inactive)
REMARK       I    between atoms: C1_2  and  N1_3 
REMARK       I    between atoms: C1_2  and  N3_14 
REMARK    1  A    between atoms: N1_3  and  C2_5 
REMARK    2  A    between atoms: C5_8  and  N2_9 
REMARK    3  A    between atoms: C11_19  and  N4_20 
ROOT
HETATM    1  O1  UNL     1       5.804  11.304  45.825  1.00  0.00    -0.246 OA
HETATM    2  C1  UNL     1       5.406  11.771  44.740  1.00  0.00     0.335 C 
HETATM    3  N1  UNL     1       5.741  10.986  43.610  1.00  0.00    -0.308 N 
ATOM      4  H1  UNL     1       5.442  11.333  42.698  1.00  0.00     0.170 HD
HETATM    5  N3  UNL     1       4.674  12.987  44.627  1.00  0.00    -0.219 N 
HETATM    6  C8  UNL     1       4.228  13.512  43.485  1.00  0.00     0.200 A 
HETATM    7  F1  UNL     1       4.326  13.078  42.192  1.00  0.00    -0.185 F 
HETATM    8  C9  UNL     1       3.549  14.714  43.720  1.00  0.00     0.066 A 
HETATM    9  C10 UNL     1       3.617  14.874  45.062  1.00  0.00     0.060 A 
HETATM   10  C11 UNL     1       4.323  13.798  45.660  1.00  0.00     0.186 A 
ENDROOT
BRANCH   3  11
HETATM   11  C2  UNL     1       6.454   9.762  43.634  1.00  0.00     0.036 A 
HETATM   12  C3  UNL     1       7.839   9.800  43.411  1.00  0.00     0.032 A 
HETATM   13  C4  UNL     1       8.628   8.678  43.386  1.00  0.00     0.038 A 
HETATM   14  C5  UNL     1       8.055   7.438  43.588  1.00  0.00     0.103 A 
HETATM   15  C6  UNL     1       6.704   7.369  43.808  1.00  0.00     0.038 A 
HETATM   16  C7  UNL     1       5.932   8.526  43.826  1.00  0.00     0.032 A 
BRANCH  14  17
HETATM   17  N2  UNL     1       8.881   6.275  43.562  1.00  0.00    -0.116 N 
HETATM   18  O2  UNL     1       8.521   5.261  42.931  1.00  0.00    -0.532 OA
HETATM   19  O3  UNL     1      10.075   6.239  44.220  1.00  0.00    -0.532 OA
ENDBRANCH  14  17
ENDBRANCH   3  11
BRANCH  10  20
HETATM   20  N4  UNL     1       4.546  13.701  47.041  1.00  0.00    -0.097 N 
HETATM   21  O4  UNL     1       3.827  13.186  47.859  1.00  0.00    -0.531 OA
HETATM   22  O5  UNL     1       5.725  14.252  47.574  1.00  0.00    -0.531 OA
ENDBRANCH  10  20
TORSDOF 3
ENDMDL
MODEL 5
REMARK VINA RESULT: -8.121729346      0.771      1.455
REMARK  3 active torsions:
REMARK  status: ('A' for Active; 'I' for Inactive)
REMARK       I    between atoms: C1_2  and  N1_3 
REMARK       I    between atoms: C1_2  and  N3_14 
REMARK    1  A    between atoms: N1_3  and  C2_5 
REMARK    2  A    between atoms: C5_8  and  N2_9 
REMARK    3  A    between atoms: C11_19  and  N4_20 
ROOT
HETATM    1  O1  UNL     1       8.485   8.919  44.545  1.00  0.00    -0.246 OA
HETATM    2  C1  UNL     1       8.132   8.919  43.349  1.00  0.00     0.335 C 
HETATM    3  N1  UNL     1       7.283   9.994  42.992  1.00  0.00    -0.308 N 
ATOM      4  H1  UNL     1       6.962  10.030  42.024  1.00  0.00     0.170 HD
HETATM    5  N3  UNL     1       8.539   7.930  42.409  1.00  0.00    -0.219 N 
HETATM    6  C8  UNL     1       8.186   7.901  41.123  1.00  0.00     0.200 A 
HETATM    7  F1  UNL     1       7.400   8.741  40.384  1.00  0.00    -0.185 F 
HETATM    8  C9  UNL     1       8.753   6.798  40.474  1.00  0.00     0.066 A 
HETATM    9  C10 UNL     1       9.460   6.173  41.444  1.00  0.00     0.060 A 
HETATM   10  C11 UNL     1       9.342   6.867  42.677  1.00  0.00     0.186 A 
ENDROOT
BRANCH   3  11
HETATM   11  C2  UNL     1       6.840  11.023  43.859  1.00  0.00     0.036 A 
HETATM   12  C3  UNL     1       5.475  11.077  44.177  1.00  0.00     0.032 A 
HETATM   13  C4  UNL     1       4.928  12.042  44.986  1.00  0.00     0.038 A 
HETATM   14  C5  UNL     1       5.741  13.019  45.524  1.00  0.00     0.103 A 
HETATM   15  C6  UNL     1       7.079  12.993  45.231  1.00  0.00     0.038 A 
HETATM   16  C7  UNL     1       7.602  12.002  44.407  1.00  0.00     0.032 A 
BRANCH  14  17
HETATM   17  N2  UNL     1       5.166  14.019  46.365  1.00  0.00    -0.116 N 
HETATM   18  O2  UNL     1       5.561  14.157  47.540  1.00  0.00    -0.532 OA
HETATM   19  O3  UNL     1       4.179  14.844  45.913  1.00  0.00    -0.532 OA
ENDBRANCH  14  17
ENDBRANCH   3  11
BRANCH  10  20
HETATM   20  N4  UNL     1       9.971   6.445  43.857  1.00  0.00    -0.097 N 
HETATM   21  O4  UNL     1      11.108   6.664  44.192  1.00  0.00    -0.531 OA
HETATM   22  O5  UNL     1       9.234   5.681  44.778  1.00  0.00    -0.531 OA
ENDBRANCH  10  20
TORSDOF 3
ENDMDL
