MODEL 1
REMARK VINA RESULT: -7.185495794      0.000      0.000
REMARK  7 active torsions:
REMARK  status: ('A' for Active; 'I' for Inactive)
REMARK    1  A    between atoms: C2_2  and  C3_3 
REMARK    2  A    between atoms: N3_9  and  N4_11 
REMARK    3  A    between atoms: C5_13  and  C6_14 
REMARK    4  A    between atoms: C7_15  and  C8_16 
REMARK    5  A    between atoms: C12_21  and  O1_22 
REMARK    6  A    between atoms: C14_24  and  O2_25 
REMARK    7  A    between atoms: C16_27  and  O3_28 
ROOT
HETATM    1  C8  UNL     1       6.216  11.274  45.454  1.00  0.00     0.122 C 
HETATM    2  C9  UNL     1       7.701  11.607  45.503  1.00  0.00     0.031 C 
HETATM    3  C10 UNL     1       5.705  11.705  46.772  1.00  0.00     0.068 C 
HETATM    4  N5  UNL     1       5.311  12.064  47.823  1.00  0.00    -0.197 NA
ENDROOT
BRANCH   1   5
HETATM    5  C7  UNL     1       5.523  12.036  44.406  1.00  0.00    -0.024 A 
HETATM    6  C6  UNL     1       5.493  11.601  43.102  1.00  0.00     0.025 A 
HETATM    7  C16 UNL     1       4.783  12.383  42.165  1.00  0.00     0.116 A 
HETATM    8  C14 UNL     1       4.145  13.536  42.545  1.00  0.00     0.136 A 
HETATM    9  C12 UNL     1       4.188  13.956  43.857  1.00  0.00     0.104 A 
HETATM   10  C11 UNL     1       4.864  13.218  44.767  1.00  0.00     0.049 A 
BRANCH   6  11
HETATM   11  C5  UNL     1       6.143  10.421  42.588  1.00  0.00     0.122 C 
HETATM   12  N4  UNL     1       7.142  10.319  41.814  1.00  0.00    -0.309 N 
ATOM     13  H4  UNL     1       7.580  11.179  41.483  1.00  0.00     0.186 HD
BRANCH  12  14
HETATM   14  N3  UNL     1       7.675   9.114  41.389  1.00  0.00    -0.279 N 
HETATM   15  C4  UNL     1       8.596   8.488  42.087  1.00  0.00     0.179 A 
HETATM   16  N2  UNL     1       9.155   8.856  43.245  1.00  0.00    -0.278 N 
HETATM   17  S1  UNL     1       9.394   7.013  41.770  1.00  0.00    -0.037 SA
HETATM   18  N1  UNL     1      10.039   8.101  43.760  1.00  0.00    -0.296 N 
ATOM     19  H2  UNL     1       8.878   9.723  43.705  1.00  0.00     0.189 HD
HETATM   20  C3  UNL     1      10.391   6.978  43.156  1.00  0.00     0.069 A 
ATOM     21  H1  UNL     1      10.478   8.363  44.643  1.00  0.00     0.187 HD
ATOM     22  H3  UNL     1       7.346   8.702  40.516  1.00  0.00     0.189 HD
BRANCH  20  23
HETATM   23  C2  UNL     1      11.407   5.949  43.591  1.00  0.00     0.062 C 
HETATM   24  C1  UNL     1      12.339   5.752  42.417  1.00  0.00     0.012 C 
ENDBRANCH  20  23
ENDBRANCH  12  14
ENDBRANCH   6  11
BRANCH   7  25
HETATM   25  O3  UNL     1       4.688  12.038  40.831  1.00  0.00    -0.352 OA
HETATM   26  C17 UNL     1       3.738  11.200  40.252  1.00  0.00     0.210 C 
ENDBRANCH   7  25
BRANCH   8  27
HETATM   27  O2  UNL     1       3.445  14.306  41.614  1.00  0.00    -0.351 OA
HETATM   28  C15 UNL     1       4.077  15.323  40.858  1.00  0.00     0.210 C 
ENDBRANCH   8  27
BRANCH   9  29
HETATM   29  O1  UNL     1       3.544  15.118  44.225  1.00  0.00    -0.353 OA
HETATM   30  C13 UNL     1       3.203  15.405  45.556  1.00  0.00     0.210 C 
ENDBRANCH   9  29
ENDBRANCH   1   5
TORSDOF 7
ENDMDL
MODEL 2
REMARK VINA RESULT: -7.150970537      1.674      3.687
REMARK  7 active torsions:
REMARK  status: ('A' for Active; 'I' for Inactive)
REMARK    1  A    between atoms: C2_2  and  C3_3 
REMARK    2  A    between atoms: N3_9  and  N4_11 
REMARK    3  A    between atoms: C5_13  and  C6_14 
REMARK    4  A    between atoms: C7_15  and  C8_16 
REMARK    5  A    between atoms: C12_21  and  O1_22 
REMARK    6  A    between atoms: C14_24  and  O2_25 
REMARK    7  A    between atoms: C16_27  and  O3_28 
ROOT
HETATM    1  C8  UNL     1       4.903  10.719  40.963  1.00  0.00     0.122 C 
HETATM    2  C9  UNL     1       4.216  11.110  39.662  1.00  0.00     0.031 C 
HETATM    3  C10 UNL     1       6.320  10.538  40.584  1.00  0.00     0.068 C 
HETATM    4  N5  UNL     1       7.448  10.410  40.268  1.00  0.00    -0.197 NA
ENDROOT
BRANCH   1   5
HETATM    5  C7  UNL     1       4.814  11.788  41.968  1.00  0.00    -0.024 A 
HETATM    6  C6  UNL     1       5.385  11.654  43.211  1.00  0.00     0.025 A 
HETATM    7  C16 UNL     1       5.272  12.742  44.105  1.00  0.00     0.116 A 
HETATM    8  C14 UNL     1       4.615  13.890  43.744  1.00  0.00     0.136 A 
HETATM    9  C12 UNL     1       4.049  14.004  42.492  1.00  0.00     0.104 A 
HETATM   10  C11 UNL     1       4.148  12.971  41.623  1.00  0.00     0.049 A 
BRANCH   6  11
HETATM   11  C5  UNL     1       6.077  10.490  43.705  1.00  0.00     0.122 C 
HETATM   12  N4  UNL     1       7.289  10.355  44.052  1.00  0.00    -0.309 N 
ATOM     13  H4  UNL     1       7.899  11.170  43.986  1.00  0.00     0.186 HD
BRANCH  12  14
HETATM   14  N3  UNL     1       7.837   9.170  44.514  1.00  0.00    -0.279 N 
HETATM   15  C4  UNL     1       8.592   8.419  43.746  1.00  0.00     0.179 A 
HETATM   16  N2  UNL     1       8.953   8.627  42.475  1.00  0.00    -0.278 N 
HETATM   17  S1  UNL     1       9.366   6.936  44.088  1.00  0.00    -0.037 SA
HETATM   18  N1  UNL     1       9.696   7.767  41.906  1.00  0.00    -0.296 N 
ATOM     19  H2  UNL     1       8.639   9.457  41.973  1.00  0.00     0.189 HD
HETATM   20  C3  UNL     1      10.100   6.693  42.564  1.00  0.00     0.069 A 
ATOM     21  H1  UNL     1       9.983   7.906  40.937  1.00  0.00     0.187 HD
ATOM     22  H3  UNL     1       7.650   8.875  45.473  1.00  0.00     0.189 HD
BRANCH  20  23
HETATM   23  C2  UNL     1      10.976   5.563  42.083  1.00  0.00     0.062 C 
HETATM   24  C1  UNL     1      12.388   5.918  42.494  1.00  0.00     0.012 C 
ENDBRANCH  20  23
ENDBRANCH  12  14
ENDBRANCH   6  11
BRANCH   7  25
HETATM   25  O3  UNL     1       5.809  12.715  45.378  1.00  0.00    -0.352 OA
HETATM   26  C17 UNL     1       5.204  12.210  46.527  1.00  0.00     0.210 C 
ENDBRANCH   7  25
BRANCH   8  27
HETATM   27  O2  UNL     1       4.506  14.962  44.631  1.00  0.00    -0.351 OA
HETATM   28  C15 UNL     1       3.361  15.144  45.446  1.00  0.00     0.210 C 
ENDBRANCH   8  27
BRANCH   9  29
HETATM   29  O1  UNL     1       3.391  15.163  42.141  1.00  0.00    -0.353 OA
HETATM   30  C13 UNL     1       2.923  15.403  40.840  1.00  0.00     0.210 C 
ENDBRANCH   9  29
ENDBRANCH   1   5
TORSDOF 7
ENDMDL
MODEL 3
REMARK VINA RESULT: -7.108958841      4.105      8.479
REMARK  7 active torsions:
REMARK  status: ('A' for Active; 'I' for Inactive)
REMARK    1  A    between atoms: C2_2  and  C3_3 
REMARK    2  A    between atoms: N3_9  and  N4_11 
REMARK    3  A    between atoms: C5_13  and  C6_14 
REMARK    4  A    between atoms: C7_15  and  C8_16 
REMARK    5  A    between atoms: C12_21  and  O1_22 
REMARK    6  A    between atoms: C14_24  and  O2_25 
REMARK    7  A    between atoms: C16_27  and  O3_28 
ROOT
HETATM    1  C8  UNL     1       6.754   8.988  40.736  1.00  0.00     0.122 C 
HETATM    2  C9  UNL     1       7.282  10.105  39.847  1.00  0.00     0.031 C 
HETATM    3  C10 UNL     1       5.767   8.287  39.889  1.00  0.00     0.068 C 
HETATM    4  N5  UNL     1       4.992   7.731  39.197  1.00  0.00    -0.197 NA
ENDROOT
BRANCH   1   5
HETATM    5  C7  UNL     1       7.815   8.043  41.109  1.00  0.00    -0.024 A 
HETATM    6  C6  UNL     1       8.185   7.857  42.420  1.00  0.00     0.025 A 
HETATM    7  C16 UNL     1       9.197   6.910  42.688  1.00  0.00     0.116 A 
HETATM    8  C14 UNL     1       9.789   6.201  41.676  1.00  0.00     0.136 A 
HETATM    9  C12 UNL     1       9.405   6.401  40.367  1.00  0.00     0.104 A 
HETATM   10  C11 UNL     1       8.436   7.305  40.092  1.00  0.00     0.049 A 
BRANCH   6  11
HETATM   11  C5  UNL     1       7.649   8.560  43.558  1.00  0.00     0.122 C 
HETATM   12  N4  UNL     1       8.206   9.399  44.329  1.00  0.00    -0.309 N 
ATOM     13  H4  UNL     1       9.181   9.639  44.149  1.00  0.00     0.186 HD
BRANCH  12  14
HETATM   14  N3  UNL     1       7.575  10.009  45.399  1.00  0.00    -0.279 N 
HETATM   15  C4  UNL     1       6.719  10.990  45.221  1.00  0.00     0.179 A 
HETATM   16  N2  UNL     1       6.319  11.547  44.073  1.00  0.00    -0.278 N 
HETATM   17  S1  UNL     1       5.830  11.886  46.370  1.00  0.00    -0.037 SA
HETATM   18  N1  UNL     1       5.474  12.496  44.120  1.00  0.00    -0.296 N 
ATOM     19  H2  UNL     1       6.684  11.218  43.179  1.00  0.00     0.189 HD
HETATM   20  C3  UNL     1       5.006  12.916  45.284  1.00  0.00     0.069 A 
ATOM     21  H1  UNL     1       5.156  12.935  43.256  1.00  0.00     0.187 HD
ATOM     22  H3  UNL     1       7.779   9.691  46.347  1.00  0.00     0.189 HD
BRANCH  20  23
HETATM   23  C2  UNL     1       4.008  14.014  45.561  1.00  0.00     0.062 C 
HETATM   24  C1  UNL     1       3.714  14.664  44.227  1.00  0.00     0.012 C 
ENDBRANCH  20  23
ENDBRANCH  12  14
ENDBRANCH   6  11
BRANCH   7  25
HETATM   25  O3  UNL     1       9.644   6.644  43.969  1.00  0.00    -0.352 OA
HETATM   26  C17 UNL     1       9.067   5.771  44.888  1.00  0.00     0.210 C 
ENDBRANCH   7  25
BRANCH   8  27
HETATM   27  O2  UNL     1      10.790   5.265  41.947  1.00  0.00    -0.351 OA
HETATM   28  C15 UNL     1      12.112   5.658  42.273  1.00  0.00     0.210 C 
ENDBRANCH   8  27
BRANCH   9  29
HETATM   29  O1  UNL     1      10.009   5.683  39.358  1.00  0.00    -0.353 OA
HETATM   30  C13 UNL     1       9.579   5.744  38.024  1.00  0.00     0.210 C 
ENDBRANCH   9  29
ENDBRANCH   1   5
TORSDOF 7
ENDMDL
MODEL 4
REMARK VINA RESULT: -7.104939960      3.935      8.423
REMARK  7 active torsions:
REMARK  status: ('A' for Active; 'I' for Inactive)
REMARK    1  A    between atoms: C2_2  and  C3_3 
REMARK    2  A    between atoms: N3_9  and  N4_11 
REMARK    3  A    between atoms: C5_13  and  C6_14 
REMARK    4  A    between atoms: C7_15  and  C8_16 
REMARK    5  A    between atoms: C12_21  and  O1_22 
REMARK    6  A    between atoms: C14_24  and  O2_25 
REMARK    7  A    between atoms: C16_27  and  O3_28 
ROOT
HETATM    1  C8  UNL     1      10.813  10.943  42.670  1.00  0.00     0.122 C 
HETATM    2  C9  UNL     1      10.780  11.914  43.842  1.00  0.00     0.031 C 
HETATM    3  C10 UNL     1      12.249  10.810  42.350  1.00  0.00     0.068 C 
HETATM    4  N5  UNL     1      13.399  10.705  42.115  1.00  0.00    -0.197 NA
ENDROOT
BRANCH   1   5
HETATM    5  C7  UNL     1      10.286   9.623  43.043  1.00  0.00    -0.024 A 
HETATM    6  C6  UNL     1       8.947   9.424  43.278  1.00  0.00     0.025 A 
HETATM    7  C16 UNL     1       8.525   8.117  43.607  1.00  0.00     0.116 A 
HETATM    8  C14 UNL     1       9.422   7.083  43.688  1.00  0.00     0.136 A 
HETATM    9  C12 UNL     1      10.762   7.303  43.449  1.00  0.00     0.104 A 
HETATM   10  C11 UNL     1      11.182   8.550  43.132  1.00  0.00     0.049 A 
BRANCH   6  11
HETATM   11  C5  UNL     1       7.921  10.437  43.244  1.00  0.00     0.122 C 
HETATM   12  N4  UNL     1       7.348  11.042  44.199  1.00  0.00    -0.309 N 
ATOM     13  H4  UNL     1       7.627  10.805  45.152  1.00  0.00     0.186 HD
BRANCH  12  14
HETATM   14  N3  UNL     1       6.367  12.005  44.031  1.00  0.00    -0.279 N 
HETATM   15  C4  UNL     1       5.597  12.379  45.028  1.00  0.00     0.179 A 
HETATM   16  N2  UNL     1       5.603  11.945  46.293  1.00  0.00    -0.278 N 
HETATM   17  S1  UNL     1       4.336  13.529  45.061  1.00  0.00    -0.037 SA
HETATM   18  N1  UNL     1       4.765  12.441  47.109  1.00  0.00    -0.296 N 
ATOM     19  H2  UNL     1       6.266  11.232  46.595  1.00  0.00     0.189 HD
HETATM   20  C3  UNL     1       3.909  13.366  46.708  1.00  0.00     0.069 A 
ATOM     21  H1  UNL     1       4.752  12.124  48.078  1.00  0.00     0.187 HD
ATOM     22  H3  UNL     1       6.240  12.433  43.114  1.00  0.00     0.189 HD
BRANCH  20  23
HETATM   23  C2  UNL     1       2.844  14.079  47.506  1.00  0.00     0.062 C 
HETATM   24  C1  UNL     1       2.496  15.327  46.726  1.00  0.00     0.012 C 
ENDBRANCH  20  23
ENDBRANCH  12  14
ENDBRANCH   6  11
BRANCH   7  25
HETATM   25  O3  UNL     1       7.203   7.806  43.863  1.00  0.00    -0.352 OA
HETATM   26  C17 UNL     1       6.607   7.668  45.114  1.00  0.00     0.210 C 
ENDBRANCH   7  25
BRANCH   8  27
HETATM   27  O2  UNL     1       9.000   5.793  44.014  1.00  0.00    -0.351 OA
HETATM   28  C15 UNL     1       8.502   4.900  43.033  1.00  0.00     0.210 C 
ENDBRANCH   8  27
BRANCH   9  29
HETATM   29  O1  UNL     1      11.654   6.256  43.534  1.00  0.00    -0.353 OA
HETATM   30  C13 UNL     1      12.291   5.712  42.409  1.00  0.00     0.210 C 
ENDBRANCH   9  29
ENDBRANCH   1   5
TORSDOF 7
ENDMDL
MODEL 5
REMARK VINA RESULT: -7.078915755      3.643      7.586
REMARK  7 active torsions:
REMARK  status: ('A' for Active; 'I' for Inactive)
REMARK    1  A    between atoms: C2_2  and  C3_3 
REMARK    2  A    between atoms: N3_9  and  N4_11 
REMARK    3  A    between atoms: C5_13  and  C6_14 
REMARK    4  A    between atoms: C7_15  and  C8_16 
REMARK    5  A    between atoms: C12_21  and  O1_22 
REMARK    6  A    between atoms: C14_24  and  O2_25 
REMARK    7  A    between atoms: C16_27  and  O3_28 
ROOT
HETATM    1  C8  UNL     1       6.417   8.898  45.480  1.00  0.00     0.122 C 
HETATM    2  C9  UNL     1       5.553   7.690  45.812  1.00  0.00     0.031 C 
HETATM    3  C10 UNL     1       7.154   9.171  46.732  1.00  0.00     0.068 C 
HETATM    4  N5  UNL     1       7.742   9.368  47.734  1.00  0.00    -0.197 NA
ENDROOT
BRANCH   1   5
HETATM    5  C7  UNL     1       7.386   8.598  44.417  1.00  0.00    -0.024 A 
HETATM    6  C6  UNL     1       7.539   9.426  43.330  1.00  0.00     0.025 A 
HETATM    7  C16 UNL     1       8.511   9.073  42.369  1.00  0.00     0.116 A 
HETATM    8  C14 UNL     1       9.275   7.944  42.516  1.00  0.00     0.136 A 
HETATM    9  C12 UNL     1       9.106   7.126  43.613  1.00  0.00     0.104 A 
HETATM   10  C11 UNL     1       8.179   7.450  44.544  1.00  0.00     0.049 A 
BRANCH   6  11
HETATM   11  C5  UNL     1       6.779  10.621  43.062  1.00  0.00     0.122 C 
HETATM   12  N4  UNL     1       5.655  10.755  42.491  1.00  0.00    -0.309 N 
ATOM     13  H4  UNL     1       5.185   9.914  42.157  1.00  0.00     0.186 HD
BRANCH  12  14
HETATM   14  N3  UNL     1       5.025  11.972  42.293  1.00  0.00    -0.279 N 
HETATM   15  C4  UNL     1       4.663  12.729  43.304  1.00  0.00     0.179 A 
HETATM   16  N2  UNL     1       4.815  12.498  44.612  1.00  0.00    -0.278 N 
HETATM   17  S1  UNL     1       3.882  14.247  43.307  1.00  0.00    -0.037 SA
HETATM   18  N1  UNL     1       4.389  13.367  45.436  1.00  0.00    -0.296 N 
ATOM     19  H2  UNL     1       5.264  11.643  44.942  1.00  0.00     0.189 HD
HETATM   20  C3  UNL     1       3.809  14.473  45.000  1.00  0.00     0.069 A 
ATOM     21  H1  UNL     1       4.495  13.211  46.438  1.00  0.00     0.187 HD
ATOM     22  H3  UNL     1       4.838  12.288  41.341  1.00  0.00     0.189 HD
BRANCH  20  23
HETATM   23  C2  UNL     1       3.240  15.621  45.798  1.00  0.00     0.062 C 
HETATM   24  C1  UNL     1       2.621  15.009  47.035  1.00  0.00     0.012 C 
ENDBRANCH  20  23
ENDBRANCH  12  14
ENDBRANCH   6  11
BRANCH   7  25
HETATM   25  O3  UNL     1       8.748   9.833  41.239  1.00  0.00    -0.352 OA
HETATM   26  C17 UNL     1       8.108   9.717  40.008  1.00  0.00     0.210 C 
ENDBRANCH   7  25
BRANCH   8  27
HETATM   27  O2  UNL     1      10.235   7.599  41.562  1.00  0.00    -0.351 OA
HETATM   28  C15 UNL     1       9.993   6.603  40.584  1.00  0.00     0.210 C 
ENDBRANCH   8  27
BRANCH   9  29
HETATM   29  O1  UNL     1       9.879   5.994  43.749  1.00  0.00    -0.353 OA
HETATM   30  C13 UNL     1      11.140   6.008  44.364  1.00  0.00     0.210 C 
ENDBRANCH   9  29
ENDBRANCH   1   5
TORSDOF 7
ENDMDL
