MODEL 1
REMARK VINA RESULT: -8.085304820      0.000      0.000
REMARK  10 active torsions:
REMARK  status: ('A' for Active; 'I' for Inactive)
REMARK    1  A    between atoms: C2_2  and  C4_4 
REMARK    2  A    between atoms: C5_5  and  O1_6 
REMARK    3  A    between atoms: O1_6  and  C6_7 
REMARK    4  A    between atoms: C8_10  and  O3_11 
REMARK    5  A    between atoms: O3_11  and  C9_12 
REMARK    6  A    between atoms: C9_12  and  C10_14 
REMARK    7  A    between atoms: C10_14  and  C11_15 
REMARK    8  A    between atoms: C16_22  and  C17_23 
REMARK    9  A    between atoms: C17_23  and  C18_24 
REMARK   10  A    between atoms: C19_26  and  O8_27 
ROOT
HETATM    1  C4  UNL     1       4.482  13.724  44.036  1.00  0.00     0.022 A 
HETATM    2  C5  UNL     1       5.145  12.827  44.895  1.00  0.00     0.124 A 
HETATM    3  C8  UNL     1       5.577  11.617  44.412  1.00  0.00     0.116 A 
HETATM    4  C13 UNL     1       5.366  11.277  43.095  1.00  0.00     0.078 A 
HETATM    5  C14 UNL     1       4.715  12.166  42.263  1.00  0.00     0.096 A 
HETATM    6  O5  UNL     1       4.500  11.871  41.007  1.00  0.00    -0.274 OA
HETATM    7  C15 UNL     1       3.895  12.648  40.152  1.00  0.00     0.297 A 
HETATM    8  O6  UNL     1       3.729  12.285  38.955  1.00  0.00    -0.259 OA
HETATM    9  C16 UNL     1       3.414  13.895  40.522  1.00  0.00     0.058 A 
HETATM   10  C19 UNL     1       3.612  14.263  41.846  1.00  0.00     0.092 A 
HETATM   11  C20 UNL     1       4.262  13.405  42.725  1.00  0.00     0.045 A 
ENDROOT
BRANCH   3  12
HETATM   12  O3  UNL     1       6.244  10.699  45.249  1.00  0.00    -0.276 OA
BRANCH  12  13
HETATM   13  C9  UNL     1       7.610  10.835  45.452  1.00  0.00     0.264 C 
HETATM   14  O4  UNL     1       8.094  10.281  46.468  1.00  0.00    -0.265 OA
BRANCH  13  15
HETATM   15  C10 UNL     1       8.492  11.608  44.509  1.00  0.00     0.111 C 
BRANCH  15  16
HETATM   16  C11 UNL     1       8.812  12.967  45.056  1.00  0.00     0.005 C 
HETATM   17  C12 UNL     1      10.164  13.449  44.623  1.00  0.00     0.005 C 
ENDBRANCH  15  16
ENDBRANCH  13  15
ENDBRANCH  12  13
ENDBRANCH   3  12
BRANCH   2  18
HETATM   18  O1  UNL     1       5.345  13.191  46.214  1.00  0.00    -0.275 OA
BRANCH  18  19
HETATM   19  C6  UNL     1       4.694  12.624  47.293  1.00  0.00     0.260 C 
HETATM   20  C7  UNL     1       3.280  12.917  47.649  1.00  0.00     0.126 C 
HETATM   21  O2  UNL     1       5.331  11.816  48.013  1.00  0.00    -0.265 OA
ENDBRANCH  18  19
ENDBRANCH   2  18
BRANCH   1  22
HETATM   22  C2  UNL     1       4.027  14.998  44.568  1.00  0.00    -0.057 C 
HETATM   23  C1  UNL     1       2.899  15.158  45.246  1.00  0.00     0.019 C 
HETATM   24  C3  UNL     1       4.901  16.190  44.267  1.00  0.00     0.048 C 
ENDBRANCH   1  22
BRANCH  10  25
HETATM   25  O8  UNL     1       3.152  15.482  42.235  1.00  0.00    -0.359 OA
ATOM     26  H8  UNL     1       3.651  15.950  42.895  1.00  0.00     0.217 HD
ENDBRANCH  10  25
BRANCH   9  27
HETATM   27  C17 UNL     1       2.731  14.743  39.510  1.00  0.00     0.117 C 
BRANCH  27  28
HETATM   28  C18 UNL     1       3.617  15.882  39.117  1.00  0.00     0.236 C 
HETATM   29  O7  UNL     1       3.147  16.969  38.843  1.00  0.00    -0.307 OA
ENDBRANCH  27  28
ENDBRANCH   9  27
TORSDOF 10
ENDMDL
MODEL 2
REMARK VINA RESULT: -7.752867268      2.187      5.972
REMARK  10 active torsions:
REMARK  status: ('A' for Active; 'I' for Inactive)
REMARK    1  A    between atoms: C2_2  and  C4_4 
REMARK    2  A    between atoms: C5_5  and  O1_6 
REMARK    3  A    between atoms: O1_6  and  C6_7 
REMARK    4  A    between atoms: C8_10  and  O3_11 
REMARK    5  A    between atoms: O3_11  and  C9_12 
REMARK    6  A    between atoms: C9_12  and  C10_14 
REMARK    7  A    between atoms: C10_14  and  C11_15 
REMARK    8  A    between atoms: C16_22  and  C17_23 
REMARK    9  A    between atoms: C17_23  and  C18_24 
REMARK   10  A    between atoms: C19_26  and  O8_27 
ROOT
HETATM    1  C4  UNL     1       5.991  12.021  44.206  1.00  0.00     0.022 A 
HETATM    2  C5  UNL     1       5.114  13.089  43.939  1.00  0.00     0.124 A 
HETATM    3  C8  UNL     1       4.430  13.126  42.749  1.00  0.00     0.116 A 
HETATM    4  C13 UNL     1       4.595  12.126  41.819  1.00  0.00     0.078 A 
HETATM    5  C14 UNL     1       5.458  11.083  42.094  1.00  0.00     0.096 A 
HETATM    6  O5  UNL     1       5.637  10.118  41.229  1.00  0.00    -0.274 OA
HETATM    7  C15 UNL     1       6.430   9.097  41.404  1.00  0.00     0.297 A 
HETATM    8  O6  UNL     1       6.543   8.208  40.516  1.00  0.00    -0.259 OA
HETATM    9  C16 UNL     1       7.173   8.951  42.565  1.00  0.00     0.058 A 
HETATM   10  C19 UNL     1       7.026   9.946  43.521  1.00  0.00     0.092 A 
HETATM   11  C20 UNL     1       6.170  11.017  43.295  1.00  0.00     0.045 A 
ENDROOT
BRANCH   3  12
HETATM   12  O3  UNL     1       3.545  14.184  42.455  1.00  0.00    -0.276 OA
BRANCH  12  13
HETATM   13  C9  UNL     1       4.015  15.287  41.756  1.00  0.00     0.264 C 
HETATM   14  O4  UNL     1       4.463  16.243  42.432  1.00  0.00    -0.265 OA
BRANCH  13  15
HETATM   15  C10 UNL     1       3.997  15.356  40.253  1.00  0.00     0.111 C 
BRANCH  15  16
HETATM   16  C11 UNL     1       2.611  15.154  39.716  1.00  0.00     0.005 C 
HETATM   17  C12 UNL     1       2.436  13.806  39.087  1.00  0.00     0.005 C 
ENDBRANCH  15  16
ENDBRANCH  13  15
ENDBRANCH  12  13
ENDBRANCH   3  12
BRANCH   2  18
HETATM   18  O1  UNL     1       4.964  14.082  44.890  1.00  0.00    -0.275 OA
BRANCH  18  19
HETATM   19  C6  UNL     1       3.814  14.299  45.624  1.00  0.00     0.260 C 
HETATM   20  C7  UNL     1       3.384  13.435  46.757  1.00  0.00     0.126 C 
HETATM   21  O2  UNL     1       3.091  15.279  45.318  1.00  0.00    -0.265 OA
ENDBRANCH  18  19
ENDBRANCH   2  18
BRANCH   1  22
HETATM   22  C2  UNL     1       6.711  12.002  45.469  1.00  0.00    -0.057 C 
HETATM   23  C1  UNL     1       6.243  11.451  46.580  1.00  0.00     0.019 C 
HETATM   24  C3  UNL     1       8.045  12.705  45.480  1.00  0.00     0.048 C 
ENDBRANCH   1  22
BRANCH  10  25
HETATM   25  O8  UNL     1       7.742   9.826  44.671  1.00  0.00    -0.359 OA
ATOM     26  H8  UNL     1       7.431  10.297  45.434  1.00  0.00     0.217 HD
ENDBRANCH  10  25
BRANCH   9  27
HETATM   27  C17 UNL     1       8.062   7.768  42.716  1.00  0.00     0.117 C 
BRANCH  27  28
HETATM   28  C18 UNL     1       9.467   8.137  42.360  1.00  0.00     0.236 C 
HETATM   29  O7  UNL     1      10.202   8.650  43.182  1.00  0.00    -0.307 OA
ENDBRANCH  27  28
ENDBRANCH   9  27
TORSDOF 10
ENDMDL
MODEL 3
REMARK VINA RESULT: -7.546299524      4.726      7.321
REMARK  10 active torsions:
REMARK  status: ('A' for Active; 'I' for Inactive)
REMARK    1  A    between atoms: C2_2  and  C4_4 
REMARK    2  A    between atoms: C5_5  and  O1_6 
REMARK    3  A    between atoms: O1_6  and  C6_7 
REMARK    4  A    between atoms: C8_10  and  O3_11 
REMARK    5  A    between atoms: O3_11  and  C9_12 
REMARK    6  A    between atoms: C9_12  and  C10_14 
REMARK    7  A    between atoms: C10_14  and  C11_15 
REMARK    8  A    between atoms: C16_22  and  C17_23 
REMARK    9  A    between atoms: C17_23  and  C18_24 
REMARK   10  A    between atoms: C19_26  and  O8_27 
ROOT
HETATM    1  C4  UNL     1       8.953   7.528  42.678  1.00  0.00     0.022 A 
HETATM    2  C5  UNL     1       8.957   8.307  43.851  1.00  0.00     0.124 A 
HETATM    3  C8  UNL     1       8.529   9.611  43.802  1.00  0.00     0.116 A 
HETATM    4  C13 UNL     1       8.098  10.159  42.616  1.00  0.00     0.078 A 
HETATM    5  C14 UNL     1       8.099   9.383  41.473  1.00  0.00     0.096 A 
HETATM    6  O5  UNL     1       7.694   9.876  40.330  1.00  0.00    -0.274 OA
HETATM    7  C15 UNL     1       7.662   9.218  39.205  1.00  0.00     0.297 A 
HETATM    8  O6  UNL     1       7.256   9.770  38.146  1.00  0.00    -0.259 OA
HETATM    9  C16 UNL     1       8.068   7.894  39.129  1.00  0.00     0.058 A 
HETATM   10  C19 UNL     1       8.509   7.316  40.311  1.00  0.00     0.092 A 
HETATM   11  C20 UNL     1       8.528   8.053  41.490  1.00  0.00     0.045 A 
ENDROOT
BRANCH   3  12
HETATM   12  O3  UNL     1       8.522  10.414  44.961  1.00  0.00    -0.276 OA
BRANCH  12  13
HETATM   13  C9  UNL     1       7.337  11.014  45.362  1.00  0.00     0.264 C 
HETATM   14  O4  UNL     1       6.408  10.256  45.727  1.00  0.00    -0.265 OA
BRANCH  13  15
HETATM   15  C10 UNL     1       7.152  12.508  45.369  1.00  0.00     0.111 C 
BRANCH  15  16
HETATM   16  C11 UNL     1       5.700  12.875  45.449  1.00  0.00     0.005 C 
HETATM   17  C12 UNL     1       5.115  13.174  44.102  1.00  0.00     0.005 C 
ENDBRANCH  15  16
ENDBRANCH  13  15
ENDBRANCH  12  13
ENDBRANCH   3  12
BRANCH   2  18
HETATM   18  O1  UNL     1       9.395   7.734  45.031  1.00  0.00    -0.275 OA
BRANCH  18  19
HETATM   19  C6  UNL     1       8.565   7.285  46.041  1.00  0.00     0.260 C 
HETATM   20  C7  UNL     1       7.141   6.909  45.831  1.00  0.00     0.126 C 
HETATM   21  O2  UNL     1       9.039   7.188  47.199  1.00  0.00    -0.265 OA
ENDBRANCH  18  19
ENDBRANCH   2  18
BRANCH   1  22
HETATM   22  C2  UNL     1       9.414   6.151  42.750  1.00  0.00    -0.057 C 
HETATM   23  C1  UNL     1       8.619   5.114  42.978  1.00  0.00     0.019 C 
HETATM   24  C3  UNL     1      10.900   5.942  42.593  1.00  0.00     0.048 C 
ENDBRANCH   1  22
BRANCH  10  25
HETATM   25  O8  UNL     1       8.912   6.018  40.265  1.00  0.00    -0.359 OA
ATOM     26  H8  UNL     1       9.490   5.713  40.955  1.00  0.00     0.217 HD
ENDBRANCH  10  25
BRANCH   9  27
HETATM   27  C17 UNL     1       8.011   7.189  37.822  1.00  0.00     0.117 C 
BRANCH  27  28
HETATM   28  C18 UNL     1       9.378   7.121  37.218  1.00  0.00     0.236 C 
HETATM   29  O7  UNL     1      10.099   6.163  37.420  1.00  0.00    -0.307 OA
ENDBRANCH  27  28
ENDBRANCH   9  27
TORSDOF 10
ENDMDL
MODEL 4
REMARK VINA RESULT: -7.520791971      1.325      1.967
REMARK  10 active torsions:
REMARK  status: ('A' for Active; 'I' for Inactive)
REMARK    1  A    between atoms: C2_2  and  C4_4 
REMARK    2  A    between atoms: C5_5  and  O1_6 
REMARK    3  A    between atoms: O1_6  and  C6_7 
REMARK    4  A    between atoms: C8_10  and  O3_11 
REMARK    5  A    between atoms: O3_11  and  C9_12 
REMARK    6  A    between atoms: C9_12  and  C10_14 
REMARK    7  A    between atoms: C10_14  and  C11_15 
REMARK    8  A    between atoms: C16_22  and  C17_23 
REMARK    9  A    between atoms: C17_23  and  C18_24 
REMARK   10  A    between atoms: C19_26  and  O8_27 
ROOT
HETATM    1  C4  UNL     1       4.560  13.846  43.396  1.00  0.00     0.022 A 
HETATM    2  C5  UNL     1       5.280  12.903  44.154  1.00  0.00     0.124 A 
HETATM    3  C8  UNL     1       5.570  11.675  43.613  1.00  0.00     0.116 A 
HETATM    4  C13 UNL     1       5.162  11.361  42.337  1.00  0.00     0.078 A 
HETATM    5  C14 UNL     1       4.457  12.296  41.604  1.00  0.00     0.096 A 
HETATM    6  O5  UNL     1       4.056  12.027  40.388  1.00  0.00    -0.274 OA
HETATM    7  C15 UNL     1       3.387  12.847  39.626  1.00  0.00     0.297 A 
HETATM    8  O6  UNL     1       3.038  12.507  38.462  1.00  0.00    -0.259 OA
HETATM    9  C16 UNL     1       3.035  14.115  40.061  1.00  0.00     0.058 A 
HETATM   10  C19 UNL     1       3.434  14.458  41.346  1.00  0.00     0.092 A 
HETATM   11  C20 UNL     1       4.146  13.554  42.126  1.00  0.00     0.045 A 
ENDROOT
BRANCH   3  12
HETATM   12  O3  UNL     1       6.289  10.711  44.350  1.00  0.00    -0.276 OA
BRANCH  12  13
HETATM   13  C9  UNL     1       7.664  10.617  44.182  1.00  0.00     0.264 C 
HETATM   14  O4  UNL     1       8.375  11.414  44.838  1.00  0.00    -0.265 OA
BRANCH  13  15
HETATM   15  C10 UNL     1       8.297   9.610  43.260  1.00  0.00     0.111 C 
BRANCH  15  16
HETATM   16  C11 UNL     1       7.435   8.393  43.110  1.00  0.00     0.005 C 
HETATM   17  C12 UNL     1       7.043   8.147  41.684  1.00  0.00     0.005 C 
ENDBRANCH  15  16
ENDBRANCH  13  15
ENDBRANCH  12  13
ENDBRANCH   3  12
BRANCH   2  18
HETATM   18  O1  UNL     1       5.679  13.241  45.434  1.00  0.00    -0.275 OA
BRANCH  18  19
HETATM   19  C6  UNL     1       5.204  12.646  46.588  1.00  0.00     0.260 C 
HETATM   20  C7  UNL     1       3.779  12.691  47.011  1.00  0.00     0.126 C 
HETATM   21  O2  UNL     1       6.021  12.035  47.320  1.00  0.00    -0.265 OA
ENDBRANCH  18  19
ENDBRANCH   2  18
BRANCH   1  22
HETATM   22  C2  UNL     1       4.258  15.139  43.988  1.00  0.00    -0.057 C 
HETATM   23  C1  UNL     1       4.981  16.232  43.788  1.00  0.00     0.019 C 
HETATM   24  C3  UNL     1       3.068  15.180  44.914  1.00  0.00     0.048 C 
ENDBRANCH   1  22
BRANCH  10  25
HETATM   25  O8  UNL     1       3.103  15.697  41.798  1.00  0.00    -0.359 OA
ATOM     26  H8  UNL     1       2.599  15.752  42.601  1.00  0.00     0.217 HD
ENDBRANCH  10  25
BRANCH   9  27
HETATM   27  C17 UNL     1       2.273  15.012  39.153  1.00  0.00     0.117 C 
BRANCH  27  28
HETATM   28  C18 UNL     1       3.200  15.985  38.499  1.00  0.00     0.236 C 
HETATM   29  O7  UNL     1       3.436  17.061  39.014  1.00  0.00    -0.307 OA
ENDBRANCH  27  28
ENDBRANCH   9  27
TORSDOF 10
ENDMDL
MODEL 5
REMARK VINA RESULT: -7.497568347      1.919      4.116
REMARK  10 active torsions:
REMARK  status: ('A' for Active; 'I' for Inactive)
REMARK    1  A    between atoms: C2_2  and  C4_4 
REMARK    2  A    between atoms: C5_5  and  O1_6 
REMARK    3  A    between atoms: O1_6  and  C6_7 
REMARK    4  A    between atoms: C8_10  and  O3_11 
REMARK    5  A    between atoms: O3_11  and  C9_12 
REMARK    6  A    between atoms: C9_12  and  C10_14 
REMARK    7  A    between atoms: C10_14  and  C11_15 
REMARK    8  A    between atoms: C16_22  and  C17_23 
REMARK    9  A    between atoms: C17_23  and  C18_24 
REMARK   10  A    between atoms: C19_26  and  O8_27 
ROOT
HETATM    1  C4  UNL     1       4.947  11.235  41.284  1.00  0.00     0.022 A 
HETATM    2  C5  UNL     1       5.553  10.813  42.483  1.00  0.00     0.124 A 
HETATM    3  C8  UNL     1       5.557  11.648  43.573  1.00  0.00     0.116 A 
HETATM    4  C13 UNL     1       4.972  12.892  43.500  1.00  0.00     0.078 A 
HETATM    5  C14 UNL     1       4.381  13.292  42.317  1.00  0.00     0.096 A 
HETATM    6  O5  UNL     1       3.818  14.469  42.217  1.00  0.00    -0.274 OA
HETATM    7  C15 UNL     1       3.238  14.929  41.143  1.00  0.00     0.297 A 
HETATM    8  O6  UNL     1       2.718  16.078  41.132  1.00  0.00    -0.259 OA
HETATM    9  C16 UNL     1       3.172  14.177  39.980  1.00  0.00     0.058 A 
HETATM   10  C19 UNL     1       3.754  12.918  40.025  1.00  0.00     0.092 A 
HETATM   11  C20 UNL     1       4.362  12.466  41.190  1.00  0.00     0.045 A 
ENDROOT
BRANCH   3  12
HETATM   12  O3  UNL     1       6.155  11.252  44.786  1.00  0.00    -0.276 OA
BRANCH  12  13
HETATM   13  C9  UNL     1       7.139  12.052  45.350  1.00  0.00     0.264 C 
HETATM   14  O4  UNL     1       6.804  12.769  46.322  1.00  0.00    -0.265 OA
BRANCH  13  15
HETATM   15  C10 UNL     1       8.553  12.075  44.834  1.00  0.00     0.111 C 
BRANCH  15  16
HETATM   16  C11 UNL     1       9.189  13.416  45.052  1.00  0.00     0.005 C 
HETATM   17  C12 UNL     1      10.607  13.456  44.570  1.00  0.00     0.005 C 
ENDBRANCH  15  16
ENDBRANCH  13  15
ENDBRANCH  12  13
ENDBRANCH   3  12
BRANCH   2  18
HETATM   18  O1  UNL     1       6.133   9.559  42.532  1.00  0.00    -0.275 OA
BRANCH  18  19
HETATM   19  C6  UNL     1       7.480   9.324  42.731  1.00  0.00     0.260 C 
HETATM   20  C7  UNL     1       8.549   9.856  41.843  1.00  0.00     0.126 C 
HETATM   21  O2  UNL     1       7.822   8.623  43.715  1.00  0.00    -0.265 OA
ENDBRANCH  18  19
ENDBRANCH   2  18
BRANCH   1  22
HETATM   22  C2  UNL     1       4.959  10.338  40.139  1.00  0.00    -0.057 C 
HETATM   23  C1  UNL     1       3.988   9.478  39.862  1.00  0.00     0.019 C 
HETATM   24  C3  UNL     1       6.189  10.393  39.269  1.00  0.00     0.048 C 
ENDBRANCH   1  22
BRANCH  10  25
HETATM   25  O8  UNL     1       3.701  12.159  38.898  1.00  0.00    -0.359 OA
ATOM     26  H8  UNL     1       4.179  11.338  38.898  1.00  0.00     0.217 HD
ENDBRANCH  10  25
BRANCH   9  27
HETATM   27  C17 UNL     1       2.499  14.747  38.782  1.00  0.00     0.117 C 
BRANCH  27  28
HETATM   28  C18 UNL     1       1.088  14.258  38.708  1.00  0.00     0.236 C 
HETATM   29  O7  UNL     1       0.843  13.118  38.365  1.00  0.00    -0.307 OA
ENDBRANCH  27  28
ENDBRANCH   9  27
TORSDOF 10
ENDMDL
