MODEL 1
REMARK VINA RESULT: -7.600269978      0.000      0.000
REMARK  9 active torsions:
REMARK  status: ('A' for Active; 'I' for Inactive)
REMARK    1  A    between atoms: O1_2  and  C2_3 
REMARK    2  A    between atoms: C7_8  and  O2_9 
REMARK    3  A    between atoms: C9_11  and  C10_12 
REMARK    4  A    between atoms: C10_12  and  O3_13 
REMARK    5  A    between atoms: O3_13  and  C11_14 
REMARK       I    between atoms: C11_14  and  N1_16 
REMARK    6  A    between atoms: N1_16  and  O5_18 
REMARK    7  A    between atoms: C13_20  and  O6_21 
REMARK    8  A    between atoms: C17_25  and  O7_26 
REMARK    9  A    between atoms: O7_26  and  C18_27 
ROOT
HETATM    1  C2  UNL     1       3.858  14.417  44.549  1.00  0.00     0.102 A 
HETATM    2  C3  UNL     1       4.503  13.417  45.235  1.00  0.00     0.052 A 
HETATM    3  C4  UNL     1       5.072  12.360  44.517  1.00  0.00    -0.012 A 
HETATM    4  C5  UNL     1       5.722  11.366  45.234  1.00  0.00    -0.017 A 
HETATM    5  C6  UNL     1       5.779  11.466  46.715  1.00  0.00     0.052 C 
HETATM    6  C7  UNL     1       6.302  10.309  44.577  1.00  0.00     0.086 A 
HETATM    7  C9  UNL     1       6.207  10.283  43.180  1.00  0.00     0.034 A 
HETATM    8  C13 UNL     1       5.566  11.262  42.484  1.00  0.00     0.090 A 
HETATM    9  C15 UNL     1       4.988  12.321  43.144  1.00  0.00     0.012 A 
HETATM   10  C16 UNL     1       4.335  13.331  42.441  1.00  0.00     0.055 A 
HETATM   11  C17 UNL     1       3.784  14.361  43.167  1.00  0.00     0.112 A 
ENDROOT
BRANCH   7  12
HETATM   12  C10 UNL     1       6.857   9.145  42.526  1.00  0.00     0.225 C 
BRANCH  12  13
HETATM   13  O3  UNL     1       8.216   9.243  42.298  1.00  0.00    -0.298 OA
BRANCH  13  14
HETATM   14  C11 UNL     1       8.979   8.083  42.251  1.00  0.00     0.386 C 
HETATM   15  O4  UNL     1       9.071   7.482  41.156  1.00  0.00    -0.236 OA
HETATM   16  N1  UNL     1       9.645   7.562  43.382  1.00  0.00    -0.209 N 
HETATM   17  C12 UNL     1      10.421   6.345  43.239  1.00  0.00     0.191 C 
BRANCH  16  18
HETATM   18  O5  UNL     1       9.561   8.188  44.584  1.00  0.00    -0.283 OA
ATOM     19  H5  UNL     1       8.745   8.584  44.868  1.00  0.00     0.245 HD
ENDBRANCH  16  18
ENDBRANCH  13  14
ENDBRANCH  12  13
ENDBRANCH   7  12
BRANCH   6  20
HETATM   20  O2  UNL     1       6.963   9.289  45.231  1.00  0.00    -0.355 OA
HETATM   21  C8  UNL     1       6.341   8.141  45.752  1.00  0.00     0.210 C 
ENDBRANCH   6  20
BRANCH   8  22
HETATM   22  O6  UNL     1       5.443  11.270  41.079  1.00  0.00    -0.354 OA
HETATM   23  C14 UNL     1       4.265  10.620  40.576  1.00  0.00     0.210 C 
ENDBRANCH   8  22
BRANCH  11  24
HETATM   24  O7  UNL     1       3.136  15.361  42.447  1.00  0.00    -0.283 OA
BRANCH  24  25
HETATM   25  C18 UNL     1       3.042  15.334  41.056  1.00  0.00     0.403 C 
HETATM   26  O8  UNL     1       2.501  16.295  40.456  1.00  0.00    -0.276 OA
ENDBRANCH  24  25
ENDBRANCH  11  24
BRANCH   1  27
HETATM   27  O1  UNL     1       3.267  15.499  45.158  1.00  0.00    -0.353 OA
HETATM   28  C1  UNL     1       2.621  15.433  46.413  1.00  0.00     0.210 C 
ENDBRANCH   1  27
TORSDOF 9
ENDMDL
MODEL 2
REMARK VINA RESULT: -7.586519551      0.981      1.206
REMARK  9 active torsions:
REMARK  status: ('A' for Active; 'I' for Inactive)
REMARK    1  A    between atoms: O1_2  and  C2_3 
REMARK    2  A    between atoms: C7_8  and  O2_9 
REMARK    3  A    between atoms: C9_11  and  C10_12 
REMARK    4  A    between atoms: C10_12  and  O3_13 
REMARK    5  A    between atoms: O3_13  and  C11_14 
REMARK       I    between atoms: C11_14  and  N1_16 
REMARK    6  A    between atoms: N1_16  and  O5_18 
REMARK    7  A    between atoms: C13_20  and  O6_21 
REMARK    8  A    between atoms: C17_25  and  O7_26 
REMARK    9  A    between atoms: O7_26  and  C18_27 
ROOT
HETATM    1  C2  UNL     1       3.790  14.453  44.605  1.00  0.00     0.102 A 
HETATM    2  C3  UNL     1       4.476  13.495  45.309  1.00  0.00     0.052 A 
HETATM    3  C4  UNL     1       5.087  12.447  44.613  1.00  0.00    -0.012 A 
HETATM    4  C5  UNL     1       5.778  11.496  45.349  1.00  0.00    -0.017 A 
HETATM    5  C6  UNL     1       5.833  11.630  46.827  1.00  0.00     0.052 C 
HETATM    6  C7  UNL     1       6.400  10.450  44.713  1.00  0.00     0.086 A 
HETATM    7  C9  UNL     1       6.304  10.391  43.318  1.00  0.00     0.034 A 
HETATM    8  C13 UNL     1       5.622  11.327  42.602  1.00  0.00     0.090 A 
HETATM    9  C15 UNL     1       5.002  12.375  43.242  1.00  0.00     0.012 A 
HETATM   10  C16 UNL     1       4.308  13.343  42.518  1.00  0.00     0.055 A 
HETATM   11  C17 UNL     1       3.716  14.364  43.223  1.00  0.00     0.112 A 
ENDROOT
BRANCH   7  12
HETATM   12  C10 UNL     1       6.999   9.267  42.686  1.00  0.00     0.225 C 
BRANCH  12  13
HETATM   13  O3  UNL     1       8.203   9.540  42.067  1.00  0.00    -0.298 OA
BRANCH  13  14
HETATM   14  C11 UNL     1       9.370   8.993  42.588  1.00  0.00     0.386 C 
HETATM   15  O4  UNL     1       9.267   8.134  43.493  1.00  0.00    -0.236 OA
HETATM   16  N1  UNL     1      10.655   9.371  42.138  1.00  0.00    -0.209 N 
HETATM   17  C12 UNL     1      11.818   8.746  42.738  1.00  0.00     0.191 C 
BRANCH  16  18
HETATM   18  O5  UNL     1      10.800  10.303  41.162  1.00  0.00    -0.283 OA
ATOM     19  H5  UNL     1      10.549  11.207  41.313  1.00  0.00     0.245 HD
ENDBRANCH  16  18
ENDBRANCH  13  14
ENDBRANCH  12  13
ENDBRANCH   7  12
BRANCH   6  20
HETATM   20  O2  UNL     1       7.103   9.473  45.387  1.00  0.00    -0.355 OA
HETATM   21  C8  UNL     1       6.534   8.299  45.913  1.00  0.00     0.210 C 
ENDBRANCH   6  20
BRANCH   8  22
HETATM   22  O6  UNL     1       5.497  11.300  41.198  1.00  0.00    -0.354 OA
HETATM   23  C14 UNL     1       4.356  10.575  40.711  1.00  0.00     0.210 C 
ENDBRANCH   8  22
BRANCH  11  24
HETATM   24  O7  UNL     1       3.026  15.322  42.485  1.00  0.00    -0.283 OA
BRANCH  24  25
HETATM   25  C18 UNL     1       3.054  15.347  41.090  1.00  0.00     0.403 C 
HETATM   26  O8  UNL     1       2.472  16.276  40.479  1.00  0.00    -0.276 OA
ENDBRANCH  24  25
ENDBRANCH  11  24
BRANCH   1  27
HETATM   27  O1  UNL     1       3.156  15.522  45.191  1.00  0.00    -0.353 OA
HETATM   28  C1  UNL     1       2.675  15.513  46.521  1.00  0.00     0.210 C 
ENDBRANCH   1  27
TORSDOF 9
ENDMDL
MODEL 3
REMARK VINA RESULT: -7.568744523      1.531      3.836
REMARK  9 active torsions:
REMARK  status: ('A' for Active; 'I' for Inactive)
REMARK    1  A    between atoms: O1_2  and  C2_3 
REMARK    2  A    between atoms: C7_8  and  O2_9 
REMARK    3  A    between atoms: C9_11  and  C10_12 
REMARK    4  A    between atoms: C10_12  and  O3_13 
REMARK    5  A    between atoms: O3_13  and  C11_14 
REMARK       I    between atoms: C11_14  and  N1_16 
REMARK    6  A    between atoms: N1_16  and  O5_18 
REMARK    7  A    between atoms: C13_20  and  O6_21 
REMARK    8  A    between atoms: C17_25  and  O7_26 
REMARK    9  A    between atoms: O7_26  and  C18_27 
ROOT
HETATM    1  C2  UNL     1       3.743  14.260  43.254  1.00  0.00     0.102 A 
HETATM    2  C3  UNL     1       4.413  13.203  42.687  1.00  0.00     0.052 A 
HETATM    3  C4  UNL     1       5.233  12.408  43.494  1.00  0.00    -0.012 A 
HETATM    4  C5  UNL     1       5.894  11.344  42.897  1.00  0.00    -0.017 A 
HETATM    5  C6  UNL     1       5.707  11.105  41.443  1.00  0.00     0.052 C 
HETATM    6  C7  UNL     1       6.708  10.530  43.646  1.00  0.00     0.086 A 
HETATM    7  C9  UNL     1       6.835  10.818  45.010  1.00  0.00     0.034 A 
HETATM    8  C13 UNL     1       6.183  11.865  45.588  1.00  0.00     0.090 A 
HETATM    9  C15 UNL     1       5.368  12.678  44.837  1.00  0.00     0.012 A 
HETATM   10  C16 UNL     1       4.691  13.748  45.420  1.00  0.00     0.055 A 
HETATM   11  C17 UNL     1       3.891  14.516  44.608  1.00  0.00     0.112 A 
ENDROOT
BRANCH   7  12
HETATM   12  C10 UNL     1       7.698   9.909  45.767  1.00  0.00     0.225 C 
BRANCH  12  13
HETATM   13  O3  UNL     1       7.216   8.637  46.007  1.00  0.00    -0.298 OA
BRANCH  13  14
HETATM   14  C11 UNL     1       8.081   7.555  45.897  1.00  0.00     0.386 C 
HETATM   15  O4  UNL     1       8.955   7.407  46.781  1.00  0.00    -0.236 OA
HETATM   16  N1  UNL     1       8.010   6.628  44.834  1.00  0.00    -0.209 N 
HETATM   17  C12 UNL     1       8.954   5.527  44.801  1.00  0.00     0.191 C 
BRANCH  16  18
HETATM   18  O5  UNL     1       7.077   6.765  43.857  1.00  0.00    -0.283 OA
ATOM     19  H5  UNL     1       7.307   6.633  42.945  1.00  0.00     0.245 HD
ENDBRANCH  16  18
ENDBRANCH  13  14
ENDBRANCH  12  13
ENDBRANCH   7  12
BRANCH   6  20
HETATM   20  O2  UNL     1       7.391   9.457  43.112  1.00  0.00    -0.355 OA
HETATM   21  C8  UNL     1       8.636   9.547  42.464  1.00  0.00     0.210 C 
ENDBRANCH   6  20
BRANCH   8  22
HETATM   22  O6  UNL     1       6.289  12.192  46.956  1.00  0.00    -0.354 OA
HETATM   23  C14 UNL     1       5.455  11.411  47.827  1.00  0.00     0.210 C 
ENDBRANCH   8  22
BRANCH  11  24
HETATM   24  O7  UNL     1       3.223  15.580  45.208  1.00  0.00    -0.283 OA
BRANCH  24  25
HETATM   25  C18 UNL     1       2.523  15.438  46.406  1.00  0.00     0.403 C 
HETATM   26  O8  UNL     1       2.681  16.288  47.317  1.00  0.00    -0.276 OA
ENDBRANCH  24  25
ENDBRANCH  11  24
BRANCH   1  27
HETATM   27  O1  UNL     1       2.913  15.101  42.552  1.00  0.00    -0.353 OA
HETATM   28  C1  UNL     1       2.998  15.295  41.154  1.00  0.00     0.210 C 
ENDBRANCH   1  27
TORSDOF 9
ENDMDL
MODEL 4
REMARK VINA RESULT: -7.513704136      1.314      3.535
REMARK  9 active torsions:
REMARK  status: ('A' for Active; 'I' for Inactive)
REMARK    1  A    between atoms: O1_2  and  C2_3 
REMARK    2  A    between atoms: C7_8  and  O2_9 
REMARK    3  A    between atoms: C9_11  and  C10_12 
REMARK    4  A    between atoms: C10_12  and  O3_13 
REMARK    5  A    between atoms: O3_13  and  C11_14 
REMARK       I    between atoms: C11_14  and  N1_16 
REMARK    6  A    between atoms: N1_16  and  O5_18 
REMARK    7  A    between atoms: C13_20  and  O6_21 
REMARK    8  A    between atoms: C17_25  and  O7_26 
REMARK    9  A    between atoms: O7_26  and  C18_27 
ROOT
HETATM    1  C2  UNL     1       3.690  14.418  42.467  1.00  0.00     0.102 A 
HETATM    2  C3  UNL     1       4.198  13.388  41.714  1.00  0.00     0.052 A 
HETATM    3  C4  UNL     1       4.874  12.346  42.357  1.00  0.00    -0.012 A 
HETATM    4  C5  UNL     1       5.374  11.316  41.574  1.00  0.00    -0.017 A 
HETATM    5  C6  UNL     1       5.174  11.370  40.103  1.00  0.00     0.052 C 
HETATM    6  C7  UNL     1       6.041  10.267  42.156  1.00  0.00     0.086 A 
HETATM    7  C9  UNL     1       6.190  10.287  43.548  1.00  0.00     0.034 A 
HETATM    8  C13 UNL     1       5.698  11.303  44.311  1.00  0.00     0.090 A 
HETATM    9  C15 UNL     1       5.029  12.351  43.724  1.00  0.00     0.012 A 
HETATM   10  C16 UNL     1       4.515  13.392  44.496  1.00  0.00     0.055 A 
HETATM   11  C17 UNL     1       3.855  14.405  43.843  1.00  0.00     0.112 A 
ENDROOT
BRANCH   7  12
HETATM   12  C10 UNL     1       6.891   9.137  44.122  1.00  0.00     0.225 C 
BRANCH  12  13
HETATM   13  O3  UNL     1       8.217   9.316  44.467  1.00  0.00    -0.298 OA
BRANCH  13  14
HETATM   14  C11 UNL     1       9.147   8.352  44.098  1.00  0.00     0.386 C 
HETATM   15  O4  UNL     1       9.610   8.393  42.935  1.00  0.00    -0.236 OA
HETATM   16  N1  UNL     1       9.583   7.338  44.980  1.00  0.00    -0.209 N 
HETATM   17  C12 UNL     1      10.559   6.374  44.509  1.00  0.00     0.191 C 
BRANCH  16  18
HETATM   18  O5  UNL     1       9.096   7.264  46.245  1.00  0.00    -0.283 OA
ATOM     19  H5  UNL     1       9.212   6.476  46.763  1.00  0.00     0.245 HD
ENDBRANCH  16  18
ENDBRANCH  13  14
ENDBRANCH  12  13
ENDBRANCH   7  12
BRANCH   6  20
HETATM   20  O2  UNL     1       6.560   9.213  41.433  1.00  0.00    -0.355 OA
HETATM   21  C8  UNL     1       7.625   9.319  40.521  1.00  0.00     0.210 C 
ENDBRANCH   6  20
BRANCH   8  22
HETATM   22  O6  UNL     1       5.832  11.363  45.713  1.00  0.00    -0.354 OA
HETATM   23  C14 UNL     1       6.978  12.096  46.175  1.00  0.00     0.210 C 
ENDBRANCH   8  22
BRANCH  11  24
HETATM   24  O7  UNL     1       3.349  15.437  44.630  1.00  0.00    -0.283 OA
BRANCH  24  25
HETATM   25  C18 UNL     1       2.906  15.227  45.936  1.00  0.00     0.403 C 
HETATM   26  O8  UNL     1       2.905  16.184  46.748  1.00  0.00    -0.276 OA
ENDBRANCH  24  25
ENDBRANCH  11  24
BRANCH   1  27
HETATM   27  O1  UNL     1       3.010  15.488  41.934  1.00  0.00    -0.353 OA
HETATM   28  C1  UNL     1       2.655  15.588  40.570  1.00  0.00     0.210 C 
ENDBRANCH   1  27
TORSDOF 9
ENDMDL
MODEL 5
REMARK VINA RESULT: -7.510343223      1.157      1.157
REMARK  9 active torsions:
REMARK  status: ('A' for Active; 'I' for Inactive)
REMARK    1  A    between atoms: O1_2  and  C2_3 
REMARK    2  A    between atoms: C7_8  and  O2_9 
REMARK    3  A    between atoms: C9_11  and  C10_12 
REMARK    4  A    between atoms: C10_12  and  O3_13 
REMARK    5  A    between atoms: O3_13  and  C11_14 
REMARK       I    between atoms: C11_14  and  N1_16 
REMARK    6  A    between atoms: N1_16  and  O5_18 
REMARK    7  A    between atoms: C13_20  and  O6_21 
REMARK    8  A    between atoms: C17_25  and  O7_26 
REMARK    9  A    between atoms: O7_26  and  C18_27 
ROOT
HETATM    1  C2  UNL     1       3.682  14.477  44.714  1.00  0.00     0.102 A 
HETATM    2  C3  UNL     1       4.434  13.615  45.473  1.00  0.00     0.052 A 
HETATM    3  C4  UNL     1       5.162  12.606  44.833  1.00  0.00    -0.012 A 
HETATM    4  C5  UNL     1       5.918  11.752  45.622  1.00  0.00    -0.017 A 
HETATM    5  C6  UNL     1       5.915  11.942  47.096  1.00  0.00     0.052 C 
HETATM    6  C7  UNL     1       6.654  10.748  45.044  1.00  0.00     0.086 A 
HETATM    7  C9  UNL     1       6.606  10.631  43.649  1.00  0.00     0.034 A 
HETATM    8  C13 UNL     1       5.860  11.472  42.881  1.00  0.00     0.090 A 
HETATM    9  C15 UNL     1       5.125  12.478  43.464  1.00  0.00     0.012 A 
HETATM   10  C16 UNL     1       4.364  13.349  42.686  1.00  0.00     0.055 A 
HETATM   11  C17 UNL     1       3.657  14.333  43.336  1.00  0.00     0.112 A 
ENDROOT
BRANCH   7  12
HETATM   12  C10 UNL     1       7.423   9.557  43.080  1.00  0.00     0.225 C 
BRANCH  12  13
HETATM   13  O3  UNL     1       6.846   8.306  42.991  1.00  0.00    -0.298 OA
BRANCH  13  14
HETATM   14  C11 UNL     1       7.562   7.270  42.404  1.00  0.00     0.386 C 
HETATM   15  O4  UNL     1       8.018   7.449  41.251  1.00  0.00    -0.236 OA
HETATM   16  N1  UNL     1       7.790   6.037  43.054  1.00  0.00    -0.209 N 
HETATM   17  C12 UNL     1       8.551   5.013  42.363  1.00  0.00     0.191 C 
BRANCH  16  18
HETATM   18  O5  UNL     1       7.305   5.812  44.301  1.00  0.00    -0.283 OA
ATOM     19  H5  UNL     1       7.517   5.011  44.767  1.00  0.00     0.245 HD
ENDBRANCH  16  18
ENDBRANCH  13  14
ENDBRANCH  12  13
ENDBRANCH   7  12
BRANCH   6  20
HETATM   20  O2  UNL     1       7.426   9.867  45.773  1.00  0.00    -0.355 OA
HETATM   21  C8  UNL     1       6.933   8.720  46.419  1.00  0.00     0.210 C 
ENDBRANCH   6  20
BRANCH   8  22
HETATM   22  O6  UNL     1       5.780  11.384  41.476  1.00  0.00    -0.354 OA
HETATM   23  C14 UNL     1       4.692  10.584  40.986  1.00  0.00     0.210 C 
ENDBRANCH   8  22
BRANCH  11  24
HETATM   24  O7  UNL     1       2.903  15.194  42.543  1.00  0.00    -0.283 OA
BRANCH  24  25
HETATM   25  C18 UNL     1       3.120  15.323  41.172  1.00  0.00     0.403 C 
HETATM   26  O8  UNL     1       2.632  16.305  40.561  1.00  0.00    -0.276 OA
ENDBRANCH  24  25
ENDBRANCH  11  24
BRANCH   1  27
HETATM   27  O1  UNL     1       2.932  15.501  45.243  1.00  0.00    -0.353 OA
HETATM   28  C1  UNL     1       2.577  15.585  46.609  1.00  0.00     0.210 C 
ENDBRANCH   1  27
TORSDOF 9
ENDMDL
