MODEL 1
REMARK VINA RESULT: -8.818561773      0.000      0.000
REMARK  17 active torsions:
REMARK  status: ('A' for Active; 'I' for Inactive)
REMARK    1  A    between atoms: N1_2  and  C2_3 
REMARK    2  A    between atoms: N1_2  and  S2_45 
REMARK    3  A    between atoms: C2_3  and  C3_4 
REMARK    4  A    between atoms: C3_4  and  C4_5 
REMARK    5  A    between atoms: C3_4  and  C14_24 
REMARK    6  A    between atoms: C4_5  and  C5_6 
REMARK    7  A    between atoms: C9_10  and  C10_11 
REMARK    8  A    between atoms: C12_15  and  S1_16 
REMARK    9  A    between atoms: S1_16  and  N3_17 
REMARK   10  A    between atoms: C14_24  and  C15_25 
REMARK   11  A    between atoms: C14_24  and  N4_32 
REMARK   12  A    between atoms: C15_25  and  C16_26 
REMARK       I    between atoms: N4_32  and  C22_34 
REMARK   13  A    between atoms: C22_34  and  C23_36 
REMARK   14  A    between atoms: C23_36  and  O5_37 
REMARK   15  A    between atoms: O5_37  and  C24_38 
REMARK   16  A    between atoms: C24_38  and  C25_39 
REMARK   17  A    between atoms: S2_45  and  C31_48 
ROOT
HETATM    1  C3  UNL     1      -6.036  -0.890 -29.636  1.00  0.00     0.052 C 
ENDROOT
BRANCH   1   2
HETATM    2  C2  UNL     1      -4.557  -0.585 -29.397  1.00  0.00     0.083 C 
BRANCH   2   3
HETATM    3  N1  UNL     1      -3.743  -1.368 -30.236  1.00  0.00    -0.289 N 
HETATM    4  C1  UNL     1      -3.480  -0.875 -31.526  1.00  0.00     0.168 C 
BRANCH   3   5
HETATM    5  S2  UNL     1      -3.197  -2.870 -29.791  1.00  0.00     0.279 S 
HETATM    6  O6  UNL     1      -3.441  -3.882 -30.907  1.00  0.00    -0.199 OA
HETATM    7  O7  UNL     1      -3.852  -3.345 -28.530  1.00  0.00    -0.199 OA
BRANCH   5   8
HETATM    8  C31 UNL     1      -1.440  -2.899 -29.492  1.00  0.00     0.149 A 
HETATM    9  C32 UNL     1      -0.955  -3.323 -28.280  1.00  0.00     0.044 A 
HETATM   10  C33 UNL     1       0.410  -3.351 -28.031  1.00  0.00     0.004 A 
HETATM   11  C34 UNL     1       1.269  -2.948 -29.012  1.00  0.00     0.017 A 
HETATM   12  C35 UNL     1       0.745  -2.529 -30.213  1.00  0.00     0.089 A 
HETATM   13  N5  UNL     1      -0.578  -2.511 -30.434  1.00  0.00    -0.355 N 
ATOM     14  H5  UNL     1      -0.931  -2.195 -31.337  1.00  0.00     0.166 HD
ENDBRANCH   5   8
ENDBRANCH   3   5
ENDBRANCH   2   3
ENDBRANCH   1   2
BRANCH   1  15
HETATM   15  C4  UNL     1      -6.631   0.284 -30.424  1.00  0.00     0.050 C 
BRANCH  15  16
HETATM   16  C5  UNL     1      -6.444   1.592 -29.732  1.00  0.00    -0.057 A 
HETATM   17  C6  UNL     1      -5.189   2.074 -29.442  1.00  0.00     0.007 A 
HETATM   18  C7  UNL     1      -5.080   3.311 -28.820  1.00  0.00     0.002 A 
HETATM   19  C8  UNL     1      -6.193   4.054 -28.492  1.00  0.00     0.016 A 
HETATM   20  C9  UNL     1      -7.462   3.593 -28.773  1.00  0.00     0.016 A 
HETATM   21  C13 UNL     1      -7.560   2.369 -29.388  1.00  0.00     0.023 A 
BRANCH  20  22
HETATM   22  C10 UNL     1      -8.651   4.377 -28.427  1.00  0.00     0.159 A 
HETATM   23  N2  UNL     1      -9.868   3.927 -28.076  1.00  0.00    -0.343 N 
HETATM   24  C11 UNL     1     -10.656   4.984 -27.845  1.00  0.00     0.142 A 
ATOM     25  H2  UNL     1     -10.143   2.948 -28.000  1.00  0.00     0.167 HD
HETATM   26  C12 UNL     1      -9.887   6.123 -28.065  1.00  0.00     0.207 A 
HETATM   27  O3  UNL     1      -8.711   5.665 -28.406  1.00  0.00    -0.278 OA
BRANCH  26  28
HETATM   28  S1  UNL     1     -10.424   7.790 -27.904  1.00  0.00     0.280 S 
HETATM   29  O1  UNL     1     -11.339   8.132 -29.020  1.00  0.00    -0.199 OA
HETATM   30  O2  UNL     1     -11.149   7.887 -26.571  1.00  0.00    -0.199 OA
BRANCH  28  31
HETATM   31  N3  UNL     1      -9.056   8.840 -27.816  1.00  0.00    -0.323 N 
ATOM     32  H32 UNL     1      -8.436   8.908 -27.010  1.00  0.00     0.169 HD
ATOM     33  H31 UNL     1      -8.971   9.370 -28.683  1.00  0.00     0.169 HD
ENDBRANCH  28  31
ENDBRANCH  26  28
ENDBRANCH  20  22
ENDBRANCH  15  16
ENDBRANCH   1  15
BRANCH   1  34
HETATM   34  C14 UNL     1      -6.777  -1.036 -28.356  1.00  0.00     0.098 C 
BRANCH  34  35
HETATM   35  C15 UNL     1      -5.854  -0.736 -27.171  1.00  0.00     0.064 C 
BRANCH  35  36
HETATM   36  C16 UNL     1      -6.369   0.381 -26.357  1.00  0.00    -0.056 A 
HETATM   37  C17 UNL     1      -7.674   0.775 -26.245  1.00  0.00     0.007 A 
HETATM   38  C18 UNL     1      -8.061   1.829 -25.436  1.00  0.00     0.001 A 
HETATM   39  C19 UNL     1      -7.115   2.515 -24.711  1.00  0.00     0.000 A 
HETATM   40  C20 UNL     1      -5.796   2.143 -24.802  1.00  0.00     0.001 A 
HETATM   41  C21 UNL     1      -5.447   1.100 -25.609  1.00  0.00     0.007 A 
ENDBRANCH  35  36
ENDBRANCH  34  35
BRANCH  34  42
HETATM   42  N4  UNL     1      -7.355  -2.347 -28.118  1.00  0.00    -0.354 N 
HETATM   43  C22 UNL     1      -8.783  -2.474 -28.151  1.00  0.00     0.241 C 
HETATM   44  O4  UNL     1      -9.515  -1.482 -28.370  1.00  0.00    -0.271 OA
ATOM     45  H4  UNL     1      -6.761  -3.155 -27.933  1.00  0.00     0.163 HD
BRANCH  43  46
HETATM   46  C23 UNL     1      -9.358  -3.821 -27.914  1.00  0.00     0.270 C 
BRANCH  46  47
HETATM   47  O5  UNL     1     -10.561  -3.867 -27.283  1.00  0.00    -0.378 OA
BRANCH  47  48
HETATM   48  C24 UNL     1     -10.811  -4.887 -26.421  1.00  0.00     0.206 C 
BRANCH  48  49
HETATM   49  C25 UNL     1     -10.972  -4.335 -25.022  1.00  0.00    -0.035 A 
HETATM   50  C26 UNL     1     -12.247  -4.279 -24.494  1.00  0.00     0.009 A 
HETATM   51  C27 UNL     1     -12.357  -3.763 -23.208  1.00  0.00     0.001 A 
HETATM   52  C28 UNL     1     -11.245  -3.336 -22.512  1.00  0.00     0.000 A 
HETATM   53  C29 UNL     1     -10.001  -3.413 -23.079  1.00  0.00     0.001 A 
HETATM   54  C30 UNL     1      -9.855  -3.914 -24.342  1.00  0.00     0.009 A 
ENDBRANCH  48  49
ENDBRANCH  47  48
ENDBRANCH  46  47
ENDBRANCH  43  46
ENDBRANCH  34  42
ENDBRANCH   1  34
TORSDOF 17
ENDMDL
MODEL 2
REMARK VINA RESULT: -8.696739478      2.159      7.390
REMARK  17 active torsions:
REMARK  status: ('A' for Active; 'I' for Inactive)
REMARK    1  A    between atoms: N1_2  and  C2_3 
REMARK    2  A    between atoms: N1_2  and  S2_45 
REMARK    3  A    between atoms: C2_3  and  C3_4 
REMARK    4  A    between atoms: C3_4  and  C4_5 
REMARK    5  A    between atoms: C3_4  and  C14_24 
REMARK    6  A    between atoms: C4_5  and  C5_6 
REMARK    7  A    between atoms: C9_10  and  C10_11 
REMARK    8  A    between atoms: C12_15  and  S1_16 
REMARK    9  A    between atoms: S1_16  and  N3_17 
REMARK   10  A    between atoms: C14_24  and  C15_25 
REMARK   11  A    between atoms: C14_24  and  N4_32 
REMARK   12  A    between atoms: C15_25  and  C16_26 
REMARK       I    between atoms: N4_32  and  C22_34 
REMARK   13  A    between atoms: C22_34  and  C23_36 
REMARK   14  A    between atoms: C23_36  and  O5_37 
REMARK   15  A    between atoms: O5_37  and  C24_38 
REMARK   16  A    between atoms: C24_38  and  C25_39 
REMARK   17  A    between atoms: S2_45  and  C31_48 
ROOT
HETATM    1  C3  UNL     1      -7.506  -0.533 -28.367  1.00  0.00     0.052 C 
ENDROOT
BRANCH   1   2
HETATM    2  C2  UNL     1      -7.754  -1.837 -27.607  1.00  0.00     0.083 C 
BRANCH   2   3
HETATM    3  N1  UNL     1      -8.274  -1.577 -26.326  1.00  0.00    -0.289 N 
HETATM    4  C1  UNL     1      -7.397  -1.700 -25.234  1.00  0.00     0.168 C 
BRANCH   3   5
HETATM    5  S2  UNL     1      -9.881  -1.252 -26.071  1.00  0.00     0.279 S 
HETATM    6  O6  UNL     1     -10.632  -1.182 -27.397  1.00  0.00    -0.199 OA
HETATM    7  O7  UNL     1     -10.073   0.028 -25.316  1.00  0.00    -0.199 OA
BRANCH   5   8
HETATM    8  C31 UNL     1     -10.695  -2.526 -25.126  1.00  0.00     0.149 A 
HETATM    9  C32 UNL     1     -10.783  -2.420 -23.760  1.00  0.00     0.044 A 
HETATM   10  C33 UNL     1     -11.413  -3.401 -23.009  1.00  0.00     0.004 A 
HETATM   11  C34 UNL     1     -11.946  -4.482 -23.650  1.00  0.00     0.017 A 
HETATM   12  C35 UNL     1     -11.838  -4.553 -25.019  1.00  0.00     0.089 A 
HETATM   13  N5  UNL     1     -11.226  -3.593 -25.726  1.00  0.00    -0.355 N 
ATOM     14  H5  UNL     1     -11.165  -3.678 -26.741  1.00  0.00     0.166 HD
ENDBRANCH   5   8
ENDBRANCH   3   5
ENDBRANCH   2   3
ENDBRANCH   1   2
BRANCH   1  15
HETATM   15  C4  UNL     1      -8.024  -0.725 -29.798  1.00  0.00     0.050 C 
BRANCH  15  16
HETATM   16  C5  UNL     1      -9.032   0.305 -30.185  1.00  0.00    -0.057 A 
HETATM   17  C6  UNL     1     -10.237  -0.050 -30.745  1.00  0.00     0.007 A 
HETATM   18  C7  UNL     1     -11.145   0.954 -31.060  1.00  0.00     0.002 A 
HETATM   19  C8  UNL     1     -10.862   2.282 -30.823  1.00  0.00     0.016 A 
HETATM   20  C9  UNL     1      -9.661   2.663 -30.263  1.00  0.00     0.016 A 
HETATM   21  C13 UNL     1      -8.770   1.663 -29.956  1.00  0.00     0.023 A 
BRANCH  20  22
HETATM   22  C10 UNL     1      -9.351   4.073 -30.010  1.00  0.00     0.159 A 
HETATM   23  N2  UNL     1      -8.317   4.792 -30.477  1.00  0.00    -0.343 N 
HETATM   24  C11 UNL     1      -8.420   6.038 -29.998  1.00  0.00     0.142 A 
ATOM     25  H2  UNL     1      -7.579   4.447 -31.091  1.00  0.00     0.167 HD
HETATM   26  C12 UNL     1      -9.565   6.077 -29.206  1.00  0.00     0.207 A 
HETATM   27  O3  UNL     1     -10.053   4.866 -29.273  1.00  0.00    -0.278 OA
BRANCH  26  28
HETATM   28  S1  UNL     1     -10.179   7.473 -28.331  1.00  0.00     0.280 S 
HETATM   29  O1  UNL     1     -11.310   8.076 -29.077  1.00  0.00    -0.199 OA
HETATM   30  O2  UNL     1     -10.643   6.966 -26.975  1.00  0.00    -0.199 OA
BRANCH  28  31
HETATM   31  N3  UNL     1      -8.897   8.593 -28.042  1.00  0.00    -0.323 N 
ATOM     32  H32 UNL     1      -8.066   8.385 -27.489  1.00  0.00     0.169 HD
ATOM     33  H31 UNL     1      -9.102   9.479 -28.503  1.00  0.00     0.169 HD
ENDBRANCH  28  31
ENDBRANCH  26  28
ENDBRANCH  20  22
ENDBRANCH  15  16
ENDBRANCH   1  15
BRANCH   1  34
HETATM   34  C14 UNL     1      -6.059  -0.199 -28.419  1.00  0.00     0.098 C 
BRANCH  34  35
HETATM   35  C15 UNL     1      -5.854   1.306 -28.219  1.00  0.00     0.064 C 
BRANCH  35  36
HETATM   36  C16 UNL     1      -6.243   1.725 -26.860  1.00  0.00    -0.056 A 
HETATM   37  C17 UNL     1      -7.326   2.490 -26.521  1.00  0.00     0.007 A 
HETATM   38  C18 UNL     1      -7.618   2.815 -25.207  1.00  0.00     0.001 A 
HETATM   39  C19 UNL     1      -6.806   2.362 -24.196  1.00  0.00     0.000 A 
HETATM   40  C20 UNL     1      -5.711   1.591 -24.504  1.00  0.00     0.001 A 
HETATM   41  C21 UNL     1      -5.450   1.289 -25.808  1.00  0.00     0.007 A 
ENDBRANCH  35  36
ENDBRANCH  34  35
BRANCH  34  42
HETATM   42  N4  UNL     1      -5.383  -0.556 -29.654  1.00  0.00    -0.354 N 
HETATM   43  C22 UNL     1      -4.528  -1.707 -29.651  1.00  0.00     0.241 C 
HETATM   44  O4  UNL     1      -4.361  -2.384 -28.612  1.00  0.00    -0.271 OA
ATOM     45  H4  UNL     1      -5.514  -0.002 -30.501  1.00  0.00     0.163 HD
BRANCH  43  46
HETATM   46  C23 UNL     1      -3.852  -2.063 -30.923  1.00  0.00     0.270 C 
BRANCH  46  47
HETATM   47  O5  UNL     1      -2.675  -2.734 -30.818  1.00  0.00    -0.378 OA
BRANCH  47  48
HETATM   48  C24 UNL     1      -1.511  -2.041 -30.932  1.00  0.00     0.206 C 
BRANCH  48  49
HETATM   49  C25 UNL     1      -0.483  -2.626 -29.992  1.00  0.00    -0.035 A 
HETATM   50  C26 UNL     1      -0.900  -2.995 -28.728  1.00  0.00     0.009 A 
HETATM   51  C27 UNL     1       0.072  -3.527 -27.889  1.00  0.00     0.001 A 
HETATM   52  C28 UNL     1       1.377  -3.671 -28.312  1.00  0.00     0.000 A 
HETATM   53  C29 UNL     1       1.743  -3.292 -29.576  1.00  0.00     0.001 A 
HETATM   54  C30 UNL     1       0.813  -2.765 -30.427  1.00  0.00     0.009 A 
ENDBRANCH  48  49
ENDBRANCH  47  48
ENDBRANCH  46  47
ENDBRANCH  43  46
ENDBRANCH  34  42
ENDBRANCH   1  34
TORSDOF 17
ENDMDL
MODEL 3
REMARK VINA RESULT: -8.677883144      2.782      3.585
REMARK  17 active torsions:
REMARK  status: ('A' for Active; 'I' for Inactive)
REMARK    1  A    between atoms: N1_2  and  C2_3 
REMARK    2  A    between atoms: N1_2  and  S2_45 
REMARK    3  A    between atoms: C2_3  and  C3_4 
REMARK    4  A    between atoms: C3_4  and  C4_5 
REMARK    5  A    between atoms: C3_4  and  C14_24 
REMARK    6  A    between atoms: C4_5  and  C5_6 
REMARK    7  A    between atoms: C9_10  and  C10_11 
REMARK    8  A    between atoms: C12_15  and  S1_16 
REMARK    9  A    between atoms: S1_16  and  N3_17 
REMARK   10  A    between atoms: C14_24  and  C15_25 
REMARK   11  A    between atoms: C14_24  and  N4_32 
REMARK   12  A    between atoms: C15_25  and  C16_26 
REMARK       I    between atoms: N4_32  and  C22_34 
REMARK   13  A    between atoms: C22_34  and  C23_36 
REMARK   14  A    between atoms: C23_36  and  O5_37 
REMARK   15  A    between atoms: O5_37  and  C24_38 
REMARK   16  A    between atoms: C24_38  and  C25_39 
REMARK   17  A    between atoms: S2_45  and  C31_48 
ROOT
HETATM    1  C3  UNL     1      -5.484  -0.895 -29.135  1.00  0.00     0.052 C 
ENDROOT
BRANCH   1   2
HETATM    2  C2  UNL     1      -4.223  -1.728 -28.902  1.00  0.00     0.083 C 
BRANCH   2   3
HETATM    3  N1  UNL     1      -3.867  -2.433 -30.066  1.00  0.00    -0.289 N 
HETATM    4  C1  UNL     1      -4.712  -3.481 -30.472  1.00  0.00     0.168 C 
BRANCH   3   5
HETATM    5  S2  UNL     1      -2.453  -2.141 -30.883  1.00  0.00     0.279 S 
HETATM    6  O6  UNL     1      -2.274  -0.645 -31.128  1.00  0.00    -0.199 OA
HETATM    7  O7  UNL     1      -2.407  -2.873 -32.189  1.00  0.00    -0.199 OA
BRANCH   5   8
HETATM    8  C31 UNL     1      -1.013  -2.652 -29.964  1.00  0.00     0.149 A 
HETATM    9  C32 UNL     1       0.224  -2.637 -30.558  1.00  0.00     0.044 A 
HETATM   10  C33 UNL     1       1.354  -3.032 -29.857  1.00  0.00     0.004 A 
HETATM   11  C34 UNL     1       1.219  -3.439 -28.561  1.00  0.00     0.017 A 
HETATM   12  C35 UNL     1      -0.037  -3.440 -28.001  1.00  0.00     0.089 A 
HETATM   13  N5  UNL     1      -1.116  -3.054 -28.695  1.00  0.00    -0.355 N 
ATOM     14  H5  UNL     1      -2.033  -3.066 -28.246  1.00  0.00     0.166 HD
ENDBRANCH   5   8
ENDBRANCH   3   5
ENDBRANCH   2   3
ENDBRANCH   1   2
BRANCH   1  15
HETATM   15  C4  UNL     1      -5.049   0.567 -29.306  1.00  0.00     0.050 C 
BRANCH  15  16
HETATM   16  C5  UNL     1      -6.175   1.526 -29.111  1.00  0.00    -0.057 A 
HETATM   17  C6  UNL     1      -6.032   2.645 -28.324  1.00  0.00     0.007 A 
HETATM   18  C7  UNL     1      -7.109   3.514 -28.203  1.00  0.00     0.002 A 
HETATM   19  C8  UNL     1      -8.303   3.277 -28.849  1.00  0.00     0.016 A 
HETATM   20  C9  UNL     1      -8.471   2.162 -29.643  1.00  0.00     0.016 A 
HETATM   21  C13 UNL     1      -7.400   1.309 -29.757  1.00  0.00     0.023 A 
BRANCH  20  22
HETATM   22  C10 UNL     1      -9.738   1.902 -30.333  1.00  0.00     0.159 A 
HETATM   23  N2  UNL     1     -10.797   2.718 -30.458  1.00  0.00    -0.343 N 
HETATM   24  C11 UNL     1     -11.739   2.081 -31.165  1.00  0.00     0.142 A 
ATOM     25  H2  UNL     1     -10.872   3.662 -30.078  1.00  0.00     0.167 HD
HETATM   26  C12 UNL     1     -11.230   0.825 -31.482  1.00  0.00     0.207 A 
HETATM   27  O3  UNL     1     -10.037   0.808 -30.948  1.00  0.00    -0.278 OA
BRANCH  26  28
HETATM   28  S1  UNL     1     -12.050  -0.429 -32.404  1.00  0.00     0.280 S 
HETATM   29  O1  UNL     1     -11.056  -1.398 -32.927  1.00  0.00    -0.199 OA
HETATM   30  O2  UNL     1     -13.010  -1.115 -31.446  1.00  0.00    -0.199 OA
BRANCH  28  31
HETATM   31  N3  UNL     1     -13.003   0.289 -33.651  1.00  0.00    -0.323 N 
ATOM     32  H32 UNL     1     -12.629   0.886 -34.389  1.00  0.00     0.169 HD
ATOM     33  H31 UNL     1     -13.981   0.026 -33.533  1.00  0.00     0.169 HD
ENDBRANCH  28  31
ENDBRANCH  26  28
ENDBRANCH  20  22
ENDBRANCH  15  16
ENDBRANCH   1  15
BRANCH   1  34
HETATM   34  C14 UNL     1      -6.420  -0.989 -27.985  1.00  0.00     0.098 C 
BRANCH  34  35
HETATM   35  C15 UNL     1      -5.667  -0.775 -26.669  1.00  0.00     0.064 C 
BRANCH  35  36
HETATM   36  C16 UNL     1      -6.285   0.295 -25.863  1.00  0.00    -0.056 A 
HETATM   37  C17 UNL     1      -7.624   0.530 -25.709  1.00  0.00     0.007 A 
HETATM   38  C18 UNL     1      -8.107   1.553 -24.911  1.00  0.00     0.001 A 
HETATM   39  C19 UNL     1      -7.228   2.370 -24.243  1.00  0.00     0.000 A 
HETATM   40  C20 UNL     1      -5.876   2.159 -24.378  1.00  0.00     0.001 A 
HETATM   41  C21 UNL     1      -5.432   1.143 -25.172  1.00  0.00     0.007 A 
ENDBRANCH  35  36
ENDBRANCH  34  35
BRANCH  34  42
HETATM   42  N4  UNL     1      -7.131  -2.249 -27.865  1.00  0.00    -0.354 N 
HETATM   43  C22 UNL     1      -8.542  -2.259 -28.119  1.00  0.00     0.241 C 
HETATM   44  O4  UNL     1      -9.149  -1.209 -28.430  1.00  0.00    -0.271 OA
ATOM     45  H4  UNL     1      -6.639  -3.105 -27.606  1.00  0.00     0.163 HD
BRANCH  43  46
HETATM   46  C23 UNL     1      -9.253  -3.556 -27.999  1.00  0.00     0.270 C 
BRANCH  46  47
HETATM   47  O5  UNL     1     -10.440  -3.540 -27.338  1.00  0.00    -0.378 OA
BRANCH  47  48
HETATM   48  C24 UNL     1     -10.781  -4.613 -26.577  1.00  0.00     0.206 C 
BRANCH  48  49
HETATM   49  C25 UNL     1     -10.928  -4.181 -25.136  1.00  0.00    -0.035 A 
HETATM   50  C26 UNL     1     -12.196  -4.181 -24.588  1.00  0.00     0.009 A 
HETATM   51  C27 UNL     1     -12.294  -3.775 -23.263  1.00  0.00     0.001 A 
HETATM   52  C28 UNL     1     -11.177  -3.396 -22.548  1.00  0.00     0.000 A 
HETATM   53  C29 UNL     1      -9.939  -3.413 -23.135  1.00  0.00     0.001 A 
HETATM   54  C30 UNL     1      -9.806  -3.807 -24.436  1.00  0.00     0.009 A 
ENDBRANCH  48  49
ENDBRANCH  47  48
ENDBRANCH  46  47
ENDBRANCH  43  46
ENDBRANCH  34  42
ENDBRANCH   1  34
TORSDOF 17
ENDMDL
MODEL 4
REMARK VINA RESULT: -8.673255189      3.397      8.558
REMARK  17 active torsions:
REMARK  status: ('A' for Active; 'I' for Inactive)
REMARK    1  A    between atoms: N1_2  and  C2_3 
REMARK    2  A    between atoms: N1_2  and  S2_45 
REMARK    3  A    between atoms: C2_3  and  C3_4 
REMARK    4  A    between atoms: C3_4  and  C4_5 
REMARK    5  A    between atoms: C3_4  and  C14_24 
REMARK    6  A    between atoms: C4_5  and  C5_6 
REMARK    7  A    between atoms: C9_10  and  C10_11 
REMARK    8  A    between atoms: C12_15  and  S1_16 
REMARK    9  A    between atoms: S1_16  and  N3_17 
REMARK   10  A    between atoms: C14_24  and  C15_25 
REMARK   11  A    between atoms: C14_24  and  N4_32 
REMARK   12  A    between atoms: C15_25  and  C16_26 
REMARK       I    between atoms: N4_32  and  C22_34 
REMARK   13  A    between atoms: C22_34  and  C23_36 
REMARK   14  A    between atoms: C23_36  and  O5_37 
REMARK   15  A    between atoms: O5_37  and  C24_38 
REMARK   16  A    between atoms: C24_38  and  C25_39 
REMARK   17  A    between atoms: S2_45  and  C31_48 
ROOT
HETATM    1  C3  UNL     1      -6.012  -1.155 -29.411  1.00  0.00     0.052 C 
ENDROOT
BRANCH   1   2
HETATM    2  C2  UNL     1      -6.651  -0.222 -30.440  1.00  0.00     0.083 C 
BRANCH   2   3
HETATM    3  N1  UNL     1      -7.940   0.165 -30.032  1.00  0.00    -0.289 N 
HETATM    4  C1  UNL     1      -8.923  -0.836 -29.956  1.00  0.00     0.168 C 
BRANCH   3   5
HETATM    5  S2  UNL     1      -8.343   1.752 -29.757  1.00  0.00     0.279 S 
HETATM    6  O6  UNL     1      -9.847   1.958 -29.911  1.00  0.00    -0.199 OA
HETATM    7  O7  UNL     1      -7.612   2.676 -30.682  1.00  0.00    -0.199 OA
BRANCH   5   8
HETATM    8  C31 UNL     1      -7.954   2.279 -28.099  1.00  0.00     0.149 A 
HETATM    9  C32 UNL     1      -6.724   2.821 -27.820  1.00  0.00     0.044 A 
HETATM   10  C33 UNL     1      -6.404   3.237 -26.536  1.00  0.00     0.004 A 
HETATM   11  C34 UNL     1      -7.334   3.097 -25.546  1.00  0.00     0.017 A 
HETATM   12  C35 UNL     1      -8.555   2.548 -25.864  1.00  0.00     0.089 A 
HETATM   13  N5  UNL     1      -8.844   2.154 -27.113  1.00  0.00    -0.355 N 
ATOM     14  H5  UNL     1      -9.760   1.753 -27.312  1.00  0.00     0.166 HD
ENDBRANCH   5   8
ENDBRANCH   3   5
ENDBRANCH   2   3
ENDBRANCH   1   2
BRANCH   1  15
HETATM   15  C4  UNL     1      -5.157  -0.293 -28.472  1.00  0.00     0.050 C 
BRANCH  15  16
HETATM   16  C5  UNL     1      -5.619  -0.357 -27.055  1.00  0.00    -0.057 A 
HETATM   17  C6  UNL     1      -4.802   0.031 -26.020  1.00  0.00     0.007 A 
HETATM   18  C7  UNL     1      -5.298  -0.028 -24.723  1.00  0.00     0.002 A 
HETATM   19  C8  UNL     1      -6.580  -0.462 -24.462  1.00  0.00     0.016 A 
HETATM   20  C9  UNL     1      -7.419  -0.856 -25.483  1.00  0.00     0.016 A 
HETATM   21  C13 UNL     1      -6.918  -0.795 -26.761  1.00  0.00     0.023 A 
BRANCH  20  22
HETATM   22  C10 UNL     1      -8.782  -1.320 -25.213  1.00  0.00     0.159 A 
HETATM   23  N2  UNL     1      -9.928  -0.900 -25.774  1.00  0.00    -0.343 N 
HETATM   24  C11 UNL     1     -10.939  -1.592 -25.237  1.00  0.00     0.142 A 
ATOM     25  H2  UNL     1     -10.013  -0.176 -26.488  1.00  0.00     0.167 HD
HETATM   26  C12 UNL     1     -10.385  -2.470 -24.309  1.00  0.00     0.207 A 
HETATM   27  O3  UNL     1      -9.099  -2.238 -24.364  1.00  0.00    -0.278 OA
BRANCH  26  28
HETATM   28  S1  UNL     1     -11.262  -3.621 -23.309  1.00  0.00     0.280 S 
HETATM   29  O1  UNL     1     -11.093  -3.273 -21.877  1.00  0.00    -0.199 OA
HETATM   30  O2  UNL     1     -12.724  -3.521 -23.713  1.00  0.00    -0.199 OA
BRANCH  28  31
HETATM   31  N3  UNL     1     -10.743  -5.227 -23.672  1.00  0.00    -0.323 N 
ATOM     32  H32 UNL     1     -10.160  -5.795 -23.057  1.00  0.00     0.169 HD
ATOM     33  H31 UNL     1     -11.106  -5.510 -24.582  1.00  0.00     0.169 HD
ENDBRANCH  28  31
ENDBRANCH  26  28
ENDBRANCH  20  22
ENDBRANCH  15  16
ENDBRANCH   1  15
BRANCH   1  34
HETATM   34  C14 UNL     1      -5.142  -2.170 -30.060  1.00  0.00     0.098 C 
BRANCH  34  35
HETATM   35  C15 UNL     1      -4.110  -1.486 -30.962  1.00  0.00     0.064 C 
BRANCH  35  36
HETATM   36  C16 UNL     1      -2.733  -1.812 -30.546  1.00  0.00    -0.056 A 
HETATM   37  C17 UNL     1      -2.352  -2.818 -29.702  1.00  0.00     0.007 A 
HETATM   38  C18 UNL     1      -1.025  -3.056 -29.387  1.00  0.00     0.001 A 
HETATM   39  C19 UNL     1      -0.042  -2.266 -29.933  1.00  0.00     0.000 A 
HETATM   40  C20 UNL     1      -0.393  -1.246 -30.786  1.00  0.00     0.001 A 
HETATM   41  C21 UNL     1      -1.710  -1.038 -31.075  1.00  0.00     0.007 A 
ENDBRANCH  35  36
ENDBRANCH  34  35
BRANCH  34  42
HETATM   42  N4  UNL     1      -5.834  -3.149 -30.878  1.00  0.00    -0.354 N 
HETATM   43  C22 UNL     1      -5.829  -4.517 -30.449  1.00  0.00     0.241 C 
HETATM   44  O4  UNL     1      -5.238  -4.863 -29.401  1.00  0.00    -0.271 OA
ATOM     45  H4  UNL     1      -6.312  -2.871 -31.736  1.00  0.00     0.163 HD
BRANCH  43  46
HETATM   46  C23 UNL     1      -6.548  -5.504 -31.292  1.00  0.00     0.270 C 
BRANCH  46  47
HETATM   47  O5  UNL     1      -6.016  -5.760 -32.516  1.00  0.00    -0.378 OA
BRANCH  47  48
HETATM   48  C24 UNL     1      -4.775  -6.310 -32.590  1.00  0.00     0.206 C 
BRANCH  48  49
HETATM   49  C25 UNL     1      -3.787  -5.260 -33.045  1.00  0.00    -0.035 A 
HETATM   50  C26 UNL     1      -2.492  -5.346 -32.574  1.00  0.00     0.009 A 
HETATM   51  C27 UNL     1      -1.611  -4.363 -33.010  1.00  0.00     0.001 A 
HETATM   52  C28 UNL     1      -2.025  -3.363 -33.866  1.00  0.00     0.000 A 
HETATM   53  C29 UNL     1      -3.322  -3.320 -34.307  1.00  0.00     0.001 A 
HETATM   54  C30 UNL     1      -4.214  -4.271 -33.898  1.00  0.00     0.009 A 
ENDBRANCH  48  49
ENDBRANCH  47  48
ENDBRANCH  46  47
ENDBRANCH  43  46
ENDBRANCH  34  42
ENDBRANCH   1  34
TORSDOF 17
ENDMDL
MODEL 5
REMARK VINA RESULT: -8.642542820      2.202      7.311
REMARK  17 active torsions:
REMARK  status: ('A' for Active; 'I' for Inactive)
REMARK    1  A    between atoms: N1_2  and  C2_3 
REMARK    2  A    between atoms: N1_2  and  S2_45 
REMARK    3  A    between atoms: C2_3  and  C3_4 
REMARK    4  A    between atoms: C3_4  and  C4_5 
REMARK    5  A    between atoms: C3_4  and  C14_24 
REMARK    6  A    between atoms: C4_5  and  C5_6 
REMARK    7  A    between atoms: C9_10  and  C10_11 
REMARK    8  A    between atoms: C12_15  and  S1_16 
REMARK    9  A    between atoms: S1_16  and  N3_17 
REMARK   10  A    between atoms: C14_24  and  C15_25 
REMARK   11  A    between atoms: C14_24  and  N4_32 
REMARK   12  A    between atoms: C15_25  and  C16_26 
REMARK       I    between atoms: N4_32  and  C22_34 
REMARK   13  A    between atoms: C22_34  and  C23_36 
REMARK   14  A    between atoms: C23_36  and  O5_37 
REMARK   15  A    between atoms: O5_37  and  C24_38 
REMARK   16  A    between atoms: C24_38  and  C25_39 
REMARK   17  A    between atoms: S2_45  and  C31_48 
ROOT
HETATM    1  C3  UNL     1      -7.577  -0.100 -28.827  1.00  0.00     0.052 C 
ENDROOT
BRANCH   1   2
HETATM    2  C2  UNL     1      -7.939  -1.547 -28.491  1.00  0.00     0.083 C 
BRANCH   2   3
HETATM    3  N1  UNL     1      -9.028  -1.597 -27.602  1.00  0.00    -0.289 N 
HETATM    4  C1  UNL     1     -10.302  -1.821 -28.151  1.00  0.00     0.168 C 
BRANCH   3   5
HETATM    5  S2  UNL     1      -8.862  -1.290 -25.979  1.00  0.00     0.279 S 
HETATM    6  O6  UNL     1      -9.364   0.111 -25.644  1.00  0.00    -0.199 OA
HETATM    7  O7  UNL     1      -7.439  -1.435 -25.533  1.00  0.00    -0.199 OA
BRANCH   5   8
HETATM    8  C31 UNL     1      -9.827  -2.399 -24.971  1.00  0.00     0.149 A 
HETATM    9  C32 UNL     1     -11.152  -2.135 -24.731  1.00  0.00     0.044 A 
HETATM   10  C33 UNL     1     -11.917  -2.987 -23.949  1.00  0.00     0.004 A 
HETATM   11  C34 UNL     1     -11.331  -4.099 -23.416  1.00  0.00     0.017 A 
HETATM   12  C35 UNL     1     -10.001  -4.330 -23.679  1.00  0.00     0.089 A 
HETATM   13  N5  UNL     1      -9.280  -3.494 -24.439  1.00  0.00    -0.355 N 
ATOM     14  H5  UNL     1      -8.295  -3.698 -24.614  1.00  0.00     0.166 HD
ENDBRANCH   5   8
ENDBRANCH   3   5
ENDBRANCH   2   3
ENDBRANCH   1   2
BRANCH   1  15
HETATM   15  C4  UNL     1      -7.913   0.132 -30.306  1.00  0.00     0.050 C 
BRANCH  15  16
HETATM   16  C5  UNL     1      -9.036   1.096 -30.493  1.00  0.00    -0.057 A 
HETATM   17  C6  UNL     1     -10.133   0.774 -31.258  1.00  0.00     0.007 A 
HETATM   18  C7  UNL     1     -11.159   1.705 -31.373  1.00  0.00     0.002 A 
HETATM   19  C8  UNL     1     -11.096   2.928 -30.742  1.00  0.00     0.016 A 
HETATM   20  C9  UNL     1     -10.007   3.274 -29.970  1.00  0.00     0.016 A 
HETATM   21  C13 UNL     1      -8.999   2.347 -29.863  1.00  0.00     0.023 A 
BRANCH  20  22
HETATM   22  C10 UNL     1      -9.932   4.574 -29.297  1.00  0.00     0.159 A 
HETATM   23  N2  UNL     1      -8.843   5.324 -29.062  1.00  0.00    -0.343 N 
HETATM   24  C11 UNL     1      -9.228   6.435 -28.421  1.00  0.00     0.142 A 
ATOM     25  H2  UNL     1      -7.887   5.088 -29.325  1.00  0.00     0.167 HD
HETATM   26  C12 UNL     1     -10.609   6.355 -28.260  1.00  0.00     0.207 A 
HETATM   27  O3  UNL     1     -10.939   5.217 -28.811  1.00  0.00    -0.278 OA
BRANCH  26  28
HETATM   28  S1  UNL     1     -11.638   7.551 -27.481  1.00  0.00     0.280 S 
HETATM   29  O1  UNL     1     -10.827   8.389 -26.564  1.00  0.00    -0.199 OA
HETATM   30  O2  UNL     1     -12.235   8.399 -28.591  1.00  0.00    -0.199 OA
BRANCH  28  31
HETATM   31  N3  UNL     1     -12.949   6.762 -26.682  1.00  0.00    -0.323 N 
ATOM     32  H32 UNL     1     -13.156   6.857 -25.688  1.00  0.00     0.169 HD
ATOM     33  H31 UNL     1     -13.472   6.197 -27.350  1.00  0.00     0.169 HD
ENDBRANCH  28  31
ENDBRANCH  26  28
ENDBRANCH  20  22
ENDBRANCH  15  16
ENDBRANCH   1  15
BRANCH   1  34
HETATM   34  C14 UNL     1      -6.130   0.163 -28.614  1.00  0.00     0.098 C 
BRANCH  34  35
HETATM   35  C15 UNL     1      -5.898   1.647 -28.314  1.00  0.00     0.064 C 
BRANCH  35  36
HETATM   36  C16 UNL     1      -6.234   1.971 -26.915  1.00  0.00    -0.056 A 
HETATM   37  C17 UNL     1      -7.202   2.836 -26.487  1.00  0.00     0.007 A 
HETATM   38  C18 UNL     1      -7.455   3.058 -25.144  1.00  0.00     0.001 A 
HETATM   39  C19 UNL     1      -6.718   2.395 -24.193  1.00  0.00     0.000 A 
HETATM   40  C20 UNL     1      -5.737   1.518 -24.591  1.00  0.00     0.001 A 
HETATM   41  C21 UNL     1      -5.513   1.322 -25.922  1.00  0.00     0.007 A 
ENDBRANCH  35  36
ENDBRANCH  34  35
BRANCH  34  42
HETATM   42  N4  UNL     1      -5.266  -0.181 -29.730  1.00  0.00    -0.354 N 
HETATM   43  C22 UNL     1      -4.407  -1.321 -29.597  1.00  0.00     0.241 C 
HETATM   44  O4  UNL     1      -4.394  -2.000 -28.546  1.00  0.00    -0.271 OA
ATOM     45  H4  UNL     1      -5.270   0.375 -30.586  1.00  0.00     0.163 HD
BRANCH  43  46
HETATM   46  C23 UNL     1      -3.537  -1.664 -30.749  1.00  0.00     0.270 C 
BRANCH  46  47
HETATM   47  O5  UNL     1      -2.216  -1.370 -30.621  1.00  0.00    -0.378 OA
BRANCH  47  48
HETATM   48  C24 UNL     1      -1.301  -2.203 -31.184  1.00  0.00     0.206 C 
BRANCH  48  49
HETATM   49  C25 UNL     1      -0.383  -2.740 -30.110  1.00  0.00    -0.035 A 
HETATM   50  C26 UNL     1       0.941  -2.950 -30.438  1.00  0.00     0.009 A 
HETATM   51  C27 UNL     1       1.755  -3.447 -29.427  1.00  0.00     0.001 A 
HETATM   52  C28 UNL     1       1.251  -3.712 -28.171  1.00  0.00     0.000 A 
HETATM   53  C29 UNL     1      -0.071  -3.487 -27.892  1.00  0.00     0.001 A 
HETATM   54  C30 UNL     1      -0.900  -2.998 -28.863  1.00  0.00     0.009 A 
ENDBRANCH  48  49
ENDBRANCH  47  48
ENDBRANCH  46  47
ENDBRANCH  43  46
ENDBRANCH  34  42
ENDBRANCH   1  34
TORSDOF 17
ENDMDL
