MODEL 1
REMARK VINA RESULT: -7.672478537      0.000      0.000
REMARK  17 active torsions:
REMARK  status: ('A' for Active; 'I' for Inactive)
REMARK    1  A    between atoms: C4_4  and  N1_5 
REMARK    2  A    between atoms: N1_5  and  C5_7 
REMARK    3  A    between atoms: C10_12  and  S1_13 
REMARK    4  A    between atoms: S1_13  and  C11_16 
REMARK    5  A    between atoms: C11_16  and  C12_17 
REMARK    6  A    between atoms: C12_17  and  N2_18 
REMARK    7  A    between atoms: N2_18  and  C13_21 
REMARK    8  A    between atoms: C13_21  and  C14_22 
REMARK    9  A    between atoms: C14_22  and  C15_23 
REMARK   10  A    between atoms: C15_23  and  C16_24 
REMARK   11  A    between atoms: C16_24  and  C17_25 
REMARK   12  A    between atoms: C17_25  and  S2_26 
REMARK   13  A    between atoms: S2_26  and  C18_28 
REMARK   14  A    between atoms: C24_36  and  N4_37 
REMARK   15  A    between atoms: N4_37  and  C25_39 
REMARK   16  A    between atoms: C29_43  and  N5_44 
REMARK   17  A    between atoms: N5_44  and  S3_46 
ROOT
HETATM    1  C5  UNL     1      -4.276   1.836 -31.087  1.00  0.00     0.055 A 
HETATM    2  C6  UNL     1      -3.187   2.241 -31.827  1.00  0.00     0.031 A 
HETATM    3  C7  UNL     1      -2.476   3.379 -31.521  1.00  0.00     0.002 A 
HETATM    4  C8  UNL     1      -2.873   4.131 -30.440  1.00  0.00     0.002 A 
HETATM    5  C9  UNL     1      -3.962   3.762 -29.667  1.00  0.00     0.026 A 
HETATM    6  C10 UNL     1      -4.648   2.613 -30.007  1.00  0.00     0.086 A 
ENDROOT
BRANCH   1   7
HETATM    7  N1  UNL     1      -5.017   0.674 -31.381  1.00  0.00    -0.341 N 
ATOM      8  H1  UNL     1      -6.008   0.752 -31.609  1.00  0.00     0.167 HD
BRANCH   7   9
HETATM    9  C4  UNL     1      -4.457  -0.494 -31.364  1.00  0.00     0.123 A 
HETATM   10  C3  UNL     1      -4.574  -1.311 -32.496  1.00  0.00     0.074 A 
HETATM   11  C2  UNL     1      -4.006  -2.554 -32.538  1.00  0.00     0.026 A 
HETATM   12  C1  UNL     1      -4.117  -3.453 -33.741  1.00  0.00     0.069 C 
HETATM   13  N6  UNL     1      -3.319  -2.977 -31.448  1.00  0.00    -0.196 N 
HETATM   14  C24 UNL     1      -3.192  -2.214 -30.352  1.00  0.00     0.684 A 
ATOM     15  H6  UNL     1      -2.887  -3.901 -31.462  1.00  0.00     0.184 HD
HETATM   16  N3  UNL     1      -3.762  -0.987 -30.327  1.00  0.00    -0.176 N 
ATOM     17  H3  UNL     1      -3.659  -0.415 -29.488  1.00  0.00     0.186 HD
BRANCH  14  18
HETATM   18  N4  UNL     1      -2.535  -2.641 -29.333  1.00  0.00    -0.192 N 
ATOM     19  H4  UNL     1      -3.059  -2.957 -28.516  1.00  0.00     0.184 HD
BRANCH  18  20
HETATM   20  C25 UNL     1      -1.125  -2.692 -29.289  1.00  0.00     0.051 A 
HETATM   21  C26 UNL     1      -0.501  -3.403 -28.294  1.00  0.00     0.030 A 
HETATM   22  C27 UNL     1       0.870  -3.495 -28.195  1.00  0.00     0.005 A 
HETATM   23  C28 UNL     1       1.615  -2.837 -29.146  1.00  0.00     0.030 A 
HETATM   24  C29 UNL     1       1.050  -2.106 -30.168  1.00  0.00     0.046 A 
HETATM   25  C32 UNL     1      -0.342  -2.048 -30.220  1.00  0.00     0.060 A 
BRANCH  24  26
HETATM   26  N5  UNL     1       1.826  -1.426 -31.150  1.00  0.00    -0.281 N 
HETATM   27  C30 UNL     1       1.777  -1.955 -32.496  1.00  0.00     0.169 C 
BRANCH  26  28
HETATM   28  S3  UNL     1       2.779  -0.057 -30.817  1.00  0.00     0.228 S 
HETATM   29  C31 UNL     1       2.882   1.066 -32.188  1.00  0.00     0.186 C 
HETATM   30  O4  UNL     1       4.161  -0.548 -30.438  1.00  0.00    -0.206 OA
HETATM   31  O5  UNL     1       2.228   0.654 -29.620  1.00  0.00    -0.206 OA
ENDBRANCH  26  28
ENDBRANCH  24  26
ENDBRANCH  18  20
ENDBRANCH  14  18
ENDBRANCH   7   9
ENDBRANCH   1   7
BRANCH   6  32
HETATM   32  S1  UNL     1      -6.050   2.117 -29.101  1.00  0.00     0.179 S 
HETATM   33  O1  UNL     1      -7.221   1.999 -30.043  1.00  0.00    -0.222 OA
HETATM   34  O2  UNL     1      -5.841   0.777 -28.447  1.00  0.00    -0.222 OA
BRANCH  32  35
HETATM   35  C11 UNL     1      -6.367   3.282 -27.815  1.00  0.00     0.173 C 
BRANCH  35  36
HETATM   36  C12 UNL     1      -7.805   3.268 -27.403  1.00  0.00     0.247 C 
BRANCH  36  37
HETATM   37  N2  UNL     1      -8.015   2.496 -26.182  1.00  0.00    -0.074 N 
ATOM     38  H22 UNL     1      -9.004   2.412 -25.945  1.00  0.00     0.277 HD
ATOM     39  H21 UNL     1      -7.810   1.505 -26.315  1.00  0.00     0.277 HD
BRANCH  37  40
HETATM   40  C13 UNL     1      -7.252   3.065 -25.114  1.00  0.00     0.232 C 
BRANCH  40  41
HETATM   41  C14 UNL     1      -6.569   2.090 -24.217  1.00  0.00     0.027 C 
BRANCH  41  42
HETATM   42  C15 UNL     1      -5.304   1.510 -24.756  1.00  0.00     0.002 C 
BRANCH  42  43
HETATM   43  C16 UNL     1      -5.436   0.043 -25.108  1.00  0.00     0.013 C 
BRANCH  43  44
HETATM   44  C17 UNL     1      -6.580  -0.613 -24.402  1.00  0.00     0.114 C 
BRANCH  44  45
HETATM   45  S2  UNL     1      -7.552  -1.443 -25.665  1.00  0.00     0.049 S 
HETATM   46  O3  UNL     1      -8.189  -0.268 -26.697  1.00  0.00    -0.253 OA
BRANCH  45  47
HETATM   47  C18 UNL     1      -8.879  -2.295 -24.867  1.00  0.00     0.031 A 
HETATM   48  C19 UNL     1     -10.152  -1.828 -25.066  1.00  0.00     0.021 A 
HETATM   49  C20 UNL     1     -11.230  -2.455 -24.461  1.00  0.00     0.001 A 
HETATM   50  C21 UNL     1     -11.037  -3.551 -23.656  1.00  0.00     0.000 A 
HETATM   51  C22 UNL     1      -9.739  -4.015 -23.463  1.00  0.00     0.001 A 
HETATM   52  C23 UNL     1      -8.669  -3.392 -24.062  1.00  0.00     0.021 A 
ENDBRANCH  45  47
ENDBRANCH  44  45
ENDBRANCH  43  44
ENDBRANCH  42  43
ENDBRANCH  41  42
ENDBRANCH  40  41
ENDBRANCH  37  40
ENDBRANCH  36  37
ENDBRANCH  35  36
ENDBRANCH  32  35
ENDBRANCH   6  32
TORSDOF 17
ENDMDL
MODEL 2
REMARK VINA RESULT: -7.589156404      3.495      8.935
REMARK  17 active torsions:
REMARK  status: ('A' for Active; 'I' for Inactive)
REMARK    1  A    between atoms: C4_4  and  N1_5 
REMARK    2  A    between atoms: N1_5  and  C5_7 
REMARK    3  A    between atoms: C10_12  and  S1_13 
REMARK    4  A    between atoms: S1_13  and  C11_16 
REMARK    5  A    between atoms: C11_16  and  C12_17 
REMARK    6  A    between atoms: C12_17  and  N2_18 
REMARK    7  A    between atoms: N2_18  and  C13_21 
REMARK    8  A    between atoms: C13_21  and  C14_22 
REMARK    9  A    between atoms: C14_22  and  C15_23 
REMARK   10  A    between atoms: C15_23  and  C16_24 
REMARK   11  A    between atoms: C16_24  and  C17_25 
REMARK   12  A    between atoms: C17_25  and  S2_26 
REMARK   13  A    between atoms: S2_26  and  C18_28 
REMARK   14  A    between atoms: C24_36  and  N4_37 
REMARK   15  A    between atoms: N4_37  and  C25_39 
REMARK   16  A    between atoms: C29_43  and  N5_44 
REMARK   17  A    between atoms: N5_44  and  S3_46 
ROOT
HETATM    1  C5  UNL     1      -7.669   0.273 -25.671  1.00  0.00     0.055 A 
HETATM    2  C6  UNL     1      -6.926  -0.511 -24.817  1.00  0.00     0.031 A 
HETATM    3  C7  UNL     1      -5.675  -0.138 -24.381  1.00  0.00     0.002 A 
HETATM    4  C8  UNL     1      -5.157   1.058 -24.820  1.00  0.00     0.002 A 
HETATM    5  C9  UNL     1      -5.868   1.879 -25.680  1.00  0.00     0.026 A 
HETATM    6  C10 UNL     1      -7.121   1.469 -26.092  1.00  0.00     0.086 A 
ENDROOT
BRANCH   1   7
HETATM    7  N1  UNL     1      -8.953  -0.089 -26.127  1.00  0.00    -0.341 N 
ATOM      8  H1  UNL     1      -9.731   0.560 -26.010  1.00  0.00     0.167 HD
BRANCH   7   9
HETATM    9  C4  UNL     1      -9.158  -1.235 -26.694  1.00  0.00     0.123 A 
HETATM   10  C3  UNL     1     -10.012  -2.152 -26.066  1.00  0.00     0.074 A 
HETATM   11  C2  UNL     1     -10.266  -3.378 -26.614  1.00  0.00     0.026 A 
HETATM   12  C1  UNL     1     -11.178  -4.383 -25.960  1.00  0.00     0.069 C 
HETATM   13  N6  UNL     1      -9.668  -3.685 -27.792  1.00  0.00    -0.196 N 
HETATM   14  C24 UNL     1      -8.848  -2.825 -28.414  1.00  0.00     0.684 A 
ATOM     15  H6  UNL     1      -9.847  -4.595 -28.217  1.00  0.00     0.184 HD
HETATM   16  N3  UNL     1      -8.606  -1.616 -27.857  1.00  0.00    -0.176 N 
ATOM     17  H3  UNL     1      -7.979  -0.971 -28.338  1.00  0.00     0.186 HD
BRANCH  14  18
HETATM   18  N4  UNL     1      -8.295  -3.143 -29.530  1.00  0.00    -0.192 N 
ATOM     19  H4  UNL     1      -7.725  -3.990 -29.566  1.00  0.00     0.184 HD
BRANCH  18  20
HETATM   20  C25 UNL     1      -8.436  -2.378 -30.708  1.00  0.00     0.051 A 
HETATM   21  C26 UNL     1      -7.374  -2.252 -31.569  1.00  0.00     0.030 A 
HETATM   22  C27 UNL     1      -7.446  -1.522 -32.735  1.00  0.00     0.005 A 
HETATM   23  C28 UNL     1      -8.643  -0.907 -33.020  1.00  0.00     0.030 A 
HETATM   24  C29 UNL     1      -9.745  -0.994 -32.197  1.00  0.00     0.046 A 
HETATM   25  C32 UNL     1      -9.616  -1.746 -31.030  1.00  0.00     0.060 A 
BRANCH  24  26
HETATM   26  N5  UNL     1     -10.983  -0.355 -32.495  1.00  0.00    -0.281 N 
HETATM   27  C30 UNL     1     -11.732  -0.882 -33.615  1.00  0.00     0.169 C 
BRANCH  26  28
HETATM   28  S3  UNL     1     -11.599   0.965 -31.615  1.00  0.00     0.228 S 
HETATM   29  C31 UNL     1     -10.347   2.135 -31.153  1.00  0.00     0.186 C 
HETATM   30  O4  UNL     1     -12.278   0.409 -30.380  1.00  0.00    -0.206 OA
HETATM   31  O5  UNL     1     -12.660   1.648 -32.421  1.00  0.00    -0.206 OA
ENDBRANCH  26  28
ENDBRANCH  24  26
ENDBRANCH  18  20
ENDBRANCH  14  18
ENDBRANCH   7   9
ENDBRANCH   1   7
BRANCH   6  32
HETATM   32  S1  UNL     1      -8.048   2.435 -27.205  1.00  0.00     0.179 S 
HETATM   33  O1  UNL     1      -8.481   1.567 -28.359  1.00  0.00    -0.222 OA
HETATM   34  O2  UNL     1      -9.285   2.994 -26.553  1.00  0.00    -0.222 OA
BRANCH  32  35
HETATM   35  C11 UNL     1      -7.080   3.804 -27.750  1.00  0.00     0.173 C 
BRANCH  35  36
HETATM   36  C12 UNL     1      -6.557   3.591 -29.135  1.00  0.00     0.247 C 
BRANCH  36  37
HETATM   37  N2  UNL     1      -5.099   3.633 -29.181  1.00  0.00    -0.074 N 
ATOM     38  H22 UNL     1      -4.749   4.558 -29.433  1.00  0.00     0.277 HD
ATOM     39  H21 UNL     1      -4.684   3.566 -28.251  1.00  0.00     0.277 HD
BRANCH  37  40
HETATM   40  C13 UNL     1      -4.614   2.615 -30.061  1.00  0.00     0.232 C 
BRANCH  40  41
HETATM   41  C14 UNL     1      -5.511   1.439 -30.246  1.00  0.00     0.027 C 
BRANCH  41  42
HETATM   42  C15 UNL     1      -5.021   0.166 -29.641  1.00  0.00     0.002 C 
BRANCH  42  43
HETATM   43  C16 UNL     1      -4.422  -0.775 -30.665  1.00  0.00     0.013 C 
BRANCH  43  44
HETATM   44  C17 UNL     1      -2.955  -0.982 -30.461  1.00  0.00     0.114 C 
BRANCH  44  45
HETATM   45  S2  UNL     1      -2.748  -2.688 -29.934  1.00  0.00     0.049 S 
HETATM   46  O3  UNL     1      -3.697  -2.933 -28.559  1.00  0.00    -0.253 OA
BRANCH  45  47
HETATM   47  C18 UNL     1      -1.048  -2.932 -29.517  1.00  0.00     0.031 A 
HETATM   48  C19 UNL     1      -0.112  -2.735 -30.498  1.00  0.00     0.021 A 
HETATM   49  C20 UNL     1       1.235  -2.916 -30.227  1.00  0.00     0.001 A 
HETATM   50  C21 UNL     1       1.649  -3.293 -28.974  1.00  0.00     0.000 A 
HETATM   51  C22 UNL     1       0.689  -3.489 -27.986  1.00  0.00     0.001 A 
HETATM   52  C23 UNL     1      -0.648  -3.311 -28.255  1.00  0.00     0.021 A 
ENDBRANCH  45  47
ENDBRANCH  44  45
ENDBRANCH  43  44
ENDBRANCH  42  43
ENDBRANCH  41  42
ENDBRANCH  40  41
ENDBRANCH  37  40
ENDBRANCH  36  37
ENDBRANCH  35  36
ENDBRANCH  32  35
ENDBRANCH   6  32
TORSDOF 17
ENDMDL
MODEL 3
REMARK VINA RESULT: -7.558138979      4.600     11.276
REMARK  17 active torsions:
REMARK  status: ('A' for Active; 'I' for Inactive)
REMARK    1  A    between atoms: C4_4  and  N1_5 
REMARK    2  A    between atoms: N1_5  and  C5_7 
REMARK    3  A    between atoms: C10_12  and  S1_13 
REMARK    4  A    between atoms: S1_13  and  C11_16 
REMARK    5  A    between atoms: C11_16  and  C12_17 
REMARK    6  A    between atoms: C12_17  and  N2_18 
REMARK    7  A    between atoms: N2_18  and  C13_21 
REMARK    8  A    between atoms: C13_21  and  C14_22 
REMARK    9  A    between atoms: C14_22  and  C15_23 
REMARK   10  A    between atoms: C15_23  and  C16_24 
REMARK   11  A    between atoms: C16_24  and  C17_25 
REMARK   12  A    between atoms: C17_25  and  S2_26 
REMARK   13  A    between atoms: S2_26  and  C18_28 
REMARK   14  A    between atoms: C24_36  and  N4_37 
REMARK   15  A    between atoms: N4_37  and  C25_39 
REMARK   16  A    between atoms: C29_43  and  N5_44 
REMARK   17  A    between atoms: N5_44  and  S3_46 
ROOT
HETATM    1  C5  UNL     1      -7.438   1.441 -25.540  1.00  0.00     0.055 A 
HETATM    2  C6  UNL     1      -6.283   2.147 -25.284  1.00  0.00     0.031 A 
HETATM    3  C7  UNL     1      -5.164   1.552 -24.747  1.00  0.00     0.002 A 
HETATM    4  C8  UNL     1      -5.210   0.208 -24.459  1.00  0.00     0.002 A 
HETATM    5  C9  UNL     1      -6.350  -0.542 -24.699  1.00  0.00     0.026 A 
HETATM    6  C10 UNL     1      -7.450   0.093 -25.240  1.00  0.00     0.086 A 
ENDROOT
BRANCH   1   7
HETATM    7  N1  UNL     1      -8.594   2.031 -26.091  1.00  0.00    -0.341 N 
ATOM      8  H1  UNL     1      -9.501   1.861 -25.658  1.00  0.00     0.167 HD
BRANCH   7   9
HETATM    9  C4  UNL     1      -8.519   2.785 -27.141  1.00  0.00     0.123 A 
HETATM   10  C3  UNL     1      -8.106   2.213 -28.352  1.00  0.00     0.074 A 
HETATM   11  C2  UNL     1      -8.007   2.958 -29.493  1.00  0.00     0.026 A 
HETATM   12  C1  UNL     1      -7.565   2.369 -30.807  1.00  0.00     0.069 C 
HETATM   13  N6  UNL     1      -8.322   4.275 -29.423  1.00  0.00    -0.196 N 
HETATM   14  C24 UNL     1      -8.720   4.847 -28.277  1.00  0.00     0.684 A 
ATOM     15  H6  UNL     1      -8.254   4.847 -30.265  1.00  0.00     0.184 HD
HETATM   16  N3  UNL     1      -8.812   4.095 -27.156  1.00  0.00    -0.176 N 
ATOM     17  H3  UNL     1      -9.115   4.541 -26.289  1.00  0.00     0.186 HD
BRANCH  14  18
HETATM   18  N4  UNL     1      -9.012   6.098 -28.239  1.00  0.00    -0.192 N 
ATOM     19  H4  UNL     1      -8.289   6.774 -28.489  1.00  0.00     0.184 HD
BRANCH  18  20
HETATM   20  C25 UNL     1     -10.285   6.583 -27.869  1.00  0.00     0.051 A 
HETATM   21  C26 UNL     1     -11.384   5.768 -27.988  1.00  0.00     0.030 A 
HETATM   22  C27 UNL     1     -12.653   6.179 -27.643  1.00  0.00     0.005 A 
HETATM   23  C28 UNL     1     -12.792   7.461 -27.163  1.00  0.00     0.030 A 
HETATM   24  C29 UNL     1     -11.730   8.327 -27.022  1.00  0.00     0.046 A 
HETATM   25  C32 UNL     1     -10.468   7.859 -27.386  1.00  0.00     0.060 A 
BRANCH  24  26
HETATM   26  N5  UNL     1     -11.878   9.654 -26.526  1.00  0.00    -0.281 N 
HETATM   27  C30 UNL     1     -11.927  10.713 -27.511  1.00  0.00     0.169 C 
BRANCH  26  28
HETATM   28  S3  UNL     1     -11.995  10.036 -24.872  1.00  0.00     0.228 S 
HETATM   29  C31 UNL     1     -13.171  11.324 -24.540  1.00  0.00     0.186 C 
HETATM   30  O4  UNL     1     -10.615  10.453 -24.404  1.00  0.00    -0.206 OA
HETATM   31  O5  UNL     1     -12.360   8.805 -24.102  1.00  0.00    -0.206 OA
ENDBRANCH  26  28
ENDBRANCH  24  26
ENDBRANCH  18  20
ENDBRANCH  14  18
ENDBRANCH   7   9
ENDBRANCH   1   7
BRANCH   6  32
HETATM   32  S1  UNL     1      -8.927  -0.783 -25.527  1.00  0.00     0.179 S 
HETATM   33  O1  UNL     1      -8.937  -2.018 -24.661  1.00  0.00    -0.222 OA
HETATM   34  O2  UNL     1     -10.137   0.041 -25.176  1.00  0.00    -0.222 OA
BRANCH  32  35
HETATM   35  C11 UNL     1      -9.051  -1.190 -27.239  1.00  0.00     0.173 C 
BRANCH  35  36
HETATM   36  C12 UNL     1      -8.531  -2.565 -27.516  1.00  0.00     0.247 C 
BRANCH  36  37
HETATM   37  N2  UNL     1      -7.107  -2.556 -27.834  1.00  0.00    -0.074 N 
ATOM     38  H22 UNL     1      -6.526  -2.613 -26.997  1.00  0.00     0.277 HD
ATOM     39  H21 UNL     1      -6.808  -3.422 -28.281  1.00  0.00     0.277 HD
BRANCH  37  40
HETATM   40  C13 UNL     1      -6.796  -1.406 -28.626  1.00  0.00     0.232 C 
BRANCH  40  41
HETATM   41  C14 UNL     1      -5.481  -0.764 -28.346  1.00  0.00     0.027 C 
BRANCH  41  42
HETATM   42  C15 UNL     1      -4.290  -1.508 -28.853  1.00  0.00     0.002 C 
BRANCH  42  43
HETATM   43  C16 UNL     1      -4.428  -1.910 -30.306  1.00  0.00     0.013 C 
BRANCH  43  44
HETATM   44  C17 UNL     1      -3.528  -3.047 -30.671  1.00  0.00     0.114 C 
BRANCH  44  45
HETATM   45  S2  UNL     1      -2.003  -2.317 -31.281  1.00  0.00     0.049 S 
HETATM   46  O3  UNL     1      -1.697  -2.944 -32.819  1.00  0.00    -0.253 OA
BRANCH  45  47
HETATM   47  C18 UNL     1      -0.693  -2.789 -30.192  1.00  0.00     0.031 A 
HETATM   48  C19 UNL     1       0.567  -2.909 -30.718  1.00  0.00     0.021 A 
HETATM   49  C20 UNL     1       1.630  -3.280 -29.911  1.00  0.00     0.001 A 
HETATM   50  C21 UNL     1       1.437  -3.531 -28.576  1.00  0.00     0.000 A 
HETATM   51  C22 UNL     1       0.153  -3.406 -28.053  1.00  0.00     0.001 A 
HETATM   52  C23 UNL     1      -0.903  -3.039 -28.855  1.00  0.00     0.021 A 
ENDBRANCH  45  47
ENDBRANCH  44  45
ENDBRANCH  43  44
ENDBRANCH  42  43
ENDBRANCH  41  42
ENDBRANCH  40  41
ENDBRANCH  37  40
ENDBRANCH  36  37
ENDBRANCH  35  36
ENDBRANCH  32  35
ENDBRANCH   6  32
TORSDOF 17
ENDMDL
MODEL 4
REMARK VINA RESULT: -7.501843898      3.414      8.934
REMARK  17 active torsions:
REMARK  status: ('A' for Active; 'I' for Inactive)
REMARK    1  A    between atoms: C4_4  and  N1_5 
REMARK    2  A    between atoms: N1_5  and  C5_7 
REMARK    3  A    between atoms: C10_12  and  S1_13 
REMARK    4  A    between atoms: S1_13  and  C11_16 
REMARK    5  A    between atoms: C11_16  and  C12_17 
REMARK    6  A    between atoms: C12_17  and  N2_18 
REMARK    7  A    between atoms: N2_18  and  C13_21 
REMARK    8  A    between atoms: C13_21  and  C14_22 
REMARK    9  A    between atoms: C14_22  and  C15_23 
REMARK   10  A    between atoms: C15_23  and  C16_24 
REMARK   11  A    between atoms: C16_24  and  C17_25 
REMARK   12  A    between atoms: C17_25  and  S2_26 
REMARK   13  A    between atoms: S2_26  and  C18_28 
REMARK   14  A    between atoms: C24_36  and  N4_37 
REMARK   15  A    between atoms: N4_37  and  C25_39 
REMARK   16  A    between atoms: C29_43  and  N5_44 
REMARK   17  A    between atoms: N5_44  and  S3_46 
ROOT
HETATM    1  C5  UNL     1      -7.755   0.467 -25.289  1.00  0.00     0.055 A 
HETATM    2  C6  UNL     1      -7.027  -0.271 -24.383  1.00  0.00     0.031 A 
HETATM    3  C7  UNL     1      -5.712   0.015 -24.092  1.00  0.00     0.002 A 
HETATM    4  C8  UNL     1      -5.113   1.074 -24.734  1.00  0.00     0.002 A 
HETATM    5  C9  UNL     1      -5.807   1.844 -25.654  1.00  0.00     0.026 A 
HETATM    6  C10 UNL     1      -7.124   1.525 -25.916  1.00  0.00     0.086 A 
ENDROOT
BRANCH   1   7
HETATM    7  N1  UNL     1      -9.102   0.193 -25.600  1.00  0.00    -0.341 N 
ATOM      8  H1  UNL     1      -9.764   0.963 -25.694  1.00  0.00     0.167 HD
BRANCH   7   9
HETATM    9  C4  UNL     1      -9.512  -1.024 -25.767  1.00  0.00     0.123 A 
HETATM   10  C3  UNL     1     -10.420  -1.561 -24.845  1.00  0.00     0.074 A 
HETATM   11  C2  UNL     1     -10.886  -2.840 -24.968  1.00  0.00     0.026 A 
HETATM   12  C1  UNL     1     -11.861  -3.442 -23.990  1.00  0.00     0.069 C 
HETATM   13  N6  UNL     1     -10.446  -3.580 -26.015  1.00  0.00    -0.196 N 
HETATM   14  C24 UNL     1      -9.578  -3.090 -26.912  1.00  0.00     0.684 A 
ATOM     15  H6  UNL     1     -10.784  -4.537 -26.123  1.00  0.00     0.184 HD
HETATM   16  N3  UNL     1      -9.124  -1.823 -26.775  1.00  0.00    -0.176 N 
ATOM     17  H3  UNL     1      -8.464  -1.461 -27.463  1.00  0.00     0.186 HD
BRANCH  14  18
HETATM   18  N4  UNL     1      -9.177  -3.815 -27.895  1.00  0.00    -0.192 N 
ATOM     19  H4  UNL     1      -9.187  -4.830 -27.786  1.00  0.00     0.184 HD
BRANCH  18  20
HETATM   20  C25 UNL     1      -8.723  -3.275 -29.118  1.00  0.00     0.051 A 
HETATM   21  C26 UNL     1      -7.731  -3.917 -29.819  1.00  0.00     0.030 A 
HETATM   22  C27 UNL     1      -7.245  -3.444 -31.018  1.00  0.00     0.005 A 
HETATM   23  C28 UNL     1      -7.795  -2.282 -31.506  1.00  0.00     0.030 A 
HETATM   24  C29 UNL     1      -8.790  -1.590 -30.851  1.00  0.00     0.046 A 
HETATM   25  C32 UNL     1      -9.245  -2.114 -29.641  1.00  0.00     0.060 A 
BRANCH  24  26
HETATM   26  N5  UNL     1      -9.357  -0.386 -31.360  1.00  0.00    -0.281 N 
HETATM   27  C30 UNL     1      -8.429   0.661 -31.732  1.00  0.00     0.169 C 
BRANCH  26  28
HETATM   28  S3  UNL     1     -11.029  -0.134 -31.543  1.00  0.00     0.228 S 
HETATM   29  C31 UNL     1     -11.412   1.363 -32.418  1.00  0.00     0.186 C 
HETATM   30  O4  UNL     1     -11.637  -0.099 -30.155  1.00  0.00    -0.206 OA
HETATM   31  O5  UNL     1     -11.634  -1.305 -32.252  1.00  0.00    -0.206 OA
ENDBRANCH  26  28
ENDBRANCH  24  26
ENDBRANCH  18  20
ENDBRANCH  14  18
ENDBRANCH   7   9
ENDBRANCH   1   7
BRANCH   6  32
HETATM   32  S1  UNL     1      -8.038   2.427 -27.091  1.00  0.00     0.179 S 
HETATM   33  O1  UNL     1      -8.478   1.491 -28.188  1.00  0.00    -0.222 OA
HETATM   34  O2  UNL     1      -9.271   3.041 -26.481  1.00  0.00    -0.222 OA
BRANCH  32  35
HETATM   35  C11 UNL     1      -7.054   3.748 -27.720  1.00  0.00     0.173 C 
BRANCH  35  36
HETATM   36  C12 UNL     1      -5.846   3.238 -28.442  1.00  0.00     0.247 C 
BRANCH  36  37
HETATM   37  N2  UNL     1      -6.171   2.769 -29.785  1.00  0.00    -0.074 N 
ATOM     38  H22 UNL     1      -7.150   2.497 -29.871  1.00  0.00     0.277 HD
ATOM     39  H21 UNL     1      -6.166   3.527 -30.467  1.00  0.00     0.277 HD
BRANCH  37  40
HETATM   40  C13 UNL     1      -5.284   1.708 -30.153  1.00  0.00     0.232 C 
BRANCH  40  41
HETATM   41  C14 UNL     1      -5.466   0.428 -29.411  1.00  0.00     0.027 C 
BRANCH  41  42
HETATM   42  C15 UNL     1      -4.782  -0.756 -30.010  1.00  0.00     0.002 C 
BRANCH  42  43
HETATM   43  C16 UNL     1      -4.555  -1.869 -29.010  1.00  0.00     0.013 C 
BRANCH  43  44
HETATM   44  C17 UNL     1      -3.725  -2.979 -29.569  1.00  0.00     0.114 C 
BRANCH  44  45
HETATM   45  S2  UNL     1      -2.399  -2.205 -30.505  1.00  0.00     0.049 S 
HETATM   46  O3  UNL     1      -2.501  -2.740 -32.103  1.00  0.00    -0.253 OA
BRANCH  45  47
HETATM   47  C18 UNL     1      -0.860  -2.730 -29.815  1.00  0.00     0.031 A 
HETATM   48  C19 UNL     1       0.230  -2.789 -30.645  1.00  0.00     0.021 A 
HETATM   49  C20 UNL     1       1.461  -3.197 -30.158  1.00  0.00     0.001 A 
HETATM   50  C21 UNL     1       1.606  -3.548 -28.839  1.00  0.00     0.000 A 
HETATM   51  C22 UNL     1       0.493  -3.485 -28.006  1.00  0.00     0.001 A 
HETATM   52  C23 UNL     1      -0.729  -3.080 -28.489  1.00  0.00     0.021 A 
ENDBRANCH  45  47
ENDBRANCH  44  45
ENDBRANCH  43  44
ENDBRANCH  42  43
ENDBRANCH  41  42
ENDBRANCH  40  41
ENDBRANCH  37  40
ENDBRANCH  36  37
ENDBRANCH  35  36
ENDBRANCH  32  35
ENDBRANCH   6  32
TORSDOF 17
ENDMDL
MODEL 5
REMARK VINA RESULT: -7.493131848      5.181     10.895
REMARK  17 active torsions:
REMARK  status: ('A' for Active; 'I' for Inactive)
REMARK    1  A    between atoms: C4_4  and  N1_5 
REMARK    2  A    between atoms: N1_5  and  C5_7 
REMARK    3  A    between atoms: C10_12  and  S1_13 
REMARK    4  A    between atoms: S1_13  and  C11_16 
REMARK    5  A    between atoms: C11_16  and  C12_17 
REMARK    6  A    between atoms: C12_17  and  N2_18 
REMARK    7  A    between atoms: N2_18  and  C13_21 
REMARK    8  A    between atoms: C13_21  and  C14_22 
REMARK    9  A    between atoms: C14_22  and  C15_23 
REMARK   10  A    between atoms: C15_23  and  C16_24 
REMARK   11  A    between atoms: C16_24  and  C17_25 
REMARK   12  A    between atoms: C17_25  and  S2_26 
REMARK   13  A    between atoms: S2_26  and  C18_28 
REMARK   14  A    between atoms: C24_36  and  N4_37 
REMARK   15  A    between atoms: N4_37  and  C25_39 
REMARK   16  A    between atoms: C29_43  and  N5_44 
REMARK   17  A    between atoms: N5_44  and  S3_46 
ROOT
HETATM    1  C5  UNL     1      -7.478   1.587 -25.399  1.00  0.00     0.055 A 
HETATM    2  C6  UNL     1      -6.258   2.192 -25.192  1.00  0.00     0.031 A 
HETATM    3  C7  UNL     1      -5.162   1.495 -24.738  1.00  0.00     0.002 A 
HETATM    4  C8  UNL     1      -5.299   0.150 -24.484  1.00  0.00     0.002 A 
HETATM    5  C9  UNL     1      -6.506  -0.500 -24.678  1.00  0.00     0.026 A 
HETATM    6  C10 UNL     1      -7.581   0.235 -25.136  1.00  0.00     0.086 A 
ENDROOT
BRANCH   1   7
HETATM    7  N1  UNL     1      -8.612   2.282 -25.867  1.00  0.00    -0.341 N 
ATOM      8  H1  UNL     1      -9.473   2.266 -25.320  1.00  0.00     0.167 HD
BRANCH   7   9
HETATM    9  C4  UNL     1      -8.577   2.940 -26.981  1.00  0.00     0.123 A 
HETATM   10  C3  UNL     1      -8.135   2.282 -28.137  1.00  0.00     0.074 A 
HETATM   11  C2  UNL     1      -8.074   2.924 -29.342  1.00  0.00     0.026 A 
HETATM   12  C1  UNL     1      -7.602   2.240 -30.599  1.00  0.00     0.069 C 
HETATM   13  N6  UNL     1      -8.456   4.224 -29.391  1.00  0.00    -0.196 N 
HETATM   14  C24 UNL     1      -8.883   4.877 -28.300  1.00  0.00     0.684 A 
ATOM     15  H6  UNL     1      -8.418   4.719 -30.282  1.00  0.00     0.184 HD
HETATM   16  N3  UNL     1      -8.937   4.227 -27.114  1.00  0.00    -0.176 N 
ATOM     17  H3  UNL     1      -9.262   4.733 -26.291  1.00  0.00     0.186 HD
BRANCH  14  18
HETATM   18  N4  UNL     1      -9.239   6.110 -28.375  1.00  0.00    -0.192 N 
ATOM     19  H4  UNL     1      -8.570   6.787 -28.742  1.00  0.00     0.184 HD
BRANCH  18  20
HETATM   20  C25 UNL     1     -10.512   6.572 -27.975  1.00  0.00     0.051 A 
HETATM   21  C26 UNL     1     -11.636   5.875 -28.347  1.00  0.00     0.030 A 
HETATM   22  C27 UNL     1     -12.906   6.270 -27.989  1.00  0.00     0.005 A 
HETATM   23  C28 UNL     1     -13.020   7.412 -27.229  1.00  0.00     0.030 A 
HETATM   24  C29 UNL     1     -11.932   8.155 -26.825  1.00  0.00     0.046 A 
HETATM   25  C32 UNL     1     -10.670   7.708 -27.216  1.00  0.00     0.060 A 
BRANCH  24  26
HETATM   26  N5  UNL     1     -12.054   9.336 -26.039  1.00  0.00    -0.281 N 
HETATM   27  C30 UNL     1     -12.543   9.169 -24.687  1.00  0.00     0.169 C 
BRANCH  26  28
HETATM   28  S3  UNL     1     -11.662  10.892 -26.606  1.00  0.00     0.228 S 
HETATM   29  C31 UNL     1      -9.956  11.312 -26.352  1.00  0.00     0.186 C 
HETATM   30  O4  UNL     1     -12.558  11.877 -25.884  1.00  0.00    -0.206 OA
HETATM   31  O5  UNL     1     -11.997  10.989 -28.063  1.00  0.00    -0.206 OA
ENDBRANCH  26  28
ENDBRANCH  24  26
ENDBRANCH  18  20
ENDBRANCH  14  18
ENDBRANCH   7   9
ENDBRANCH   1   7
BRANCH   6  32
HETATM   32  S1  UNL     1      -9.137  -0.514 -25.360  1.00  0.00     0.179 S 
HETATM   33  O1  UNL     1     -10.173   0.280 -24.607  1.00  0.00    -0.222 OA
HETATM   34  O2  UNL     1      -9.535  -0.538 -26.812  1.00  0.00    -0.222 OA
BRANCH  32  35
HETATM   35  C11 UNL     1      -9.073  -2.188 -24.808  1.00  0.00     0.173 C 
BRANCH  35  36
HETATM   36  C12 UNL     1     -10.438  -2.798 -24.745  1.00  0.00     0.247 C 
BRANCH  36  37
HETATM   37  N2  UNL     1     -10.487  -4.096 -25.409  1.00  0.00    -0.074 N 
ATOM     38  H22 UNL     1      -9.649  -4.650 -25.232  1.00  0.00     0.277 HD
ATOM     39  H21 UNL     1     -11.170  -4.721 -24.980  1.00  0.00     0.277 HD
BRANCH  37  40
HETATM   40  C13 UNL     1     -10.728  -3.914 -26.807  1.00  0.00     0.232 C 
BRANCH  40  41
HETATM   41  C14 UNL     1      -9.579  -4.223 -27.706  1.00  0.00     0.027 C 
BRANCH  41  42
HETATM   42  C15 UNL     1      -9.547  -5.617 -28.238  1.00  0.00     0.002 C 
BRANCH  42  43
HETATM   43  C16 UNL     1      -8.545  -5.792 -29.359  1.00  0.00     0.013 C 
BRANCH  43  44
HETATM   44  C17 UNL     1      -8.446  -4.581 -30.230  1.00  0.00     0.114 C 
BRANCH  44  45
HETATM   45  S2  UNL     1      -6.701  -4.362 -30.605  1.00  0.00     0.049 S 
HETATM   46  O3  UNL     1      -5.877  -5.748 -30.104  1.00  0.00    -0.253 OA
BRANCH  45  47
HETATM   47  C18 UNL     1      -6.112  -2.973 -29.684  1.00  0.00     0.031 A 
HETATM   48  C19 UNL     1      -4.756  -2.814 -29.561  1.00  0.00     0.021 A 
HETATM   49  C20 UNL     1      -4.238  -1.745 -28.847  1.00  0.00     0.001 A 
HETATM   50  C21 UNL     1      -5.075  -0.832 -28.255  1.00  0.00     0.000 A 
HETATM   51  C22 UNL     1      -6.450  -1.005 -28.387  1.00  0.00     0.001 A 
HETATM   52  C23 UNL     1      -6.964  -2.066 -29.095  1.00  0.00     0.021 A 
ENDBRANCH  45  47
ENDBRANCH  44  45
ENDBRANCH  43  44
ENDBRANCH  42  43
ENDBRANCH  41  42
ENDBRANCH  40  41
ENDBRANCH  37  40
ENDBRANCH  36  37
ENDBRANCH  35  36
ENDBRANCH  32  35
ENDBRANCH   6  32
TORSDOF 17
ENDMDL
