MODEL 1
REMARK VINA RESULT: -5.748834586      0.000      0.000
REMARK  15 active torsions:
REMARK  status: ('A' for Active; 'I' for Inactive)
REMARK    1  A    between atoms: C2_2  and  O2_4 
REMARK    2  A    between atoms: O2_4  and  C3_5 
REMARK    3  A    between atoms: C3_5  and  C16_22 
REMARK    4  A    between atoms: C4_6  and  C5_7 
REMARK    5  A    between atoms: C5_7  and  C6_8 
REMARK    6  A    between atoms: C6_8  and  C7_9 
REMARK    7  A    between atoms: C11_13  and  C12_14 
REMARK    8  A    between atoms: C12_14  and  O3_15 
REMARK    9  A    between atoms: C13_17  and  C14_18 
REMARK   10  A    between atoms: C14_18  and  O4_19 
REMARK   11  A    between atoms: C16_22  and  C17_23 
REMARK   12  A    between atoms: C17_23  and  C18_24 
REMARK   13  A    between atoms: C19_25  and  C21_27 
REMARK   14  A    between atoms: C21_27  and  C22_28 
REMARK   15  A    between atoms: C22_28  and  C23_29 
ROOT
HETATM    1  C3  UNL     1      69.372  -1.280  44.474  1.00  0.00     0.053 C 
HETATM    2  C4  UNL     1      69.431  -2.572  44.319  1.00  0.00     0.006 C 
ENDROOT
BRANCH   1   3
HETATM    3  O2  UNL     1      70.397  -0.496  44.089  1.00  0.00    -0.284 OA
BRANCH   3   4
HETATM    4  C2  UNL     1      70.522   0.439  43.123  1.00  0.00     0.259 C 
HETATM    5  C1  UNL     1      69.668   0.352  41.883  1.00  0.00     0.126 C 
HETATM    6  O1  UNL     1      71.345   1.348  43.289  1.00  0.00    -0.265 OA
ENDBRANCH   3   4
ENDBRANCH   1   3
BRANCH   1   7
HETATM    7  C16 UNL     1      68.098  -0.764  45.100  1.00  0.00     0.068 C 
BRANCH   7   8
HETATM    8  C17 UNL     1      66.875  -1.486  44.624  1.00  0.00     0.034 C 
BRANCH   8   9
HETATM    9  C18 UNL     1      66.000  -1.724  45.807  1.00  0.00    -0.024 C 
HETATM   10  C19 UNL     1      65.916  -2.825  46.498  1.00  0.00    -0.087 C 
HETATM   11  C20 UNL     1      66.724  -4.024  46.165  1.00  0.00     0.043 C 
BRANCH  10  12
HETATM   12  C21 UNL     1      64.994  -2.901  47.659  1.00  0.00     0.037 C 
BRANCH  12  13
HETATM   13  C22 UNL     1      63.579  -2.917  47.136  1.00  0.00     0.031 C 
BRANCH  13  14
HETATM   14  C23 UNL     1      63.229  -4.305  46.707  1.00  0.00    -0.024 C 
HETATM   15  C24 UNL     1      62.880  -4.606  45.471  1.00  0.00    -0.091 C 
HETATM   16  C25 UNL     1      62.548  -6.002  45.120  1.00  0.00     0.042 C 
HETATM   17  C26 UNL     1      62.821  -3.553  44.446  1.00  0.00     0.042 C 
ENDBRANCH  13  14
ENDBRANCH  12  13
ENDBRANCH  10  12
ENDBRANCH   8   9
ENDBRANCH   7   8
ENDBRANCH   1   7
BRANCH   2  18
HETATM   18  C5  UNL     1      70.547  -3.316  43.742  1.00  0.00     0.030 C 
BRANCH  18  19
HETATM   19  C6  UNL     1      70.548  -3.484  42.285  1.00  0.00     0.013 C 
BRANCH  19  20
HETATM   20  C7  UNL     1      71.967  -3.570  41.702  1.00  0.00    -0.043 C 
HETATM   21  C8  UNL     1      72.389  -2.169  41.315  1.00  0.00     0.015 C 
HETATM   22  C9  UNL     1      72.060  -4.433  40.494  1.00  0.00     0.010 C 
HETATM   23  C10 UNL     1      71.682  -5.842  40.849  1.00  0.00     0.008 C 
HETATM   24  C11 UNL     1      72.467  -6.417  41.971  1.00  0.00     0.015 C 
HETATM   25  C13 UNL     1      73.083  -5.492  42.938  1.00  0.00     0.016 C 
HETATM   26  C15 UNL     1      72.885  -4.039  42.786  1.00  0.00     0.016 C 
BRANCH  24  27
HETATM   27  C12 UNL     1      71.677  -7.524  42.697  1.00  0.00     0.169 C 
BRANCH  27  28
HETATM   28  O3  UNL     1      71.584  -7.112  44.026  1.00  0.00    -0.400 OA
ATOM     29  H3  UNL     1      70.657  -7.114  44.232  1.00  0.00     0.209 HD
ENDBRANCH  27  28
ENDBRANCH  24  27
BRANCH  25  30
HETATM   30  C14 UNL     1      74.576  -5.842  43.118  1.00  0.00     0.169 C 
BRANCH  30  31
HETATM   31  O4  UNL     1      74.706  -6.868  44.069  1.00  0.00    -0.400 OA
ATOM     32  H4  UNL     1      75.430  -6.671  44.651  1.00  0.00     0.209 HD
ENDBRANCH  30  31
ENDBRANCH  25  30
ENDBRANCH  19  20
ENDBRANCH  18  19
ENDBRANCH   2  18
TORSDOF 15
ENDMDL
MODEL 2
REMARK VINA RESULT: -5.520192393      3.803      5.078
REMARK  15 active torsions:
REMARK  status: ('A' for Active; 'I' for Inactive)
REMARK    1  A    between atoms: C2_2  and  O2_4 
REMARK    2  A    between atoms: O2_4  and  C3_5 
REMARK    3  A    between atoms: C3_5  and  C16_22 
REMARK    4  A    between atoms: C4_6  and  C5_7 
REMARK    5  A    between atoms: C5_7  and  C6_8 
REMARK    6  A    between atoms: C6_8  and  C7_9 
REMARK    7  A    between atoms: C11_13  and  C12_14 
REMARK    8  A    between atoms: C12_14  and  O3_15 
REMARK    9  A    between atoms: C13_17  and  C14_18 
REMARK   10  A    between atoms: C14_18  and  O4_19 
REMARK   11  A    between atoms: C16_22  and  C17_23 
REMARK   12  A    between atoms: C17_23  and  C18_24 
REMARK   13  A    between atoms: C19_25  and  C21_27 
REMARK   14  A    between atoms: C21_27  and  C22_28 
REMARK   15  A    between atoms: C22_28  and  C23_29 
ROOT
HETATM    1  C3  UNL     1      68.384  -1.160  44.687  1.00  0.00     0.053 C 
HETATM    2  C4  UNL     1      69.037  -1.189  43.559  1.00  0.00     0.006 C 
ENDROOT
BRANCH   1   3
HETATM    3  O2  UNL     1      68.818  -0.400  45.711  1.00  0.00    -0.284 OA
BRANCH   3   4
HETATM    4  C2  UNL     1      68.376   0.760  46.242  1.00  0.00     0.259 C 
HETATM    5  C1  UNL     1      67.326   1.562  45.516  1.00  0.00     0.126 C 
HETATM    6  O1  UNL     1      68.855   1.131  47.321  1.00  0.00    -0.265 OA
ENDBRANCH   3   4
ENDBRANCH   1   3
BRANCH   1   7
HETATM    7  C16 UNL     1      67.146  -2.023  44.735  1.00  0.00     0.068 C 
BRANCH   7   8
HETATM    8  C17 UNL     1      67.229  -3.113  45.760  1.00  0.00     0.034 C 
BRANCH   8   9
HETATM    9  C18 UNL     1      65.879  -3.735  45.869  1.00  0.00    -0.024 C 
HETATM   10  C19 UNL     1      64.990  -3.498  46.790  1.00  0.00    -0.087 C 
HETATM   11  C20 UNL     1      65.237  -2.531  47.888  1.00  0.00     0.043 C 
BRANCH  10  12
HETATM   12  C21 UNL     1      63.683  -4.201  46.756  1.00  0.00     0.037 C 
BRANCH  12  13
HETATM   13  C22 UNL     1      63.273  -4.362  45.314  1.00  0.00     0.031 C 
BRANCH  13  14
HETATM   14  C23 UNL     1      62.742  -5.743  45.104  1.00  0.00    -0.024 C 
HETATM   15  C24 UNL     1      61.954  -6.063  44.097  1.00  0.00    -0.091 C 
HETATM   16  C25 UNL     1      61.468  -7.451  43.954  1.00  0.00     0.042 C 
HETATM   17  C26 UNL     1      61.559  -5.039  43.117  1.00  0.00     0.042 C 
ENDBRANCH  13  14
ENDBRANCH  12  13
ENDBRANCH  10  12
ENDBRANCH   8   9
ENDBRANCH   7   8
ENDBRANCH   1   7
BRANCH   2  18
HETATM   18  C5  UNL     1      70.259  -0.448  43.258  1.00  0.00     0.030 C 
BRANCH  18  19
HETATM   19  C6  UNL     1      70.329   0.211  41.950  1.00  0.00     0.013 C 
BRANCH  19  20
HETATM   20  C7  UNL     1      70.614   1.717  42.062  1.00  0.00    -0.043 C 
HETATM   21  C8  UNL     1      69.326   2.396  42.478  1.00  0.00     0.015 C 
HETATM   22  C9  UNL     1      71.070   2.330  40.787  1.00  0.00     0.010 C 
HETATM   23  C10 UNL     1      72.367   1.704  40.360  1.00  0.00     0.008 C 
HETATM   24  C11 UNL     1      73.437   1.763  41.388  1.00  0.00     0.015 C 
HETATM   25  C13 UNL     1      73.041   1.886  42.802  1.00  0.00     0.016 C 
HETATM   26  C15 UNL     1      71.611   1.918  43.159  1.00  0.00     0.016 C 
BRANCH  24  27
HETATM   27  C12 UNL     1      74.456   0.622  41.201  1.00  0.00     0.169 C 
BRANCH  27  28
HETATM   28  O3  UNL     1      74.769   0.180  42.485  1.00  0.00    -0.400 OA
ATOM     29  H3  UNL     1      75.399   0.805  42.826  1.00  0.00     0.209 HD
ENDBRANCH  27  28
ENDBRANCH  24  27
BRANCH  25  30
HETATM   30  C14 UNL     1      73.813   3.048  43.462  1.00  0.00     0.169 C 
BRANCH  30  31
HETATM   31  O4  UNL     1      74.682   2.536  44.441  1.00  0.00    -0.400 OA
ATOM     32  H4  UNL     1      75.287   1.925  44.039  1.00  0.00     0.209 HD
ENDBRANCH  30  31
ENDBRANCH  25  30
ENDBRANCH  19  20
ENDBRANCH  18  19
ENDBRANCH   2  18
TORSDOF 15
ENDMDL
MODEL 3
REMARK VINA RESULT: -5.419247490      3.893      8.163
REMARK  15 active torsions:
REMARK  status: ('A' for Active; 'I' for Inactive)
REMARK    1  A    between atoms: C2_2  and  O2_4 
REMARK    2  A    between atoms: O2_4  and  C3_5 
REMARK    3  A    between atoms: C3_5  and  C16_22 
REMARK    4  A    between atoms: C4_6  and  C5_7 
REMARK    5  A    between atoms: C5_7  and  C6_8 
REMARK    6  A    between atoms: C6_8  and  C7_9 
REMARK    7  A    between atoms: C11_13  and  C12_14 
REMARK    8  A    between atoms: C12_14  and  O3_15 
REMARK    9  A    between atoms: C13_17  and  C14_18 
REMARK   10  A    between atoms: C14_18  and  O4_19 
REMARK   11  A    between atoms: C16_22  and  C17_23 
REMARK   12  A    between atoms: C17_23  and  C18_24 
REMARK   13  A    between atoms: C19_25  and  C21_27 
REMARK   14  A    between atoms: C21_27  and  C22_28 
REMARK   15  A    between atoms: C22_28  and  C23_29 
ROOT
HETATM    1  C3  UNL     1      63.346  -4.714  46.051  1.00  0.00     0.053 C 
HETATM    2  C4  UNL     1      64.624  -4.506  46.198  1.00  0.00     0.006 C 
ENDROOT
BRANCH   1   3
HETATM    3  O2  UNL     1      62.454  -3.764  46.394  1.00  0.00    -0.284 OA
BRANCH   3   4
HETATM    4  C2  UNL     1      61.719  -3.557  47.507  1.00  0.00     0.259 C 
HETATM    5  C1  UNL     1      60.946  -4.699  48.117  1.00  0.00     0.126 C 
HETATM    6  O1  UNL     1      61.704  -2.420  47.997  1.00  0.00    -0.265 OA
ENDBRANCH   3   4
ENDBRANCH   1   3
BRANCH   1   7
HETATM    7  C16 UNL     1      62.973  -6.063  45.485  1.00  0.00     0.068 C 
BRANCH   7   8
HETATM    8  C17 UNL     1      62.040  -5.972  44.316  1.00  0.00     0.034 C 
BRANCH   8   9
HETATM    9  C18 UNL     1      61.606  -7.357  43.975  1.00  0.00    -0.024 C 
HETATM   10  C19 UNL     1      60.380  -7.789  43.912  1.00  0.00    -0.087 C 
HETATM   11  C20 UNL     1      59.220  -6.905  44.186  1.00  0.00     0.043 C 
BRANCH  10  12
HETATM   12  C21 UNL     1      60.112  -9.205  43.552  1.00  0.00     0.037 C 
BRANCH  12  13
HETATM   13  C22 UNL     1      58.743  -9.570  44.067  1.00  0.00     0.031 C 
BRANCH  13  14
HETATM   14  C23 UNL     1      58.873 -10.668  45.073  1.00  0.00    -0.024 C 
HETATM   15  C24 UNL     1      58.701 -10.479  46.367  1.00  0.00    -0.091 C 
HETATM   16  C25 UNL     1      58.846 -11.613  47.303  1.00  0.00     0.042 C 
HETATM   17  C26 UNL     1      58.366  -9.140  46.877  1.00  0.00     0.042 C 
ENDBRANCH  13  14
ENDBRANCH  12  13
ENDBRANCH  10  12
ENDBRANCH   8   9
ENDBRANCH   7   8
ENDBRANCH   1   7
BRANCH   2  18
HETATM   18  C5  UNL     1      65.241  -3.291  46.721  1.00  0.00     0.030 C 
BRANCH  18  19
HETATM   19  C6  UNL     1      66.282  -2.668  45.899  1.00  0.00     0.013 C 
BRANCH  19  20
HETATM   20  C7  UNL     1      65.995  -1.189  45.602  1.00  0.00    -0.043 C 
HETATM   21  C8  UNL     1      64.640  -0.858  46.191  1.00  0.00     0.015 C 
HETATM   22  C9  UNL     1      65.960  -0.871  44.150  1.00  0.00     0.010 C 
HETATM   23  C10 UNL     1      67.302  -1.153  43.537  1.00  0.00     0.008 C 
HETATM   24  C11 UNL     1      68.432  -0.457  44.204  1.00  0.00     0.015 C 
HETATM   25  C13 UNL     1      68.270  -0.051  45.610  1.00  0.00     0.016 C 
HETATM   26  C15 UNL     1      67.017  -0.366  46.321  1.00  0.00     0.016 C 
BRANCH  24  27
HETATM   27  C12 UNL     1      69.756  -1.220  44.002  1.00  0.00     0.169 C 
BRANCH  27  28
HETATM   28  O3  UNL     1      69.718  -2.286  44.898  1.00  0.00    -0.400 OA
ATOM     29  H3  UNL     1      69.587  -1.898  45.755  1.00  0.00     0.209 HD
ENDBRANCH  27  28
ENDBRANCH  24  27
BRANCH  25  30
HETATM   30  C14 UNL     1      68.651   1.436  45.773  1.00  0.00     0.169 C 
BRANCH  30  31
HETATM   31  O4  UNL     1      68.277   1.878  47.053  1.00  0.00    -0.400 OA
ATOM     32  H4  UNL     1      67.581   2.520  46.976  1.00  0.00     0.209 HD
ENDBRANCH  30  31
ENDBRANCH  25  30
ENDBRANCH  19  20
ENDBRANCH  18  19
ENDBRANCH   2  18
TORSDOF 15
ENDMDL
MODEL 4
REMARK VINA RESULT: -5.386366037      5.434      9.469
REMARK  15 active torsions:
REMARK  status: ('A' for Active; 'I' for Inactive)
REMARK    1  A    between atoms: C2_2  and  O2_4 
REMARK    2  A    between atoms: O2_4  and  C3_5 
REMARK    3  A    between atoms: C3_5  and  C16_22 
REMARK    4  A    between atoms: C4_6  and  C5_7 
REMARK    5  A    between atoms: C5_7  and  C6_8 
REMARK    6  A    between atoms: C6_8  and  C7_9 
REMARK    7  A    between atoms: C11_13  and  C12_14 
REMARK    8  A    between atoms: C12_14  and  O3_15 
REMARK    9  A    between atoms: C13_17  and  C14_18 
REMARK   10  A    between atoms: C14_18  and  O4_19 
REMARK   11  A    between atoms: C16_22  and  C17_23 
REMARK   12  A    between atoms: C17_23  and  C18_24 
REMARK   13  A    between atoms: C19_25  and  C21_27 
REMARK   14  A    between atoms: C21_27  and  C22_28 
REMARK   15  A    between atoms: C22_28  and  C23_29 
ROOT
HETATM    1  C3  UNL     1      61.340  -4.592  46.245  1.00  0.00     0.053 C 
HETATM    2  C4  UNL     1      62.549  -4.437  46.707  1.00  0.00     0.006 C 
ENDROOT
BRANCH   1   3
HETATM    3  O2  UNL     1      61.136  -4.876  44.944  1.00  0.00    -0.284 OA
BRANCH   3   4
HETATM    4  C2  UNL     1      60.639  -5.960  44.310  1.00  0.00     0.259 C 
HETATM    5  C1  UNL     1      61.512  -7.174  44.111  1.00  0.00     0.126 C 
HETATM    6  O1  UNL     1      59.470  -5.921  43.908  1.00  0.00    -0.265 OA
ENDBRANCH   3   4
ENDBRANCH   1   3
BRANCH   1   7
HETATM    7  C16 UNL     1      60.236  -4.431  47.262  1.00  0.00     0.068 C 
BRANCH   7   8
HETATM    8  C17 UNL     1      60.135  -5.589  48.208  1.00  0.00     0.034 C 
BRANCH   8   9
HETATM    9  C18 UNL     1      59.310  -6.641  47.550  1.00  0.00    -0.024 C 
HETATM   10  C19 UNL     1      58.063  -6.916  47.803  1.00  0.00    -0.087 C 
HETATM   11  C20 UNL     1      57.287  -6.173  48.826  1.00  0.00     0.043 C 
BRANCH  10  12
HETATM   12  C21 UNL     1      57.376  -7.998  47.052  1.00  0.00     0.037 C 
BRANCH  12  13
HETATM   13  C22 UNL     1      58.413  -8.748  46.255  1.00  0.00     0.031 C 
BRANCH  13  14
HETATM   14  C23 UNL     1      58.470 -10.164  46.731  1.00  0.00    -0.024 C 
HETATM   15  C24 UNL     1      58.828 -11.168  45.955  1.00  0.00    -0.091 C 
HETATM   16  C25 UNL     1      58.861 -12.542  46.496  1.00  0.00     0.042 C 
HETATM   17  C26 UNL     1      59.192 -10.919  44.551  1.00  0.00     0.042 C 
ENDBRANCH  13  14
ENDBRANCH  12  13
ENDBRANCH  10  12
ENDBRANCH   8   9
ENDBRANCH   7   8
ENDBRANCH   1   7
BRANCH   2  18
HETATM   18  C5  UNL     1      63.783  -4.541  45.933  1.00  0.00     0.030 C 
BRANCH  18  19
HETATM   19  C6  UNL     1      64.334  -3.295  45.393  1.00  0.00     0.013 C 
BRANCH  19  20
HETATM   20  C7  UNL     1      65.671  -2.909  46.044  1.00  0.00    -0.043 C 
HETATM   21  C8  UNL     1      66.568  -4.128  46.003  1.00  0.00     0.015 C 
HETATM   22  C9  UNL     1      65.538  -2.478  47.461  1.00  0.00     0.010 C 
HETATM   23  C10 UNL     1      64.682  -1.248  47.537  1.00  0.00     0.008 C 
HETATM   24  C11 UNL     1      65.153  -0.126  46.686  1.00  0.00     0.015 C 
HETATM   25  C13 UNL     1      65.987  -0.442  45.513  1.00  0.00     0.016 C 
HETATM   26  C15 UNL     1      66.306  -1.848  45.202  1.00  0.00     0.016 C 
BRANCH  24  27
HETATM   27  C12 UNL     1      63.990   0.808  46.296  1.00  0.00     0.169 C 
BRANCH  27  28
HETATM   28  O3  UNL     1      64.318   2.059  46.816  1.00  0.00    -0.400 OA
ATOM     29  H3  UNL     1      64.417   2.632  46.065  1.00  0.00     0.209 HD
ENDBRANCH  27  28
ENDBRANCH  24  27
BRANCH  25  30
HETATM   30  C14 UNL     1      67.258   0.435  45.523  1.00  0.00     0.169 C 
BRANCH  30  31
HETATM   31  O4  UNL     1      67.347   1.116  46.749  1.00  0.00    -0.400 OA
ATOM     32  H4  UNL     1      68.086   1.712  46.727  1.00  0.00     0.209 HD
ENDBRANCH  30  31
ENDBRANCH  25  30
ENDBRANCH  19  20
ENDBRANCH  18  19
ENDBRANCH   2  18
TORSDOF 15
ENDMDL
MODEL 5
REMARK VINA RESULT: -5.325765688      1.863      2.424
REMARK  15 active torsions:
REMARK  status: ('A' for Active; 'I' for Inactive)
REMARK    1  A    between atoms: C2_2  and  O2_4 
REMARK    2  A    between atoms: O2_4  and  C3_5 
REMARK    3  A    between atoms: C3_5  and  C16_22 
REMARK    4  A    between atoms: C4_6  and  C5_7 
REMARK    5  A    between atoms: C5_7  and  C6_8 
REMARK    6  A    between atoms: C6_8  and  C7_9 
REMARK    7  A    between atoms: C11_13  and  C12_14 
REMARK    8  A    between atoms: C12_14  and  O3_15 
REMARK    9  A    between atoms: C13_17  and  C14_18 
REMARK   10  A    between atoms: C14_18  and  O4_19 
REMARK   11  A    between atoms: C16_22  and  C17_23 
REMARK   12  A    between atoms: C17_23  and  C18_24 
REMARK   13  A    between atoms: C19_25  and  C21_27 
REMARK   14  A    between atoms: C21_27  and  C22_28 
REMARK   15  A    between atoms: C22_28  and  C23_29 
ROOT
HETATM    1  C3  UNL     1      68.300  -1.681  45.058  1.00  0.00     0.053 C 
HETATM    2  C4  UNL     1      68.800  -2.552  44.227  1.00  0.00     0.006 C 
ENDROOT
BRANCH   1   3
HETATM    3  O2  UNL     1      69.017  -0.605  45.435  1.00  0.00    -0.284 OA
BRANCH   3   4
HETATM    4  C2  UNL     1      68.665   0.613  45.899  1.00  0.00     0.259 C 
HETATM    5  C1  UNL     1      68.183   1.669  44.936  1.00  0.00     0.126 C 
HETATM    6  O1  UNL     1      68.750   0.826  47.115  1.00  0.00    -0.265 OA
ENDBRANCH   3   4
ENDBRANCH   1   3
BRANCH   1   7
HETATM    7  C16 UNL     1      66.901  -1.980  45.539  1.00  0.00     0.068 C 
BRANCH   7   8
HETATM    8  C17 UNL     1      66.778  -3.320  46.198  1.00  0.00     0.034 C 
BRANCH   8   9
HETATM    9  C18 UNL     1      65.433  -3.868  45.863  1.00  0.00    -0.024 C 
HETATM   10  C19 UNL     1      64.359  -3.777  46.593  1.00  0.00    -0.087 C 
HETATM   11  C20 UNL     1      64.356  -3.083  47.905  1.00  0.00     0.043 C 
BRANCH  10  12
HETATM   12  C21 UNL     1      63.086  -4.376  46.115  1.00  0.00     0.037 C 
BRANCH  12  13
HETATM   13  C22 UNL     1      62.059  -4.232  47.208  1.00  0.00     0.031 C 
BRANCH  13  14
HETATM   14  C23 UNL     1      61.088  -5.365  47.123  1.00  0.00    -0.024 C 
HETATM   15  C24 UNL     1      60.022  -5.456  47.894  1.00  0.00    -0.091 C 
HETATM   16  C25 UNL     1      59.106  -6.606  47.752  1.00  0.00     0.042 C 
HETATM   17  C26 UNL     1      59.747  -4.414  48.896  1.00  0.00     0.042 C 
ENDBRANCH  13  14
ENDBRANCH  12  13
ENDBRANCH  10  12
ENDBRANCH   8   9
ENDBRANCH   7   8
ENDBRANCH   1   7
BRANCH   2  18
HETATM   18  C5  UNL     1      70.126  -2.494  43.619  1.00  0.00     0.030 C 
BRANCH  18  19
HETATM   19  C6  UNL     1      70.852  -3.761  43.490  1.00  0.00     0.013 C 
BRANCH  19  20
HETATM   20  C7  UNL     1      71.952  -3.705  42.419  1.00  0.00    -0.043 C 
HETATM   21  C8  UNL     1      72.200  -2.248  42.093  1.00  0.00     0.015 C 
HETATM   22  C9  UNL     1      71.588  -4.407  41.160  1.00  0.00     0.010 C 
HETATM   23  C10 UNL     1      71.369  -5.866  41.438  1.00  0.00     0.008 C 
HETATM   24  C11 UNL     1      72.515  -6.536  42.105  1.00  0.00     0.015 C 
HETATM   25  C13 UNL     1      73.448  -5.708  42.889  1.00  0.00     0.016 C 
HETATM   26  C15 UNL     1      73.207  -4.258  43.015  1.00  0.00     0.016 C 
BRANCH  24  27
HETATM   27  C12 UNL     1      72.052  -7.761  42.917  1.00  0.00     0.169 C 
BRANCH  27  28
HETATM   28  O3  UNL     1      71.661  -7.264  44.160  1.00  0.00    -0.400 OA
ATOM     29  H3  UNL     1      70.769  -6.958  44.046  1.00  0.00     0.209 HD
ENDBRANCH  27  28
ENDBRANCH  24  27
BRANCH  25  30
HETATM   30  C14 UNL     1      74.900  -6.003  42.458  1.00  0.00     0.169 C 
BRANCH  30  31
HETATM   31  O4  UNL     1      74.956  -6.131  41.059  1.00  0.00    -0.400 OA
ATOM     32  H4  UNL     1      75.186  -5.294  40.674  1.00  0.00     0.209 HD
ENDBRANCH  30  31
ENDBRANCH  25  30
ENDBRANCH  19  20
ENDBRANCH  18  19
ENDBRANCH   2  18
TORSDOF 15
ENDMDL
