MODEL 1
REMARK VINA RESULT: -5.995474544      0.000      0.000
REMARK  16 active torsions:
REMARK  status: ('A' for Active; 'I' for Inactive)
REMARK    1  A    between atoms: O1_2  and  C2_3 
REMARK    2  A    between atoms: C4_5  and  C5_6 
REMARK    3  A    between atoms: C6_7  and  C7_8 
REMARK    4  A    between atoms: C7_8  and  O2_9 
REMARK    5  A    between atoms: C8_11  and  C9_12 
REMARK    6  A    between atoms: C10_13  and  C11_14 
REMARK    7  A    between atoms: C11_14  and  C12_15 
REMARK    8  A    between atoms: C12_15  and  C13_16 
REMARK    9  A    between atoms: C13_16  and  C14_17 
REMARK   10  A    between atoms: C16_19  and  C17_20 
REMARK   11  A    between atoms: C17_20  and  C18_21 
REMARK   12  A    between atoms: C18_21  and  C19_22 
REMARK   13  A    between atoms: C20_23  and  C21_24 
REMARK   14  A    between atoms: C21_24  and  C22_25 
REMARK   15  A    between atoms: C22_25  and  O3_28 
REMARK   16  A    between atoms: C27_32  and  O4_33 
ROOT
HETATM    1  C9  UNL     1      62.799  -4.408  46.408  1.00  0.00     0.003 C 
HETATM    2  C10 UNL     1      62.807  -5.629  45.668  1.00  0.00     0.000 C 
ENDROOT
BRANCH   1   3
HETATM    3  C8  UNL     1      63.452  -3.827  47.325  1.00  0.00     0.036 C 
HETATM    4  C7  UNL     1      64.623  -3.097  47.542  1.00  0.00     0.065 C 
BRANCH   4   5
HETATM    5  C6  UNL     1      65.722  -2.619  46.806  1.00  0.00     0.037 C 
HETATM    6  C5  UNL     1      66.437  -3.117  45.864  1.00  0.00     0.014 C 
BRANCH   6   7
HETATM    7  C4  UNL     1      67.582  -2.431  45.202  1.00  0.00    -0.033 A 
HETATM    8  C3  UNL     1      68.742  -3.108  44.950  1.00  0.00     0.051 A 
HETATM    9  C2  UNL     1      69.855  -2.506  44.326  1.00  0.00     0.102 A 
HETATM   10  C27 UNL     1      69.712  -1.181  43.980  1.00  0.00     0.099 A 
HETATM   11  C26 UNL     1      68.550  -0.483  44.226  1.00  0.00     0.040 A 
HETATM   12  C25 UNL     1      67.491  -1.103  44.834  1.00  0.00     0.014 A 
BRANCH   9  13
HETATM   13  O1  UNL     1      71.026  -3.211  44.077  1.00  0.00    -0.353 OA
HETATM   14  C1  UNL     1      70.951  -4.340  43.231  1.00  0.00     0.210 C 
ENDBRANCH   9  13
BRANCH  10  15
HETATM   15  O4  UNL     1      70.774  -0.526  43.360  1.00  0.00    -0.358 OA
ATOM     16  H4  UNL     1      70.891  -0.623  42.422  1.00  0.00     0.217 HD
ENDBRANCH  10  15
ENDBRANCH   6   7
ENDBRANCH   4   5
BRANCH   4  17
HETATM   17  O2  UNL     1      64.751  -2.733  48.871  1.00  0.00    -0.361 OA
ATOM     18  H2  UNL     1      64.134  -2.042  49.078  1.00  0.00     0.217 HD
ENDBRANCH   4  17
ENDBRANCH   1   3
BRANCH   2  19
HETATM   19  C11 UNL     1      61.929  -5.957  44.711  1.00  0.00    -0.000 C 
BRANCH  19  20
HETATM   20  C12 UNL     1      61.836  -7.234  44.046  1.00  0.00    -0.004 C 
BRANCH  20  21
HETATM   21  C13 UNL     1      60.722  -7.647  43.471  1.00  0.00    -0.022 C 
BRANCH  21  22
HETATM   22  C14 UNL     1      60.208  -8.989  43.704  1.00  0.00     0.012 A 
HETATM   23  C15 UNL     1      58.888  -9.296  43.006  1.00  0.00     0.014 A 
HETATM   24  C16 UNL     1      59.023  -9.276  44.529  1.00  0.00    -0.006 A 
BRANCH  24  25
HETATM   25  C17 UNL     1      58.268  -8.191  45.252  1.00  0.00     0.009 C 
BRANCH  25  26
HETATM   26  C18 UNL     1      58.092  -8.625  46.691  1.00  0.00     0.027 C 
BRANCH  26  27
HETATM   27  C19 UNL     1      58.613  -7.633  47.656  1.00  0.00    -0.031 C 
HETATM   28  C20 UNL     1      59.328  -6.611  47.219  1.00  0.00    -0.028 C 
BRANCH  28  29
HETATM   29  C21 UNL     1      59.840  -5.630  48.202  1.00  0.00     0.063 C 
BRANCH  29  30
HETATM   30  C22 UNL     1      59.156  -4.298  47.922  1.00  0.00     0.053 C 
HETATM   31  C23 UNL     1      59.961  -3.200  48.577  1.00  0.00     0.045 C 
HETATM   32  C24 UNL     1      59.104  -4.081  46.416  1.00  0.00     0.045 C 
BRANCH  30  33
HETATM   33  O3  UNL     1      57.885  -4.263  48.455  1.00  0.00    -0.390 OA
ATOM     34  H3  UNL     1      57.883  -4.531  49.367  1.00  0.00     0.210 HD
ENDBRANCH  30  33
ENDBRANCH  29  30
ENDBRANCH  28  29
ENDBRANCH  26  27
ENDBRANCH  25  26
ENDBRANCH  24  25
ENDBRANCH  21  22
ENDBRANCH  20  21
ENDBRANCH  19  20
ENDBRANCH   2  19
TORSDOF 16
ENDMDL
MODEL 2
REMARK VINA RESULT: -5.837903308      2.135      4.189
REMARK  16 active torsions:
REMARK  status: ('A' for Active; 'I' for Inactive)
REMARK    1  A    between atoms: O1_2  and  C2_3 
REMARK    2  A    between atoms: C4_5  and  C5_6 
REMARK    3  A    between atoms: C6_7  and  C7_8 
REMARK    4  A    between atoms: C7_8  and  O2_9 
REMARK    5  A    between atoms: C8_11  and  C9_12 
REMARK    6  A    between atoms: C10_13  and  C11_14 
REMARK    7  A    between atoms: C11_14  and  C12_15 
REMARK    8  A    between atoms: C12_15  and  C13_16 
REMARK    9  A    between atoms: C13_16  and  C14_17 
REMARK   10  A    between atoms: C16_19  and  C17_20 
REMARK   11  A    between atoms: C17_20  and  C18_21 
REMARK   12  A    between atoms: C18_21  and  C19_22 
REMARK   13  A    between atoms: C20_23  and  C21_24 
REMARK   14  A    between atoms: C21_24  and  C22_25 
REMARK   15  A    between atoms: C22_25  and  O3_28 
REMARK   16  A    between atoms: C27_32  and  O4_33 
ROOT
HETATM    1  C9  UNL     1      63.037  -4.687  46.068  1.00  0.00     0.003 C 
HETATM    2  C10 UNL     1      62.987  -6.013  45.540  1.00  0.00     0.000 C 
ENDROOT
BRANCH   1   3
HETATM    3  C8  UNL     1      63.604  -4.033  46.992  1.00  0.00     0.036 C 
HETATM    4  C7  UNL     1      64.712  -3.220  47.237  1.00  0.00     0.065 C 
BRANCH   4   5
HETATM    5  C6  UNL     1      65.812  -2.694  46.536  1.00  0.00     0.037 C 
HETATM    6  C5  UNL     1      66.781  -3.228  45.886  1.00  0.00     0.014 C 
BRANCH   6   7
HETATM    7  C4  UNL     1      67.870  -2.477  45.199  1.00  0.00    -0.033 A 
HETATM    8  C3  UNL     1      67.872  -1.111  45.196  1.00  0.00     0.051 A 
HETATM    9  C2  UNL     1      68.879  -0.353  44.561  1.00  0.00     0.102 A 
HETATM   10  C27 UNL     1      69.874  -1.071  43.935  1.00  0.00     0.099 A 
HETATM   11  C26 UNL     1      69.888  -2.448  43.929  1.00  0.00     0.040 A 
HETATM   12  C25 UNL     1      68.892  -3.148  44.556  1.00  0.00     0.014 A 
BRANCH   9  13
HETATM   13  O1  UNL     1      68.865   1.037  44.568  1.00  0.00    -0.353 OA
HETATM   14  C1  UNL     1      68.532   1.688  45.777  1.00  0.00     0.210 C 
ENDBRANCH   9  13
BRANCH  10  15
HETATM   15  O4  UNL     1      70.899  -0.383  43.289  1.00  0.00    -0.358 OA
ATOM     16  H4  UNL     1      71.314  -0.780  42.532  1.00  0.00     0.217 HD
ENDBRANCH  10  15
ENDBRANCH   6   7
ENDBRANCH   4   5
BRANCH   4  17
HETATM   17  O2  UNL     1      64.750  -2.804  48.556  1.00  0.00    -0.361 OA
ATOM     18  H2  UNL     1      64.572  -3.537  49.133  1.00  0.00     0.217 HD
ENDBRANCH   4  17
ENDBRANCH   1   3
BRANCH   2  19
HETATM   19  C11 UNL     1      62.245  -6.400  44.494  1.00  0.00    -0.000 C 
BRANCH  19  20
HETATM   20  C12 UNL     1      60.804  -6.451  44.449  1.00  0.00    -0.004 C 
BRANCH  20  21
HETATM   21  C13 UNL     1      60.079  -6.765  45.506  1.00  0.00    -0.022 C 
BRANCH  21  22
HETATM   22  C14 UNL     1      59.463  -5.734  46.329  1.00  0.00     0.012 A 
HETATM   23  C15 UNL     1      60.010  -5.639  47.749  1.00  0.00     0.014 A 
HETATM   24  C16 UNL     1      58.558  -6.022  47.455  1.00  0.00    -0.006 A 
BRANCH  24  25
HETATM   25  C17 UNL     1      58.152  -7.427  47.817  1.00  0.00     0.009 C 
BRANCH  25  26
HETATM   26  C18 UNL     1      56.968  -7.806  46.955  1.00  0.00     0.027 C 
BRANCH  26  27
HETATM   27  C19 UNL     1      57.098  -9.157  46.367  1.00  0.00    -0.031 C 
HETATM   28  C20 UNL     1      58.245  -9.805  46.468  1.00  0.00    -0.028 C 
BRANCH  28  29
HETATM   29  C21 UNL     1      58.353 -11.156  45.872  1.00  0.00     0.063 C 
BRANCH  29  30
HETATM   30  C22 UNL     1      58.549 -12.147  47.011  1.00  0.00     0.053 C 
HETATM   31  C23 UNL     1      57.194 -12.671  47.428  1.00  0.00     0.045 C 
HETATM   32  C24 UNL     1      59.424 -13.292  46.520  1.00  0.00     0.045 C 
BRANCH  30  33
HETATM   33  O3  UNL     1      59.123 -11.544  48.111  1.00  0.00    -0.390 OA
ATOM     34  H3  UNL     1      60.021 -11.828  48.234  1.00  0.00     0.210 HD
ENDBRANCH  30  33
ENDBRANCH  29  30
ENDBRANCH  28  29
ENDBRANCH  26  27
ENDBRANCH  25  26
ENDBRANCH  24  25
ENDBRANCH  21  22
ENDBRANCH  20  21
ENDBRANCH  19  20
ENDBRANCH   2  19
TORSDOF 16
ENDMDL
MODEL 3
REMARK VINA RESULT: -5.796211991      1.385      2.206
REMARK  16 active torsions:
REMARK  status: ('A' for Active; 'I' for Inactive)
REMARK    1  A    between atoms: O1_2  and  C2_3 
REMARK    2  A    between atoms: C4_5  and  C5_6 
REMARK    3  A    between atoms: C6_7  and  C7_8 
REMARK    4  A    between atoms: C7_8  and  O2_9 
REMARK    5  A    between atoms: C8_11  and  C9_12 
REMARK    6  A    between atoms: C10_13  and  C11_14 
REMARK    7  A    between atoms: C11_14  and  C12_15 
REMARK    8  A    between atoms: C12_15  and  C13_16 
REMARK    9  A    between atoms: C13_16  and  C14_17 
REMARK   10  A    between atoms: C16_19  and  C17_20 
REMARK   11  A    between atoms: C17_20  and  C18_21 
REMARK   12  A    between atoms: C18_21  and  C19_22 
REMARK   13  A    between atoms: C20_23  and  C21_24 
REMARK   14  A    between atoms: C21_24  and  C22_25 
REMARK   15  A    between atoms: C22_25  and  O3_28 
REMARK   16  A    between atoms: C27_32  and  O4_33 
ROOT
HETATM    1  C9  UNL     1      62.875  -4.722  46.108  1.00  0.00     0.003 C 
HETATM    2  C10 UNL     1      62.900  -6.048  45.578  1.00  0.00     0.000 C 
ENDROOT
BRANCH   1   3
HETATM    3  C8  UNL     1      63.417  -4.034  47.022  1.00  0.00     0.036 C 
HETATM    4  C7  UNL     1      64.520  -3.213  47.267  1.00  0.00     0.065 C 
BRANCH   4   5
HETATM    5  C6  UNL     1      65.641  -2.716  46.578  1.00  0.00     0.037 C 
HETATM    6  C5  UNL     1      66.525  -3.260  45.823  1.00  0.00     0.014 C 
BRANCH   6   7
HETATM    7  C4  UNL     1      67.658  -2.542  45.174  1.00  0.00    -0.033 A 
HETATM    8  C3  UNL     1      68.823  -3.198  44.893  1.00  0.00     0.051 A 
HETATM    9  C2  UNL     1      69.924  -2.565  44.281  1.00  0.00     0.102 A 
HETATM   10  C27 UNL     1      69.765  -1.231  43.977  1.00  0.00     0.099 A 
HETATM   11  C26 UNL     1      68.598  -0.553  44.252  1.00  0.00     0.040 A 
HETATM   12  C25 UNL     1      67.550  -1.203  44.848  1.00  0.00     0.014 A 
BRANCH   9  13
HETATM   13  O1  UNL     1      71.102  -3.249  44.001  1.00  0.00    -0.353 OA
HETATM   14  C1  UNL     1      71.014  -4.426  43.225  1.00  0.00     0.210 C 
ENDBRANCH   9  13
BRANCH  10  15
HETATM   15  O4  UNL     1      70.816  -0.546  43.370  1.00  0.00    -0.358 OA
ATOM     16  H4  UNL     1      70.684   0.356  43.103  1.00  0.00     0.217 HD
ENDBRANCH  10  15
ENDBRANCH   6   7
ENDBRANCH   4   5
BRANCH   4  17
HETATM   17  O2  UNL     1      64.522  -2.747  48.569  1.00  0.00    -0.361 OA
ATOM     18  H2  UNL     1      64.733  -3.454  49.167  1.00  0.00     0.217 HD
ENDBRANCH   4  17
ENDBRANCH   1   3
BRANCH   2  19
HETATM   19  C11 UNL     1      62.163  -6.481  44.546  1.00  0.00    -0.000 C 
BRANCH  19  20
HETATM   20  C12 UNL     1      60.988  -5.836  44.013  1.00  0.00    -0.004 C 
BRANCH  20  21
HETATM   21  C13 UNL     1      59.786  -6.035  44.522  1.00  0.00    -0.022 C 
BRANCH  21  22
HETATM   22  C14 UNL     1      59.450  -7.282  45.193  1.00  0.00     0.012 A 
HETATM   23  C15 UNL     1      57.959  -7.499  45.427  1.00  0.00     0.014 A 
HETATM   24  C16 UNL     1      58.956  -7.355  46.578  1.00  0.00    -0.006 A 
BRANCH  24  25
HETATM   25  C17 UNL     1      58.808  -6.129  47.441  1.00  0.00     0.009 C 
BRANCH  25  26
HETATM   26  C18 UNL     1      60.099  -5.939  48.207  1.00  0.00     0.027 C 
BRANCH  26  27
HETATM   27  C19 UNL     1      60.265  -4.562  48.718  1.00  0.00    -0.031 C 
HETATM   28  C20 UNL     1      59.832  -3.542  47.996  1.00  0.00    -0.028 C 
BRANCH  28  29
HETATM   29  C21 UNL     1      60.007  -2.171  48.526  1.00  0.00     0.063 C 
BRANCH  29  30
HETATM   30  C22 UNL     1      60.444  -1.283  47.369  1.00  0.00     0.053 C 
HETATM   31  C23 UNL     1      59.404  -0.203  47.175  1.00  0.00     0.045 C 
HETATM   32  C24 UNL     1      61.789  -0.657  47.712  1.00  0.00     0.045 C 
BRANCH  30  33
HETATM   33  O3  UNL     1      60.534  -1.997  46.193  1.00  0.00    -0.390 OA
ATOM     34  H3  UNL     1      61.345  -2.488  46.146  1.00  0.00     0.210 HD
ENDBRANCH  30  33
ENDBRANCH  29  30
ENDBRANCH  28  29
ENDBRANCH  26  27
ENDBRANCH  25  26
ENDBRANCH  24  25
ENDBRANCH  21  22
ENDBRANCH  20  21
ENDBRANCH  19  20
ENDBRANCH   2  19
TORSDOF 16
ENDMDL
MODEL 4
REMARK VINA RESULT: -5.730883323      3.648      5.070
REMARK  16 active torsions:
REMARK  status: ('A' for Active; 'I' for Inactive)
REMARK    1  A    between atoms: O1_2  and  C2_3 
REMARK    2  A    between atoms: C4_5  and  C5_6 
REMARK    3  A    between atoms: C6_7  and  C7_8 
REMARK    4  A    between atoms: C7_8  and  O2_9 
REMARK    5  A    between atoms: C8_11  and  C9_12 
REMARK    6  A    between atoms: C10_13  and  C11_14 
REMARK    7  A    between atoms: C11_14  and  C12_15 
REMARK    8  A    between atoms: C12_15  and  C13_16 
REMARK    9  A    between atoms: C13_16  and  C14_17 
REMARK   10  A    between atoms: C16_19  and  C17_20 
REMARK   11  A    between atoms: C17_20  and  C18_21 
REMARK   12  A    between atoms: C18_21  and  C19_22 
REMARK   13  A    between atoms: C20_23  and  C21_24 
REMARK   14  A    between atoms: C21_24  and  C22_25 
REMARK   15  A    between atoms: C22_25  and  O3_28 
REMARK   16  A    between atoms: C27_32  and  O4_33 
ROOT
HETATM    1  C9  UNL     1      62.523  -5.146  45.267  1.00  0.00     0.003 C 
HETATM    2  C10 UNL     1      62.232  -6.482  44.859  1.00  0.00     0.000 C 
ENDROOT
BRANCH   1   3
HETATM    3  C8  UNL     1      62.952  -4.513  46.277  1.00  0.00     0.036 C 
HETATM    4  C7  UNL     1      63.991  -3.672  46.683  1.00  0.00     0.065 C 
BRANCH   4   5
HETATM    5  C6  UNL     1      65.143  -3.077  46.137  1.00  0.00     0.037 C 
HETATM    6  C5  UNL     1      66.341  -3.493  45.938  1.00  0.00     0.014 C 
BRANCH   6   7
HETATM    7  C4  UNL     1      67.439  -2.688  45.333  1.00  0.00    -0.033 A 
HETATM    8  C3  UNL     1      68.634  -3.271  45.022  1.00  0.00     0.051 A 
HETATM    9  C2  UNL     1      69.705  -2.554  44.448  1.00  0.00     0.102 A 
HETATM   10  C27 UNL     1      69.481  -1.216  44.215  1.00  0.00     0.099 A 
HETATM   11  C26 UNL     1      68.283  -0.610  44.522  1.00  0.00     0.040 A 
HETATM   12  C25 UNL     1      67.267  -1.341  45.078  1.00  0.00     0.014 A 
BRANCH   9  13
HETATM   13  O1  UNL     1      70.914  -3.165  44.137  1.00  0.00    -0.353 OA
HETATM   14  C1  UNL     1      70.882  -4.310  43.310  1.00  0.00     0.210 C 
ENDBRANCH   9  13
BRANCH  10  15
HETATM   15  O4  UNL     1      70.499  -0.450  43.649  1.00  0.00    -0.358 OA
ATOM     16  H4  UNL     1      71.046  -0.836  42.976  1.00  0.00     0.217 HD
ENDBRANCH  10  15
ENDBRANCH   6   7
ENDBRANCH   4   5
BRANCH   4  17
HETATM   17  O2  UNL     1      63.858  -3.313  48.012  1.00  0.00    -0.361 OA
ATOM     18  H2  UNL     1      64.600  -3.635  48.510  1.00  0.00     0.217 HD
ENDBRANCH   4  17
ENDBRANCH   1   3
BRANCH   2  19
HETATM   19  C11 UNL     1      61.765  -6.837  43.654  1.00  0.00    -0.000 C 
BRANCH  19  20
HETATM   20  C12 UNL     1      61.063  -8.059  43.343  1.00  0.00    -0.004 C 
BRANCH  20  21
HETATM   21  C13 UNL     1      60.099  -8.530  44.111  1.00  0.00    -0.022 C 
BRANCH  21  22
HETATM   22  C14 UNL     1      59.509  -9.837  43.862  1.00  0.00     0.012 A 
HETATM   23  C15 UNL     1      57.985  -9.853  43.823  1.00  0.00     0.014 A 
HETATM   24  C16 UNL     1      58.785 -10.613  44.883  1.00  0.00    -0.006 A 
BRANCH  24  25
HETATM   25  C17 UNL     1      58.640 -10.130  46.302  1.00  0.00     0.009 C 
BRANCH  25  26
HETATM   26  C18 UNL     1      58.848 -11.314  47.221  1.00  0.00     0.027 C 
BRANCH  26  27
HETATM   27  C19 UNL     1      58.848 -12.605  46.500  1.00  0.00    -0.031 C 
HETATM   28  C20 UNL     1      59.602 -13.597  46.941  1.00  0.00    -0.028 C 
BRANCH  28  29
HETATM   29  C21 UNL     1      59.587 -14.881  46.204  1.00  0.00     0.063 C 
BRANCH  29  30
HETATM   30  C22 UNL     1      60.861 -15.633  46.566  1.00  0.00     0.053 C 
HETATM   31  C23 UNL     1      61.392 -15.078  47.867  1.00  0.00     0.045 C 
HETATM   32  C24 UNL     1      60.530 -17.111  46.725  1.00  0.00     0.045 C 
BRANCH  30  33
HETATM   33  O3  UNL     1      61.836 -15.462  45.606  1.00  0.00    -0.390 OA
ATOM     34  H3  UNL     1      62.304 -16.272  45.439  1.00  0.00     0.210 HD
ENDBRANCH  30  33
ENDBRANCH  29  30
ENDBRANCH  28  29
ENDBRANCH  26  27
ENDBRANCH  25  26
ENDBRANCH  24  25
ENDBRANCH  21  22
ENDBRANCH  20  21
ENDBRANCH  19  20
ENDBRANCH   2  19
TORSDOF 16
ENDMDL
MODEL 5
REMARK VINA RESULT: -5.688745097      4.877      8.315
REMARK  16 active torsions:
REMARK  status: ('A' for Active; 'I' for Inactive)
REMARK    1  A    between atoms: O1_2  and  C2_3 
REMARK    2  A    between atoms: C4_5  and  C5_6 
REMARK    3  A    between atoms: C6_7  and  C7_8 
REMARK    4  A    between atoms: C7_8  and  O2_9 
REMARK    5  A    between atoms: C8_11  and  C9_12 
REMARK    6  A    between atoms: C10_13  and  C11_14 
REMARK    7  A    between atoms: C11_14  and  C12_15 
REMARK    8  A    between atoms: C12_15  and  C13_16 
REMARK    9  A    between atoms: C13_16  and  C14_17 
REMARK   10  A    between atoms: C16_19  and  C17_20 
REMARK   11  A    between atoms: C17_20  and  C18_21 
REMARK   12  A    between atoms: C18_21  and  C19_22 
REMARK   13  A    between atoms: C20_23  and  C21_24 
REMARK   14  A    between atoms: C21_24  and  C22_25 
REMARK   15  A    between atoms: C22_25  and  O3_28 
REMARK   16  A    between atoms: C27_32  and  O4_33 
ROOT
HETATM    1  C9  UNL     1      66.209  -3.692  46.188  1.00  0.00     0.003 C 
HETATM    2  C10 UNL     1      64.862  -4.108  45.963  1.00  0.00     0.000 C 
ENDROOT
BRANCH   1   3
HETATM    3  C8  UNL     1      67.335  -3.699  45.607  1.00  0.00     0.036 C 
HETATM    4  C7  UNL     1      68.343  -2.841  45.163  1.00  0.00     0.065 C 
BRANCH   4   5
HETATM    5  C6  UNL     1      68.624  -1.463  45.141  1.00  0.00     0.037 C 
HETATM    6  C5  UNL     1      68.161  -0.457  45.790  1.00  0.00     0.014 C 
BRANCH   6   7
HETATM    7  C4  UNL     1      68.603   0.955  45.613  1.00  0.00    -0.033 A 
HETATM    8  C3  UNL     1      68.409   1.870  46.609  1.00  0.00     0.051 A 
HETATM    9  C2  UNL     1      68.809   3.218  46.492  1.00  0.00     0.102 A 
HETATM   10  C27 UNL     1      69.412   3.570  45.306  1.00  0.00     0.099 A 
HETATM   11  C26 UNL     1      69.616   2.662  44.291  1.00  0.00     0.040 A 
HETATM   12  C25 UNL     1      69.214   1.361  44.443  1.00  0.00     0.014 A 
BRANCH   9  13
HETATM   13  O1  UNL     1      68.604   4.135  47.517  1.00  0.00    -0.353 OA
HETATM   14  C1  UNL     1      67.310   4.684  47.662  1.00  0.00     0.210 C 
ENDBRANCH   9  13
BRANCH  10  15
HETATM   15  O4  UNL     1      69.831   4.887  45.127  1.00  0.00    -0.358 OA
ATOM     16  H4  UNL     1      70.717   5.051  44.824  1.00  0.00     0.217 HD
ENDBRANCH  10  15
ENDBRANCH   6   7
ENDBRANCH   4   5
BRANCH   4  17
HETATM   17  O2  UNL     1      69.376  -3.543  44.568  1.00  0.00    -0.361 OA
ATOM     18  H2  UNL     1      69.484  -4.384  44.994  1.00  0.00     0.217 HD
ENDBRANCH   4  17
ENDBRANCH   1   3
BRANCH   2  19
HETATM   19  C11 UNL     1      63.850  -3.944  46.825  1.00  0.00    -0.000 C 
BRANCH  19  20
HETATM   20  C12 UNL     1      63.749  -2.914  47.830  1.00  0.00    -0.004 C 
BRANCH  20  21
HETATM   21  C13 UNL     1      63.358  -1.687  47.540  1.00  0.00    -0.022 C 
BRANCH  21  22
HETATM   22  C14 UNL     1      64.324  -0.630  47.279  1.00  0.00     0.012 A 
HETATM   23  C15 UNL     1      63.713   0.730  46.964  1.00  0.00     0.014 A 
HETATM   24  C16 UNL     1      64.552  -0.045  45.947  1.00  0.00    -0.006 A 
BRANCH  24  25
HETATM   25  C17 UNL     1      63.830  -0.538  44.721  1.00  0.00     0.009 C 
BRANCH  25  26
HETATM   26  C18 UNL     1      64.844  -1.207  43.820  1.00  0.00     0.027 C 
BRANCH  26  27
HETATM   27  C19 UNL     1      65.708  -0.237  43.112  1.00  0.00    -0.031 C 
HETATM   28  C20 UNL     1      66.542  -0.666  42.181  1.00  0.00    -0.028 C 
BRANCH  28  29
HETATM   29  C21 UNL     1      67.398   0.321  41.485  1.00  0.00     0.063 C 
BRANCH  29  30
HETATM   30  C22 UNL     1      68.397  -0.454  40.636  1.00  0.00     0.053 C 
HETATM   31  C23 UNL     1      69.276  -1.270  41.556  1.00  0.00     0.045 C 
HETATM   32  C24 UNL     1      67.631  -1.373  39.694  1.00  0.00     0.045 C 
BRANCH  30  33
HETATM   33  O3  UNL     1      69.213   0.395  39.918  1.00  0.00    -0.390 OA
ATOM     34  H3  UNL     1      69.573   1.079  40.469  1.00  0.00     0.210 HD
ENDBRANCH  30  33
ENDBRANCH  29  30
ENDBRANCH  28  29
ENDBRANCH  26  27
ENDBRANCH  25  26
ENDBRANCH  24  25
ENDBRANCH  21  22
ENDBRANCH  20  21
ENDBRANCH  19  20
ENDBRANCH   2  19
TORSDOF 16
ENDMDL
