MODEL 1
REMARK VINA RESULT: -4.578374430      0.000      0.000
REMARK  0 active torsions:
REMARK  status: ('A' for Active; 'I' for Inactive)
ROOT
HETATM    1  C1  UNL     1      14.697 -16.651   5.880  1.00  0.00     0.118 C 
HETATM    2  C2  UNL     1      14.952 -17.535   4.733  1.00  0.00     0.073 C 
HETATM    3  N1  UNL     1      14.672 -17.055   3.443  1.00  0.00    -0.373 N 
HETATM    4  C3  UNL     1      13.502 -16.310   3.232  1.00  0.00     0.064 C 
HETATM    5  C4  UNL     1      13.826 -14.848   3.015  1.00  0.00     0.060 C 
HETATM    6  C5  UNL     1      15.080 -14.510   3.816  1.00  0.00     0.054 C 
HETATM    7  C6  UNL     1      16.281 -15.292   3.311  1.00  0.00     0.036 C 
HETATM    8  C7  UNL     1      15.837 -16.627   2.738  1.00  0.00     0.128 C 
HETATM    9  S1  UNL     1      14.709 -14.900   5.537  1.00  0.00    -0.159 SA
ENDROOT
TORSDOF 0
ENDMDL
MODEL 2
REMARK VINA RESULT: -4.424434115      1.467      2.607
REMARK  0 active torsions:
REMARK  status: ('A' for Active; 'I' for Inactive)
ROOT
HETATM    1  C1  UNL     1      14.826 -16.266   6.124  1.00  0.00     0.118 C 
HETATM    2  C2  UNL     1      14.624 -14.927   5.553  1.00  0.00     0.073 C 
HETATM    3  N1  UNL     1      14.975 -14.711   4.211  1.00  0.00    -0.373 N 
HETATM    4  C3  UNL     1      16.162 -15.276   3.718  1.00  0.00     0.064 C 
HETATM    5  C4  UNL     1      15.862 -16.433   2.790  1.00  0.00     0.060 C 
HETATM    6  C5  UNL     1      14.571 -17.099   3.254  1.00  0.00     0.054 C 
HETATM    7  C6  UNL     1      13.391 -16.148   3.144  1.00  0.00     0.036 C 
HETATM    8  C7  UNL     1      13.854 -14.713   3.329  1.00  0.00     0.128 C 
HETATM    9  S1  UNL     1      14.847 -17.618   4.959  1.00  0.00    -0.159 SA
ENDROOT
TORSDOF 0
ENDMDL
MODEL 3
REMARK VINA RESULT: -4.418528108      1.294      2.740
REMARK  0 active torsions:
REMARK  status: ('A' for Active; 'I' for Inactive)
ROOT
HETATM    1  C1  UNL     1      15.797 -13.941   4.511  1.00  0.00     0.118 C 
HETATM    2  C2  UNL     1      15.561 -13.867   3.061  1.00  0.00     0.073 C 
HETATM    3  N1  UNL     1      15.284 -15.055   2.367  1.00  0.00    -0.373 N 
HETATM    4  C3  UNL     1      16.009 -16.214   2.682  1.00  0.00     0.064 C 
HETATM    5  C4  UNL     1      15.145 -17.202   3.435  1.00  0.00     0.060 C 
HETATM    6  C5  UNL     1      14.128 -16.420   4.260  1.00  0.00     0.054 C 
HETATM    7  C6  UNL     1      13.189 -15.627   3.366  1.00  0.00     0.036 C 
HETATM    8  C7  UNL     1      13.896 -15.229   2.081  1.00  0.00     0.128 C 
HETATM    9  S1  UNL     1      15.074 -15.340   5.350  1.00  0.00    -0.159 SA
ENDROOT
TORSDOF 0
ENDMDL
MODEL 4
REMARK VINA RESULT: -4.337631990      1.547      2.284
REMARK  0 active torsions:
REMARK  status: ('A' for Active; 'I' for Inactive)
ROOT
HETATM    1  C1  UNL     1      13.369 -17.233   2.882  1.00  0.00     0.118 C 
HETATM    2  C2  UNL     1      14.560 -17.569   3.676  1.00  0.00     0.073 C 
HETATM    3  N1  UNL     1      15.619 -16.647   3.718  1.00  0.00    -0.373 N 
HETATM    4  C3  UNL     1      15.992 -15.983   2.539  1.00  0.00     0.064 C 
HETATM    5  C4  UNL     1      15.567 -14.531   2.581  1.00  0.00     0.060 C 
HETATM    6  C5  UNL     1      14.290 -14.429   3.410  1.00  0.00     0.054 C 
HETATM    7  C6  UNL     1      14.536 -14.843   4.851  1.00  0.00     0.036 C 
HETATM    8  C7  UNL     1      15.646 -15.878   4.919  1.00  0.00     0.128 C 
HETATM    9  S1  UNL     1      13.074 -15.494   2.612  1.00  0.00    -0.159 SA
ENDROOT
TORSDOF 0
ENDMDL
MODEL 5
REMARK VINA RESULT: -4.300322687      1.303      1.648
REMARK  0 active torsions:
REMARK  status: ('A' for Active; 'I' for Inactive)
ROOT
HETATM    1  C1  UNL     1      15.250 -14.392   5.209  1.00  0.00     0.118 C 
HETATM    2  C2  UNL     1      14.769 -15.775   5.348  1.00  0.00     0.073 C 
HETATM    3  N1  UNL     1      14.143 -16.380   4.246  1.00  0.00    -0.373 N 
HETATM    4  C3  UNL     1      13.244 -15.627   3.476  1.00  0.00     0.064 C 
HETATM    5  C4  UNL     1      13.847 -15.278   2.132  1.00  0.00     0.060 C 
HETATM    6  C5  UNL     1      15.356 -15.136   2.306  1.00  0.00     0.054 C 
HETATM    7  C6  UNL     1      15.987 -16.453   2.727  1.00  0.00     0.036 C 
HETATM    8  C7  UNL     1      14.998 -17.275   3.537  1.00  0.00     0.128 C 
HETATM    9  S1  UNL     1      15.611 -13.853   3.547  1.00  0.00    -0.159 SA
ENDROOT
TORSDOF 0
ENDMDL
