MODEL 1
REMARK VINA RESULT: -5.462777928      0.000      0.000
REMARK  1 active torsions:
REMARK  status: ('A' for Active; 'I' for Inactive)
REMARK    1  A    between atoms: O1_2  and  C2_3 
ROOT
HETATM    1  C2  UNL     1      15.241 -15.116   3.893  1.00  0.00     0.123 C 
HETATM    2  C3  UNL     1      13.980 -14.684   3.184  1.00  0.00     0.052 C 
HETATM    3  C4  UNL     1      12.995 -15.764   2.974  1.00  0.00     0.019 C 
HETATM    4  C5  UNL     1      13.420 -17.129   2.746  1.00  0.00     0.103 C 
HETATM    5  N1  UNL     1      14.737 -17.535   3.146  1.00  0.00    -0.256 NA
HETATM    6  C6  UNL     1      14.816 -17.434   4.573  1.00  0.00     0.106 C 
HETATM    7  C7  UNL     1      14.916 -16.042   5.025  1.00  0.00     0.066 C 
HETATM    8  S1  UNL     1      15.963 -16.313   2.690  1.00  0.00    -0.043 SA
ENDROOT
BRANCH   1   9
HETATM    9  O1  UNL     1      16.126 -14.138   4.166  1.00  0.00    -0.373 OA
HETATM   10  C1  UNL     1      17.359 -14.203   3.585  1.00  0.00     0.204 C 
ENDBRANCH   1   9
TORSDOF 1
ENDMDL
MODEL 2
REMARK VINA RESULT: -5.256663252      2.245      3.405
REMARK  1 active torsions:
REMARK  status: ('A' for Active; 'I' for Inactive)
REMARK    1  A    between atoms: O1_2  and  C2_3 
ROOT
HETATM    1  C2  UNL     1      14.856 -16.710   3.450  1.00  0.00     0.123 C 
HETATM    2  C3  UNL     1      16.037 -16.043   2.787  1.00  0.00     0.052 C 
HETATM    3  C4  UNL     1      16.650 -14.956   3.577  1.00  0.00     0.019 C 
HETATM    4  C5  UNL     1      15.848 -14.119   4.444  1.00  0.00     0.103 C 
HETATM    5  N1  UNL     1      14.565 -14.586   4.887  1.00  0.00    -0.256 NA
HETATM    6  C6  UNL     1      14.775 -15.744   5.703  1.00  0.00     0.106 C 
HETATM    7  C7  UNL     1      15.126 -16.926   4.908  1.00  0.00     0.066 C 
HETATM    8  S1  UNL     1      13.640 -15.326   3.545  1.00  0.00    -0.043 SA
ENDROOT
BRANCH   1   9
HETATM    9  O1  UNL     1      14.323 -17.754   2.787  1.00  0.00    -0.373 OA
HETATM   10  C1  UNL     1      12.998 -17.704   2.464  1.00  0.00     0.204 C 
ENDBRANCH   1   9
TORSDOF 1
ENDMDL
MODEL 3
REMARK VINA RESULT: -5.212237898      1.696      2.808
REMARK  1 active torsions:
REMARK  status: ('A' for Active; 'I' for Inactive)
REMARK    1  A    between atoms: O1_2  and  C2_3 
ROOT
HETATM    1  C2  UNL     1      15.067 -15.943   4.804  1.00  0.00     0.123 C 
HETATM    2  C3  UNL     1      16.305 -15.154   4.453  1.00  0.00     0.052 C 
HETATM    3  C4  UNL     1      16.246 -14.468   3.148  1.00  0.00     0.019 C 
HETATM    4  C5  UNL     1      15.518 -15.042   2.035  1.00  0.00     0.103 C 
HETATM    5  N1  UNL     1      14.504 -16.026   2.286  1.00  0.00    -0.256 NA
HETATM    6  C6  UNL     1      13.457 -15.400   3.035  1.00  0.00     0.106 C 
HETATM    7  C7  UNL     1      13.834 -15.176   4.435  1.00  0.00     0.066 C 
HETATM    8  S1  UNL     1      15.052 -17.235   3.487  1.00  0.00    -0.043 SA
ENDROOT
BRANCH   1   9
HETATM    9  O1  UNL     1      15.061 -16.519   6.022  1.00  0.00    -0.373 OA
HETATM   10  C1  UNL     1      14.606 -15.786   7.080  1.00  0.00     0.204 C 
ENDBRANCH   1   9
TORSDOF 1
ENDMDL
MODEL 4
REMARK VINA RESULT: -5.093482023      1.937      3.399
REMARK  1 active torsions:
REMARK  status: ('A' for Active; 'I' for Inactive)
REMARK    1  A    between atoms: O1_2  and  C2_3 
ROOT
HETATM    1  C2  UNL     1      14.596 -16.843   3.894  1.00  0.00     0.123 C 
HETATM    2  C3  UNL     1      15.009 -16.353   5.261  1.00  0.00     0.052 C 
HETATM    3  C4  UNL     1      15.049 -14.884   5.401  1.00  0.00     0.019 C 
HETATM    4  C5  UNL     1      15.411 -14.037   4.284  1.00  0.00     0.103 C 
HETATM    5  N1  UNL     1      15.310 -14.549   2.947  1.00  0.00    -0.256 NA
HETATM    6  C6  UNL     1      13.928 -14.818   2.681  1.00  0.00     0.106 C 
HETATM    7  C7  UNL     1      13.456 -16.025   3.367  1.00  0.00     0.066 C 
HETATM    8  S1  UNL     1      15.967 -16.211   2.833  1.00  0.00    -0.043 SA
ENDROOT
BRANCH   1   9
HETATM    9  O1  UNL     1      14.479 -18.177   3.758  1.00  0.00    -0.373 OA
HETATM   10  C1  UNL     1      14.456 -18.941   4.889  1.00  0.00     0.204 C 
ENDBRANCH   1   9
TORSDOF 1
ENDMDL
MODEL 5
REMARK VINA RESULT: -4.967434633      1.984      3.527
REMARK  1 active torsions:
REMARK  status: ('A' for Active; 'I' for Inactive)
REMARK    1  A    between atoms: O1_2  and  C2_3 
ROOT
HETATM    1  C2  UNL     1      14.328 -16.757   3.476  1.00  0.00     0.123 C 
HETATM    2  C3  UNL     1      14.696 -16.817   4.939  1.00  0.00     0.052 C 
HETATM    3  C4  UNL     1      15.006 -15.509   5.548  1.00  0.00     0.019 C 
HETATM    4  C5  UNL     1      15.631 -14.455   4.776  1.00  0.00     0.103 C 
HETATM    5  N1  UNL     1      15.560 -14.492   3.343  1.00  0.00    -0.256 NA
HETATM    6  C6  UNL     1      14.184 -14.362   2.966  1.00  0.00     0.106 C 
HETATM    7  C7  UNL     1      13.423 -15.593   3.211  1.00  0.00     0.066 C 
HETATM    8  S1  UNL     1      15.889 -16.136   2.716  1.00  0.00    -0.043 SA
ENDROOT
BRANCH   1   9
HETATM    9  O1  UNL     1      13.967 -17.925   2.912  1.00  0.00    -0.373 OA
HETATM   10  C1  UNL     1      12.791 -17.972   2.221  1.00  0.00     0.204 C 
ENDBRANCH   1   9
TORSDOF 1
ENDMDL
