MODEL 1
REMARK VINA RESULT: -6.310520984      0.000      0.000
REMARK  3 active torsions:
REMARK  status: ('A' for Active; 'I' for Inactive)
REMARK    1  A    between atoms: C5_5  and  O1_6 
REMARK    2  A    between atoms: C5_5  and  C6_8 
REMARK    3  A    between atoms: C6_8  and  O2_11 
ROOT
HETATM    1  C1  UNL     1      17.949  30.205  28.415  1.00  0.00     0.021 C 
HETATM    2  C2  UNL     1      16.757  29.293  28.560  1.00  0.00     0.043 C 
HETATM    3  C3  UNL     1      15.454  30.039  28.274  1.00  0.00     0.018 C 
HETATM    4  C4  UNL     1      14.349  29.448  29.105  1.00  0.00     0.043 C 
HETATM    5  C5  UNL     1      14.300  30.022  30.506  1.00  0.00     0.096 C 
HETATM    6  C9  UNL     1      15.602  29.792  31.229  1.00  0.00     0.115 C 
HETATM    7  S1  UNL     1      16.614  28.644  30.249  1.00  0.00    -0.162 SA
ENDROOT
BRANCH   5   8
HETATM    8  O1  UNL     1      14.058  31.390  30.511  1.00  0.00    -0.386 OA
ATOM      9  H1  UNL     1      13.272  31.621  30.028  1.00  0.00     0.210 HD
ENDBRANCH   5   8
BRANCH   5  10
HETATM   10  C6  UNL     1      13.134  29.346  31.162  1.00  0.00     0.082 C 
HETATM   11  C7  UNL     1      12.641  30.246  32.276  1.00  0.00     0.049 C 
HETATM   12  C8  UNL     1      13.465  28.015  31.764  1.00  0.00     0.049 C 
BRANCH  10  13
HETATM   13  O2  UNL     1      12.120  29.227  30.197  1.00  0.00    -0.388 OA
ATOM     14  H2  UNL     1      11.934  28.301  30.095  1.00  0.00     0.210 HD
ENDBRANCH  10  13
ENDBRANCH   5  10
TORSDOF 3
ENDMDL
MODEL 2
REMARK VINA RESULT: -6.004189084      1.297      1.395
REMARK  3 active torsions:
REMARK  status: ('A' for Active; 'I' for Inactive)
REMARK    1  A    between atoms: C5_5  and  O1_6 
REMARK    2  A    between atoms: C5_5  and  C6_8 
REMARK    3  A    between atoms: C6_8  and  O2_11 
ROOT
HETATM    1  C1  UNL     1      17.002  30.005  28.855  1.00  0.00     0.021 C 
HETATM    2  C2  UNL     1      15.786  29.161  29.150  1.00  0.00     0.043 C 
HETATM    3  C3  UNL     1      14.498  29.942  28.892  1.00  0.00     0.018 C 
HETATM    4  C4  UNL     1      13.430  29.467  29.838  1.00  0.00     0.043 C 
HETATM    5  C5  UNL     1      13.501  30.149  31.189  1.00  0.00     0.096 C 
HETATM    6  C9  UNL     1      14.840  29.916  31.841  1.00  0.00     0.115 C 
HETATM    7  S1  UNL     1      15.735  28.651  30.891  1.00  0.00    -0.162 SA
ENDROOT
BRANCH   5   8
HETATM    8  O1  UNL     1      13.315  31.523  31.101  1.00  0.00    -0.386 OA
ATOM      9  H1  UNL     1      13.916  31.931  30.489  1.00  0.00     0.210 HD
ENDBRANCH   5   8
BRANCH   5  10
HETATM   10  C6  UNL     1      12.357  29.579  31.972  1.00  0.00     0.082 C 
HETATM   11  C7  UNL     1      12.903  29.061  33.286  1.00  0.00     0.049 C 
HETATM   12  C8  UNL     1      11.661  28.443  31.288  1.00  0.00     0.049 C 
BRANCH  10  13
HETATM   13  O2  UNL     1      11.465  30.631  32.238  1.00  0.00    -0.388 OA
ATOM     14  H2  UNL     1      11.528  30.829  33.166  1.00  0.00     0.210 HD
ENDBRANCH  10  13
ENDBRANCH   5  10
TORSDOF 3
ENDMDL
MODEL 3
REMARK VINA RESULT: -5.576059808      1.705      2.316
REMARK  3 active torsions:
REMARK  status: ('A' for Active; 'I' for Inactive)
REMARK    1  A    between atoms: C5_5  and  O1_6 
REMARK    2  A    between atoms: C5_5  and  C6_8 
REMARK    3  A    between atoms: C6_8  and  O2_11 
ROOT
HETATM    1  C1  UNL     1      16.814  28.488  29.551  1.00  0.00     0.021 C 
HETATM    2  C2  UNL     1      16.070  28.225  30.836  1.00  0.00     0.043 C 
HETATM    3  C3  UNL     1      14.742  27.518  30.570  1.00  0.00     0.018 C 
HETATM    4  C4  UNL     1      13.739  27.930  31.612  1.00  0.00     0.043 C 
HETATM    5  C5  UNL     1      13.044  29.233  31.271  1.00  0.00     0.096 C 
HETATM    6  C9  UNL     1      14.042  30.351  31.114  1.00  0.00     0.115 C 
HETATM    7  S1  UNL     1      15.661  29.770  31.699  1.00  0.00    -0.162 SA
ENDROOT
BRANCH   5   8
HETATM    8  O1  UNL     1      12.319  29.154  30.088  1.00  0.00    -0.386 OA
ATOM      9  H1  UNL     1      11.508  28.670  30.193  1.00  0.00     0.210 HD
ENDBRANCH   5   8
BRANCH   5  10
HETATM   10  C6  UNL     1      12.074  29.460  32.391  1.00  0.00     0.082 C 
HETATM   11  C7  UNL     1      12.423  30.779  33.047  1.00  0.00     0.049 C 
HETATM   12  C8  UNL     1      12.111  28.400  33.449  1.00  0.00     0.049 C 
BRANCH  10  13
HETATM   13  O2  UNL     1      10.794  29.563  31.823  1.00  0.00    -0.388 OA
ATOM     14  H2  UNL     1      10.711  28.868  31.181  1.00  0.00     0.210 HD
ENDBRANCH  10  13
ENDBRANCH   5  10
TORSDOF 3
ENDMDL
MODEL 4
REMARK VINA RESULT: -5.497491045      1.466      2.049
REMARK  3 active torsions:
REMARK  status: ('A' for Active; 'I' for Inactive)
REMARK    1  A    between atoms: C5_5  and  O1_6 
REMARK    2  A    between atoms: C5_5  and  C6_8 
REMARK    3  A    between atoms: C6_8  and  O2_11 
ROOT
HETATM    1  C1  UNL     1      17.756  29.236  28.270  1.00  0.00     0.021 C 
HETATM    2  C2  UNL     1      16.870  30.001  29.221  1.00  0.00     0.043 C 
HETATM    3  C3  UNL     1      16.741  29.275  30.559  1.00  0.00     0.018 C 
HETATM    4  C4  UNL     1      15.387  29.556  31.150  1.00  0.00     0.043 C 
HETATM    5  C5  UNL     1      14.312  28.633  30.614  1.00  0.00     0.096 C 
HETATM    6  C9  UNL     1      14.200  28.748  29.115  1.00  0.00     0.115 C 
HETATM    7  S1  UNL     1      15.185  30.175  28.569  1.00  0.00    -0.162 SA
ENDROOT
BRANCH   5   8
HETATM    8  O1  UNL     1      14.561  27.299  30.911  1.00  0.00    -0.386 OA
ATOM      9  H1  UNL     1      14.269  27.062  31.784  1.00  0.00     0.210 HD
ENDBRANCH   5   8
BRANCH   5  10
HETATM   10  C6  UNL     1      13.059  29.038  31.331  1.00  0.00     0.082 C 
HETATM   11  C7  UNL     1      13.281  30.419  31.911  1.00  0.00     0.049 C 
HETATM   12  C8  UNL     1      12.684  28.124  32.457  1.00  0.00     0.049 C 
BRANCH  10  13
HETATM   13  O2  UNL     1      12.032  29.110  30.375  1.00  0.00    -0.388 OA
ATOM     14  H2  UNL     1      11.216  29.236  30.845  1.00  0.00     0.210 HD
ENDBRANCH  10  13
ENDBRANCH   5  10
TORSDOF 3
ENDMDL
MODEL 5
REMARK VINA RESULT: -5.483641743      2.023      4.292
REMARK  3 active torsions:
REMARK  status: ('A' for Active; 'I' for Inactive)
REMARK    1  A    between atoms: C5_5  and  O1_6 
REMARK    2  A    between atoms: C5_5  and  C6_8 
REMARK    3  A    between atoms: C6_8  and  O2_11 
ROOT
HETATM    1  C1  UNL     1      11.281  29.200  32.140  1.00  0.00     0.021 C 
HETATM    2  C2  UNL     1      12.735  28.952  32.458  1.00  0.00     0.043 C 
HETATM    3  C3  UNL     1      13.575  30.203  32.206  1.00  0.00     0.018 C 
HETATM    4  C4  UNL     1      14.959  29.796  31.781  1.00  0.00     0.043 C 
HETATM    5  C5  UNL     1      15.054  29.507  30.297  1.00  0.00     0.096 C 
HETATM    6  C9  UNL     1      14.101  28.409  29.899  1.00  0.00     0.115 C 
HETATM    7  S1  UNL     1      13.434  27.646  31.408  1.00  0.00    -0.162 SA
ENDROOT
BRANCH   5   8
HETATM    8  O1  UNL     1      14.754  30.619  29.519  1.00  0.00    -0.386 OA
ATOM      9  H1  UNL     1      15.314  30.689  28.755  1.00  0.00     0.210 HD
ENDBRANCH   5   8
BRANCH   5  10
HETATM   10  C6  UNL     1      16.491  29.155  30.060  1.00  0.00     0.082 C 
HETATM   11  C7  UNL     1      17.258  29.450  31.332  1.00  0.00     0.049 C 
HETATM   12  C8  UNL     1      17.131  29.933  28.951  1.00  0.00     0.049 C 
BRANCH  10  13
HETATM   13  O2  UNL     1      16.550  27.774  29.809  1.00  0.00    -0.388 OA
ATOM     14  H2  UNL     1      15.659  27.472  29.674  1.00  0.00     0.210 HD
ENDBRANCH  10  13
ENDBRANCH   5  10
TORSDOF 3
ENDMDL
