MODEL 1
REMARK VINA RESULT: -6.173825590      0.000      0.000
REMARK  2 active torsions:
REMARK  status: ('A' for Active; 'I' for Inactive)
REMARK    1  A    between atoms: C3_3  and  C4_4 
REMARK    2  A    between atoms: C10_14  and  N2_15 
ROOT
HETATM    1  C4  UNL     1      15.757  28.943  29.521  1.00  0.00     0.046 C 
HETATM    2  C5  UNL     1      15.185  30.177  30.163  1.00  0.00     0.074 C 
HETATM    3  C6  UNL     1      13.954  29.905  30.932  1.00  0.00     0.041 C 
HETATM    4  N1  UNL     1      13.113  30.844  31.106  1.00  0.00    -0.397 N 
ATOM      5  H11 UNL     1      12.263  30.656  31.638  1.00  0.00     0.156 HD
ATOM      6  H12 UNL     1      13.338  31.752  30.698  1.00  0.00     0.156 HD
HETATM    7  S1  UNL     1      13.560  28.316  31.647  1.00  0.00    -0.106 SA
HETATM    8  C7  UNL     1      14.613  27.095  30.776  1.00  0.00     0.035 C 
HETATM    9  C8  UNL     1      13.862  26.699  29.542  1.00  0.00     0.029 C 
HETATM   10  C9  UNL     1      14.878  25.890  31.625  1.00  0.00     0.029 C 
HETATM   11  C10 UNL     1      15.902  27.803  30.508  1.00  0.00     0.209 C 
ENDROOT
BRANCH  11  12
HETATM   12  N2  UNL     1      16.379  28.321  31.777  1.00  0.00    -0.073 N 
ATOM     13  H23 UNL     1      16.178  29.315  31.889  1.00  0.00     0.274 HD
ATOM     14  H22 UNL     1      15.834  27.973  32.566  1.00  0.00     0.274 HD
ATOM     15  H21 UNL     1      17.373  28.115  31.876  1.00  0.00     0.274 HD
ENDBRANCH  11  12
BRANCH   1  16
HETATM   16  C3  UNL     1      17.046  29.187  28.851  1.00  0.00    -0.024 C 
HETATM   17  C2  UNL     1      17.281  30.166  27.992  1.00  0.00    -0.034 C 
HETATM   18  C1  UNL     1      18.581  30.402  27.324  1.00  0.00     0.036 C 
ENDBRANCH   1  16
TORSDOF 2
ENDMDL
MODEL 2
REMARK VINA RESULT: -5.736303910      1.453      3.078
REMARK  2 active torsions:
REMARK  status: ('A' for Active; 'I' for Inactive)
REMARK    1  A    between atoms: C3_3  and  C4_4 
REMARK    2  A    between atoms: C10_14  and  N2_15 
ROOT
HETATM    1  C4  UNL     1      16.333  28.540  29.846  1.00  0.00     0.046 C 
HETATM    2  C5  UNL     1      15.896  27.103  29.902  1.00  0.00     0.074 C 
HETATM    3  C6  UNL     1      14.914  26.844  30.975  1.00  0.00     0.041 C 
HETATM    4  N1  UNL     1      14.826  25.671  31.462  1.00  0.00    -0.397 N 
ATOM      5  H11 UNL     1      14.148  25.491  32.203  1.00  0.00     0.156 HD
ATOM      6  H12 UNL     1      15.448  24.959  31.078  1.00  0.00     0.156 HD
HETATM    7  S1  UNL     1      13.824  28.089  31.646  1.00  0.00    -0.106 SA
HETATM    8  C7  UNL     1      14.556  29.704  31.184  1.00  0.00     0.035 C 
HETATM    9  C8  UNL     1      15.552  30.034  32.253  1.00  0.00     0.029 C 
HETATM   10  C9  UNL     1      13.515  30.778  31.102  1.00  0.00     0.029 C 
HETATM   11  C10 UNL     1      15.155  29.494  29.831  1.00  0.00     0.209 C 
ENDROOT
BRANCH  11  12
HETATM   12  N2  UNL     1      14.111  28.957  28.977  1.00  0.00    -0.073 N 
ATOM     13  H23 UNL     1      13.390  28.469  29.509  1.00  0.00     0.274 HD
ATOM     14  H22 UNL     1      13.525  29.689  28.576  1.00  0.00     0.274 HD
ATOM     15  H21 UNL     1      14.531  28.364  28.260  1.00  0.00     0.274 HD
ENDBRANCH  11  12
BRANCH   1  16
HETATM   16  C3  UNL     1      17.220  28.829  28.707  1.00  0.00    -0.024 C 
HETATM   17  C2  UNL     1      17.776  30.004  28.456  1.00  0.00    -0.034 C 
HETATM   18  C1  UNL     1      18.668  30.283  27.308  1.00  0.00     0.036 C 
ENDBRANCH   1  16
TORSDOF 2
ENDMDL
MODEL 3
REMARK VINA RESULT: -5.557469399      1.788      3.167
REMARK  2 active torsions:
REMARK  status: ('A' for Active; 'I' for Inactive)
REMARK    1  A    between atoms: C3_3  and  C4_4 
REMARK    2  A    between atoms: C10_14  and  N2_15 
ROOT
HETATM    1  C4  UNL     1      15.329  28.732  30.567  1.00  0.00     0.046 C 
HETATM    2  C5  UNL     1      15.725  27.284  30.629  1.00  0.00     0.074 C 
HETATM    3  C6  UNL     1      14.836  26.483  31.495  1.00  0.00     0.041 C 
HETATM    4  N1  UNL     1      15.288  25.420  32.032  1.00  0.00    -0.397 N 
ATOM      5  H11 UNL     1      14.673  24.867  32.630  1.00  0.00     0.156 HD
ATOM      6  H12 UNL     1      16.257  25.174  31.831  1.00  0.00     0.156 HD
HETATM    7  S1  UNL     1      13.139  26.915  31.846  1.00  0.00    -0.106 SA
HETATM    8  C7  UNL     1      12.974  28.693  31.433  1.00  0.00     0.035 C 
HETATM    9  C8  UNL     1      13.394  29.447  32.658  1.00  0.00     0.029 C 
HETATM   10  C9  UNL     1      11.565  29.046  31.070  1.00  0.00     0.029 C 
HETATM   11  C10 UNL     1      13.858  28.908  30.248  1.00  0.00     0.209 C 
ENDROOT
BRANCH  11  12
HETATM   12  N2  UNL     1      13.466  27.942  29.238  1.00  0.00    -0.073 N 
ATOM     13  H23 UNL     1      14.022  28.025  28.387  1.00  0.00     0.274 HD
ATOM     14  H22 UNL     1      13.729  26.990  29.491  1.00  0.00     0.274 HD
ATOM     15  H21 UNL     1      12.466  28.029  29.055  1.00  0.00     0.274 HD
ENDBRANCH  11  12
BRANCH   1  16
HETATM   16  C3  UNL     1      16.140  29.511  29.615  1.00  0.00    -0.024 C 
HETATM   17  C2  UNL     1      17.381  29.218  29.257  1.00  0.00    -0.034 C 
HETATM   18  C1  UNL     1      18.187  30.007  28.299  1.00  0.00     0.036 C 
ENDBRANCH   1  16
TORSDOF 2
ENDMDL
MODEL 4
REMARK VINA RESULT: -5.517638704      2.089      4.556
REMARK  2 active torsions:
REMARK  status: ('A' for Active; 'I' for Inactive)
REMARK    1  A    between atoms: C3_3  and  C4_4 
REMARK    2  A    between atoms: C10_14  and  N2_15 
ROOT
HETATM    1  C4  UNL     1      13.148  27.505  30.524  1.00  0.00     0.046 C 
HETATM    2  C5  UNL     1      12.314  28.399  31.399  1.00  0.00     0.074 C 
HETATM    3  C6  UNL     1      13.123  29.376  32.155  1.00  0.00     0.041 C 
HETATM    4  N1  UNL     1      12.669  29.840  33.250  1.00  0.00    -0.397 N 
ATOM      5  H11 UNL     1      13.228  30.515  33.772  1.00  0.00     0.156 HD
ATOM      6  H12 UNL     1      11.754  29.506  33.553  1.00  0.00     0.156 HD
HETATM    7  S1  UNL     1      14.725  29.961  31.625  1.00  0.00    -0.106 SA
HETATM    8  C7  UNL     1      15.327  28.743  30.395  1.00  0.00     0.035 C 
HETATM    9  C8  UNL     1      16.007  27.661  31.177  1.00  0.00     0.029 C 
HETATM   10  C9  UNL     1      16.290  29.363  29.430  1.00  0.00     0.029 C 
HETATM   11  C10 UNL     1      14.109  28.292  29.656  1.00  0.00     0.209 C 
ENDROOT
BRANCH  11  12
HETATM   12  N2  UNL     1      13.444  29.482  29.157  1.00  0.00    -0.073 N 
ATOM     13  H23 UNL     1      13.108  29.364  28.201  1.00  0.00     0.274 HD
ATOM     14  H22 UNL     1      12.544  29.638  29.609  1.00  0.00     0.274 HD
ATOM     15  H21 UNL     1      14.068  30.283  29.251  1.00  0.00     0.274 HD
ENDBRANCH  11  12
BRANCH   1  16
HETATM   16  C3  UNL     1      12.339  26.607  29.681  1.00  0.00    -0.024 C 
HETATM   17  C2  UNL     1      11.056  26.342  29.868  1.00  0.00    -0.034 C 
HETATM   18  C1  UNL     1      10.251  25.439  29.014  1.00  0.00     0.036 C 
ENDBRANCH   1  16
TORSDOF 2
ENDMDL
MODEL 5
REMARK VINA RESULT: -5.314954818      2.415      3.609
REMARK  2 active torsions:
REMARK  status: ('A' for Active; 'I' for Inactive)
REMARK    1  A    between atoms: C3_3  and  C4_4 
REMARK    2  A    between atoms: C10_14  and  N2_15 
ROOT
HETATM    1  C4  UNL     1      14.432  27.850  31.032  1.00  0.00     0.046 C 
HETATM    2  C5  UNL     1      14.215  27.029  29.792  1.00  0.00     0.074 C 
HETATM    3  C6  UNL     1      12.896  26.363  29.769  1.00  0.00     0.041 C 
HETATM    4  N1  UNL     1      12.753  25.297  29.088  1.00  0.00    -0.397 N 
ATOM      5  H11 UNL     1      11.843  24.838  29.072  1.00  0.00     0.156 HD
ATOM      6  H12 UNL     1      13.571  24.954  28.584  1.00  0.00     0.156 HD
HETATM    7  S1  UNL     1      11.465  26.965  30.650  1.00  0.00    -0.106 SA
HETATM    8  C7  UNL     1      12.103  28.111  31.930  1.00  0.00     0.035 C 
HETATM    9  C8  UNL     1      12.447  27.264  33.116  1.00  0.00     0.029 C 
HETATM   10  C9  UNL     1      11.081  29.138  32.311  1.00  0.00     0.029 C 
HETATM   11  C10 UNL     1      13.276  28.792  31.302  1.00  0.00     0.209 C 
ENDROOT
BRANCH  11  12
HETATM   12  N2  UNL     1      12.819  29.366  30.049  1.00  0.00    -0.073 N 
ATOM     13  H23 UNL     1      13.591  29.579  29.418  1.00  0.00     0.274 HD
ATOM     14  H22 UNL     1      12.338  28.683  29.465  1.00  0.00     0.274 HD
ATOM     15  H21 UNL     1      12.241  30.184  30.242  1.00  0.00     0.274 HD
ENDBRANCH  11  12
BRANCH   1  16
HETATM   16  C3  UNL     1      15.694  28.609  31.006  1.00  0.00    -0.024 C 
HETATM   17  C2  UNL     1      16.466  28.763  29.942  1.00  0.00    -0.034 C 
HETATM   18  C1  UNL     1      17.733  29.528  29.927  1.00  0.00     0.036 C 
ENDBRANCH   1  16
TORSDOF 2
ENDMDL
