MODEL 1
REMARK VINA RESULT: -8.530302343      0.000      0.000
REMARK  2 active torsions:
REMARK  status: ('A' for Active; 'I' for Inactive)
REMARK    1  A    between atoms: C8_9  and  N1_10 
REMARK    2  A    between atoms: C11_13  and  C12_14 
ROOT
HETATM    1  N1  UNL     1      47.651  47.648 -17.255  1.00  0.00    -0.371 N 
HETATM    2  C9  UNL     1      48.702  46.819 -16.517  1.00  0.00     0.126 C 
HETATM    3  C10 UNL     1      47.886  47.261 -15.289  1.00  0.00     0.050 C 
HETATM    4  C11 UNL     1      46.767  47.027 -16.333  1.00  0.00     0.127 C 
ENDROOT
BRANCH   1   5
HETATM    5  C8  UNL     1      48.033  48.458 -18.347  1.00  0.00     0.043 A 
HETATM    6  C2  UNL     1      48.603  49.716 -18.270  1.00  0.00    -0.033 A 
HETATM    7  C1  UNL     1      48.864  50.308 -16.931  1.00  0.00     0.050 C 
HETATM    8  C3  UNL     1      48.977  50.429 -19.395  1.00  0.00     0.033 A 
HETATM    9  C4  UNL     1      48.799  49.918 -20.634  1.00  0.00     0.035 A 
HETATM   10 CL1  UNL     1      49.304  50.814 -22.078  1.00  0.00    -0.084 Cl
HETATM   11  C5  UNL     1      48.231  48.660 -20.756  1.00  0.00     0.033 A 
HETATM   12  C6  UNL     1      47.861  47.955 -19.644  1.00  0.00    -0.033 A 
HETATM   13  C7  UNL     1      47.196  46.629 -19.836  1.00  0.00     0.050 C 
ENDBRANCH   1   5
BRANCH   4  14
HETATM   14  C12 UNL     1      45.541  47.617 -15.880  1.00  0.00     0.058 A 
HETATM   15  C13 UNL     1      44.497  46.790 -15.401  1.00  0.00     0.036 A 
HETATM   16  C14 UNL     1      44.605  45.309 -15.118  1.00  0.00     0.070 C 
HETATM   17  N2  UNL     1      43.431  47.529 -15.156  1.00  0.00    -0.302 N 
HETATM   18  N3  UNL     1      43.683  48.804 -15.432  1.00  0.00    -0.266 N 
ATOM     19  H2  UNL     1      42.542  47.173 -14.805  1.00  0.00     0.186 HD
HETATM   20  C15 UNL     1      44.976  48.874 -15.880  1.00  0.00     0.270 A 
ATOM     21  H3  UNL     1      43.035  49.584 -15.329  1.00  0.00     0.190 HD
HETATM   22  O1  UNL     1      45.520  49.914 -16.229  1.00  0.00    -0.266 OA
ENDBRANCH   4  14
TORSDOF 2
ENDMDL
MODEL 2
REMARK VINA RESULT: -8.289337766      0.271      1.908
REMARK  2 active torsions:
REMARK  status: ('A' for Active; 'I' for Inactive)
REMARK    1  A    between atoms: C8_9  and  N1_10 
REMARK    2  A    between atoms: C11_13  and  C12_14 
ROOT
HETATM    1  N1  UNL     1      47.651  47.723 -17.384  1.00  0.00    -0.371 N 
HETATM    2  C9  UNL     1      48.681  46.882 -16.631  1.00  0.00     0.126 C 
HETATM    3  C10 UNL     1      47.929  47.433 -15.407  1.00  0.00     0.050 C 
HETATM    4  C11 UNL     1      46.767  47.201 -16.402  1.00  0.00     0.127 C 
ENDROOT
BRANCH   1   5
HETATM    5  C8  UNL     1      48.038  48.449 -18.531  1.00  0.00     0.043 A 
HETATM    6  C2  UNL     1      47.823  48.074 -19.845  1.00  0.00    -0.033 A 
HETATM    7  C1  UNL     1      47.112  46.797 -20.122  1.00  0.00     0.050 C 
HETATM    8  C3  UNL     1      48.209  48.864 -20.913  1.00  0.00     0.033 A 
HETATM    9  C4  UNL     1      48.820  50.053 -20.715  1.00  0.00     0.035 A 
HETATM   10 CL1  UNL     1      49.290  51.084 -22.078  1.00  0.00    -0.084 Cl
HETATM   11  C5  UNL     1      49.056  50.467 -19.414  1.00  0.00     0.033 A 
HETATM   12  C6  UNL     1      48.675  49.685 -18.357  1.00  0.00    -0.033 A 
HETATM   13  C7  UNL     1      49.009  50.152 -16.975  1.00  0.00     0.050 C 
ENDBRANCH   1   5
BRANCH   4  14
HETATM   14  C12 UNL     1      45.587  47.880 -15.948  1.00  0.00     0.058 A 
HETATM   15  C13 UNL     1      44.499  47.133 -15.438  1.00  0.00     0.036 A 
HETATM   16  C14 UNL     1      44.514  45.655 -15.123  1.00  0.00     0.070 C 
HETATM   17  N2  UNL     1      43.487  47.945 -15.197  1.00  0.00    -0.302 N 
HETATM   18  N3  UNL     1      43.817  49.195 -15.504  1.00  0.00    -0.266 N 
ATOM     19  H2  UNL     1      42.581  47.655 -14.827  1.00  0.00     0.186 HD
HETATM   20  C15 UNL     1      45.106  49.171 -15.969  1.00  0.00     0.270 A 
ATOM     21  H3  UNL     1      43.222  50.018 -15.412  1.00  0.00     0.190 HD
HETATM   22  O1  UNL     1      45.711  50.165 -16.348  1.00  0.00    -0.266 OA
ENDBRANCH   4  14
TORSDOF 2
ENDMDL
MODEL 3
REMARK VINA RESULT: -7.784987668      3.261      5.952
REMARK  2 active torsions:
REMARK  status: ('A' for Active; 'I' for Inactive)
REMARK    1  A    between atoms: C8_9  and  N1_10 
REMARK    2  A    between atoms: C11_13  and  C12_14 
ROOT
HETATM    1  N1  UNL     1      47.961  49.063 -17.369  1.00  0.00    -0.371 N 
HETATM    2  C9  UNL     1      48.964  50.105 -16.875  1.00  0.00     0.126 C 
HETATM    3  C10 UNL     1      49.763  49.609 -18.092  1.00  0.00     0.050 C 
HETATM    4  C11 UNL     1      48.317  49.581 -18.643  1.00  0.00     0.127 C 
ENDROOT
BRANCH   1   5
HETATM    5  C8  UNL     1      47.261  48.263 -16.440  1.00  0.00     0.043 A 
HETATM    6  C2  UNL     1      46.075  48.593 -15.811  1.00  0.00    -0.033 A 
HETATM    7  C1  UNL     1      45.436  49.901 -16.118  1.00  0.00     0.050 C 
HETATM    8  C3  UNL     1      45.438  47.733 -14.934  1.00  0.00     0.033 A 
HETATM    9  C4  UNL     1      45.955  46.517 -14.653  1.00  0.00     0.035 A 
HETATM   10 CL1  UNL     1      45.128  45.398 -13.554  1.00  0.00    -0.084 Cl
HETATM   11  C5  UNL     1      47.143  46.146 -15.262  1.00  0.00     0.033 A 
HETATM   12  C6  UNL     1      47.773  46.996 -16.128  1.00  0.00    -0.033 A 
HETATM   13  C7  UNL     1      49.085  46.570 -16.710  1.00  0.00     0.050 C 
ENDBRANCH   1   5
BRANCH   4  14
HETATM   14  C12 UNL     1      48.268  48.819 -19.858  1.00  0.00     0.058 A 
HETATM   15  C13 UNL     1      48.605  49.434 -21.087  1.00  0.00     0.036 A 
HETATM   16  C14 UNL     1      49.223  50.803 -21.249  1.00  0.00     0.070 C 
HETATM   17  N2  UNL     1      48.374  48.589 -22.075  1.00  0.00    -0.302 N 
HETATM   18  N3  UNL     1      47.907  47.441 -21.598  1.00  0.00    -0.266 N 
ATOM     19  H2  UNL     1      48.531  48.790 -23.063  1.00  0.00     0.186 HD
HETATM   20  C15 UNL     1      47.835  47.567 -20.236  1.00  0.00     0.270 A 
ATOM     21  H3  UNL     1      47.651  46.618 -22.144  1.00  0.00     0.190 HD
HETATM   22  O1  UNL     1      47.434  46.682 -19.491  1.00  0.00    -0.266 OA
ENDBRANCH   4  14
TORSDOF 2
ENDMDL
MODEL 4
REMARK VINA RESULT: -7.519521843      3.280      6.078
REMARK  2 active torsions:
REMARK  status: ('A' for Active; 'I' for Inactive)
REMARK    1  A    between atoms: C8_9  and  N1_10 
REMARK    2  A    between atoms: C11_13  and  C12_14 
ROOT
HETATM    1  N1  UNL     1      47.992  49.008 -17.352  1.00  0.00    -0.371 N 
HETATM    2  C9  UNL     1      48.980  50.046 -16.821  1.00  0.00     0.126 C 
HETATM    3  C10 UNL     1      49.788  49.603 -18.052  1.00  0.00     0.050 C 
HETATM    4  C11 UNL     1      48.343  49.574 -18.607  1.00  0.00     0.127 C 
ENDROOT
BRANCH   1   5
HETATM    5  C8  UNL     1      47.301  48.167 -16.453  1.00  0.00     0.043 A 
HETATM    6  C2  UNL     1      47.691  46.900 -16.058  1.00  0.00    -0.033 A 
HETATM    7  C1  UNL     1      48.955  46.333 -16.599  1.00  0.00     0.050 C 
HETATM    8  C3  UNL     1      46.968  46.155 -15.143  1.00  0.00     0.033 A 
HETATM    9  C4  UNL     1      45.835  46.641 -14.590  1.00  0.00     0.035 A 
HETATM   10 CL1  UNL     1      44.920  45.704 -13.395  1.00  0.00    -0.084 Cl
HETATM   11  C5  UNL     1      45.408  47.907 -14.958  1.00  0.00     0.033 A 
HETATM   12  C6  UNL     1      46.123  48.643 -15.863  1.00  0.00    -0.033 A 
HETATM   13  C7  UNL     1      45.584  49.978 -16.272  1.00  0.00     0.050 C 
ENDBRANCH   1   5
BRANCH   4  14
HETATM   14  C12 UNL     1      48.306  48.855 -19.847  1.00  0.00     0.058 A 
HETATM   15  C13 UNL     1      48.634  49.517 -21.054  1.00  0.00     0.036 A 
HETATM   16  C14 UNL     1      49.232  50.900 -21.167  1.00  0.00     0.070 C 
HETATM   17  N2  UNL     1      48.416  48.704 -22.071  1.00  0.00    -0.302 N 
HETATM   18  N3  UNL     1      47.967  47.532 -21.635  1.00  0.00    -0.266 N 
ATOM     19  H2  UNL     1      48.571  48.941 -23.051  1.00  0.00     0.186 HD
HETATM   20  C15 UNL     1      47.892  47.610 -20.269  1.00  0.00     0.270 A 
ATOM     21  H3  UNL     1      47.723  46.726 -22.210  1.00  0.00     0.190 HD
HETATM   22  O1  UNL     1      47.503  46.694 -19.555  1.00  0.00    -0.266 OA
ENDBRANCH   4  14
TORSDOF 2
ENDMDL
MODEL 5
REMARK VINA RESULT: -7.399531115      1.580      2.561
REMARK  2 active torsions:
REMARK  status: ('A' for Active; 'I' for Inactive)
REMARK    1  A    between atoms: C8_9  and  N1_10 
REMARK    2  A    between atoms: C11_13  and  C12_14 
ROOT
HETATM    1  N1  UNL     1      48.557  47.668 -18.743  1.00  0.00    -0.371 N 
HETATM    2  C9  UNL     1      49.330  46.350 -18.750  1.00  0.00     0.126 C 
HETATM    3  C10 UNL     1      49.078  46.433 -17.235  1.00  0.00     0.050 C 
HETATM    4  C11 UNL     1      47.745  46.984 -17.799  1.00  0.00     0.127 C 
ENDROOT
BRANCH   1   5
HETATM    5  C8  UNL     1      48.959  48.725 -19.588  1.00  0.00     0.043 A 
HETATM    6  C2  UNL     1      48.577  48.906 -20.905  1.00  0.00    -0.033 A 
HETATM    7  C1  UNL     1      47.650  47.924 -21.528  1.00  0.00     0.050 C 
HETATM    8  C3  UNL     1      48.995  49.992 -21.655  1.00  0.00     0.033 A 
HETATM    9  C4  UNL     1      49.804  50.934 -21.122  1.00  0.00     0.035 A 
HETATM   10 CL1  UNL     1      50.318  52.343 -22.067  1.00  0.00    -0.084 Cl
HETATM   11  C5  UNL     1      50.211  50.791 -19.806  1.00  0.00     0.033 A 
HETATM   12  C6  UNL     1      49.798  49.717 -19.065  1.00  0.00    -0.033 A 
HETATM   13  C7  UNL     1      50.317  49.580 -17.669  1.00  0.00     0.050 C 
ENDBRANCH   1   5
BRANCH   4  14
HETATM   14  C12 UNL     1      47.004  47.638 -16.760  1.00  0.00     0.058 A 
HETATM   15  C13 UNL     1      46.153  46.881 -15.920  1.00  0.00     0.036 A 
HETATM   16  C14 UNL     1      46.082  45.372 -15.865  1.00  0.00     0.070 C 
HETATM   17  N2  UNL     1      45.485  47.697 -15.125  1.00  0.00    -0.302 N 
HETATM   18  N3  UNL     1      45.830  48.957 -15.366  1.00  0.00    -0.266 N 
ATOM     19  H2  UNL     1      44.803  47.402 -14.427  1.00  0.00     0.186 HD
HETATM   20  C15 UNL     1      46.763  48.937 -16.370  1.00  0.00     0.270 A 
ATOM     21  H3  UNL     1      45.469  49.784 -14.891  1.00  0.00     0.190 HD
HETATM   22  O1  UNL     1      47.282  49.944 -16.837  1.00  0.00    -0.266 OA
ENDBRANCH   4  14
TORSDOF 2
ENDMDL
