MODEL 1
REMARK VINA RESULT: -6.388574587      0.000      0.000
REMARK  2 active torsions:
REMARK  status: ('A' for Active; 'I' for Inactive)
REMARK       I    between atoms: C2_2  and  N1_4 
REMARK    1  A    between atoms: N1_4  and  C3_6 
REMARK    2  A    between atoms: C8_15  and  C9_16 
REMARK       I    between atoms: C9_16  and  N2_18 
ROOT
HETATM    1  C3  UNL     1     -44.587  15.030   7.847  1.00  0.00     0.094 A 
HETATM    2  S1  UNL     1     -44.539  13.866   6.635  1.00  0.00    -0.063 SA
HETATM    3  C4  UNL     1     -45.482  12.695   7.437  1.00  0.00     0.062 A 
HETATM    4  S2  UNL     1     -46.196  11.129   7.287  1.00  0.00    -0.068 SA
HETATM    5  C5  UNL     1     -46.962  11.140   8.773  1.00  0.00     0.098 A 
HETATM    6 CL1  UNL     1     -47.981   9.856   9.488  1.00  0.00    -0.074 Cl
HETATM    7  C6  UNL     1     -46.653  12.348   9.359  1.00  0.00     0.075 A 
HETATM    8 CL2  UNL     1     -47.548  12.592  10.911  1.00  0.00    -0.081 Cl
HETATM    9  C7  UNL     1     -45.842  13.216   8.662  1.00  0.00     0.030 A 
HETATM   10  C8  UNL     1     -45.339  14.514   8.890  1.00  0.00     0.081 A 
ENDROOT
BRANCH   1  11
HETATM   11  N1  UNL     1     -43.904  16.298   7.735  1.00  0.00    -0.321 N 
HETATM   12  C2  UNL     1     -42.544  16.375   8.101  1.00  0.00     0.218 C 
HETATM   13  C1  UNL     1     -41.835  17.648   7.994  1.00  0.00     0.117 C 
HETATM   14  O1  UNL     1     -41.950  15.363   8.511  1.00  0.00    -0.274 OA
ATOM     15  H1  UNL     1     -44.398  17.124   7.397  1.00  0.00     0.169 HD
ENDBRANCH   1  11
BRANCH  10  16
HETATM   16  C9  UNL     1     -45.565  15.426  10.014  1.00  0.00     0.269 C 
HETATM   17  O2  UNL     1     -44.571  15.736  10.789  1.00  0.00    -0.266 OA
HETATM   18  N2  UNL     1     -46.748  16.025  10.419  1.00  0.00    -0.265 N 
HETATM   19 CL3  UNL     1     -46.746  17.135  11.820  1.00  0.00     0.013 Cl
ATOM     20  H2  UNL     1     -47.616  15.832   9.920  1.00  0.00     0.183 HD
ENDBRANCH  10  16
TORSDOF 2
ENDMDL
MODEL 2
REMARK VINA RESULT: -6.302789153      3.276      4.149
REMARK  2 active torsions:
REMARK  status: ('A' for Active; 'I' for Inactive)
REMARK       I    between atoms: C2_2  and  N1_4 
REMARK    1  A    between atoms: N1_4  and  C3_6 
REMARK    2  A    between atoms: C8_15  and  C9_16 
REMARK       I    between atoms: C9_16  and  N2_18 
ROOT
HETATM    1  C3  UNL     1     -46.518  13.322  10.196  1.00  0.00     0.094 A 
HETATM    2  S1  UNL     1     -47.612  12.184  10.775  1.00  0.00    -0.063 SA
HETATM    3  C4  UNL     1     -47.481  11.093   9.473  1.00  0.00     0.062 A 
HETATM    4  S2  UNL     1     -48.013   9.564   8.868  1.00  0.00    -0.068 SA
HETATM    5  C5  UNL     1     -47.075   9.585   7.484  1.00  0.00     0.098 A 
HETATM    6 CL1  UNL     1     -46.984   8.338   6.204  1.00  0.00    -0.074 Cl
HETATM    7  C6  UNL     1     -46.371  10.768   7.512  1.00  0.00     0.075 A 
HETATM    8 CL2  UNL     1     -45.172  10.871   6.162  1.00  0.00    -0.081 Cl
HETATM    9  C7  UNL     1     -46.574  11.618   8.577  1.00  0.00     0.030 A 
HETATM   10  C8  UNL     1     -46.043  12.861   8.979  1.00  0.00     0.081 A 
ENDROOT
BRANCH   1  11
HETATM   11  N1  UNL     1     -46.223  14.546  10.903  1.00  0.00    -0.321 N 
HETATM   12  C2  UNL     1     -47.005  15.691  10.640  1.00  0.00     0.218 C 
HETATM   13  C1  UNL     1     -46.722  16.940  11.346  1.00  0.00     0.117 C 
HETATM   14  O1  UNL     1     -47.930  15.638   9.813  1.00  0.00    -0.274 OA
ATOM     15  H1  UNL     1     -45.462  14.583  11.581  1.00  0.00     0.169 HD
ENDBRANCH   1  11
BRANCH  10  16
HETATM   16  C9  UNL     1     -45.006  13.687   8.355  1.00  0.00     0.269 C 
HETATM   17  O2  UNL     1     -43.843  13.780   8.923  1.00  0.00    -0.266 OA
HETATM   18  N2  UNL     1     -45.085  14.448   7.199  1.00  0.00    -0.265 N 
HETATM   19 CL3  UNL     1     -43.649  15.347   6.629  1.00  0.00     0.013 Cl
ATOM     20  H2  UNL     1     -45.959  14.495   6.676  1.00  0.00     0.183 HD
ENDBRANCH  10  16
TORSDOF 2
ENDMDL
MODEL 3
REMARK VINA RESULT: -6.289306526      1.671      1.803
REMARK  2 active torsions:
REMARK  status: ('A' for Active; 'I' for Inactive)
REMARK       I    between atoms: C2_2  and  N1_4 
REMARK    1  A    between atoms: N1_4  and  C3_6 
REMARK    2  A    between atoms: C8_15  and  C9_16 
REMARK       I    between atoms: C9_16  and  N2_18 
ROOT
HETATM    1  C3  UNL     1     -43.744  15.512   8.411  1.00  0.00     0.094 A 
HETATM    2  S1  UNL     1     -43.659  15.266   6.750  1.00  0.00    -0.063 SA
HETATM    3  C4  UNL     1     -44.579  13.833   6.707  1.00  0.00     0.062 A 
HETATM    4  S2  UNL     1     -45.255  12.634   5.663  1.00  0.00    -0.068 SA
HETATM    5  C5  UNL     1     -46.032  11.769   6.864  1.00  0.00     0.098 A 
HETATM    6 CL1  UNL     1     -47.025  10.293   6.683  1.00  0.00    -0.074 Cl
HETATM    7  C6  UNL     1     -45.756  12.419   8.048  1.00  0.00     0.075 A 
HETATM    8 CL2  UNL     1     -46.669  11.705   9.436  1.00  0.00    -0.081 Cl
HETATM    9  C7  UNL     1     -44.961  13.542   7.999  1.00  0.00     0.030 A 
HETATM   10  C8  UNL     1     -44.491  14.475   8.947  1.00  0.00     0.081 A 
ENDROOT
BRANCH   1  11
HETATM   11  N1  UNL     1     -43.091  16.620   9.068  1.00  0.00    -0.321 N 
HETATM   12  C2  UNL     1     -41.709  16.534   9.338  1.00  0.00     0.218 C 
HETATM   13  C1  UNL     1     -41.030  17.646  10.002  1.00  0.00     0.117 C 
HETATM   14  O1  UNL     1     -41.072  15.518   9.013  1.00  0.00    -0.274 OA
ATOM     15  H1  UNL     1     -43.620  17.451   9.331  1.00  0.00     0.169 HD
ENDBRANCH   1  11
BRANCH  10  16
HETATM   16  C9  UNL     1     -44.747  14.564  10.386  1.00  0.00     0.269 C 
HETATM   17  O2  UNL     1     -43.767  14.380  11.217  1.00  0.00    -0.266 OA
HETATM   18  N2  UNL     1     -45.947  14.802  11.040  1.00  0.00    -0.265 N 
HETATM   19 CL3  UNL     1     -45.983  14.894  12.824  1.00  0.00     0.013 Cl
ATOM     20  H2  UNL     1     -46.806  14.923  10.504  1.00  0.00     0.183 HD
ENDBRANCH  10  16
TORSDOF 2
ENDMDL
MODEL 4
REMARK VINA RESULT: -6.248683095      1.353      1.531
REMARK  2 active torsions:
REMARK  status: ('A' for Active; 'I' for Inactive)
REMARK       I    between atoms: C2_2  and  N1_4 
REMARK    1  A    between atoms: N1_4  and  C3_6 
REMARK    2  A    between atoms: C8_15  and  C9_16 
REMARK       I    between atoms: C9_16  and  N2_18 
ROOT
HETATM    1  C3  UNL     1     -45.192  13.948   7.393  1.00  0.00     0.094 A 
HETATM    2  S1  UNL     1     -44.914  12.880   6.124  1.00  0.00    -0.063 SA
HETATM    3  C4  UNL     1     -45.717  11.540   6.804  1.00  0.00     0.062 A 
HETATM    4  S2  UNL     1     -46.188   9.902   6.527  1.00  0.00    -0.068 SA
HETATM    5  C5  UNL     1     -47.022   9.710   7.964  1.00  0.00     0.098 A 
HETATM    6 CL1  UNL     1     -47.879   8.253   8.546  1.00  0.00    -0.074 Cl
HETATM    7  C6  UNL     1     -46.921  10.911   8.632  1.00  0.00     0.075 A 
HETATM    8 CL2  UNL     1     -47.920  10.929  10.139  1.00  0.00    -0.081 Cl
HETATM    9  C7  UNL     1     -46.210  11.928   8.032  1.00  0.00     0.030 A 
HETATM   10  C8  UNL     1     -45.913  13.267   8.360  1.00  0.00     0.081 A 
ENDROOT
BRANCH   1  11
HETATM   11  N1  UNL     1     -44.695  15.304   7.391  1.00  0.00    -0.321 N 
HETATM   12  C2  UNL     1     -43.431  15.569   7.960  1.00  0.00     0.218 C 
HETATM   13  C1  UNL     1     -42.911  16.935   7.967  1.00  0.00     0.117 C 
HETATM   14  O1  UNL     1     -42.764  14.644   8.453  1.00  0.00    -0.274 OA
ATOM     15  H1  UNL     1     -45.249  16.059   6.984  1.00  0.00     0.169 HD
ENDBRANCH   1  11
BRANCH  10  16
HETATM   16  C9  UNL     1     -46.325  14.065   9.517  1.00  0.00     0.269 C 
HETATM   17  O2  UNL     1     -45.465  14.308  10.459  1.00  0.00    -0.266 OA
HETATM   18  N2  UNL     1     -47.568  14.614   9.792  1.00  0.00    -0.265 N 
HETATM   19 CL3  UNL     1     -47.801  15.585  11.274  1.00  0.00     0.013 Cl
ATOM     20  H2  UNL     1     -48.347  14.464   9.151  1.00  0.00     0.183 HD
ENDBRANCH  10  16
TORSDOF 2
ENDMDL
MODEL 5
REMARK VINA RESULT: -6.213601712      1.990      2.489
REMARK  2 active torsions:
REMARK  status: ('A' for Active; 'I' for Inactive)
REMARK       I    between atoms: C2_2  and  N1_4 
REMARK    1  A    between atoms: N1_4  and  C3_6 
REMARK    2  A    between atoms: C8_15  and  C9_16 
REMARK       I    between atoms: C9_16  and  N2_18 
ROOT
HETATM    1  C3  UNL     1     -44.806  14.357   8.411  1.00  0.00     0.094 A 
HETATM    2  S1  UNL     1     -44.409  14.305   6.778  1.00  0.00    -0.063 SA
HETATM    3  C4  UNL     1     -45.113  12.791   6.443  1.00  0.00     0.062 A 
HETATM    4  S2  UNL     1     -45.439  11.643   5.193  1.00  0.00    -0.068 SA
HETATM    5  C5  UNL     1     -46.288  10.570   6.153  1.00  0.00     0.098 A 
HETATM    6 CL1  UNL     1     -47.034   9.019   5.666  1.00  0.00    -0.074 Cl
HETATM    7  C6  UNL     1     -46.305  11.114   7.419  1.00  0.00     0.075 A 
HETATM    8 CL2  UNL     1     -47.338  10.154   8.551  1.00  0.00    -0.081 Cl
HETATM    9  C7  UNL     1     -45.667  12.319   7.614  1.00  0.00     0.030 A 
HETATM   10  C8  UNL     1     -45.491  13.190   8.710  1.00  0.00     0.081 A 
ENDROOT
BRANCH   1  11
HETATM   11  N1  UNL     1     -44.425  15.454   9.269  1.00  0.00    -0.321 N 
HETATM   12  C2  UNL     1     -43.135  15.456   9.842  1.00  0.00     0.218 C 
HETATM   13  C1  UNL     1     -42.730  16.557  10.713  1.00  0.00     0.117 C 
HETATM   14  O1  UNL     1     -42.347  14.525   9.605  1.00  0.00    -0.274 OA
ATOM     15  H1  UNL     1     -45.077  16.215   9.459  1.00  0.00     0.169 HD
ENDBRANCH   1  11
BRANCH  10  16
HETATM   16  C9  UNL     1     -45.996  13.091  10.081  1.00  0.00     0.269 C 
HETATM   17  O2  UNL     1     -45.159  12.896  11.053  1.00  0.00    -0.266 OA
HETATM   18  N2  UNL     1     -47.308  13.152  10.527  1.00  0.00    -0.265 N 
HETATM   19 CL3  UNL     1     -47.657  13.036  12.275  1.00  0.00     0.013 Cl
ATOM     20  H2  UNL     1     -48.071  13.262   9.859  1.00  0.00     0.183 HD
ENDBRANCH  10  16
TORSDOF 2
ENDMDL
