MODEL 1
REMARK VINA RESULT: -8.087009589      0.000      0.000
REMARK  18 active torsions:
REMARK  status: ('A' for Active; 'I' for Inactive)
REMARK    1  A    between atoms: O1_2  and  C2_3 
REMARK    2  A    between atoms: C6_12  and  C7_13 
REMARK    3  A    between atoms: C7_13  and  O2_14 
REMARK    4  A    between atoms: N3_17  and  O3_18 
REMARK    5  A    between atoms: O3_18  and  C8_19 
REMARK    6  A    between atoms: C8_19  and  O4_20 
REMARK    7  A    between atoms: C8_19  and  C9_22 
REMARK    8  A    between atoms: C9_22  and  O5_23 
REMARK    9  A    between atoms: C9_22  and  C16_43 
REMARK   10  A    between atoms: O5_23  and  N4_24 
REMARK   11  A    between atoms: N4_24  and  C10_25 
REMARK   12  A    between atoms: N4_24  and  C14_37 
REMARK   13  A    between atoms: C12_30  and  O7_31 
REMARK   14  A    between atoms: C13_33  and  O8_34 
REMARK   15  A    between atoms: C14_37  and  N6_39 
REMARK   16  A    between atoms: C16_43  and  O10_44 
REMARK   17  A    between atoms: C16_43  and  O11_46 
REMARK   18  A    between atoms: N7_49  and  O12_51 
ROOT
HETATM    1  C8  UNL     1       0.799  21.518  68.745  1.00  0.00     0.316 C 
ENDROOT
BRANCH   1   2
HETATM    2  O3  UNL     1       0.579  20.711  69.825  1.00  0.00    -0.256 OA
BRANCH   2   3
HETATM    3  N3  UNL     1       1.034  21.209  70.997  1.00  0.00    -0.109 NA
HETATM    4  C4  UNL     1       1.165  20.205  72.035  1.00  0.00     0.153 C 
HETATM    5  C3  UNL     1       2.159  19.166  71.711  1.00  0.00     0.106 C 
HETATM    6  C5  UNL     1      -0.129  19.560  72.303  1.00  0.00     0.061 C 
HETATM    7  C17 UNL     1       1.763  20.912  73.210  1.00  0.00     0.091 C 
HETATM    8  N1  UNL     1       3.319  19.439  72.507  1.00  0.00    -0.347 N 
HETATM    9  N2  UNL     1       2.106  18.166  70.895  1.00  0.00    -0.387 N 
HETATM   10  C2  UNL     1       2.891  20.102  73.743  1.00  0.00     0.273 C 
ATOM     11  H1  UNL     1       4.282  19.210  72.256  1.00  0.00     0.163 HD
ATOM     12  H22 UNL     1       2.794  17.447  70.670  1.00  0.00     0.157 HD
ATOM     13  H21 UNL     1       1.281  17.972  70.328  1.00  0.00     0.157 HD
HETATM   14  C6  UNL     1      -1.268  20.462  72.060  1.00  0.00     0.092 C 
HETATM   15  S1  UNL     1      -0.421  22.029  71.678  1.00  0.00    -0.046 SA
HETATM   16  N7  UNL     1       1.418  22.031  73.726  1.00  0.00    -0.270 N 
ATOM     17  H7  UNL     1       0.639  22.557  73.333  1.00  0.00     0.193 HD
BRANCH  10  18
HETATM   18  O1  UNL     1       2.351  19.168  74.629  1.00  0.00    -0.366 OA
HETATM   19  C1  UNL     1       3.313  18.333  75.161  1.00  0.00     0.204 C 
ENDBRANCH  10  18
BRANCH  14  20
HETATM   20  C7  UNL     1      -2.302  20.563  73.094  1.00  0.00     0.180 C 
BRANCH  20  21
HETATM   21  O2  UNL     1      -2.661  19.416  73.737  1.00  0.00    -0.400 OA
ATOM     22  H2  UNL     1      -3.543  19.092  73.593  1.00  0.00     0.209 HD
ENDBRANCH  20  21
ENDBRANCH  14  20
BRANCH  16  23
HETATM   23  O12 UNL     1       2.098  22.516  74.803  1.00  0.00    -0.290 OA
ATOM     24  H12 UNL     1       2.162  21.994  75.595  1.00  0.00     0.244 HD
ENDBRANCH  16  23
ENDBRANCH   2   3
ENDBRANCH   1   2
BRANCH   1  25
HETATM   25  O4  UNL     1       1.839  22.392  69.071  1.00  0.00    -0.367 OA
ATOM     26  H4  UNL     1       1.457  23.245  69.242  1.00  0.00     0.212 HD
ENDBRANCH   1  25
BRANCH   1  27
HETATM   27  C9  UNL     1       1.276  20.759  67.507  1.00  0.00     0.263 C 
BRANCH  27  28
HETATM   28  O5  UNL     1       2.360  21.450  67.002  1.00  0.00    -0.257 OA
BRANCH  28  29
HETATM   29  N4  UNL     1       2.186  22.018  65.828  1.00  0.00    -0.189 N 
BRANCH  29  30
HETATM   30  C10 UNL     1       2.403  23.406  65.654  1.00  0.00     0.258 A 
HETATM   31  N5  UNL     1       2.741  23.948  64.469  1.00  0.00    -0.285 N 
HETATM   32  C11 UNL     1       2.953  25.253  64.272  1.00  0.00     0.286 A 
ATOM     33  H5  UNL     1       2.842  23.322  63.671  1.00  0.00     0.172 HD
HETATM   34  O6  UNL     1       3.269  25.733  63.146  1.00  0.00    -0.265 OA
HETATM   35  C12 UNL     1       2.820  26.125  65.347  1.00  0.00     0.193 A 
HETATM   36  C13 UNL     1       2.475  25.547  66.545  1.00  0.00     0.226 A 
HETATM   37  O9  UNL     1       2.280  24.258  66.673  1.00  0.00    -0.251 OA
BRANCH  35  38
HETATM   38  O7  UNL     1       3.036  27.474  65.159  1.00  0.00    -0.352 OA
ATOM     39  H7  UNL     1       2.345  28.092  65.368  1.00  0.00     0.218 HD
ENDBRANCH  35  38
BRANCH  36  40
HETATM   40  O8  UNL     1       2.330  26.376  67.648  1.00  0.00    -0.338 OA
ATOM     41  H8  UNL     1       1.472  26.749  67.814  1.00  0.00     0.220 HD
ENDBRANCH  36  40
ENDBRANCH  29  30
BRANCH  29  42
HETATM   42  C14 UNL     1       1.768  21.234  64.697  1.00  0.00     0.310 C 
HETATM   43  C15 UNL     1       2.925  20.436  64.104  1.00  0.00     0.065 C 
BRANCH  42  44
HETATM   44  N6  UNL     1       0.653  20.363  65.002  1.00  0.00    -0.056 N 
ATOM     45  H63 UNL     1       0.198  20.039  64.149  1.00  0.00     0.276 HD
ATOM     46  H62 UNL     1       0.978  19.468  65.367  1.00  0.00     0.276 HD
ATOM     47  H61 UNL     1      -0.020  20.794  65.635  1.00  0.00     0.276 HD
ENDBRANCH  42  44
ENDBRANCH  29  42
ENDBRANCH  28  29
ENDBRANCH  27  28
BRANCH  27  48
HETATM   48  C16 UNL     1       1.759  19.370  67.882  1.00  0.00     0.290 C 
BRANCH  48  49
HETATM   49  O10 UNL     1       1.757  18.511  66.794  1.00  0.00    -0.369 OA
ATOM     50  H10 UNL     1       1.088  17.840  66.873  1.00  0.00     0.212 HD
ENDBRANCH  48  49
BRANCH  48  51
HETATM   51  O11 UNL     1       3.039  19.432  68.475  1.00  0.00    -0.369 OA
ATOM     52  H11 UNL     1       2.968  19.608  69.406  1.00  0.00     0.212 HD
ENDBRANCH  48  51
ENDBRANCH  27  48
ENDBRANCH   1  27
TORSDOF 18
ENDMDL
MODEL 2
REMARK VINA RESULT: -8.024763717      4.544      8.125
REMARK  18 active torsions:
REMARK  status: ('A' for Active; 'I' for Inactive)
REMARK    1  A    between atoms: O1_2  and  C2_3 
REMARK    2  A    between atoms: C6_12  and  C7_13 
REMARK    3  A    between atoms: C7_13  and  O2_14 
REMARK    4  A    between atoms: N3_17  and  O3_18 
REMARK    5  A    between atoms: O3_18  and  C8_19 
REMARK    6  A    between atoms: C8_19  and  O4_20 
REMARK    7  A    between atoms: C8_19  and  C9_22 
REMARK    8  A    between atoms: C9_22  and  O5_23 
REMARK    9  A    between atoms: C9_22  and  C16_43 
REMARK   10  A    between atoms: O5_23  and  N4_24 
REMARK   11  A    between atoms: N4_24  and  C10_25 
REMARK   12  A    between atoms: N4_24  and  C14_37 
REMARK   13  A    between atoms: C12_30  and  O7_31 
REMARK   14  A    between atoms: C13_33  and  O8_34 
REMARK   15  A    between atoms: C14_37  and  N6_39 
REMARK   16  A    between atoms: C16_43  and  O10_44 
REMARK   17  A    between atoms: C16_43  and  O11_46 
REMARK   18  A    between atoms: N7_49  and  O12_51 
ROOT
HETATM    1  C8  UNL     1       1.544  21.318  73.204  1.00  0.00     0.316 C 
ENDROOT
BRANCH   1   2
HETATM    2  O3  UNL     1       1.808  20.098  72.649  1.00  0.00    -0.256 OA
BRANCH   2   3
HETATM    3  N3  UNL     1       0.734  19.491  72.096  1.00  0.00    -0.109 NA
HETATM    4  C4  UNL     1       1.007  18.140  71.644  1.00  0.00     0.153 C 
HETATM    5  C3  UNL     1       1.373  17.227  72.742  1.00  0.00     0.106 C 
HETATM    6  C5  UNL     1       2.082  18.134  70.640  1.00  0.00     0.061 C 
HETATM    7  C17 UNL     1      -0.302  17.603  71.159  1.00  0.00     0.091 C 
HETATM    8  N1  UNL     1       0.233  16.393  72.986  1.00  0.00    -0.347 N 
HETATM    9  N2  UNL     1       2.466  17.110  73.420  1.00  0.00    -0.387 N 
HETATM   10  C2  UNL     1      -0.514  16.247  71.731  1.00  0.00     0.273 C 
ATOM     11  H1  UNL     1      -0.017  15.972  73.881  1.00  0.00     0.163 HD
ATOM     12  H22 UNL     1       2.720  16.479  74.180  1.00  0.00     0.157 HD
ATOM     13  H21 UNL     1       3.277  17.704  73.247  1.00  0.00     0.157 HD
HETATM   14  C6  UNL     1       2.117  19.375  69.847  1.00  0.00     0.092 C 
HETATM   15  S1  UNL     1       0.640  20.247  70.461  1.00  0.00    -0.046 SA
HETATM   16  N7  UNL     1      -1.153  18.159  70.381  1.00  0.00    -0.270 N 
ATOM     17  H7  UNL     1      -0.971  19.090  70.007  1.00  0.00     0.193 HD
BRANCH  10  18
HETATM   18  O1  UNL     1       0.128  15.334  70.892  1.00  0.00    -0.366 OA
HETATM   19  C1  UNL     1      -0.730  14.360  70.423  1.00  0.00     0.204 C 
ENDBRANCH  10  18
BRANCH  14  20
HETATM   20  C7  UNL     1       2.196  19.260  68.388  1.00  0.00     0.180 C 
BRANCH  20  21
HETATM   21  O2  UNL     1       1.255  18.495  67.766  1.00  0.00    -0.400 OA
ATOM     22  H2  UNL     1       1.467  18.154  66.905  1.00  0.00     0.209 HD
ENDBRANCH  20  21
ENDBRANCH  14  20
BRANCH  16  23
HETATM   23  O12 UNL     1      -2.301  17.502  70.056  1.00  0.00    -0.290 OA
ATOM     24  H12 UNL     1      -2.871  17.855  69.382  1.00  0.00     0.244 HD
ENDBRANCH  16  23
ENDBRANCH   2   3
ENDBRANCH   1   2
BRANCH   1  25
HETATM   25  O4  UNL     1       0.203  21.326  73.596  1.00  0.00    -0.367 OA
ATOM     26  H4  UNL     1       0.176  21.190  74.537  1.00  0.00     0.212 HD
ENDBRANCH   1  25
BRANCH   1  27
HETATM   27  C9  UNL     1       2.344  21.591  74.478  1.00  0.00     0.263 C 
BRANCH  27  28
HETATM   28  O5  UNL     1       1.450  21.564  75.530  1.00  0.00    -0.257 OA
BRANCH  28  29
HETATM   29  N4  UNL     1       1.444  22.624  76.310  1.00  0.00    -0.189 N 
BRANCH  29  30
HETATM   30  C10 UNL     1       0.755  23.801  75.930  1.00  0.00     0.258 A 
HETATM   31  N5  UNL     1      -0.553  23.993  76.180  1.00  0.00    -0.285 N 
HETATM   32  C11 UNL     1      -1.231  25.092  75.834  1.00  0.00     0.286 A 
ATOM     33  H5  UNL     1      -1.059  23.252  76.665  1.00  0.00     0.172 HD
HETATM   34  O6  UNL     1      -2.462  25.244  76.084  1.00  0.00    -0.265 OA
HETATM   35  C12 UNL     1      -0.562  26.114  75.172  1.00  0.00     0.193 A 
HETATM   36  C13 UNL     1       0.773  25.894  74.928  1.00  0.00     0.226 A 
HETATM   37  O9  UNL     1       1.381  24.793  75.294  1.00  0.00    -0.251 OA
BRANCH  35  38
HETATM   38  O7  UNL     1      -1.249  27.253  74.809  1.00  0.00    -0.352 OA
ATOM     39  H7  UNL     1      -0.779  27.977  74.412  1.00  0.00     0.218 HD
ENDBRANCH  35  38
BRANCH  36  40
HETATM   40  O8  UNL     1       1.485  26.885  74.269  1.00  0.00    -0.338 OA
ATOM     41  H8  UNL     1       2.296  26.639  73.840  1.00  0.00     0.220 HD
ENDBRANCH  36  40
ENDBRANCH  29  30
BRANCH  29  42
HETATM   42  C14 UNL     1       2.143  22.605  77.567  1.00  0.00     0.310 C 
HETATM   43  C15 UNL     1       2.087  21.230  78.224  1.00  0.00     0.065 C 
BRANCH  42  44
HETATM   44  N6  UNL     1       3.513  23.058  77.451  1.00  0.00    -0.056 N 
ATOM     45  H63 UNL     1       4.134  22.499  78.035  1.00  0.00     0.276 HD
ATOM     46  H62 UNL     1       3.897  22.830  76.534  1.00  0.00     0.276 HD
ATOM     47  H61 UNL     1       3.617  24.052  77.654  1.00  0.00     0.276 HD
ENDBRANCH  42  44
ENDBRANCH  29  42
ENDBRANCH  28  29
ENDBRANCH  27  28
BRANCH  27  48
HETATM   48  C16 UNL     1       3.361  20.491  74.719  1.00  0.00     0.290 C 
BRANCH  48  49
HETATM   49  O10 UNL     1       4.408  20.921  75.519  1.00  0.00    -0.369 OA
ATOM     50  H10 UNL     1       4.761  20.217  76.051  1.00  0.00     0.212 HD
ENDBRANCH  48  49
BRANCH  48  51
HETATM   51  O11 UNL     1       2.738  19.351  75.272  1.00  0.00    -0.369 OA
ATOM     52  H11 UNL     1       3.250  18.570  75.093  1.00  0.00     0.212 HD
ENDBRANCH  48  51
ENDBRANCH  27  48
ENDBRANCH   1  27
TORSDOF 18
ENDMDL
MODEL 3
REMARK VINA RESULT: -7.833684849      1.301      1.698
REMARK  18 active torsions:
REMARK  status: ('A' for Active; 'I' for Inactive)
REMARK    1  A    between atoms: O1_2  and  C2_3 
REMARK    2  A    between atoms: C6_12  and  C7_13 
REMARK    3  A    between atoms: C7_13  and  O2_14 
REMARK    4  A    between atoms: N3_17  and  O3_18 
REMARK    5  A    between atoms: O3_18  and  C8_19 
REMARK    6  A    between atoms: C8_19  and  O4_20 
REMARK    7  A    between atoms: C8_19  and  C9_22 
REMARK    8  A    between atoms: C9_22  and  O5_23 
REMARK    9  A    between atoms: C9_22  and  C16_43 
REMARK   10  A    between atoms: O5_23  and  N4_24 
REMARK   11  A    between atoms: N4_24  and  C10_25 
REMARK   12  A    between atoms: N4_24  and  C14_37 
REMARK   13  A    between atoms: C12_30  and  O7_31 
REMARK   14  A    between atoms: C13_33  and  O8_34 
REMARK   15  A    between atoms: C14_37  and  N6_39 
REMARK   16  A    between atoms: C16_43  and  O10_44 
REMARK   17  A    between atoms: C16_43  and  O11_46 
REMARK   18  A    between atoms: N7_49  and  O12_51 
ROOT
HETATM    1  C8  UNL     1       0.999  21.295  68.573  1.00  0.00     0.316 C 
ENDROOT
BRANCH   1   2
HETATM    2  O3  UNL     1       0.461  20.262  69.288  1.00  0.00    -0.256 OA
BRANCH   2   3
HETATM    3  N3  UNL     1       1.004  20.088  70.514  1.00  0.00    -0.109 NA
HETATM    4  C4  UNL     1       0.588  18.858  71.158  1.00  0.00     0.153 C 
HETATM    5  C3  UNL     1       1.021  17.651  70.431  1.00  0.00     0.106 C 
HETATM    6  C5  UNL     1      -0.875  18.821  71.314  1.00  0.00     0.061 C 
HETATM    7  C17 UNL     1       1.353  18.793  72.441  1.00  0.00     0.091 C 
HETATM    8  N1  UNL     1       2.116  17.093  71.170  1.00  0.00    -0.347 N 
HETATM    9  N2  UNL     1       0.579  17.109  69.345  1.00  0.00    -0.387 N 
HETATM   10  C2  UNL     1       1.946  17.436  72.586  1.00  0.00     0.273 C 
ATOM     11  H1  UNL     1       2.884  16.549  70.776  1.00  0.00     0.163 HD
ATOM     12  H22 UNL     1       0.879  16.274  68.842  1.00  0.00     0.157 HD
ATOM     13  H21 UNL     1      -0.199  17.506  68.819  1.00  0.00     0.157 HD
HETATM   14  C6  UNL     1      -1.457  20.165  71.474  1.00  0.00     0.092 C 
HETATM   15  S1  UNL     1       0.036  21.206  71.546  1.00  0.00    -0.046 SA
HETATM   16  N7  UNL     1       1.517  19.709  73.318  1.00  0.00    -0.270 N 
ATOM     17  H7  UNL     1       1.094  20.627  73.185  1.00  0.00     0.193 HD
BRANCH  10  18
HETATM   18  O1  UNL     1       0.976  16.617  73.167  1.00  0.00    -0.366 OA
HETATM   19  C1  UNL     1       0.883  15.390  72.542  1.00  0.00     0.204 C 
ENDBRANCH  10  18
BRANCH  14  20
HETATM   20  C7  UNL     1      -2.405  20.380  72.570  1.00  0.00     0.180 C 
BRANCH  20  21
HETATM   21  O2  UNL     1      -2.296  19.574  73.664  1.00  0.00    -0.400 OA
ATOM     22  H2  UNL     1      -2.580  19.928  74.499  1.00  0.00     0.209 HD
ENDBRANCH  20  21
ENDBRANCH  14  20
BRANCH  16  23
HETATM   23  O12 UNL     1       2.261  19.454  74.432  1.00  0.00    -0.290 OA
ATOM     24  H12 UNL     1       2.859  20.115  74.760  1.00  0.00     0.244 HD
ENDBRANCH  16  23
ENDBRANCH   2   3
ENDBRANCH   1   2
BRANCH   1  25
HETATM   25  O4  UNL     1       2.100  21.777  69.283  1.00  0.00    -0.367 OA
ATOM     26  H4  UNL     1       2.638  22.276  68.680  1.00  0.00     0.212 HD
ENDBRANCH   1  25
BRANCH   1  27
HETATM   27  C9  UNL     1       1.545  20.869  67.210  1.00  0.00     0.263 C 
BRANCH  27  28
HETATM   28  O5  UNL     1       2.447  21.839  66.816  1.00  0.00    -0.257 OA
BRANCH  28  29
HETATM   29  N4  UNL     1       2.253  22.355  65.621  1.00  0.00    -0.189 N 
BRANCH  29  30
HETATM   30  C10 UNL     1       2.323  23.753  65.413  1.00  0.00     0.258 A 
HETATM   31  N5  UNL     1       2.388  24.306  64.188  1.00  0.00    -0.285 N 
HETATM   32  C11 UNL     1       2.455  25.621  63.959  1.00  0.00     0.286 A 
ATOM     33  H5  UNL     1       2.385  23.680  63.383  1.00  0.00     0.172 HD
HETATM   34  O6  UNL     1       2.515  26.112  62.795  1.00  0.00    -0.265 OA
HETATM   35  C12 UNL     1       2.459  26.492  65.042  1.00  0.00     0.193 A 
HETATM   36  C13 UNL     1       2.393  25.903  66.283  1.00  0.00     0.226 A 
HETATM   37  O9  UNL     1       2.328  24.604  66.441  1.00  0.00    -0.251 OA
BRANCH  35  38
HETATM   38  O7  UNL     1       2.529  27.852  64.822  1.00  0.00    -0.352 OA
ATOM     39  H7  UNL     1       1.782  28.399  65.034  1.00  0.00     0.218 HD
ENDBRANCH  35  38
BRANCH  36  40
HETATM   40  O8  UNL     1       2.395  26.731  67.396  1.00  0.00    -0.338 OA
ATOM     41  H8  UNL     1       2.306  27.666  67.254  1.00  0.00     0.220 HD
ENDBRANCH  36  40
ENDBRANCH  29  30
BRANCH  29  42
HETATM   42  C14 UNL     1       1.964  21.501  64.500  1.00  0.00     0.310 C 
HETATM   43  C15 UNL     1       3.211  20.776  64.004  1.00  0.00     0.065 C 
BRANCH  42  44
HETATM   44  N6  UNL     1       0.903  20.557  64.776  1.00  0.00    -0.056 N 
ATOM     45  H63 UNL     1       1.196  19.869  65.471  1.00  0.00     0.276 HD
ATOM     46  H62 UNL     1       0.144  21.001  65.294  1.00  0.00     0.276 HD
ATOM     47  H61 UNL     1       0.553  20.100  63.934  1.00  0.00     0.276 HD
ENDBRANCH  42  44
ENDBRANCH  29  42
ENDBRANCH  28  29
ENDBRANCH  27  28
BRANCH  27  48
HETATM   48  C16 UNL     1       2.306  19.562  67.321  1.00  0.00     0.290 C 
BRANCH  48  49
HETATM   49  O10 UNL     1       2.919  19.422  68.556  1.00  0.00    -0.369 OA
ATOM     50  H10 UNL     1       3.122  18.515  68.752  1.00  0.00     0.212 HD
ENDBRANCH  48  49
BRANCH  48  51
HETATM   51  O11 UNL     1       1.455  18.467  67.053  1.00  0.00    -0.369 OA
ATOM     52  H11 UNL     1       1.475  18.246  66.128  1.00  0.00     0.212 HD
ENDBRANCH  48  51
ENDBRANCH  27  48
ENDBRANCH   1  27
TORSDOF 18
ENDMDL
MODEL 4
REMARK VINA RESULT: -7.785726469      4.596      7.504
REMARK  18 active torsions:
REMARK  status: ('A' for Active; 'I' for Inactive)
REMARK    1  A    between atoms: O1_2  and  C2_3 
REMARK    2  A    between atoms: C6_12  and  C7_13 
REMARK    3  A    between atoms: C7_13  and  O2_14 
REMARK    4  A    between atoms: N3_17  and  O3_18 
REMARK    5  A    between atoms: O3_18  and  C8_19 
REMARK    6  A    between atoms: C8_19  and  O4_20 
REMARK    7  A    between atoms: C8_19  and  C9_22 
REMARK    8  A    between atoms: C9_22  and  O5_23 
REMARK    9  A    between atoms: C9_22  and  C16_43 
REMARK   10  A    between atoms: O5_23  and  N4_24 
REMARK   11  A    between atoms: N4_24  and  C10_25 
REMARK   12  A    between atoms: N4_24  and  C14_37 
REMARK   13  A    between atoms: C12_30  and  O7_31 
REMARK   14  A    between atoms: C13_33  and  O8_34 
REMARK   15  A    between atoms: C14_37  and  N6_39 
REMARK   16  A    between atoms: C16_43  and  O10_44 
REMARK   17  A    between atoms: C16_43  and  O11_46 
REMARK   18  A    between atoms: N7_49  and  O12_51 
ROOT
HETATM    1  C8  UNL     1       0.610  20.068  70.574  1.00  0.00     0.316 C 
ENDROOT
BRANCH   1   2
HETATM    2  O3  UNL     1      -0.109  20.483  71.659  1.00  0.00    -0.256 OA
BRANCH   2   3
HETATM    3  N3  UNL     1      -1.199  21.225  71.357  1.00  0.00    -0.109 NA
HETATM    4  C4  UNL     1      -1.785  21.880  72.510  1.00  0.00     0.153 C 
HETATM    5  C3  UNL     1      -0.881  22.862  73.137  1.00  0.00     0.106 C 
HETATM    6  C5  UNL     1      -2.190  20.892  73.521  1.00  0.00     0.061 C 
HETATM    7  C17 UNL     1      -2.902  22.718  71.975  1.00  0.00     0.091 C 
HETATM    8  N1  UNL     1      -1.360  24.161  72.766  1.00  0.00    -0.347 N 
HETATM    9  N2  UNL     1       0.158  22.702  73.887  1.00  0.00    -0.387 N 
HETATM   10  C2  UNL     1      -2.810  24.083  72.560  1.00  0.00     0.273 C 
ATOM     11  H1  UNL     1      -0.788  25.000  72.663  1.00  0.00     0.163 HD
ATOM     12  H22 UNL     1       0.783  23.381  74.320  1.00  0.00     0.157 HD
ATOM     13  H21 UNL     1       0.499  21.777  74.150  1.00  0.00     0.157 HD
HETATM   14  C6  UNL     1      -2.578  19.603  72.923  1.00  0.00     0.092 C 
HETATM   15  S1  UNL     1      -2.486  19.980  71.143  1.00  0.00    -0.046 SA
HETATM   16  N7  UNL     1      -3.821  22.388  71.148  1.00  0.00    -0.270 N 
ATOM     17  H7  UNL     1      -3.852  21.442  70.769  1.00  0.00     0.193 HD
BRANCH  10  18
HETATM   18  O1  UNL     1      -3.471  24.055  73.790  1.00  0.00    -0.366 OA
HETATM   19  C1  UNL     1      -4.435  25.038  73.890  1.00  0.00     0.204 C 
ENDBRANCH  10  18
BRANCH  14  20
HETATM   20  C7  UNL     1      -3.838  18.992  73.355  1.00  0.00     0.180 C 
BRANCH  20  21
HETATM   21  O2  UNL     1      -3.772  18.021  74.309  1.00  0.00    -0.400 OA
ATOM     22  H2  UNL     1      -4.593  17.663  74.626  1.00  0.00     0.209 HD
ENDBRANCH  20  21
ENDBRANCH  14  20
BRANCH  16  23
HETATM   23  O12 UNL     1      -4.757  23.305  70.776  1.00  0.00    -0.290 OA
ATOM     24  H12 UNL     1      -5.653  23.213  71.078  1.00  0.00     0.244 HD
ENDBRANCH  16  23
ENDBRANCH   2   3
ENDBRANCH   1   2
BRANCH   1  25
HETATM   25  O4  UNL     1       1.812  20.780  70.562  1.00  0.00    -0.367 OA
ATOM     26  H4  UNL     1       2.024  20.976  69.656  1.00  0.00     0.212 HD
ENDBRANCH   1  25
BRANCH   1  27
HETATM   27  C9  UNL     1       1.008  18.594  70.638  1.00  0.00     0.263 C 
BRANCH  27  28
HETATM   28  O5  UNL     1       0.304  18.030  71.684  1.00  0.00    -0.257 OA
BRANCH  28  29
HETATM   29  N4  UNL     1       1.019  17.375  72.574  1.00  0.00    -0.189 N 
BRANCH  29  30
HETATM   30  C10 UNL     1       1.917  18.058  73.429  1.00  0.00     0.258 A 
HETATM   31  N5  UNL     1       1.992  19.400  73.485  1.00  0.00    -0.285 N 
HETATM   32  C11 UNL     1       2.829  20.074  74.281  1.00  0.00     0.286 A 
ATOM     33  H5  UNL     1       1.370  19.938  72.882  1.00  0.00     0.172 HD
HETATM   34  O6  UNL     1       2.876  21.338  74.312  1.00  0.00    -0.265 OA
HETATM   35  C12 UNL     1       3.685  19.363  75.112  1.00  0.00     0.193 A 
HETATM   36  C13 UNL     1       3.590  17.993  75.035  1.00  0.00     0.226 A 
HETATM   37  O9  UNL     1       2.747  17.391  74.234  1.00  0.00    -0.251 OA
BRANCH  35  38
HETATM   38  O7  UNL     1       4.554  20.044  75.937  1.00  0.00    -0.352 OA
ATOM     39  H7  UNL     1       5.052  19.566  76.590  1.00  0.00     0.218 HD
ENDBRANCH  35  38
BRANCH  36  40
HETATM   40  O8  UNL     1       4.425  17.238  75.846  1.00  0.00    -0.338 OA
ATOM     41  H8  UNL     1       4.175  17.121  76.755  1.00  0.00     0.220 HD
ENDBRANCH  36  40
ENDBRANCH  29  30
BRANCH  29  42
HETATM   42  C14 UNL     1       0.900  15.946  72.692  1.00  0.00     0.310 C 
HETATM   43  C15 UNL     1      -0.473  15.455  72.245  1.00  0.00     0.065 C 
BRANCH  42  44
HETATM   44  N6  UNL     1       1.948  15.239  71.988  1.00  0.00    -0.056 N 
ATOM     45  H63 UNL     1       2.817  15.774  71.992  1.00  0.00     0.276 HD
ATOM     46  H62 UNL     1       2.255  14.421  72.514  1.00  0.00     0.276 HD
ATOM     47  H61 UNL     1       1.681  14.984  71.037  1.00  0.00     0.276 HD
ENDBRANCH  42  44
ENDBRANCH  29  42
ENDBRANCH  28  29
ENDBRANCH  27  28
BRANCH  27  48
HETATM   48  C16 UNL     1       0.594  17.869  69.371  1.00  0.00     0.290 C 
BRANCH  48  49
HETATM   49  O10 UNL     1       1.002  18.545  68.231  1.00  0.00    -0.369 OA
ATOM     50  H10 UNL     1       0.266  18.809  67.692  1.00  0.00     0.212 HD
ENDBRANCH  48  49
BRANCH  48  51
HETATM   51  O11 UNL     1       1.080  16.543  69.374  1.00  0.00    -0.369 OA
ATOM     52  H11 UNL     1       1.580  16.369  68.585  1.00  0.00     0.212 HD
ENDBRANCH  48  51
ENDBRANCH  27  48
ENDBRANCH   1  27
TORSDOF 18
ENDMDL
MODEL 5
REMARK VINA RESULT: -7.773301562      2.761      4.427
REMARK  18 active torsions:
REMARK  status: ('A' for Active; 'I' for Inactive)
REMARK    1  A    between atoms: O1_2  and  C2_3 
REMARK    2  A    between atoms: C6_12  and  C7_13 
REMARK    3  A    between atoms: C7_13  and  O2_14 
REMARK    4  A    between atoms: N3_17  and  O3_18 
REMARK    5  A    between atoms: O3_18  and  C8_19 
REMARK    6  A    between atoms: C8_19  and  O4_20 
REMARK    7  A    between atoms: C8_19  and  C9_22 
REMARK    8  A    between atoms: C9_22  and  O5_23 
REMARK    9  A    between atoms: C9_22  and  C16_43 
REMARK   10  A    between atoms: O5_23  and  N4_24 
REMARK   11  A    between atoms: N4_24  and  C10_25 
REMARK   12  A    between atoms: N4_24  and  C14_37 
REMARK   13  A    between atoms: C12_30  and  O7_31 
REMARK   14  A    between atoms: C13_33  and  O8_34 
REMARK   15  A    between atoms: C14_37  and  N6_39 
REMARK   16  A    between atoms: C16_43  and  O10_44 
REMARK   17  A    between atoms: C16_43  and  O11_46 
REMARK   18  A    between atoms: N7_49  and  O12_51 
ROOT
HETATM    1  C8  UNL     1       0.532  20.220  69.022  1.00  0.00     0.316 C 
ENDROOT
BRANCH   1   2
HETATM    2  O3  UNL     1       0.554  19.193  69.922  1.00  0.00    -0.256 OA
BRANCH   2   3
HETATM    3  N3  UNL     1      -0.485  18.334  69.816  1.00  0.00    -0.109 NA
HETATM    4  C4  UNL     1      -1.133  18.056  71.082  1.00  0.00     0.153 C 
HETATM    5  C3  UNL     1      -1.753  19.248  71.687  1.00  0.00     0.106 C 
HETATM    6  C5  UNL     1      -0.179  17.477  72.040  1.00  0.00     0.061 C 
HETATM    7  C17 UNL     1      -2.299  17.177  70.757  1.00  0.00     0.091 C 
HETATM    8  N1  UNL     1      -3.168  19.124  71.493  1.00  0.00    -0.347 N 
HETATM    9  N2  UNL     1      -1.230  20.261  72.296  1.00  0.00    -0.387 N 
HETATM   10  C2  UNL     1      -3.509  17.698  71.448  1.00  0.00     0.273 C 
ATOM     11  H1  UNL     1      -3.827  19.898  71.401  1.00  0.00     0.163 HD
ATOM     12  H22 UNL     1      -1.659  21.086  72.714  1.00  0.00     0.157 HD
ATOM     13  H21 UNL     1      -0.224  20.349  72.434  1.00  0.00     0.157 HD
HETATM   14  C6  UNL     1       0.878  16.693  71.377  1.00  0.00     0.092 C 
HETATM   15  S1  UNL     1       0.331  16.735  69.639  1.00  0.00    -0.046 SA
HETATM   16  N7  UNL     1      -2.329  16.136  70.014  1.00  0.00    -0.270 N 
ATOM     17  H7  UNL     1      -1.479  15.808  69.557  1.00  0.00     0.193 HD
BRANCH  10  18
HETATM   18  O1  UNL     1      -3.516  17.163  72.737  1.00  0.00    -0.366 OA
HETATM   19  C1  UNL     1      -4.681  16.477  73.015  1.00  0.00     0.204 C 
ENDBRANCH  10  18
BRANCH  14  20
HETATM   20  C7  UNL     1       1.171  15.353  71.893  1.00  0.00     0.180 C 
BRANCH  20  21
HETATM   21  O2  UNL     1       2.471  14.944  71.874  1.00  0.00    -0.400 OA
ATOM     22  H2  UNL     1       2.638  14.023  71.709  1.00  0.00     0.209 HD
ENDBRANCH  20  21
ENDBRANCH  14  20
BRANCH  16  23
HETATM   23  O12 UNL     1      -3.503  15.467  69.835  1.00  0.00    -0.290 OA
ATOM     24  H12 UNL     1      -3.543  14.740  69.225  1.00  0.00     0.244 HD
ENDBRANCH  16  23
ENDBRANCH   2   3
ENDBRANCH   1   2
BRANCH   1  25
HETATM   25  O4  UNL     1       0.493  21.417  69.742  1.00  0.00    -0.367 OA
ATOM     26  H4  UNL     1      -0.298  21.880  69.491  1.00  0.00     0.212 HD
ENDBRANCH   1  25
BRANCH   1  27
HETATM   27  C9  UNL     1       1.794  20.301  68.164  1.00  0.00     0.263 C 
BRANCH  27  28
HETATM   28  O5  UNL     1       2.037  21.640  67.927  1.00  0.00    -0.257 OA
BRANCH  28  29
HETATM   29  N4  UNL     1       2.060  22.008  66.664  1.00  0.00    -0.189 N 
BRANCH  29  30
HETATM   30  C10 UNL     1       2.012  23.376  66.304  1.00  0.00     0.258 A 
HETATM   31  N5  UNL     1       2.403  24.361  67.134  1.00  0.00    -0.285 N 
HETATM   32  C11 UNL     1       2.369  25.662  66.824  1.00  0.00     0.286 A 
ATOM     33  H5  UNL     1       2.746  24.099  68.057  1.00  0.00     0.172 HD
HETATM   34  O6  UNL     1       2.744  26.566  67.625  1.00  0.00    -0.265 OA
HETATM   35  C12 UNL     1       1.905  26.043  65.571  1.00  0.00     0.193 A 
HETATM   36  C13 UNL     1       1.511  25.018  64.743  1.00  0.00     0.226 A 
HETATM   37  O9  UNL     1       1.570  23.761  65.106  1.00  0.00    -0.251 OA
BRANCH  35  38
HETATM   38  O7  UNL     1       1.865  27.380  65.238  1.00  0.00    -0.352 OA
ATOM     39  H7  UNL     1       1.678  27.635  64.343  1.00  0.00     0.218 HD
ENDBRANCH  35  38
BRANCH  36  40
HETATM   40  O8  UNL     1       1.040  25.348  63.481  1.00  0.00    -0.338 OA
ATOM     41  H8  UNL     1       1.348  24.834  62.744  1.00  0.00     0.220 HD
ENDBRANCH  36  40
ENDBRANCH  29  30
BRANCH  29  42
HETATM   42  C14 UNL     1       2.132  21.019  65.621  1.00  0.00     0.310 C 
HETATM   43  C15 UNL     1       0.748  20.637  65.107  1.00  0.00     0.065 C 
BRANCH  42  44
HETATM   44  N6  UNL     1       2.987  21.425  64.526  1.00  0.00    -0.056 N 
ATOM     45  H63 UNL     1       3.386  22.348  64.696  1.00  0.00     0.276 HD
ATOM     46  H62 UNL     1       3.845  20.874  64.509  1.00  0.00     0.276 HD
ATOM     47  H61 UNL     1       2.513  21.391  63.624  1.00  0.00     0.276 HD
ENDBRANCH  42  44
ENDBRANCH  29  42
ENDBRANCH  28  29
ENDBRANCH  27  28
BRANCH  27  48
HETATM   48  C16 UNL     1       2.992  19.750  68.915  1.00  0.00     0.290 C 
BRANCH  48  49
HETATM   49  O10 UNL     1       2.844  19.876  70.288  1.00  0.00    -0.369 OA
ATOM     50  H10 UNL     1       3.513  19.396  70.763  1.00  0.00     0.212 HD
ENDBRANCH  48  49
BRANCH  48  51
HETATM   51  O11 UNL     1       3.230  18.406  68.554  1.00  0.00    -0.369 OA
ATOM     52  H11 UNL     1       2.485  17.861  68.784  1.00  0.00     0.212 HD
ENDBRANCH  48  51
ENDBRANCH  27  48
ENDBRANCH   1  27
TORSDOF 18
ENDMDL
