MODEL 1
REMARK VINA RESULT: -9.156067137      0.000      0.000
REMARK  14 active torsions:
REMARK  status: ('A' for Active; 'I' for Inactive)
REMARK    1  A    between atoms: N1_1  and  C1_4 
REMARK    2  A    between atoms: C3_11  and  C4_12 
REMARK    3  A    between atoms: C6_16  and  N6_17 
REMARK    4  A    between atoms: C7_22  and  N8_23 
REMARK    5  A    between atoms: C9_27  and  C10_28 
REMARK    6  A    between atoms: C10_28  and  S1_29 
REMARK    7  A    between atoms: S1_29  and  C11_30 
REMARK    8  A    between atoms: N10_34  and  C14_35 
REMARK    9  A    between atoms: C14_35  and  O2_36 
REMARK   10  A    between atoms: C14_35  and  C15_38 
REMARK   11  A    between atoms: C15_38  and  C16_39 
REMARK   12  A    between atoms: C16_39  and  O3_40 
REMARK   13  A    between atoms: C17_42  and  C18_43 
REMARK   14  A    between atoms: C18_43  and  O4_44 
ROOT
HETATM    1  C4  UNL     1       0.638  28.698  63.938  1.00  0.00     0.152 A 
HETATM    2  N5  UNL     1       1.971  28.593  64.055  1.00  0.00    -0.320 N 
ATOM      3  H5  UNL     1       2.635  29.359  63.935  1.00  0.00     0.169 HD
HETATM    4  C5  UNL     1       2.304  27.304  64.358  1.00  0.00     0.192 A 
HETATM    5  C6  UNL     1       3.505  26.659  64.581  1.00  0.00     0.163 A 
HETATM    6  N7  UNL     1       3.468  25.339  64.863  1.00  0.00    -0.170 N 
ATOM      7  H7  UNL     1       4.324  24.811  65.036  1.00  0.00     0.186 HD
HETATM    8  C7  UNL     1       2.266  24.748  64.906  1.00  0.00     0.722 A 
HETATM    9  N13 UNL     1       1.104  25.386  64.688  1.00  0.00    -0.107 N 
ATOM     10  H13 UNL     1       0.223  24.876  64.737  1.00  0.00     0.208 HD
HETATM   11  N14 UNL     1       1.110  26.671  64.410  1.00  0.00    -0.160 N 
HETATM   12  N15 UNL     1       0.118  27.500  64.161  1.00  0.00    -0.260 N 
ATOM     13  H15 UNL     1      -0.874  27.263  64.144  1.00  0.00     0.191 HD
ENDROOT
BRANCH   8  14
HETATM   14  N8  UNL     1       2.148  23.340  65.205  1.00  0.00    -0.079 N 
HETATM   15  C8  UNL     1       2.507  22.346  64.369  1.00  0.00     0.227 A 
HETATM   16  N9  UNL     1       2.232  21.198  65.015  1.00  0.00    -0.338 N 
HETATM   17  C9  UNL     1       1.716  21.447  66.224  1.00  0.00     0.107 A 
ATOM     18  H9  UNL     1       2.395  20.266  64.635  1.00  0.00     0.168 HD
HETATM   19  N12 UNL     1       1.675  22.815  66.316  1.00  0.00    -0.266 N 
ATOM     20  H12 UNL     1       1.332  23.342  67.119  1.00  0.00     0.189 HD
BRANCH  17  21
HETATM   21  C10 UNL     1       1.248  20.513  67.295  1.00  0.00     0.153 C 
BRANCH  21  22
HETATM   22  S1  UNL     1       2.225  20.622  68.754  1.00  0.00    -0.128 SA
BRANCH  22  23
HETATM   23  C11 UNL     1       1.846  19.576  70.116  1.00  0.00     0.258 C 
HETATM   24  C12 UNL     1       1.765  18.094  69.838  1.00  0.00     0.147 C 
HETATM   25  C13 UNL     1       1.964  17.457  71.196  1.00  0.00     0.226 C 
HETATM   26  O1  UNL     1       2.415  16.317  71.365  1.00  0.00    -0.273 OA
HETATM   27  N10 UNL     1       1.591  18.264  72.304  1.00  0.00    -0.295 N 
HETATM   28  C17 UNL     1       0.587  19.285  72.102  1.00  0.00     0.315 C 
HETATM   29  N11 UNL     1       0.647  19.969  70.851  1.00  0.00    -0.038 N 
ATOM     30 2H11 UNL     1       0.587  20.981  70.968  1.00  0.00     0.281 HD
ATOM     31 1H11 UNL     1      -0.199  19.830  70.299  1.00  0.00     0.281 HD
BRANCH  27  32
HETATM   32  C14 UNL     1       2.204  18.057  73.619  1.00  0.00     0.226 C 
BRANCH  32  33
HETATM   33  O2  UNL     1       2.247  16.684  73.844  1.00  0.00    -0.377 OA
ATOM     34  H2  UNL     1       3.153  16.412  73.751  1.00  0.00     0.212 HD
ENDBRANCH  32  33
BRANCH  32  35
HETATM   35  C15 UNL     1       3.563  18.693  73.601  1.00  0.00     0.079 C 
BRANCH  35  36
HETATM   36  C16 UNL     1       4.031  19.074  74.988  1.00  0.00     0.168 C 
BRANCH  36  37
HETATM   37  O3  UNL     1       4.135  17.905  75.735  1.00  0.00    -0.401 OA
ATOM     38  H3  UNL     1       4.555  18.126  76.558  1.00  0.00     0.209 HD
ENDBRANCH  36  37
ENDBRANCH  35  36
ENDBRANCH  32  35
ENDBRANCH  27  32
BRANCH  28  39
HETATM   39  C18 UNL     1      -0.784  18.620  72.277  1.00  0.00     0.218 C 
BRANCH  39  40
HETATM   40  O4  UNL     1      -1.604  19.408  73.084  1.00  0.00    -0.397 OA
ATOM     41  H4  UNL     1      -2.487  19.429  72.736  1.00  0.00     0.209 HD
ENDBRANCH  39  40
ENDBRANCH  28  39
ENDBRANCH  22  23
ENDBRANCH  21  22
ENDBRANCH  17  21
ENDBRANCH   8  14
BRANCH   5  42
HETATM   42  N6  UNL     1       4.628  27.305  64.524  1.00  0.00    -0.382 N 
ATOM     43  H62 UNL     1       4.701  28.197  64.037  1.00  0.00     0.157 HD
ATOM     44  H61 UNL     1       5.469  26.933  64.966  1.00  0.00     0.157 HD
ENDBRANCH   5  42
BRANCH   1  45
HETATM   45  C3  UNL     1      -0.059  29.960  63.610  1.00  0.00     0.108 A 
HETATM   46  N4  UNL     1      -0.944  30.505  64.434  1.00  0.00    -0.326 N 
HETATM   47  C2  UNL     1      -1.602  31.658  64.165  1.00  0.00     0.194 A 
ATOM     48  H4  UNL     1      -1.139  30.031  65.316  1.00  0.00     0.169 HD
HETATM   49  N2  UNL     1      -1.338  32.274  63.003  1.00  0.00    -0.315 N 
HETATM   50  N3  UNL     1      -2.523  32.160  65.105  1.00  0.00    -0.063 NA
HETATM   51  C1  UNL     1      -0.462  31.793  62.121  1.00  0.00     0.128 A 
ATOM     52  H2  UNL     1      -1.825  33.143  62.787  1.00  0.00     0.170 HD
HETATM   53  C19 UNL     1       0.198  30.610  62.419  1.00  0.00     0.120 A 
HETATM   54  N16 UNL     1       1.134  30.077  61.493  1.00  0.00    -0.096 NA
BRANCH  51  55
HETATM   55  N1  UNL     1      -0.197  32.380  60.991  1.00  0.00    -0.384 N 
ATOM     56  H12 UNL     1      -0.533  33.333  60.850  1.00  0.00     0.157 HD
ATOM     57  H11 UNL     1       0.330  31.933  60.241  1.00  0.00     0.157 HD
ENDBRANCH  51  55
ENDBRANCH   1  45
TORSDOF 14
ENDMDL
MODEL 2
REMARK VINA RESULT: -9.013098311      1.562      2.803
REMARK  14 active torsions:
REMARK  status: ('A' for Active; 'I' for Inactive)
REMARK    1  A    between atoms: N1_1  and  C1_4 
REMARK    2  A    between atoms: C3_11  and  C4_12 
REMARK    3  A    between atoms: C6_16  and  N6_17 
REMARK    4  A    between atoms: C7_22  and  N8_23 
REMARK    5  A    between atoms: C9_27  and  C10_28 
REMARK    6  A    between atoms: C10_28  and  S1_29 
REMARK    7  A    between atoms: S1_29  and  C11_30 
REMARK    8  A    between atoms: N10_34  and  C14_35 
REMARK    9  A    between atoms: C14_35  and  O2_36 
REMARK   10  A    between atoms: C14_35  and  C15_38 
REMARK   11  A    between atoms: C15_38  and  C16_39 
REMARK   12  A    between atoms: C16_39  and  O3_40 
REMARK   13  A    between atoms: C17_42  and  C18_43 
REMARK   14  A    between atoms: C18_43  and  O4_44 
ROOT
HETATM    1  C4  UNL     1       0.648  28.579  63.818  1.00  0.00     0.152 A 
HETATM    2  N5  UNL     1       1.973  28.533  64.029  1.00  0.00    -0.320 N 
ATOM      3  H5  UNL     1       2.598  29.339  64.022  1.00  0.00     0.169 HD
HETATM    4  C5  UNL     1       2.356  27.241  64.254  1.00  0.00     0.192 A 
HETATM    5  C6  UNL     1       3.571  26.642  64.518  1.00  0.00     0.163 A 
HETATM    6  N7  UNL     1       3.590  25.303  64.691  1.00  0.00    -0.170 N 
ATOM      7  H7  UNL     1       4.459  24.807  64.887  1.00  0.00     0.186 HD
HETATM    8  C7  UNL     1       2.423  24.651  64.594  1.00  0.00     0.722 A 
HETATM    9  N13 UNL     1       1.247  25.244  64.336  1.00  0.00    -0.107 N 
ATOM     10  H13 UNL     1       0.394  24.688  64.276  1.00  0.00     0.208 HD
HETATM   11  N14 UNL     1       1.199  26.547  64.163  1.00  0.00    -0.160 N 
HETATM   12  N15 UNL     1       0.182  27.342  63.904  1.00  0.00    -0.260 N 
ATOM     13  H15 UNL     1      -0.791  27.057  63.790  1.00  0.00     0.191 HD
ENDROOT
BRANCH   8  14
HETATM   14  N8  UNL     1       2.365  23.218  64.769  1.00  0.00    -0.079 N 
HETATM   15  C8  UNL     1       3.028  22.324  64.010  1.00  0.00     0.227 A 
HETATM   16  N9  UNL     1       2.701  21.111  64.491  1.00  0.00    -0.338 N 
HETATM   17  C9  UNL     1       1.857  21.222  65.523  1.00  0.00     0.107 A 
ATOM     18  H9  UNL     1       3.048  20.227  64.119  1.00  0.00     0.168 HD
HETATM   19  N12 UNL     1       1.663  22.572  65.676  1.00  0.00    -0.266 N 
ATOM     20  H12 UNL     1       1.068  23.005  66.382  1.00  0.00     0.189 HD
BRANCH  17  21
HETATM   21  C10 UNL     1       1.210  20.173  66.371  1.00  0.00     0.153 C 
BRANCH  21  22
HETATM   22  S1  UNL     1       2.111  19.852  67.848  1.00  0.00    -0.128 SA
BRANCH  22  23
HETATM   23  C11 UNL     1       1.342  18.935  69.135  1.00  0.00     0.258 C 
HETATM   24  C12 UNL     1       0.848  19.716  70.330  1.00  0.00     0.147 C 
HETATM   25  C13 UNL     1      -0.182  18.805  70.961  1.00  0.00     0.226 C 
HETATM   26  O1  UNL     1      -1.126  19.205  71.653  1.00  0.00    -0.273 OA
HETATM   27  N10 UNL     1      -0.001  17.419  70.708  1.00  0.00    -0.295 N 
HETATM   28  C17 UNL     1       1.333  16.944  70.418  1.00  0.00     0.315 C 
HETATM   29  N11 UNL     1       2.138  17.812  69.621  1.00  0.00    -0.038 N 
ATOM     30 2H11 UNL     1       2.596  17.312  68.859  1.00  0.00     0.281 HD
ATOM     31 1H11 UNL     1       2.971  18.123  70.119  1.00  0.00     0.281 HD
BRANCH  27  32
HETATM   32  C14 UNL     1      -1.139  16.496  70.749  1.00  0.00     0.226 C 
BRANCH  32  33
HETATM   33  O2  UNL     1      -2.166  17.074  70.007  1.00  0.00    -0.377 OA
ATOM     34  H2  UNL     1      -2.085  18.016  70.099  1.00  0.00     0.212 HD
ENDBRANCH  32  33
BRANCH  32  35
HETATM   35  C15 UNL     1      -0.686  15.177  70.195  1.00  0.00     0.079 C 
BRANCH  35  36
HETATM   36  C16 UNL     1      -0.899  14.046  71.176  1.00  0.00     0.168 C 
BRANCH  36  37
HETATM   37  O3  UNL     1      -0.522  14.501  72.435  1.00  0.00    -0.401 OA
ATOM     38  H3  UNL     1       0.286  14.059  72.670  1.00  0.00     0.209 HD
ENDBRANCH  36  37
ENDBRANCH  35  36
ENDBRANCH  32  35
ENDBRANCH  27  32
BRANCH  28  39
HETATM   39  C18 UNL     1       2.022  16.667  71.761  1.00  0.00     0.218 C 
BRANCH  39  40
HETATM   40  O4  UNL     1       2.421  15.332  71.832  1.00  0.00    -0.397 OA
ATOM     41  H4  UNL     1       1.725  14.800  72.199  1.00  0.00     0.209 HD
ENDBRANCH  39  40
ENDBRANCH  28  39
ENDBRANCH  22  23
ENDBRANCH  21  22
ENDBRANCH  17  21
ENDBRANCH   8  14
BRANCH   5  42
HETATM   42  N6  UNL     1       4.657  27.347  64.600  1.00  0.00    -0.382 N 
ATOM     43  H62 UNL     1       4.923  27.998  63.862  1.00  0.00     0.157 HD
ATOM     44  H61 UNL     1       5.275  27.265  65.407  1.00  0.00     0.157 HD
ENDBRANCH   5  42
BRANCH   1  45
HETATM   45  C3  UNL     1      -0.094  29.826  63.537  1.00  0.00     0.108 A 
HETATM   46  N4  UNL     1      -0.964  30.332  64.401  1.00  0.00    -0.326 N 
HETATM   47  C2  UNL     1      -1.662  31.471  64.176  1.00  0.00     0.194 A 
ATOM     48  H4  UNL     1      -1.115  29.838  65.280  1.00  0.00     0.169 HD
HETATM   49  N2  UNL     1      -1.455  32.115  63.018  1.00  0.00    -0.315 N 
HETATM   50  N3  UNL     1      -2.563  31.931  65.157  1.00  0.00    -0.063 NA
HETATM   51  C1  UNL     1      -0.599  31.674  62.097  1.00  0.00     0.128 A 
ATOM     52  H2  UNL     1      -1.974  32.974  62.835  1.00  0.00     0.170 HD
HETATM   53  C19 UNL     1       0.103  30.504  62.351  1.00  0.00     0.120 A 
HETATM   54  N16 UNL     1       1.020  30.014  61.383  1.00  0.00    -0.096 NA
BRANCH  51  55
HETATM   55  N1  UNL     1      -0.389  32.288  60.970  1.00  0.00    -0.384 N 
ATOM     56  H12 UNL     1      -0.162  33.282  60.995  1.00  0.00     0.157 HD
ATOM     57  H11 UNL     1      -0.442  31.823  60.064  1.00  0.00     0.157 HD
ENDBRANCH  51  55
ENDBRANCH   1  45
TORSDOF 14
ENDMDL
MODEL 3
REMARK VINA RESULT: -8.900680485      3.126      5.929
REMARK  14 active torsions:
REMARK  status: ('A' for Active; 'I' for Inactive)
REMARK    1  A    between atoms: N1_1  and  C1_4 
REMARK    2  A    between atoms: C3_11  and  C4_12 
REMARK    3  A    between atoms: C6_16  and  N6_17 
REMARK    4  A    between atoms: C7_22  and  N8_23 
REMARK    5  A    between atoms: C9_27  and  C10_28 
REMARK    6  A    between atoms: C10_28  and  S1_29 
REMARK    7  A    between atoms: S1_29  and  C11_30 
REMARK    8  A    between atoms: N10_34  and  C14_35 
REMARK    9  A    between atoms: C14_35  and  O2_36 
REMARK   10  A    between atoms: C14_35  and  C15_38 
REMARK   11  A    between atoms: C15_38  and  C16_39 
REMARK   12  A    between atoms: C16_39  and  O3_40 
REMARK   13  A    between atoms: C17_42  and  C18_43 
REMARK   14  A    between atoms: C18_43  and  O4_44 
ROOT
HETATM    1  C4  UNL     1       2.584  24.138  66.008  1.00  0.00     0.152 A 
HETATM    2  N5  UNL     1       1.996  23.131  65.343  1.00  0.00    -0.320 N 
ATOM      3  H5  UNL     1       1.709  23.161  64.364  1.00  0.00     0.169 HD
HETATM    4  C5  UNL     1       1.841  22.060  66.177  1.00  0.00     0.192 A 
HETATM    5  C6  UNL     1       1.306  20.798  66.013  1.00  0.00     0.163 A 
HETATM    6  N7  UNL     1       1.311  19.968  67.079  1.00  0.00    -0.170 N 
ATOM      7  H7  UNL     1       0.929  19.025  67.017  1.00  0.00     0.186 HD
HETATM    8  C7  UNL     1       1.836  20.432  68.221  1.00  0.00     0.722 A 
HETATM    9  N13 UNL     1       2.353  21.662  68.369  1.00  0.00    -0.107 N 
ATOM     10  H13 UNL     1       2.738  21.952  69.267  1.00  0.00     0.208 HD
HETATM   11  N14 UNL     1       2.361  22.492  67.348  1.00  0.00    -0.160 N 
HETATM   12  N15 UNL     1       2.804  23.727  67.248  1.00  0.00    -0.260 N 
ATOM     13  H15 UNL     1       3.240  24.272  67.993  1.00  0.00     0.191 HD
ENDROOT
BRANCH   8  14
HETATM   14  N8  UNL     1       1.879  19.601  69.402  1.00  0.00    -0.079 N 
HETATM   15  C8  UNL     1       2.164  20.044  70.642  1.00  0.00     0.227 A 
HETATM   16  N9  UNL     1       2.107  18.967  71.445  1.00  0.00    -0.338 N 
HETATM   17  C9  UNL     1       1.796  17.870  70.745  1.00  0.00     0.107 A 
ATOM     18  H9  UNL     1       2.278  18.983  72.451  1.00  0.00     0.168 HD
HETATM   19  N12 UNL     1       1.656  18.304  69.451  1.00  0.00    -0.266 N 
ATOM     20  H12 UNL     1       1.417  17.715  68.654  1.00  0.00     0.189 HD
BRANCH  17  21
HETATM   21  C10 UNL     1       1.627  16.449  71.183  1.00  0.00     0.153 C 
BRANCH  21  22
HETATM   22  S1  UNL     1       0.052  15.795  70.749  1.00  0.00    -0.128 SA
BRANCH  22  23
HETATM   23  C11 UNL     1      -1.396  16.677  71.212  1.00  0.00     0.258 C 
HETATM   24  C12 UNL     1      -2.466  15.899  71.941  1.00  0.00     0.147 C 
HETATM   25  C13 UNL     1      -3.276  16.966  72.645  1.00  0.00     0.226 C 
HETATM   26  O1  UNL     1      -3.930  16.769  73.676  1.00  0.00    -0.273 OA
HETATM   27  N10 UNL     1      -3.245  18.250  72.038  1.00  0.00    -0.295 N 
HETATM   28  C17 UNL     1      -2.985  18.330  70.618  1.00  0.00     0.315 C 
HETATM   29  N11 UNL     1      -2.027  17.401  70.113  1.00  0.00    -0.038 N 
ATOM     30 2H11 UNL     1      -1.339  17.854  69.510  1.00  0.00     0.281 HD
ATOM     31 1H11 UNL     1      -2.435  16.769  69.425  1.00  0.00     0.281 HD
BRANCH  27  32
HETATM   32  C14 UNL     1      -3.480  19.459  72.832  1.00  0.00     0.226 C 
BRANCH  32  33
HETATM   33  O2  UNL     1      -2.993  19.213  74.113  1.00  0.00    -0.377 OA
ATOM     34  H2  UNL     1      -2.055  19.368  74.093  1.00  0.00     0.212 HD
ENDBRANCH  32  33
BRANCH  32  35
HETATM   35  C15 UNL     1      -2.787  20.602  72.150  1.00  0.00     0.079 C 
BRANCH  35  36
HETATM   36  C16 UNL     1      -1.555  21.052  72.905  1.00  0.00     0.168 C 
BRANCH  36  37
HETATM   37  O3  UNL     1      -0.605  20.041  72.803  1.00  0.00    -0.401 OA
ATOM     38  H3  UNL     1       0.155  20.404  72.363  1.00  0.00     0.209 HD
ENDBRANCH  36  37
ENDBRANCH  35  36
ENDBRANCH  32  35
ENDBRANCH  27  32
BRANCH  28  39
HETATM   39  C18 UNL     1      -4.328  18.153  69.896  1.00  0.00     0.218 C 
BRANCH  39  40
HETATM   40  O4  UNL     1      -4.375  16.910  69.265  1.00  0.00    -0.397 OA
ATOM     41  H4  UNL     1      -3.497  16.609  69.064  1.00  0.00     0.209 HD
ENDBRANCH  39  40
ENDBRANCH  28  39
ENDBRANCH  22  23
ENDBRANCH  21  22
ENDBRANCH  17  21
ENDBRANCH   8  14
BRANCH   5  42
HETATM   42  N6  UNL     1       0.820  20.423  64.870  1.00  0.00    -0.382 N 
ATOM     43  H62 UNL     1       0.099  19.704  64.812  1.00  0.00     0.157 HD
ATOM     44  H61 UNL     1       1.149  20.839  63.999  1.00  0.00     0.157 HD
ENDBRANCH   5  42
BRANCH   1  45
HETATM   45  C3  UNL     1       2.895  25.449  65.402  1.00  0.00     0.108 A 
HETATM   46  N4  UNL     1       4.143  25.874  65.256  1.00  0.00    -0.326 N 
HETATM   47  C2  UNL     1       4.465  27.069  64.707  1.00  0.00     0.194 A 
ATOM     48  H4  UNL     1       4.900  25.268  65.574  1.00  0.00     0.169 HD
HETATM   49  N2  UNL     1       3.463  27.858  64.290  1.00  0.00    -0.315 N 
HETATM   50  N3  UNL     1       5.821  27.432  64.593  1.00  0.00    -0.063 NA
HETATM   51  C1  UNL     1       2.182  27.506  64.400  1.00  0.00     0.128 A 
ATOM     52  H2  UNL     1       3.690  28.761  63.874  1.00  0.00     0.170 HD
HETATM   53  C19 UNL     1       1.879  26.276  64.967  1.00  0.00     0.120 A 
HETATM   54  N16 UNL     1       0.521  25.880  65.096  1.00  0.00    -0.096 NA
BRANCH  51  55
HETATM   55  N1  UNL     1       1.202  28.260  64.000  1.00  0.00    -0.384 N 
ATOM     56  H12 UNL     1       1.117  28.458  63.003  1.00  0.00     0.157 HD
ATOM     57  H11 UNL     1       0.514  28.663  64.636  1.00  0.00     0.157 HD
ENDBRANCH  51  55
ENDBRANCH   1  45
TORSDOF 14
ENDMDL
MODEL 4
REMARK VINA RESULT: -8.848901883      1.491      2.925
REMARK  14 active torsions:
REMARK  status: ('A' for Active; 'I' for Inactive)
REMARK    1  A    between atoms: N1_1  and  C1_4 
REMARK    2  A    between atoms: C3_11  and  C4_12 
REMARK    3  A    between atoms: C6_16  and  N6_17 
REMARK    4  A    between atoms: C7_22  and  N8_23 
REMARK    5  A    between atoms: C9_27  and  C10_28 
REMARK    6  A    between atoms: C10_28  and  S1_29 
REMARK    7  A    between atoms: S1_29  and  C11_30 
REMARK    8  A    between atoms: N10_34  and  C14_35 
REMARK    9  A    between atoms: C14_35  and  O2_36 
REMARK   10  A    between atoms: C14_35  and  C15_38 
REMARK   11  A    between atoms: C15_38  and  C16_39 
REMARK   12  A    between atoms: C16_39  and  O3_40 
REMARK   13  A    between atoms: C17_42  and  C18_43 
REMARK   14  A    between atoms: C18_43  and  O4_44 
ROOT
HETATM    1  C4  UNL     1       0.763  28.609  63.762  1.00  0.00     0.152 A 
HETATM    2  N5  UNL     1       2.086  28.500  63.961  1.00  0.00    -0.320 N 
ATOM      3  H5  UNL     1       2.757  29.266  63.885  1.00  0.00     0.169 HD
HETATM    4  C5  UNL     1       2.397  27.210  64.280  1.00  0.00     0.192 A 
HETATM    5  C6  UNL     1       3.581  26.562  64.576  1.00  0.00     0.163 A 
HETATM    6  N7  UNL     1       3.525  25.241  64.851  1.00  0.00    -0.170 N 
ATOM      7  H7  UNL     1       4.367  24.711  65.075  1.00  0.00     0.186 HD
HETATM    8  C7  UNL     1       2.321  24.653  64.817  1.00  0.00     0.722 A 
HETATM    9  N13 UNL     1       1.177  25.293  64.528  1.00  0.00    -0.107 N 
ATOM     10  H13 UNL     1       0.293  24.784  64.520  1.00  0.00     0.208 HD
HETATM   11  N14 UNL     1       1.201  26.579  64.256  1.00  0.00    -0.160 N 
HETATM   12  N15 UNL     1       0.228  27.411  63.948  1.00  0.00    -0.260 N 
ATOM     13  H15 UNL     1      -0.761  27.175  63.867  1.00  0.00     0.191 HD
ENDROOT
BRANCH   8  14
HETATM   14  N8  UNL     1       2.183  23.244  65.102  1.00  0.00    -0.079 N 
HETATM   15  C8  UNL     1       2.655  22.253  64.321  1.00  0.00     0.227 A 
HETATM   16  N9  UNL     1       2.315  21.103  64.931  1.00  0.00    -0.338 N 
HETATM   17  C9  UNL     1       1.648  21.347  66.065  1.00  0.00     0.107 A 
ATOM     18  H9  UNL     1       2.534  20.172  64.578  1.00  0.00     0.168 HD
HETATM   19  N12 UNL     1       1.580  22.715  66.147  1.00  0.00    -0.266 N 
ATOM     20  H12 UNL     1       1.134  23.240  66.899  1.00  0.00     0.189 HD
BRANCH  17  21
HETATM   21  C10 UNL     1       1.060  20.410  67.072  1.00  0.00     0.153 C 
BRANCH  21  22
HETATM   22  S1  UNL     1       2.230  19.911  68.289  1.00  0.00    -0.128 SA
BRANCH  22  23
HETATM   23  C11 UNL     1       1.659  19.101  69.741  1.00  0.00     0.258 C 
HETATM   24  C12 UNL     1       1.811  19.848  71.045  1.00  0.00     0.147 C 
HETATM   25  C13 UNL     1       0.803  19.190  71.962  1.00  0.00     0.226 C 
HETATM   26  O1  UNL     1       0.281  19.752  72.932  1.00  0.00    -0.273 OA
HETATM   27  N10 UNL     1       0.479  17.845  71.639  1.00  0.00    -0.295 N 
HETATM   28  C17 UNL     1       1.456  17.057  70.921  1.00  0.00     0.315 C 
HETATM   29  N11 UNL     1       2.195  17.756  69.920  1.00  0.00    -0.038 N 
ATOM     30 2H11 UNL     1       2.228  17.239  69.041  1.00  0.00     0.281 HD
ATOM     31 1H11 UNL     1       3.195  17.769  70.124  1.00  0.00     0.281 HD
BRANCH  27  32
HETATM   32  C14 UNL     1      -0.811  17.271  72.034  1.00  0.00     0.226 C 
BRANCH  32  33
HETATM   33  O2  UNL     1      -1.793  18.203  71.712  1.00  0.00    -0.377 OA
ATOM     34  H2  UNL     1      -1.615  18.987  72.218  1.00  0.00     0.212 HD
ENDBRANCH  32  33
BRANCH  32  35
HETATM   35  C15 UNL     1      -0.978  15.967  71.310  1.00  0.00     0.079 C 
BRANCH  35  36
HETATM   36  C16 UNL     1      -0.986  14.788  72.258  1.00  0.00     0.168 C 
BRANCH  36  37
HETATM   37  O3  UNL     1      -0.706  15.269  73.533  1.00  0.00    -0.401 OA
ATOM     38  H3  UNL     1      -0.033  14.714  73.909  1.00  0.00     0.209 HD
ENDBRANCH  36  37
ENDBRANCH  35  36
ENDBRANCH  32  35
ENDBRANCH  27  32
BRANCH  28  39
HETATM   39  C18 UNL     1       2.410  16.453  71.960  1.00  0.00     0.218 C 
BRANCH  39  40
HETATM   40  O4  UNL     1       2.457  15.066  71.822  1.00  0.00    -0.397 OA
ATOM     41  H4  UNL     1       2.574  14.830  70.910  1.00  0.00     0.209 HD
ENDBRANCH  39  40
ENDBRANCH  28  39
ENDBRANCH  22  23
ENDBRANCH  21  22
ENDBRANCH  17  21
ENDBRANCH   8  14
BRANCH   5  42
HETATM   42  N6  UNL     1       4.706  27.207  64.592  1.00  0.00    -0.382 N 
ATOM     43  H62 UNL     1       5.065  27.666  63.755  1.00  0.00     0.157 HD
ATOM     44  H61 UNL     1       5.263  27.268  65.444  1.00  0.00     0.157 HD
ENDBRANCH   5  42
BRANCH   1  45
HETATM   45  C3  UNL     1       0.090  29.872  63.394  1.00  0.00     0.108 A 
HETATM   46  N4  UNL     1       0.447  30.569  62.324  1.00  0.00    -0.326 N 
HETATM   47  C2  UNL     1      -0.146  31.731  61.958  1.00  0.00     0.194 A 
ATOM     48  H4  UNL     1       1.208  30.212  61.746  1.00  0.00     0.169 HD
HETATM   49  N2  UNL     1      -1.146  32.192  62.723  1.00  0.00    -0.315 N 
HETATM   50  N3  UNL     1       0.303  32.399  60.802  1.00  0.00    -0.063 NA
HETATM   51  C1  UNL     1      -1.566  31.552  63.815  1.00  0.00     0.128 A 
ATOM     52  H2  UNL     1      -1.603  33.065  62.460  1.00  0.00     0.170 HD
HETATM   53  C19 UNL     1      -0.941  30.364  64.168  1.00  0.00     0.120 A 
HETATM   54  N16 UNL     1      -1.371  29.666  65.328  1.00  0.00    -0.096 NA
BRANCH  51  55
HETATM   55  N1  UNL     1      -2.535  31.988  64.565  1.00  0.00    -0.384 N 
ATOM     56  H12 UNL     1      -3.276  32.536  64.129  1.00  0.00     0.157 HD
ATOM     57  H11 UNL     1      -2.587  31.807  65.568  1.00  0.00     0.157 HD
ENDBRANCH  51  55
ENDBRANCH   1  45
TORSDOF 14
ENDMDL
MODEL 5
REMARK VINA RESULT: -8.839549056      4.915     12.742
REMARK  14 active torsions:
REMARK  status: ('A' for Active; 'I' for Inactive)
REMARK    1  A    between atoms: N1_1  and  C1_4 
REMARK    2  A    between atoms: C3_11  and  C4_12 
REMARK    3  A    between atoms: C6_16  and  N6_17 
REMARK    4  A    between atoms: C7_22  and  N8_23 
REMARK    5  A    between atoms: C9_27  and  C10_28 
REMARK    6  A    between atoms: C10_28  and  S1_29 
REMARK    7  A    between atoms: S1_29  and  C11_30 
REMARK    8  A    between atoms: N10_34  and  C14_35 
REMARK    9  A    between atoms: C14_35  and  O2_36 
REMARK   10  A    between atoms: C14_35  and  C15_38 
REMARK   11  A    between atoms: C15_38  and  C16_39 
REMARK   12  A    between atoms: C16_39  and  O3_40 
REMARK   13  A    between atoms: C17_42  and  C18_43 
REMARK   14  A    between atoms: C18_43  and  O4_44 
ROOT
HETATM    1  C4  UNL     1       1.451  18.969  70.199  1.00  0.00     0.152 A 
HETATM    2  N5  UNL     1       0.472  19.887  70.185  1.00  0.00    -0.320 N 
ATOM      3  H5  UNL     1      -0.295  19.940  70.857  1.00  0.00     0.169 HD
HETATM    4  C5  UNL     1       0.659  20.740  69.136  1.00  0.00     0.192 A 
HETATM    5  C6  UNL     1      -0.036  21.838  68.667  1.00  0.00     0.163 A 
HETATM    6  N7  UNL     1       0.441  22.464  67.570  1.00  0.00    -0.170 N 
ATOM      7  H7  UNL     1      -0.031  23.279  67.179  1.00  0.00     0.186 HD
HETATM    8  C7  UNL     1       1.558  21.974  67.014  1.00  0.00     0.722 A 
HETATM    9  N13 UNL     1       2.225  20.906  67.479  1.00  0.00    -0.107 N 
ATOM     10  H13 UNL     1       3.070  20.585  67.008  1.00  0.00     0.208 HD
HETATM   11  N14 UNL     1       1.783  20.276  68.545  1.00  0.00    -0.160 N 
HETATM   12  N15 UNL     1       2.256  19.222  69.178  1.00  0.00    -0.260 N 
ATOM     13  H15 UNL     1       3.092  18.695  68.927  1.00  0.00     0.191 HD
ENDROOT
BRANCH   8  14
HETATM   14  N8  UNL     1       2.129  22.594  65.841  1.00  0.00    -0.079 N 
HETATM   15  C8  UNL     1       2.604  21.923  64.774  1.00  0.00     0.227 A 
HETATM   16  N9  UNL     1       3.048  22.857  63.913  1.00  0.00    -0.338 N 
HETATM   17  C9  UNL     1       2.863  24.085  64.411  1.00  0.00     0.107 A 
ATOM     18  H9  UNL     1       3.469  22.657  63.006  1.00  0.00     0.168 HD
HETATM   19  N12 UNL     1       2.277  23.886  65.635  1.00  0.00    -0.266 N 
ATOM     20  H12 UNL     1       2.000  24.623  66.283  1.00  0.00     0.189 HD
BRANCH  17  21
HETATM   21  C10 UNL     1       3.197  25.428  63.842  1.00  0.00     0.153 C 
BRANCH  21  22
HETATM   22  S1  UNL     1       2.447  26.743  64.739  1.00  0.00    -0.128 SA
BRANCH  22  23
HETATM   23  C11 UNL     1       1.194  27.702  63.963  1.00  0.00     0.258 C 
HETATM   24  C12 UNL     1       0.760  27.270  62.582  1.00  0.00     0.147 C 
HETATM   25  C13 UNL     1      -0.608  27.894  62.418  1.00  0.00     0.226 C 
HETATM   26  O1  UNL     1      -1.487  27.447  61.672  1.00  0.00    -0.273 OA
HETATM   27  N10 UNL     1      -0.837  29.063  63.192  1.00  0.00    -0.295 N 
HETATM   28  C17 UNL     1       0.303  29.863  63.581  1.00  0.00     0.315 C 
HETATM   29  N11 UNL     1       1.480  29.133  63.926  1.00  0.00    -0.038 N 
ATOM     30 2H11 UNL     1       1.889  29.463  64.800  1.00  0.00     0.281 HD
ATOM     31 1H11 UNL     1       2.258  29.349  63.303  1.00  0.00     0.281 HD
BRANCH  27  32
HETATM   32  C14 UNL     1      -2.198  29.450  63.578  1.00  0.00     0.226 C 
BRANCH  32  33
HETATM   33  O2  UNL     1      -2.906  28.277  63.825  1.00  0.00    -0.377 OA
ATOM     34  H2  UNL     1      -2.922  28.150  64.766  1.00  0.00     0.212 HD
ENDBRANCH  32  33
BRANCH  32  35
HETATM   35  C15 UNL     1      -2.101  30.341  64.782  1.00  0.00     0.079 C 
BRANCH  35  36
HETATM   36  C16 UNL     1      -2.582  29.652  66.040  1.00  0.00     0.168 C 
BRANCH  36  37
HETATM   37  O3  UNL     1      -1.604  28.740  66.421  1.00  0.00    -0.401 OA
ATOM     38  H3  UNL     1      -2.034  28.041  66.899  1.00  0.00     0.209 HD
ENDBRANCH  36  37
ENDBRANCH  35  36
ENDBRANCH  32  35
ENDBRANCH  27  32
BRANCH  28  39
HETATM   39  C18 UNL     1       0.598  30.830  62.427  1.00  0.00     0.218 C 
BRANCH  39  40
HETATM   40  O4  UNL     1       1.970  30.887  62.183  1.00  0.00    -0.397 OA
ATOM     41  H4  UNL     1       2.170  31.601  61.590  1.00  0.00     0.209 HD
ENDBRANCH  39  40
ENDBRANCH  28  39
ENDBRANCH  22  23
ENDBRANCH  21  22
ENDBRANCH  17  21
ENDBRANCH   8  14
BRANCH   5  42
HETATM   42  N6  UNL     1      -1.109  22.252  69.266  1.00  0.00    -0.382 N 
ATOM     43  H62 UNL     1      -2.029  22.145  68.839  1.00  0.00     0.157 HD
ATOM     44  H61 UNL     1      -1.059  22.699  70.181  1.00  0.00     0.157 HD
ENDBRANCH   5  42
BRANCH   1  45
HETATM   45  C3  UNL     1       1.548  17.889  71.204  1.00  0.00     0.108 A 
HETATM   46  N4  UNL     1       2.133  18.078  72.379  1.00  0.00    -0.326 N 
HETATM   47  C2  UNL     1       2.241  17.112  73.322  1.00  0.00     0.194 A 
ATOM     48  H4  UNL     1       2.521  18.999  72.583  1.00  0.00     0.169 HD
HETATM   49  N2  UNL     1       1.726  15.905  73.046  1.00  0.00    -0.315 N 
HETATM   50  N3  UNL     1       2.879  17.409  74.543  1.00  0.00    -0.063 NA
HETATM   51  C1  UNL     1       1.122  15.633  71.889  1.00  0.00     0.128 A 
ATOM     52  H2  UNL     1       1.800  15.167  73.746  1.00  0.00     0.170 HD
HETATM   53  C19 UNL     1       1.025  16.640  70.939  1.00  0.00     0.120 A 
HETATM   54  N16 UNL     1       0.387  16.372  69.698  1.00  0.00    -0.096 NA
BRANCH  51  55
HETATM   55  N1  UNL     1       0.619  14.467  71.607  1.00  0.00    -0.384 N 
ATOM     56  H12 UNL     1       0.717  13.719  72.293  1.00  0.00     0.157 HD
ATOM     57  H11 UNL     1       0.132  14.267  70.734  1.00  0.00     0.157 HD
ENDBRANCH  51  55
ENDBRANCH   1  45
TORSDOF 14
ENDMDL
