MODEL 1
REMARK VINA RESULT: -6.551932752      0.000      0.000
REMARK  9 active torsions:
REMARK  status: ('A' for Active; 'I' for Inactive)
REMARK    1  A    between atoms: C8_9  and  N2_10 
REMARK    2  A    between atoms: N2_10  and  C9_12 
REMARK    3  A    between atoms: C10_15  and  N4_16 
REMARK    4  A    between atoms: N4_16  and  C11_18 
REMARK    5  A    between atoms: C11_18  and  O1_19 
REMARK    6  A    between atoms: C11_18  and  N5_21 
REMARK    7  A    between atoms: N5_21  and  C12_23 
REMARK    8  A    between atoms: C13_26  and  O2_27 
REMARK    9  A    between atoms: N10_35  and  N11_36 
ROOT
HETATM    1  N1  UNL     1      77.039 -11.003 -53.280  1.00  0.00    -0.191 NA
HETATM    2  C1  UNL     1      76.633 -11.765 -52.510  1.00  0.00     0.099 C 
HETATM    3  C2  UNL     1      76.149 -12.723 -51.547  1.00  0.00     0.045 A 
HETATM    4  C3  UNL     1      74.790 -12.891 -51.422  1.00  0.00     0.025 A 
HETATM    5  C4  UNL     1      74.320 -13.802 -50.508  1.00  0.00     0.032 A 
HETATM    6  C5  UNL     1      75.211 -14.551 -49.711  1.00  0.00     0.046 A 
HETATM    7  C6  UNL     1      76.558 -14.399 -49.816  1.00  0.00     0.013 A 
HETATM    8  C7  UNL     1      76.996 -13.463 -50.759  1.00  0.00     0.036 A 
HETATM    9  C8  UNL     1      77.557 -15.127 -48.968  1.00  0.00     0.239 C 
HETATM   10  N12 UNL     1      76.905 -16.179 -48.202  1.00  0.00    -0.317 N 
ATOM     11  H12 UNL     1      77.499 -16.853 -47.718  1.00  0.00     0.166 HD
HETATM   12  C15 UNL     1      75.513 -16.330 -48.085  1.00  0.00     0.322 C 
HETATM   13  O3  UNL     1      75.036 -17.200 -47.293  1.00  0.00    -0.247 OA
HETATM   14  N13 UNL     1      74.619 -15.524 -48.834  1.00  0.00    -0.308 N 
ATOM     15  H13 UNL     1      73.607 -15.630 -48.756  1.00  0.00     0.170 HD
ENDROOT
BRANCH   9  16
HETATM   16  N2  UNL     1      78.607 -15.643 -49.772  1.00  0.00    -0.198 N 
ATOM     17  H2  UNL     1      79.526 -15.373 -49.421  1.00  0.00     0.180 HD
BRANCH  16  18
HETATM   18  C9  UNL     1      78.695 -16.428 -50.921  1.00  0.00     0.730 A 
HETATM   19  N3  UNL     1      78.001 -17.628 -50.947  1.00  0.00    -0.020 N 
HETATM   20  C10 UNL     1      78.027 -18.477 -51.960  1.00  0.00     0.710 A 
ATOM     21  H3  UNL     1      77.435 -17.871 -50.134  1.00  0.00     0.203 HD
HETATM   22  N8  UNL     1      78.788 -18.122 -53.022  1.00  0.00    -0.020 N 
HETATM   23  C14 UNL     1      79.475 -16.984 -53.050  1.00  0.00     0.726 A 
ATOM     24  H8  UNL     1      78.837 -18.747 -53.826  1.00  0.00     0.203 HD
HETATM   25  N9  UNL     1      80.210 -16.646 -54.081  1.00  0.00    -0.232 N 
HETATM   26  N10 UNL     1      79.428 -16.127 -51.985  1.00  0.00     0.084 N 
ATOM     27  H92 UNL     1      80.246 -17.285 -54.876  1.00  0.00     0.174 HD
ATOM     28  H91 UNL     1      80.738 -15.774 -54.103  1.00  0.00     0.174 HD
BRANCH  20  29
HETATM   29  N4  UNL     1      77.307 -19.700 -51.956  1.00  0.00    -0.181 N 
ATOM     30  H4  UNL     1      77.682 -20.509 -51.463  1.00  0.00     0.182 HD
BRANCH  29  31
HETATM   31  C11 UNL     1      76.019 -19.801 -52.664  1.00  0.00     0.339 C 
BRANCH  31  32
HETATM   32  O1  UNL     1      75.548 -18.494 -52.818  1.00  0.00    -0.359 OA
ATOM     33  H1  UNL     1      74.610 -18.561 -52.954  1.00  0.00     0.214 HD
ENDBRANCH  31  32
BRANCH  31  34
HETATM   34  N5  UNL     1      76.236 -20.390 -53.929  1.00  0.00    -0.358 N 
ATOM     35  H5  UNL     1      77.152 -20.313 -54.372  1.00  0.00     0.159 HD
BRANCH  34  36
HETATM   36  C12 UNL     1      75.204 -21.078 -54.582  1.00  0.00     0.237 C 
HETATM   37  N6  UNL     1      73.860 -20.777 -54.066  1.00  0.00    -0.116 NA
HETATM   38  N7  UNL     1      73.655 -19.918 -55.162  1.00  0.00    -0.111 NA
HETATM   39  C13 UNL     1      74.672 -20.641 -55.900  1.00  0.00     0.266 C 
BRANCH  39  40
HETATM   40  O2  UNL     1      75.488 -19.891 -56.726  1.00  0.00    -0.375 OA
ATOM     41  H2  UNL     1      75.126 -19.552 -57.537  1.00  0.00     0.211 HD
ENDBRANCH  39  40
ENDBRANCH  34  36
ENDBRANCH  31  34
ENDBRANCH  29  31
ENDBRANCH  20  29
BRANCH  26  42
HETATM   42  N11 UNL     1      80.215 -14.945 -52.095  1.00  0.00    -0.309 N 
ATOM     43 2H11 UNL     1      79.904 -14.146 -51.543  1.00  0.00     0.178 HD
ATOM     44 1H11 UNL     1      81.037 -14.865 -52.694  1.00  0.00     0.178 HD
ENDBRANCH  26  42
ENDBRANCH  16  18
ENDBRANCH   9  16
TORSDOF 9
ENDMDL
MODEL 2
REMARK VINA RESULT: -6.505717043      5.040      9.780
REMARK  9 active torsions:
REMARK  status: ('A' for Active; 'I' for Inactive)
REMARK    1  A    between atoms: C8_9  and  N2_10 
REMARK    2  A    between atoms: N2_10  and  C9_12 
REMARK    3  A    between atoms: C10_15  and  N4_16 
REMARK    4  A    between atoms: N4_16  and  C11_18 
REMARK    5  A    between atoms: C11_18  and  O1_19 
REMARK    6  A    between atoms: C11_18  and  N5_21 
REMARK    7  A    between atoms: N5_21  and  C12_23 
REMARK    8  A    between atoms: C13_26  and  O2_27 
REMARK    9  A    between atoms: N10_35  and  N11_36 
ROOT
HETATM    1  N1  UNL     1      81.414 -14.631 -48.971  1.00  0.00    -0.191 NA
HETATM    2  C1  UNL     1      80.270 -14.600 -49.142  1.00  0.00     0.099 C 
HETATM    3  C2  UNL     1      78.848 -14.543 -49.371  1.00  0.00     0.045 A 
HETATM    4  C3  UNL     1      78.025 -15.277 -48.550  1.00  0.00     0.025 A 
HETATM    5  C4  UNL     1      76.669 -15.228 -48.761  1.00  0.00     0.032 A 
HETATM    6  C5  UNL     1      76.127 -14.441 -49.798  1.00  0.00     0.046 A 
HETATM    7  C6  UNL     1      76.922 -13.709 -50.624  1.00  0.00     0.013 A 
HETATM    8  C7  UNL     1      78.296 -13.785 -50.375  1.00  0.00     0.036 A 
HETATM    9  C8  UNL     1      76.416 -12.891 -51.773  1.00  0.00     0.239 C 
HETATM   10  N12 UNL     1      74.963 -12.795 -51.731  1.00  0.00    -0.317 N 
ATOM     11  H12 UNL     1      74.512 -12.128 -52.358  1.00  0.00     0.166 HD
HETATM   12  C15 UNL     1      74.142 -13.560 -50.886  1.00  0.00     0.322 C 
HETATM   13  O3  UNL     1      72.880 -13.500 -51.009  1.00  0.00    -0.247 OA
HETATM   14  N13 UNL     1      74.693 -14.406 -49.891  1.00  0.00    -0.308 N 
ATOM     15  H13 UNL     1      74.102 -14.962 -49.272  1.00  0.00     0.170 HD
ENDROOT
BRANCH   9  16
HETATM   16  N2  UNL     1      77.021 -11.606 -51.773  1.00  0.00    -0.198 N 
ATOM     17  H2  UNL     1      77.211 -11.272 -50.828  1.00  0.00     0.180 HD
BRANCH  16  18
HETATM   18  C9  UNL     1      77.422 -10.688 -52.743  1.00  0.00     0.730 A 
HETATM   19  N3  UNL     1      77.809  -9.423 -52.324  1.00  0.00    -0.020 N 
HETATM   20  C10 UNL     1      78.178  -8.453 -53.143  1.00  0.00     0.710 A 
ATOM     21  H3  UNL     1      77.808  -9.230 -51.323  1.00  0.00     0.203 HD
HETATM   22  N8  UNL     1      78.166  -8.746 -54.465  1.00  0.00    -0.020 N 
HETATM   23  C14 UNL     1      77.803  -9.941 -54.922  1.00  0.00     0.726 A 
ATOM     24  H8  UNL     1      78.445  -8.027 -55.133  1.00  0.00     0.203 HD
HETATM   25  N9  UNL     1      77.795 -10.217 -56.203  1.00  0.00    -0.232 N 
HETATM   26  N10 UNL     1      77.426 -10.924 -54.048  1.00  0.00     0.084 N 
ATOM     27  H92 UNL     1      78.076  -9.485 -56.854  1.00  0.00     0.174 HD
ATOM     28  H91 UNL     1      77.516 -11.134 -56.553  1.00  0.00     0.174 HD
BRANCH  20  29
HETATM   29  N4  UNL     1      78.566  -7.168 -52.685  1.00  0.00    -0.181 N 
ATOM     30  H4  UNL     1      79.555  -6.943 -52.578  1.00  0.00     0.182 HD
BRANCH  29  31
HETATM   31  C11 UNL     1      77.543  -6.157 -52.365  1.00  0.00     0.339 C 
BRANCH  31  32
HETATM   32  O1  UNL     1      76.344  -6.621 -52.913  1.00  0.00    -0.359 OA
ATOM     33  H1  UNL     1      76.159  -7.452 -52.490  1.00  0.00     0.214 HD
ENDBRANCH  31  32
BRANCH  31  34
HETATM   34  N5  UNL     1      77.425  -6.053 -50.961  1.00  0.00    -0.358 N 
ATOM     35  H5  UNL     1      76.914  -6.766 -50.442  1.00  0.00     0.159 HD
BRANCH  34  36
HETATM   36  C12 UNL     1      78.006  -4.976 -50.276  1.00  0.00     0.237 C 
HETATM   37  N6  UNL     1      79.199  -4.419 -50.931  1.00  0.00    -0.116 NA
HETATM   38  N7  UNL     1      78.408  -3.365 -51.426  1.00  0.00    -0.111 NA
HETATM   39  C13 UNL     1      77.455  -3.597 -50.358  1.00  0.00     0.266 C 
BRANCH  39  40
HETATM   40  O2  UNL     1      76.119  -3.437 -50.674  1.00  0.00    -0.375 OA
ATOM     41  H2  UNL     1      75.811  -2.572 -50.920  1.00  0.00     0.211 HD
ENDBRANCH  39  40
ENDBRANCH  34  36
ENDBRANCH  31  34
ENDBRANCH  29  31
ENDBRANCH  20  29
BRANCH  26  42
HETATM   42  N11 UNL     1      77.031 -12.162 -54.630  1.00  0.00    -0.309 N 
ATOM     43 2H11 UNL     1      77.466 -12.999 -54.242  1.00  0.00     0.178 HD
ATOM     44 1H11 UNL     1      76.368 -12.240 -55.401  1.00  0.00     0.178 HD
ENDBRANCH  26  42
ENDBRANCH  16  18
ENDBRANCH   9  16
TORSDOF 9
ENDMDL
MODEL 3
REMARK VINA RESULT: -6.459297692      3.221      6.064
REMARK  9 active torsions:
REMARK  status: ('A' for Active; 'I' for Inactive)
REMARK    1  A    between atoms: C8_9  and  N2_10 
REMARK    2  A    between atoms: N2_10  and  C9_12 
REMARK    3  A    between atoms: C10_15  and  N4_16 
REMARK    4  A    between atoms: N4_16  and  C11_18 
REMARK    5  A    between atoms: C11_18  and  O1_19 
REMARK    6  A    between atoms: C11_18  and  N5_21 
REMARK    7  A    between atoms: N5_21  and  C12_23 
REMARK    8  A    between atoms: C13_26  and  O2_27 
REMARK    9  A    between atoms: N10_35  and  N11_36 
ROOT
HETATM    1  N1  UNL     1      79.035  -8.570 -48.753  1.00  0.00    -0.191 NA
HETATM    2  C1  UNL     1      78.887  -8.718 -49.891  1.00  0.00     0.099 C 
HETATM    3  C2  UNL     1      78.695  -8.925 -51.305  1.00  0.00     0.045 A 
HETATM    4  C3  UNL     1      79.163  -7.966 -52.173  1.00  0.00     0.025 A 
HETATM    5  C4  UNL     1      78.984  -8.156 -53.522  1.00  0.00     0.032 A 
HETATM    6  C5  UNL     1      78.335  -9.308 -54.010  1.00  0.00     0.046 A 
HETATM    7  C6  UNL     1      77.862 -10.267 -53.169  1.00  0.00     0.013 A 
HETATM    8  C7  UNL     1      78.064 -10.038 -51.805  1.00  0.00     0.036 A 
HETATM    9  C8  UNL     1      77.121 -11.490 -53.619  1.00  0.00     0.239 C 
HETATM   10  N12 UNL     1      77.193 -11.628 -55.066  1.00  0.00    -0.317 N 
ATOM     11  H12 UNL     1      76.875 -12.506 -55.478  1.00  0.00     0.166 HD
HETATM   12  C15 UNL     1      77.672 -10.633 -55.935  1.00  0.00     0.322 C 
HETATM   13  O3  UNL     1      77.579 -10.794 -57.191  1.00  0.00    -0.247 OA
HETATM   14  N13 UNL     1      78.260  -9.442 -55.439  1.00  0.00    -0.308 N 
ATOM     15  H13 UNL     1      78.611  -8.717 -56.065  1.00  0.00     0.170 HD
ENDROOT
BRANCH   9  16
HETATM   16  N2  UNL     1      77.624 -12.644 -52.961  1.00  0.00    -0.198 N 
ATOM     17  H2  UNL     1      78.600 -12.823 -53.193  1.00  0.00     0.180 HD
BRANCH  16  18
HETATM   18  C9  UNL     1      77.114 -13.594 -52.077  1.00  0.00     0.730 A 
HETATM   19  N3  UNL     1      77.782 -14.805 -51.963  1.00  0.00    -0.020 N 
HETATM   20  C10 UNL     1      77.385 -15.799 -51.187  1.00  0.00     0.710 A 
ATOM     21  H3  UNL     1      78.631 -14.936 -52.512  1.00  0.00     0.203 HD
HETATM   22  N8  UNL     1      76.254 -15.589 -50.472  1.00  0.00    -0.020 N 
HETATM   23  C14 UNL     1      75.575 -14.448 -50.544  1.00  0.00     0.726 A 
ATOM     24  H8  UNL     1      75.912 -16.329 -49.860  1.00  0.00     0.203 HD
HETATM   25  N9  UNL     1      74.481 -14.252 -49.848  1.00  0.00    -0.232 N 
HETATM   26  N10 UNL     1      76.011 -13.439 -51.357  1.00  0.00     0.084 N 
ATOM     27  H92 UNL     1      74.155 -15.004 -49.242  1.00  0.00     0.174 HD
ATOM     28  H91 UNL     1      73.959 -13.377 -49.903  1.00  0.00     0.174 HD
BRANCH  20  29
HETATM   29  N4  UNL     1      78.088 -17.028 -51.094  1.00  0.00    -0.181 N 
ATOM     30  H4  UNL     1      78.965 -17.075 -50.577  1.00  0.00     0.182 HD
BRANCH  29  31
HETATM   31  C11 UNL     1      77.552 -18.237 -51.744  1.00  0.00     0.339 C 
BRANCH  31  32
HETATM   32  O1  UNL     1      76.471 -17.819 -52.525  1.00  0.00    -0.359 OA
ATOM     33  H1  UNL     1      75.981 -17.200 -51.997  1.00  0.00     0.214 HD
ENDBRANCH  31  32
BRANCH  31  34
HETATM   34  N5  UNL     1      78.554 -18.799 -52.565  1.00  0.00    -0.358 N 
ATOM     35  H5  UNL     1      79.132 -19.560 -52.209  1.00  0.00     0.159 HD
BRANCH  34  36
HETATM   36  C12 UNL     1      78.762 -18.318 -53.866  1.00  0.00     0.237 C 
HETATM   37  N6  UNL     1      78.440 -16.894 -54.040  1.00  0.00    -0.116 NA
HETATM   38  N7  UNL     1      79.813 -16.596 -53.968  1.00  0.00    -0.111 NA
HETATM   39  C13 UNL     1      80.114 -17.957 -54.368  1.00  0.00     0.266 C 
BRANCH  39  40
HETATM   40  O2  UNL     1      81.217 -18.545 -53.779  1.00  0.00    -0.375 OA
ATOM     41  H2  UNL     1      82.055 -18.490 -54.225  1.00  0.00     0.211 HD
ENDBRANCH  39  40
ENDBRANCH  34  36
ENDBRANCH  31  34
ENDBRANCH  29  31
ENDBRANCH  20  29
BRANCH  26  42
HETATM   42  N11 UNL     1      75.205 -12.265 -51.386  1.00  0.00    -0.309 N 
ATOM     43 2H11 UNL     1      74.959 -11.867 -50.480  1.00  0.00     0.178 HD
ATOM     44 1H11 UNL     1      74.865 -11.832 -52.245  1.00  0.00     0.178 HD
ENDBRANCH  26  42
ENDBRANCH  16  18
ENDBRANCH   9  16
TORSDOF 9
ENDMDL
MODEL 4
REMARK VINA RESULT: -6.431821185      3.469      7.201
REMARK  9 active torsions:
REMARK  status: ('A' for Active; 'I' for Inactive)
REMARK    1  A    between atoms: C8_9  and  N2_10 
REMARK    2  A    between atoms: N2_10  and  C9_12 
REMARK    3  A    between atoms: C10_15  and  N4_16 
REMARK    4  A    between atoms: N4_16  and  C11_18 
REMARK    5  A    between atoms: C11_18  and  O1_19 
REMARK    6  A    between atoms: C11_18  and  N5_21 
REMARK    7  A    between atoms: N5_21  and  C12_23 
REMARK    8  A    between atoms: C13_26  and  O2_27 
REMARK    9  A    between atoms: N10_35  and  N11_36 
ROOT
HETATM    1  N1  UNL     1      76.737 -14.446 -43.360  1.00  0.00    -0.191 NA
HETATM    2  C1  UNL     1      76.650 -15.132 -44.288  1.00  0.00     0.099 C 
HETATM    3  C2  UNL     1      76.551 -15.970 -45.457  1.00  0.00     0.045 A 
HETATM    4  C3  UNL     1      75.806 -17.123 -45.372  1.00  0.00     0.025 A 
HETATM    5  C4  UNL     1      75.706 -17.926 -46.482  1.00  0.00     0.032 A 
HETATM    6  C5  UNL     1      76.353 -17.579 -47.686  1.00  0.00     0.046 A 
HETATM    7  C6  UNL     1      77.096 -16.445 -47.791  1.00  0.00     0.013 A 
HETATM    8  C7  UNL     1      77.172 -15.654 -46.641  1.00  0.00     0.036 A 
HETATM    9  C8  UNL     1      77.848 -16.042 -49.024  1.00  0.00     0.239 C 
HETATM   10  N12 UNL     1      77.478 -16.891 -50.148  1.00  0.00    -0.317 N 
ATOM     11  H12 UNL     1      77.791 -16.613 -51.078  1.00  0.00     0.166 HD
HETATM   12  C15 UNL     1      76.719 -18.068 -50.037  1.00  0.00     0.322 C 
HETATM   13  O3  UNL     1      76.553 -18.811 -51.053  1.00  0.00    -0.247 OA
HETATM   14  N13 UNL     1      76.130 -18.452 -48.805  1.00  0.00    -0.308 N 
ATOM     15  H13 UNL     1      75.575 -19.304 -48.719  1.00  0.00     0.170 HD
ENDROOT
BRANCH   9  16
HETATM   16  N2  UNL     1      77.626 -14.670 -49.315  1.00  0.00    -0.198 N 
ATOM     17  H2  UNL     1      78.209 -14.059 -48.744  1.00  0.00     0.180 HD
BRANCH  16  18
HETATM   18  C9  UNL     1      76.810 -13.951 -50.186  1.00  0.00     0.730 A 
HETATM   19  N3  UNL     1      77.409 -13.026 -51.029  1.00  0.00    -0.020 N 
HETATM   20  C10 UNL     1      76.745 -12.258 -51.877  1.00  0.00     0.710 A 
ATOM     21  H3  UNL     1      78.423 -12.932 -50.992  1.00  0.00     0.203 HD
HETATM   22  N8  UNL     1      75.400 -12.410 -51.899  1.00  0.00    -0.020 N 
HETATM   23  C14 UNL     1      74.774 -13.281 -51.112  1.00  0.00     0.726 A 
ATOM     24  H8  UNL     1      74.849 -11.839 -52.539  1.00  0.00     0.203 HD
HETATM   25  N9  UNL     1      73.471 -13.422 -51.139  1.00  0.00    -0.232 N 
HETATM   26  N10 UNL     1      75.489 -14.060 -50.245  1.00  0.00     0.084 N 
ATOM     27  H92 UNL     1      72.938 -12.841 -51.786  1.00  0.00     0.174 HD
ATOM     28  H91 UNL     1      72.991 -14.090 -50.536  1.00  0.00     0.174 HD
BRANCH  20  29
HETATM   29  N4  UNL     1      77.387 -11.318 -52.725  1.00  0.00    -0.181 N 
ATOM     30  H4  UNL     1      77.604 -10.385 -52.377  1.00  0.00     0.182 HD
BRANCH  29  31
HETATM   31  C11 UNL     1      77.739 -11.689 -54.106  1.00  0.00     0.339 C 
BRANCH  31  32
HETATM   32  O1  UNL     1      76.991 -12.830 -54.412  1.00  0.00    -0.359 OA
ATOM     33  H1  UNL     1      76.178 -12.756 -53.927  1.00  0.00     0.214 HD
ENDBRANCH  31  32
BRANCH  31  34
HETATM   34  N5  UNL     1      77.383 -10.630 -54.970  1.00  0.00    -0.358 N 
ATOM     35  H5  UNL     1      76.399 -10.422 -55.136  1.00  0.00     0.159 HD
BRANCH  34  36
HETATM   36  C12 UNL     1      78.372  -9.863 -55.602  1.00  0.00     0.237 C 
HETATM   37  N6  UNL     1      79.712 -10.470 -55.578  1.00  0.00    -0.116 NA
HETATM   38  N7  UNL     1      79.524 -10.887 -56.909  1.00  0.00    -0.111 NA
HETATM   39  C13 UNL     1      78.532  -9.842 -57.080  1.00  0.00     0.266 C 
BRANCH  39  40
HETATM   40  O2  UNL     1      77.439 -10.150 -57.868  1.00  0.00    -0.375 OA
ATOM     41  H2  UNL     1      76.840 -10.826 -57.571  1.00  0.00     0.211 HD
ENDBRANCH  39  40
ENDBRANCH  34  36
ENDBRANCH  31  34
ENDBRANCH  29  31
ENDBRANCH  20  29
BRANCH  26  42
HETATM   42  N11 UNL     1      74.731 -14.945 -49.427  1.00  0.00    -0.309 N 
ATOM     43 2H11 UNL     1      74.818 -14.810 -48.419  1.00  0.00     0.178 HD
ATOM     44 1H11 UNL     1      74.139 -15.690 -49.794  1.00  0.00     0.178 HD
ENDBRANCH  26  42
ENDBRANCH  16  18
ENDBRANCH   9  16
TORSDOF 9
ENDMDL
MODEL 5
REMARK VINA RESULT: -6.379423624      5.217      7.818
REMARK  9 active torsions:
REMARK  status: ('A' for Active; 'I' for Inactive)
REMARK    1  A    between atoms: C8_9  and  N2_10 
REMARK    2  A    between atoms: N2_10  and  C9_12 
REMARK    3  A    between atoms: C10_15  and  N4_16 
REMARK    4  A    between atoms: N4_16  and  C11_18 
REMARK    5  A    between atoms: C11_18  and  O1_19 
REMARK    6  A    between atoms: C11_18  and  N5_21 
REMARK    7  A    between atoms: N5_21  and  C12_23 
REMARK    8  A    between atoms: C13_26  and  O2_27 
REMARK    9  A    between atoms: N10_35  and  N11_36 
ROOT
HETATM    1  N1  UNL     1      79.227  -9.535 -45.767  1.00  0.00    -0.191 NA
HETATM    2  C1  UNL     1      79.102  -8.717 -46.576  1.00  0.00     0.099 C 
HETATM    3  C2  UNL     1      78.943  -7.715 -47.601  1.00  0.00     0.045 A 
HETATM    4  C3  UNL     1      79.260  -6.412 -47.293  1.00  0.00     0.025 A 
HETATM    5  C4  UNL     1      79.111  -5.452 -48.263  1.00  0.00     0.032 A 
HETATM    6  C5  UNL     1      78.645  -5.790 -49.550  1.00  0.00     0.046 A 
HETATM    7  C6  UNL     1      78.324  -7.071 -49.876  1.00  0.00     0.013 A 
HETATM    8  C7  UNL     1      78.489  -8.019 -48.861  1.00  0.00     0.036 A 
HETATM    9  C8  UNL     1      77.777  -7.491 -51.207  1.00  0.00     0.239 C 
HETATM   10  N12 UNL     1      77.869  -6.397 -52.164  1.00  0.00    -0.317 N 
ATOM     11  H12 UNL     1      77.688  -6.607 -53.146  1.00  0.00     0.166 HD
HETATM   12  C15 UNL     1      78.190  -5.072 -51.826  1.00  0.00     0.322 C 
HETATM   13  O3  UNL     1      78.122  -4.161 -52.708  1.00  0.00    -0.247 OA
HETATM   14  N13 UNL     1      78.590  -4.723 -50.511  1.00  0.00    -0.308 N 
ATOM     15  H13 UNL     1      78.827  -3.762 -50.260  1.00  0.00     0.170 HD
ENDROOT
BRANCH   9  16
HETATM   16  N2  UNL     1      78.450  -8.650 -51.676  1.00  0.00    -0.198 N 
ATOM     17  H2  UNL     1      79.463  -8.554 -51.620  1.00  0.00     0.180 HD
BRANCH  16  18
HETATM   18  C9  UNL     1      78.069  -9.887 -52.195  1.00  0.00     0.730 A 
HETATM   19  N3  UNL     1      78.015 -10.969 -51.329  1.00  0.00    -0.020 N 
HETATM   20  C10 UNL     1      77.701 -12.199 -51.699  1.00  0.00     0.710 A 
ATOM     21  H3  UNL     1      78.230 -10.806 -50.345  1.00  0.00     0.203 HD
HETATM   22  N8  UNL     1      77.422 -12.378 -53.012  1.00  0.00    -0.020 N 
HETATM   23  C14 UNL     1      77.460 -11.376 -53.886  1.00  0.00     0.726 A 
ATOM     24  H8  UNL     1      77.174 -13.311 -53.342  1.00  0.00     0.203 HD
HETATM   25  N9  UNL     1      77.187 -11.557 -55.155  1.00  0.00    -0.232 N 
HETATM   26  N10 UNL     1      77.788 -10.115 -53.471  1.00  0.00     0.084 N 
ATOM     27  H92 UNL     1      76.942 -12.497 -55.465  1.00  0.00     0.174 HD
ATOM     28  H91 UNL     1      77.217 -10.789 -55.826  1.00  0.00     0.174 HD
BRANCH  20  29
HETATM   29  N4  UNL     1      77.657 -13.287 -50.790  1.00  0.00    -0.181 N 
ATOM     30  H4  UNL     1      78.519 -13.635 -50.370  1.00  0.00     0.182 HD
BRANCH  29  31
HETATM   31  C11 UNL     1      76.368 -13.915 -50.451  1.00  0.00     0.339 C 
BRANCH  31  32
HETATM   32  O1  UNL     1      75.373 -13.038 -50.893  1.00  0.00    -0.359 OA
ATOM     33  H1  UNL     1      74.617 -13.574 -51.103  1.00  0.00     0.214 HD
ENDBRANCH  31  32
BRANCH  31  34
HETATM   34  N5  UNL     1      76.265 -15.147 -51.133  1.00  0.00    -0.358 N 
ATOM     35  H5  UNL     1      75.393 -15.397 -51.599  1.00  0.00     0.159 HD
BRANCH  34  36
HETATM   36  C12 UNL     1      77.353 -16.031 -51.173  1.00  0.00     0.237 C 
HETATM   37  N6  UNL     1      76.976 -17.443 -51.338  1.00  0.00    -0.116 NA
HETATM   38  N7  UNL     1      77.308 -17.351 -52.702  1.00  0.00    -0.111 NA
HETATM   39  C13 UNL     1      78.169 -16.224 -52.401  1.00  0.00     0.266 C 
BRANCH  39  40
HETATM   40  O2  UNL     1      78.207 -15.208 -53.337  1.00  0.00    -0.375 OA
ATOM     41  H2  UNL     1      78.945 -15.165 -53.933  1.00  0.00     0.211 HD
ENDBRANCH  39  40
ENDBRANCH  34  36
ENDBRANCH  31  34
ENDBRANCH  29  31
ENDBRANCH  20  29
BRANCH  26  42
HETATM   42  N11 UNL     1      77.827  -9.113 -54.481  1.00  0.00    -0.309 N 
ATOM     43 2H11 UNL     1      78.754  -8.821 -54.789  1.00  0.00     0.178 HD
ATOM     44 1H11 UNL     1      76.995  -8.680 -54.882  1.00  0.00     0.178 HD
ENDBRANCH  26  42
ENDBRANCH  16  18
ENDBRANCH   9  16
TORSDOF 9
ENDMDL
