MODEL 1
REMARK VINA RESULT: -8.325655665      0.000      0.000
REMARK  5 active torsions:
REMARK  status: ('A' for Active; 'I' for Inactive)
REMARK    1  A    between atoms: C2_2  and  O1_3 
REMARK    2  A    between atoms: C5_8  and  O2_9 
REMARK    3  A    between atoms: O2_9  and  C6_10 
REMARK    4  A    between atoms: C6_10  and  C7_11 
REMARK    5  A    between atoms: C7_11  and  N1_12 
ROOT
HETATM    1  C1  UNL     1     -42.984  -1.102   0.387  1.00  0.00     0.055 C 
HETATM    2  C2  UNL     1     -41.972  -2.144   0.088  1.00  0.00     0.119 C 
HETATM    3  C3  UNL     1     -40.808  -2.270   0.915  1.00  0.00     0.012 A 
HETATM    4  C4  UNL     1     -40.714  -1.962   2.196  1.00  0.00     0.055 A 
HETATM    5 BR1  UNL     1     -42.245  -1.216   3.073  1.00  0.00    -0.047 Br
HETATM    6  C5  UNL     1     -39.515  -2.086   2.966  1.00  0.00     0.095 A 
HETATM    7  C12 UNL     1     -38.408  -2.539   2.308  1.00  0.00     0.069 A 
HETATM    8  C13 UNL     1     -38.426  -2.875   0.944  1.00  0.00     0.046 A 
HETATM    9  N2  UNL     1     -37.524  -3.325   0.040  1.00  0.00    -0.365 N 
ATOM     10  H2  UNL     1     -36.541  -3.526   0.223  1.00  0.00     0.165 HD
HETATM   11  C14 UNL     1     -38.163  -3.463  -1.164  1.00  0.00     0.096 A 
HETATM   12  C15 UNL     1     -39.479  -3.102  -1.025  1.00  0.00    -0.026 A 
HETATM   13  C16 UNL     1     -39.610  -2.740   0.280  1.00  0.00     0.009 A 
HETATM   14  C17 UNL     1     -40.674  -3.037  -1.893  1.00  0.00     0.086 C 
HETATM   15  C18 UNL     1     -41.651  -2.030  -1.378  1.00  0.00     0.152 C 
HETATM   16 CL1  UNL     1     -43.116  -2.086  -2.390  1.00  0.00    -0.098 Cl
HETATM   17 CL2  UNL     1     -40.903  -0.409  -1.615  1.00  0.00    -0.098 Cl
ENDROOT
BRANCH   6  18
HETATM   18  O2  UNL     1     -39.717  -1.741   4.221  1.00  0.00    -0.320 OA
BRANCH  18  19
HETATM   19  C6  UNL     1     -39.905  -1.417   5.424  1.00  0.00     0.154 C 
BRANCH  19  20
HETATM   20  C7  UNL     1     -39.407  -2.134   6.625  1.00  0.00     0.084 C 
BRANCH  20  21
HETATM   21  N1  UNL     1     -39.726  -3.459   6.899  1.00  0.00    -0.291 NA
HETATM   22  C8  UNL     1     -38.725  -3.954   7.857  1.00  0.00     0.095 C 
HETATM   23  C9  UNL     1     -37.725  -4.719   7.050  1.00  0.00     0.016 C 
HETATM   24  C10 UNL     1     -38.349  -4.855   5.675  1.00  0.00     0.016 C 
HETATM   25  C11 UNL     1     -39.785  -4.435   5.900  1.00  0.00     0.095 C 
ENDBRANCH  20  21
ENDBRANCH  19  20
ENDBRANCH  18  19
ENDBRANCH   6  18
BRANCH   2  26
HETATM   26  O1  UNL     1     -42.689  -3.367   0.251  1.00  0.00    -0.382 OA
ATOM     27  H1  UNL     1     -43.585  -3.132   0.040  1.00  0.00     0.211 HD
ENDBRANCH   2  26
TORSDOF 5
ENDMDL
MODEL 2
REMARK VINA RESULT: -8.309895959      3.824      7.532
REMARK  5 active torsions:
REMARK  status: ('A' for Active; 'I' for Inactive)
REMARK    1  A    between atoms: C2_2  and  O1_3 
REMARK    2  A    between atoms: C5_8  and  O2_9 
REMARK    3  A    between atoms: O2_9  and  C6_10 
REMARK    4  A    between atoms: C6_10  and  C7_11 
REMARK    5  A    between atoms: C7_11  and  N1_12 
ROOT
HETATM    1  C1  UNL     1     -37.855  -5.220   6.355  1.00  0.00     0.055 C 
HETATM    2  C2  UNL     1     -39.130  -4.472   6.242  1.00  0.00     0.119 C 
HETATM    3  C3  UNL     1     -39.310  -3.515   5.190  1.00  0.00     0.012 A 
HETATM    4  C4  UNL     1     -38.741  -3.539   3.998  1.00  0.00     0.055 A 
HETATM    5 BR1  UNL     1     -37.501  -4.943   3.603  1.00  0.00    -0.047 Br
HETATM    6  C5  UNL     1     -38.938  -2.539   2.994  1.00  0.00     0.095 A 
HETATM    7  C12 UNL     1     -39.759  -1.497   3.319  1.00  0.00     0.069 A 
HETATM    8  C13 UNL     1     -40.389  -1.396   4.570  1.00  0.00     0.046 A 
HETATM    9  N2  UNL     1     -41.220  -0.513   5.174  1.00  0.00    -0.365 N 
ATOM     10  H2  UNL     1     -41.580   0.348   4.763  1.00  0.00     0.165 HD
HETATM   11  C14 UNL     1     -41.492  -0.979   6.433  1.00  0.00     0.096 A 
HETATM   12  C15 UNL     1     -40.833  -2.166   6.631  1.00  0.00    -0.026 A 
HETATM   13  C16 UNL     1     -40.160  -2.394   5.472  1.00  0.00     0.009 A 
HETATM   14  C17 UNL     1     -40.716  -3.161   7.718  1.00  0.00     0.086 C 
HETATM   15  C18 UNL     1     -39.431  -3.917   7.609  1.00  0.00     0.152 C 
HETATM   16 CL1  UNL     1     -39.403  -5.181   8.865  1.00  0.00    -0.098 Cl
HETATM   17 CL2  UNL     1     -38.109  -2.756   7.994  1.00  0.00    -0.098 Cl
ENDROOT
BRANCH   6  18
HETATM   18  O2  UNL     1     -38.278  -2.833   1.894  1.00  0.00    -0.320 OA
BRANCH  18  19
HETATM   19  C6  UNL     1     -37.651  -3.110   0.836  1.00  0.00     0.154 C 
BRANCH  19  20
HETATM   20  C7  UNL     1     -38.233  -3.599  -0.439  1.00  0.00     0.084 C 
BRANCH  20  21
HETATM   21  N1  UNL     1     -38.554  -2.754  -1.495  1.00  0.00    -0.291 NA
HETATM   22  C8  UNL     1     -39.898  -2.218  -1.225  1.00  0.00     0.095 C 
HETATM   23  C9  UNL     1     -40.841  -3.040  -2.046  1.00  0.00     0.016 C 
HETATM   24  C10 UNL     1     -39.956  -3.853  -2.968  1.00  0.00     0.016 C 
HETATM   25  C11 UNL     1     -38.600  -3.198  -2.820  1.00  0.00     0.095 C 
ENDBRANCH  20  21
ENDBRANCH  19  20
ENDBRANCH  18  19
ENDBRANCH   6  18
BRANCH   2  26
HETATM   26  O1  UNL     1     -40.099  -5.492   5.998  1.00  0.00    -0.382 OA
ATOM     27  H1  UNL     1     -40.165  -5.516   5.050  1.00  0.00     0.211 HD
ENDBRANCH   2  26
TORSDOF 5
ENDMDL
MODEL 3
REMARK VINA RESULT: -8.257743456      4.024      5.344
REMARK  5 active torsions:
REMARK  status: ('A' for Active; 'I' for Inactive)
REMARK    1  A    between atoms: C2_2  and  O1_3 
REMARK    2  A    between atoms: C5_8  and  O2_9 
REMARK    3  A    between atoms: O2_9  and  C6_10 
REMARK    4  A    between atoms: C6_10  and  C7_11 
REMARK    5  A    between atoms: C7_11  and  N1_12 
ROOT
HETATM    1  C1  UNL     1     -40.356  -2.639   6.488  1.00  0.00     0.055 C 
HETATM    2  C2  UNL     1     -40.523  -2.930   5.044  1.00  0.00     0.119 C 
HETATM    3  C3  UNL     1     -39.456  -3.542   4.308  1.00  0.00     0.012 A 
HETATM    4  C4  UNL     1     -38.535  -4.359   4.788  1.00  0.00     0.055 A 
HETATM    5 BR1  UNL     1     -38.549  -4.755   6.661  1.00  0.00    -0.047 Br
HETATM    6  C5  UNL     1     -37.476  -4.921   4.008  1.00  0.00     0.095 A 
HETATM    7  C12 UNL     1     -37.427  -4.563   2.691  1.00  0.00     0.069 A 
HETATM    8  C13 UNL     1     -38.363  -3.690   2.112  1.00  0.00     0.046 A 
HETATM    9  N2  UNL     1     -38.567  -3.157   0.884  1.00  0.00    -0.365 N 
ATOM     10  H2  UNL     1     -37.996  -3.324   0.056  1.00  0.00     0.165 HD
HETATM   11  C14 UNL     1     -39.675  -2.354   0.949  1.00  0.00     0.096 A 
HETATM   12  C15 UNL     1     -40.180  -2.378   2.225  1.00  0.00    -0.026 A 
HETATM   13  C16 UNL     1     -39.350  -3.203   2.918  1.00  0.00     0.009 A 
HETATM   14  C17 UNL     1     -41.324  -1.773   2.939  1.00  0.00     0.086 C 
HETATM   15  C18 UNL     1     -41.042  -1.670   4.403  1.00  0.00     0.152 C 
HETATM   16 CL1  UNL     1     -42.497  -1.052   5.225  1.00  0.00    -0.098 Cl
HETATM   17 CL2  UNL     1     -39.753  -0.427   4.599  1.00  0.00    -0.098 Cl
ENDROOT
BRANCH   6  18
HETATM   18  O2  UNL     1     -36.726  -5.725   4.733  1.00  0.00    -0.320 OA
BRANCH  18  19
HETATM   19  C6  UNL     1     -36.001  -6.491   5.423  1.00  0.00     0.154 C 
BRANCH  19  20
HETATM   20  C7  UNL     1     -34.666  -6.177   5.990  1.00  0.00     0.084 C 
BRANCH  20  21
HETATM   21  N1  UNL     1     -33.517  -6.878   5.644  1.00  0.00    -0.291 NA
HETATM   22  C8  UNL     1     -32.393  -6.236   6.345  1.00  0.00     0.095 C 
HETATM   23  C9  UNL     1     -31.738  -5.342   5.340  1.00  0.00     0.016 C 
HETATM   24  C10 UNL     1     -32.364  -5.716   4.011  1.00  0.00     0.016 C 
HETATM   25  C11 UNL     1     -33.091  -7.007   4.318  1.00  0.00     0.095 C 
ENDBRANCH  20  21
ENDBRANCH  19  20
ENDBRANCH  18  19
ENDBRANCH   6  18
BRANCH   2  26
HETATM   26  O1  UNL     1     -41.596  -3.871   5.012  1.00  0.00    -0.382 OA
ATOM     27  H1  UNL     1     -42.244  -3.492   5.595  1.00  0.00     0.211 HD
ENDBRANCH   2  26
TORSDOF 5
ENDMDL
MODEL 4
REMARK VINA RESULT: -7.824368142      2.212      2.847
REMARK  5 active torsions:
REMARK  status: ('A' for Active; 'I' for Inactive)
REMARK    1  A    between atoms: C2_2  and  O1_3 
REMARK    2  A    between atoms: C5_8  and  O2_9 
REMARK    3  A    between atoms: O2_9  and  C6_10 
REMARK    4  A    between atoms: C6_10  and  C7_11 
REMARK    5  A    between atoms: C7_11  and  N1_12 
ROOT
HETATM    1  C1  UNL     1     -43.037  -1.054   0.128  1.00  0.00     0.055 C 
HETATM    2  C2  UNL     1     -41.986  -2.098   0.136  1.00  0.00     0.119 C 
HETATM    3  C3  UNL     1     -41.017  -2.133   1.192  1.00  0.00     0.012 A 
HETATM    4  C4  UNL     1     -41.190  -1.715   2.434  1.00  0.00     0.055 A 
HETATM    5 BR1  UNL     1     -42.868  -0.924   2.908  1.00  0.00    -0.047 Br
HETATM    6  C5  UNL     1     -40.176  -1.751   3.441  1.00  0.00     0.095 A 
HETATM    7  C12 UNL     1     -38.956  -2.238   3.067  1.00  0.00     0.069 A 
HETATM    8  C13 UNL     1     -38.693  -2.689   1.763  1.00  0.00     0.046 A 
HETATM    9  N2  UNL     1     -37.623  -3.199   1.107  1.00  0.00    -0.365 N 
ATOM     10  H2  UNL     1     -36.699  -3.366   1.505  1.00  0.00     0.165 HD
HETATM   11  C14 UNL     1     -37.999  -3.451  -0.186  1.00  0.00     0.096 A 
HETATM   12  C15 UNL     1     -39.316  -3.103  -0.353  1.00  0.00    -0.026 A 
HETATM   13  C16 UNL     1     -39.714  -2.633   0.861  1.00  0.00     0.009 A 
HETATM   14  C17 UNL     1     -40.306  -3.134  -1.450  1.00  0.00     0.086 C 
HETATM   15  C18 UNL     1     -41.368  -2.105  -1.238  1.00  0.00     0.152 C 
HETATM   16 CL1  UNL     1     -42.593  -2.273  -2.520  1.00  0.00    -0.098 Cl
HETATM   17 CL2  UNL     1     -40.587  -0.496  -1.456  1.00  0.00    -0.098 Cl
ENDROOT
BRANCH   6  18
HETATM   18  O2  UNL     1     -40.632  -1.304   4.593  1.00  0.00    -0.320 OA
BRANCH  18  19
HETATM   19  C6  UNL     1     -41.064  -0.882   5.699  1.00  0.00     0.154 C 
BRANCH  19  20
HETATM   20  C7  UNL     1     -41.846  -1.651   6.699  1.00  0.00     0.084 C 
BRANCH  20  21
HETATM   21  N1  UNL     1     -42.959  -1.130   7.348  1.00  0.00    -0.291 NA
HETATM   22  C8  UNL     1     -43.676  -2.266   7.952  1.00  0.00     0.095 C 
HETATM   23  C9  UNL     1     -44.799  -2.587   7.017  1.00  0.00     0.016 C 
HETATM   24  C10 UNL     1     -44.836  -1.435   6.033  1.00  0.00     0.016 C 
HETATM   25  C11 UNL     1     -43.942  -0.397   6.676  1.00  0.00     0.095 C 
ENDBRANCH  20  21
ENDBRANCH  19  20
ENDBRANCH  18  19
ENDBRANCH   6  18
BRANCH   2  26
HETATM   26  O1  UNL     1     -42.720  -3.316   0.254  1.00  0.00    -0.382 OA
ATOM     27  H1  UNL     1     -42.307  -3.890  -0.381  1.00  0.00     0.211 HD
ENDBRANCH   2  26
TORSDOF 5
ENDMDL
MODEL 5
REMARK VINA RESULT: -7.777177761      3.779      7.529
REMARK  5 active torsions:
REMARK  status: ('A' for Active; 'I' for Inactive)
REMARK    1  A    between atoms: C2_2  and  O1_3 
REMARK    2  A    between atoms: C5_8  and  O2_9 
REMARK    3  A    between atoms: O2_9  and  C6_10 
REMARK    4  A    between atoms: C6_10  and  C7_11 
REMARK    5  A    between atoms: C7_11  and  N1_12 
ROOT
HETATM    1  C1  UNL     1     -40.430  -2.770   7.764  1.00  0.00     0.055 C 
HETATM    2  C2  UNL     1     -39.110  -3.257   7.298  1.00  0.00     0.119 C 
HETATM    3  C3  UNL     1     -38.904  -3.552   5.910  1.00  0.00     0.012 A 
HETATM    4  C4  UNL     1     -39.519  -2.990   4.885  1.00  0.00     0.055 A 
HETATM    5 BR1  UNL     1     -40.873  -1.681   5.236  1.00  0.00    -0.047 Br
HETATM    6  C5  UNL     1     -39.290  -3.344   3.519  1.00  0.00     0.095 A 
HETATM    7  C12 UNL     1     -38.384  -4.339   3.286  1.00  0.00     0.069 A 
HETATM    8  C13 UNL     1     -37.699  -4.992   4.324  1.00  0.00     0.046 A 
HETATM    9  N2  UNL     1     -36.784  -5.986   4.413  1.00  0.00    -0.365 N 
ATOM     10  H2  UNL     1     -36.379  -6.500   3.630  1.00  0.00     0.165 HD
HETATM   11  C14 UNL     1     -36.496  -6.182   5.737  1.00  0.00     0.096 A 
HETATM   12  C15 UNL     1     -37.230  -5.306   6.497  1.00  0.00    -0.026 A 
HETATM   13  C16 UNL     1     -37.964  -4.591   5.601  1.00  0.00     0.009 A 
HETATM   14  C17 UNL     1     -37.376  -4.990   7.933  1.00  0.00     0.086 C 
HETATM   15  C18 UNL     1     -38.715  -4.387   8.211  1.00  0.00     0.152 C 
HETATM   16 CL1  UNL     1     -38.785  -3.915   9.928  1.00  0.00    -0.098 Cl
HETATM   17 CL2  UNL     1     -39.934  -5.691   7.969  1.00  0.00    -0.098 Cl
ENDROOT
BRANCH   6  18
HETATM   18  O2  UNL     1     -40.013  -2.602   2.707  1.00  0.00    -0.320 OA
BRANCH  18  19
HETATM   19  C6  UNL     1     -40.700  -1.892   1.923  1.00  0.00     0.154 C 
BRANCH  19  20
HETATM   20  C7  UNL     1     -41.241  -2.296   0.602  1.00  0.00     0.084 C 
BRANCH  20  21
HETATM   21  N1  UNL     1     -40.842  -1.702  -0.590  1.00  0.00    -0.291 NA
HETATM   22  C8  UNL     1     -41.962  -1.840  -1.535  1.00  0.00     0.095 C 
HETATM   23  C9  UNL     1     -41.624  -3.010  -2.405  1.00  0.00     0.016 C 
HETATM   24  C10 UNL     1     -40.179  -3.335  -2.086  1.00  0.00     0.016 C 
HETATM   25  C11 UNL     1     -39.715  -2.129  -1.298  1.00  0.00     0.095 C 
ENDBRANCH  20  21
ENDBRANCH  19  20
ENDBRANCH  18  19
ENDBRANCH   6  18
BRANCH   2  26
HETATM   26  O1  UNL     1     -38.228  -2.174   7.591  1.00  0.00    -0.382 OA
ATOM     27  H1  UNL     1     -38.215  -1.670   6.786  1.00  0.00     0.211 HD
ENDBRANCH   2  26
TORSDOF 5
ENDMDL
