MODEL 1
REMARK VINA RESULT: -7.234293822      0.000      0.000
REMARK  5 active torsions:
REMARK  status: ('A' for Active; 'I' for Inactive)
REMARK    1  A    between atoms: C2_2  and  C3_5 
REMARK       I    between atoms: C3_5  and  N1_7 
REMARK    2  A    between atoms: N1_7  and  C4_9 
REMARK    3  A    between atoms: C4_9  and  C5_10 
REMARK       I    between atoms: C5_10  and  N2_12 
REMARK    4  A    between atoms: N2_12  and  C6_14 
REMARK    5  A    between atoms: C6_14  and  C7_15 
ROOT
HETATM    1  C5  UNL     1     -42.280  -3.699   4.666  1.00  0.00     0.236 C 
HETATM    2  O2  UNL     1     -41.959  -4.823   4.224  1.00  0.00    -0.272 OA
HETATM    3  N2  UNL     1     -41.335  -2.891   5.339  1.00  0.00    -0.346 N 
ATOM      4  H2  UNL     1     -41.653  -1.983   5.678  1.00  0.00     0.163 HD
ENDROOT
BRANCH   3   5
HETATM    5  C6  UNL     1     -39.962  -3.244   5.586  1.00  0.00     0.066 C 
HETATM    6  C11 UNL     1     -39.877  -4.616   6.246  1.00  0.00     0.036 C 
HETATM    7  C12 UNL     1     -39.167  -4.564   7.578  1.00  0.00     0.003 C 
HETATM    8  C13 UNL     1     -39.809  -3.579   8.507  1.00  0.00     0.000 C 
HETATM    9  C14 UNL     1     -40.086  -2.280   7.804  1.00  0.00     0.003 C 
HETATM   10  C15 UNL     1     -39.314  -2.264   6.502  1.00  0.00     0.036 C 
BRANCH   5  11
HETATM   11  C7  UNL     1     -39.170  -3.375   4.309  1.00  0.00     0.012 A 
HETATM   12  C8  UNL     1     -38.256  -4.328   3.964  1.00  0.00     0.019 A 
HETATM   13  C9  UNL     1     -37.683  -4.217   2.748  1.00  0.00     0.028 A 
HETATM   14  C10 UNL     1     -38.066  -3.163   1.971  1.00  0.00     0.051 A 
HETATM   15 BR1  UNL     1     -37.461  -2.709   0.196  1.00  0.00    -0.043 Br
HETATM   16  S1  UNL     1     -39.209  -2.357   2.945  1.00  0.00    -0.085 SA
ENDBRANCH   5  11
ENDBRANCH   3   5
BRANCH   1  17
HETATM   17  C4  UNL     1     -43.658  -3.208   4.481  1.00  0.00     0.225 C 
BRANCH  17  18
HETATM   18  N1  UNL     1     -43.809  -2.243   3.423  1.00  0.00    -0.350 N 
HETATM   19  C3  UNL     1     -45.117  -2.096   2.865  1.00  0.00     0.256 C 
HETATM   20  O1  UNL     1     -46.083  -2.800   3.306  1.00  0.00    -0.270 OA
ATOM     21  H1  UNL     1     -43.021  -1.691   3.087  1.00  0.00     0.163 HD
BRANCH  19  22
HETATM   22  C2  UNL     1     -45.405  -1.141   1.777  1.00  0.00     0.189 C 
HETATM   23  C1  UNL     1     -46.070  -1.844   0.619  1.00  0.00     0.061 C 
HETATM   24 CL1  UNL     1     -43.856  -0.460   1.156  1.00  0.00    -0.091 Cl
HETATM   25 CL2  UNL     1     -46.475   0.181   2.318  1.00  0.00    -0.091 Cl
ENDBRANCH  19  22
ENDBRANCH  17  18
ENDBRANCH   1  17
TORSDOF 5
ENDMDL
MODEL 2
REMARK VINA RESULT: -7.231672455      3.910      5.406
REMARK  5 active torsions:
REMARK  status: ('A' for Active; 'I' for Inactive)
REMARK    1  A    between atoms: C2_2  and  C3_5 
REMARK       I    between atoms: C3_5  and  N1_7 
REMARK    2  A    between atoms: N1_7  and  C4_9 
REMARK    3  A    between atoms: C4_9  and  C5_10 
REMARK       I    between atoms: C5_10  and  N2_12 
REMARK    4  A    between atoms: N2_12  and  C6_14 
REMARK    5  A    between atoms: C6_14  and  C7_15 
ROOT
HETATM    1  C5  UNL     1     -38.820  -2.852   3.196  1.00  0.00     0.236 C 
HETATM    2  O2  UNL     1     -39.368  -1.735   3.321  1.00  0.00    -0.272 OA
HETATM    3  N2  UNL     1     -38.968  -3.844   4.192  1.00  0.00    -0.346 N 
ATOM      4  H2  UNL     1     -38.499  -4.736   4.037  1.00  0.00     0.163 HD
ENDROOT
BRANCH   3   5
HETATM    5  C6  UNL     1     -39.726  -3.699   5.407  1.00  0.00     0.066 C 
HETATM    6  C11 UNL     1     -39.165  -2.559   6.250  1.00  0.00     0.036 C 
HETATM    7  C12 UNL     1     -38.745  -3.020   7.625  1.00  0.00     0.003 C 
HETATM    8  C13 UNL     1     -37.759  -4.146   7.551  1.00  0.00     0.000 C 
HETATM    9  C14 UNL     1     -38.205  -5.187   6.564  1.00  0.00     0.003 C 
HETATM   10  C15 UNL     1     -39.660  -4.939   6.230  1.00  0.00     0.036 C 
BRANCH   5  11
HETATM   11  C7  UNL     1     -41.161  -3.318   5.140  1.00  0.00     0.012 A 
HETATM   12  C8  UNL     1     -42.094  -3.974   4.392  1.00  0.00     0.019 A 
HETATM   13  C9  UNL     1     -43.319  -3.415   4.313  1.00  0.00     0.028 A 
HETATM   14  C10 UNL     1     -43.517  -2.244   4.985  1.00  0.00     0.051 A 
HETATM   15 BR1  UNL     1     -45.128  -1.188   5.091  1.00  0.00    -0.043 Br
HETATM   16  S1  UNL     1     -42.002  -1.951   5.709  1.00  0.00    -0.085 SA
ENDBRANCH   5  11
ENDBRANCH   3   5
BRANCH   1  17
HETATM   17  C4  UNL     1     -38.013  -3.139   1.996  1.00  0.00     0.225 C 
BRANCH  17  18
HETATM   18  N1  UNL     1     -38.449  -2.453   0.807  1.00  0.00    -0.350 N 
HETATM   19  C3  UNL     1     -38.835  -3.267  -0.302  1.00  0.00     0.256 C 
HETATM   20  O1  UNL     1     -38.785  -4.536  -0.212  1.00  0.00    -0.270 OA
ATOM     21  H1  UNL     1     -38.481  -1.435   0.759  1.00  0.00     0.163 HD
BRANCH  19  22
HETATM   22  C2  UNL     1     -39.302  -2.687  -1.578  1.00  0.00     0.189 C 
HETATM   23  C1  UNL     1     -40.672  -3.215  -1.928  1.00  0.00     0.061 C 
HETATM   24 CL1  UNL     1     -38.190  -3.192  -2.904  1.00  0.00    -0.091 Cl
HETATM   25 CL2  UNL     1     -39.391  -0.906  -1.506  1.00  0.00    -0.091 Cl
ENDBRANCH  19  22
ENDBRANCH  17  18
ENDBRANCH   1  17
TORSDOF 5
ENDMDL
MODEL 3
REMARK VINA RESULT: -7.199892315      1.344      1.666
REMARK  5 active torsions:
REMARK  status: ('A' for Active; 'I' for Inactive)
REMARK    1  A    between atoms: C2_2  and  C3_5 
REMARK       I    between atoms: C3_5  and  N1_7 
REMARK    2  A    between atoms: N1_7  and  C4_9 
REMARK    3  A    between atoms: C4_9  and  C5_10 
REMARK       I    between atoms: C5_10  and  N2_12 
REMARK    4  A    between atoms: N2_12  and  C6_14 
REMARK    5  A    between atoms: C6_14  and  C7_15 
ROOT
HETATM    1  C5  UNL     1     -42.090  -3.698   4.927  1.00  0.00     0.236 C 
HETATM    2  O2  UNL     1     -41.903  -4.820   4.406  1.00  0.00    -0.272 OA
HETATM    3  N2  UNL     1     -41.039  -3.028   5.592  1.00  0.00    -0.346 N 
ATOM      4  H2  UNL     1     -41.249  -2.115   5.998  1.00  0.00     0.163 HD
ENDROOT
BRANCH   3   5
HETATM    5  C6  UNL     1     -39.697  -3.525   5.745  1.00  0.00     0.066 C 
HETATM    6  C11 UNL     1     -39.717  -4.952   6.281  1.00  0.00     0.036 C 
HETATM    7  C12 UNL     1     -38.956  -5.084   7.579  1.00  0.00     0.003 C 
HETATM    8  C13 UNL     1     -39.466  -4.130   8.616  1.00  0.00     0.000 C 
HETATM    9  C14 UNL     1     -39.645  -2.755   8.040  1.00  0.00     0.003 C 
HETATM   10  C15 UNL     1     -38.925  -2.694   6.710  1.00  0.00     0.036 C 
BRANCH   5  11
HETATM   11  C7  UNL     1     -38.970  -3.614   4.426  1.00  0.00     0.012 A 
HETATM   12  C8  UNL     1     -38.067  -4.548   4.009  1.00  0.00     0.019 A 
HETATM   13  C9  UNL     1     -37.558  -4.398   2.769  1.00  0.00     0.028 A 
HETATM   14  C10 UNL     1     -37.989  -3.328   2.042  1.00  0.00     0.051 A 
HETATM   15 BR1  UNL     1     -37.479  -2.820   0.252  1.00  0.00    -0.043 Br
HETATM   16  S1  UNL     1     -39.087  -2.559   3.094  1.00  0.00    -0.085 SA
ENDBRANCH   5  11
ENDBRANCH   3   5
BRANCH   1  17
HETATM   17  C4  UNL     1     -43.420  -3.068   4.844  1.00  0.00     0.225 C 
BRANCH  17  18
HETATM   18  N1  UNL     1     -43.934  -2.934   3.505  1.00  0.00    -0.350 N 
HETATM   19  C3  UNL     1     -43.402  -1.872   2.711  1.00  0.00     0.256 C 
HETATM   20  O1  UNL     1     -42.514  -1.096   3.195  1.00  0.00    -0.270 OA
ATOM     21  H1  UNL     1     -44.643  -3.569   3.140  1.00  0.00     0.163 HD
BRANCH  19  22
HETATM   22  C2  UNL     1     -43.843  -1.629   1.324  1.00  0.00     0.189 C 
HETATM   23  C1  UNL     1     -43.495  -0.224   0.896  1.00  0.00     0.061 C 
HETATM   24 CL1  UNL     1     -45.638  -1.774   1.235  1.00  0.00    -0.091 Cl
HETATM   25 CL2  UNL     1     -43.086  -2.767   0.176  1.00  0.00    -0.091 Cl
ENDBRANCH  19  22
ENDBRANCH  17  18
ENDBRANCH   1  17
TORSDOF 5
ENDMDL
MODEL 4
REMARK VINA RESULT: -7.121643853      3.352      6.503
REMARK  5 active torsions:
REMARK  status: ('A' for Active; 'I' for Inactive)
REMARK    1  A    between atoms: C2_2  and  C3_5 
REMARK       I    between atoms: C3_5  and  N1_7 
REMARK    2  A    between atoms: N1_7  and  C4_9 
REMARK    3  A    between atoms: C4_9  and  C5_10 
REMARK       I    between atoms: C5_10  and  N2_12 
REMARK    4  A    between atoms: N2_12  and  C6_14 
REMARK    5  A    between atoms: C6_14  and  C7_15 
ROOT
HETATM    1  C5  UNL     1     -42.550  -2.553   3.942  1.00  0.00     0.236 C 
HETATM    2  O2  UNL     1     -42.685  -3.739   3.570  1.00  0.00    -0.272 OA
HETATM    3  N2  UNL     1     -42.830  -1.483   3.061  1.00  0.00    -0.346 N 
ATOM      4  H2  UNL     1     -42.702  -0.537   3.419  1.00  0.00     0.163 HD
ENDROOT
BRANCH   3   5
HETATM    5  C6  UNL     1     -43.280  -1.619   1.701  1.00  0.00     0.066 C 
HETATM    6  C11 UNL     1     -43.690  -0.262   1.139  1.00  0.00     0.036 C 
HETATM    7  C12 UNL     1     -45.125  -0.251   0.668  1.00  0.00     0.003 C 
HETATM    8  C13 UNL     1     -46.066  -0.669   1.756  1.00  0.00     0.000 C 
HETATM    9  C14 UNL     1     -45.564  -1.899   2.457  1.00  0.00     0.003 C 
HETATM   10  C15 UNL     1     -44.466  -2.517   1.616  1.00  0.00     0.036 C 
BRANCH   5  11
HETATM   11  C7  UNL     1     -42.184  -2.105   0.785  1.00  0.00     0.012 A 
HETATM   12  C8  UNL     1     -42.287  -2.611  -0.478  1.00  0.00     0.019 A 
HETATM   13  C9  UNL     1     -41.140  -2.976  -1.087  1.00  0.00     0.028 A 
HETATM   14  C10 UNL     1     -39.981  -2.809  -0.389  1.00  0.00     0.051 A 
HETATM   15 BR1  UNL     1     -38.181  -3.216  -0.951  1.00  0.00    -0.043 Br
HETATM   16  S1  UNL     1     -40.510  -2.150   1.092  1.00  0.00    -0.085 SA
ENDBRANCH   5  11
ENDBRANCH   3   5
BRANCH   1  17
HETATM   17  C4  UNL     1     -42.096  -2.266   5.315  1.00  0.00     0.225 C 
BRANCH  17  18
HETATM   18  N1  UNL     1     -41.285  -3.301   5.903  1.00  0.00    -0.350 N 
HETATM   19  C3  UNL     1     -39.870  -3.179   5.748  1.00  0.00     0.256 C 
HETATM   20  O1  UNL     1     -39.379  -2.189   5.115  1.00  0.00    -0.270 OA
ATOM     21  H1  UNL     1     -41.701  -4.084   6.406  1.00  0.00     0.163 HD
BRANCH  19  22
HETATM   22  C2  UNL     1     -38.929  -4.172   6.305  1.00  0.00     0.189 C 
HETATM   23  C1  UNL     1     -39.680  -5.273   7.013  1.00  0.00     0.061 C 
HETATM   24 CL1  UNL     1     -37.881  -3.375   7.536  1.00  0.00    -0.091 Cl
HETATM   25 CL2  UNL     1     -37.917  -4.913   5.035  1.00  0.00    -0.091 Cl
ENDBRANCH  19  22
ENDBRANCH  17  18
ENDBRANCH   1  17
TORSDOF 5
ENDMDL
MODEL 5
REMARK VINA RESULT: -7.099395359      3.689      6.603
REMARK  5 active torsions:
REMARK  status: ('A' for Active; 'I' for Inactive)
REMARK    1  A    between atoms: C2_2  and  C3_5 
REMARK       I    between atoms: C3_5  and  N1_7 
REMARK    2  A    between atoms: N1_7  and  C4_9 
REMARK    3  A    between atoms: C4_9  and  C5_10 
REMARK       I    between atoms: C5_10  and  N2_12 
REMARK    4  A    between atoms: N2_12  and  C6_14 
REMARK    5  A    between atoms: C6_14  and  C7_15 
ROOT
HETATM    1  C5  UNL     1     -41.180  -2.164   3.458  1.00  0.00     0.236 C 
HETATM    2  O2  UNL     1     -41.265  -3.400   3.293  1.00  0.00    -0.272 OA
HETATM    3  N2  UNL     1     -41.871  -1.272   2.607  1.00  0.00    -0.346 N 
ATOM      4  H2  UNL     1     -41.765  -0.274   2.789  1.00  0.00     0.163 HD
ENDROOT
BRANCH   3   5
HETATM    5  C6  UNL     1     -42.712  -1.656   1.503  1.00  0.00     0.066 C 
HETATM    6  C11 UNL     1     -43.492  -0.452   0.987  1.00  0.00     0.036 C 
HETATM    7  C12 UNL     1     -44.985  -0.678   1.037  1.00  0.00     0.003 C 
HETATM    8  C13 UNL     1     -45.442  -1.041   2.417  1.00  0.00     0.000 C 
HETATM    9  C14 UNL     1     -44.549  -2.089   3.020  1.00  0.00     0.003 C 
HETATM   10  C15 UNL     1     -43.702  -2.689   1.918  1.00  0.00     0.036 C 
BRANCH   5  11
HETATM   11  C7  UNL     1     -41.911  -2.138   0.319  1.00  0.00     0.012 A 
HETATM   12  C8  UNL     1     -42.358  -2.645  -0.866  1.00  0.00     0.019 A 
HETATM   13  C9  UNL     1     -41.424  -3.006  -1.769  1.00  0.00     0.028 A 
HETATM   14  C10 UNL     1     -40.117  -2.833  -1.420  1.00  0.00     0.051 A 
HETATM   15 BR1  UNL     1     -38.542  -3.233  -2.461  1.00  0.00    -0.043 Br
HETATM   16  S1  UNL     1     -40.217  -2.175   0.149  1.00  0.00    -0.085 SA
ENDBRANCH   5  11
ENDBRANCH   3   5
BRANCH   1  17
HETATM   17  C4  UNL     1     -40.352  -1.629   4.555  1.00  0.00     0.225 C 
BRANCH  17  18
HETATM   18  N1  UNL     1     -39.379  -2.556   5.073  1.00  0.00    -0.350 N 
HETATM   19  C3  UNL     1     -39.663  -3.151   6.341  1.00  0.00     0.256 C 
HETATM   20  O1  UNL     1     -40.736  -2.855   6.959  1.00  0.00    -0.270 OA
ATOM     21  H1  UNL     1     -38.527  -2.778   4.559  1.00  0.00     0.163 HD
BRANCH  19  22
HETATM   22  C2  UNL     1     -38.747  -4.117   6.979  1.00  0.00     0.189 C 
HETATM   23  C1  UNL     1     -37.715  -3.396   7.813  1.00  0.00     0.061 C 
HETATM   24 CL1  UNL     1     -37.851  -5.022   5.703  1.00  0.00    -0.091 Cl
HETATM   25 CL2  UNL     1     -39.619  -5.261   8.035  1.00  0.00    -0.091 Cl
ENDBRANCH  19  22
ENDBRANCH  17  18
ENDBRANCH   1  17
TORSDOF 5
ENDMDL
