MODEL 1
REMARK VINA RESULT: -8.306726437      0.000      0.000
REMARK  5 active torsions:
REMARK  status: ('A' for Active; 'I' for Inactive)
REMARK    1  A    between atoms: C4_4  and  N1_5 
REMARK       I    between atoms: N1_5  and  C5_7 
REMARK    2  A    between atoms: C5_7  and  C6_9 
REMARK    3  A    between atoms: C6_9  and  N2_10 
REMARK    4  A    between atoms: C6_9  and  C14_20 
REMARK       I    between atoms: N2_10  and  C7_12 
REMARK    5  A    between atoms: C7_12  and  C8_14 
ROOT
HETATM    1  C6  UNL     1     -39.630  -2.261   3.108  1.00  0.00     0.231 C 
ENDROOT
BRANCH   1   2
HETATM    2  C5  UNL     1     -40.974  -1.701   3.283  1.00  0.00     0.245 C 
HETATM    3  N1  UNL     1     -42.194  -2.327   2.979  1.00  0.00    -0.354 N 
ATOM      4  H1  UNL     1     -42.168  -3.273   2.597  1.00  0.00     0.162 HD
HETATM    5  O1  UNL     1     -41.052  -0.514   3.767  1.00  0.00    -0.271 OA
BRANCH   3   6
HETATM    6  C4  UNL     1     -43.489  -1.706   3.177  1.00  0.00     0.087 C 
HETATM    7  C3  UNL     1     -44.416  -2.281   2.126  1.00  0.00     0.040 C 
HETATM    8  C2  UNL     1     -45.622  -1.425   1.921  1.00  0.00     0.046 C 
HETATM    9  C1  UNL     1     -45.392  -0.306   0.927  1.00  0.00     0.021 C 
HETATM   10  S1  UNL     1     -46.100  -0.702   3.490  1.00  0.00    -0.155 SA
HETATM   11  C16 UNL     1     -45.292  -1.472   4.908  1.00  0.00     0.003 C 
HETATM   12  C15 UNL     1     -43.945  -2.047   4.573  1.00  0.00     0.045 C 
HETATM   13  C17 UNL     1     -46.148  -2.584   5.477  1.00  0.00     0.026 C 
HETATM   14  C18 UNL     1     -45.164  -0.406   5.985  1.00  0.00     0.026 C 
ENDBRANCH   3   6
ENDBRANCH   1   2
BRANCH   1  15
HETATM   15  N2  UNL     1     -39.543  -2.995   1.835  1.00  0.00    -0.344 N 
HETATM   16  C7  UNL     1     -40.057  -2.383   0.668  1.00  0.00     0.222 C 
HETATM   17  O2  UNL     1     -40.570  -1.241   0.742  1.00  0.00    -0.273 OA
ATOM     18  H2  UNL     1     -39.121  -3.923   1.795  1.00  0.00     0.163 HD
BRANCH  16  19
HETATM   19  C8  UNL     1     -40.027  -3.024  -0.666  1.00  0.00     0.078 C 
HETATM   20  C9  UNL     1     -41.362  -3.073  -1.325  1.00  0.00     0.014 C 
HETATM   21  C10 UNL     1     -41.132  -3.125  -2.830  1.00  0.00     0.001 C 
HETATM   22  C11 UNL     1     -39.984  -4.044  -3.161  1.00  0.00     0.000 C 
HETATM   23  C12 UNL     1     -38.690  -3.389  -2.696  1.00  0.00     0.001 C 
HETATM   24  C13 UNL     1     -39.034  -2.370  -1.603  1.00  0.00     0.014 C 
ENDBRANCH  16  19
ENDBRANCH   1  15
BRANCH   1  25
HETATM   25  C14 UNL     1     -39.411  -3.353   4.167  1.00  0.00     0.217 C 
HETATM   26 CL1  UNL     1     -37.980  -4.293   3.771  1.00  0.00    -0.081 Cl
HETATM   27 CL2  UNL     1     -39.215  -2.488   5.715  1.00  0.00    -0.081 Cl
HETATM   28 CL3  UNL     1     -40.804  -4.425   4.341  1.00  0.00    -0.081 Cl
ENDBRANCH   1  25
TORSDOF 5
ENDMDL
MODEL 2
REMARK VINA RESULT: -8.205396488      2.433      3.965
REMARK  5 active torsions:
REMARK  status: ('A' for Active; 'I' for Inactive)
REMARK    1  A    between atoms: C4_4  and  N1_5 
REMARK       I    between atoms: N1_5  and  C5_7 
REMARK    2  A    between atoms: C5_7  and  C6_9 
REMARK    3  A    between atoms: C6_9  and  N2_10 
REMARK    4  A    between atoms: C6_9  and  C14_20 
REMARK       I    between atoms: N2_10  and  C7_12 
REMARK    5  A    between atoms: C7_12  and  C8_14 
ROOT
HETATM    1  C6  UNL     1     -40.027  -1.412   6.301  1.00  0.00     0.231 C 
ENDROOT
BRANCH   1   2
HETATM    2  C5  UNL     1     -41.476  -1.635   6.264  1.00  0.00     0.245 C 
HETATM    3  N1  UNL     1     -42.481  -0.655   6.318  1.00  0.00    -0.354 N 
ATOM      4  H1  UNL     1     -42.197   0.322   6.389  1.00  0.00     0.162 HD
HETATM    5  O1  UNL     1     -41.876  -2.851   6.168  1.00  0.00    -0.271 OA
BRANCH   3   6
HETATM    6  C4  UNL     1     -43.899  -0.954   6.279  1.00  0.00     0.087 C 
HETATM    7  C3  UNL     1     -44.603   0.165   7.018  1.00  0.00     0.040 C 
HETATM    8  C2  UNL     1     -45.979  -0.228   7.443  1.00  0.00     0.046 C 
HETATM    9  C1  UNL     1     -46.005  -0.954   8.772  1.00  0.00     0.021 C 
HETATM   10  S1  UNL     1     -46.691  -1.301   6.196  1.00  0.00    -0.155 SA
HETATM   11  C16 UNL     1     -45.771  -1.302   4.643  1.00  0.00     0.003 C 
HETATM   12  C15 UNL     1     -44.309  -1.012   4.830  1.00  0.00     0.045 C 
HETATM   13  C17 UNL     1     -46.335  -0.275   3.683  1.00  0.00     0.026 C 
HETATM   14  C18 UNL     1     -45.967  -2.669   4.007  1.00  0.00     0.026 C 
ENDBRANCH   3   6
ENDBRANCH   1   2
BRANCH   1  15
HETATM   15  N2  UNL     1     -39.376  -2.084   5.164  1.00  0.00    -0.344 N 
HETATM   16  C7  UNL     1     -39.610  -1.584   3.863  1.00  0.00     0.222 C 
HETATM   17  O2  UNL     1     -40.358  -0.589   3.706  1.00  0.00    -0.273 OA
ATOM     18  H2  UNL     1     -38.771  -2.892   5.312  1.00  0.00     0.163 HD
BRANCH  16  19
HETATM   19  C8  UNL     1     -39.013  -2.177   2.645  1.00  0.00     0.078 C 
HETATM   20  C9  UNL     1     -38.215  -3.405   2.920  1.00  0.00     0.014 C 
HETATM   21  C10 UNL     1     -38.211  -4.246   1.651  1.00  0.00     0.001 C 
HETATM   22  C11 UNL     1     -38.039  -3.373   0.434  1.00  0.00     0.000 C 
HETATM   23  C12 UNL     1     -39.313  -2.563   0.236  1.00  0.00     0.001 C 
HETATM   24  C13 UNL     1     -40.045  -2.484   1.581  1.00  0.00     0.014 C 
ENDBRANCH  16  19
ENDBRANCH   1  15
BRANCH   1  25
HETATM   25  C14 UNL     1     -39.450  -2.140   7.526  1.00  0.00     0.217 C 
HETATM   26 CL1  UNL     1     -38.974  -3.772   7.083  1.00  0.00    -0.081 Cl
HETATM   27 CL2  UNL     1     -38.044  -1.170   8.043  1.00  0.00    -0.081 Cl
HETATM   28 CL3  UNL     1     -40.576  -2.191   8.885  1.00  0.00    -0.081 Cl
ENDBRANCH   1  25
TORSDOF 5
ENDMDL
MODEL 3
REMARK VINA RESULT: -8.136556729      1.946      3.254
REMARK  5 active torsions:
REMARK  status: ('A' for Active; 'I' for Inactive)
REMARK    1  A    between atoms: C4_4  and  N1_5 
REMARK       I    between atoms: N1_5  and  C5_7 
REMARK    2  A    between atoms: C5_7  and  C6_9 
REMARK    3  A    between atoms: C6_9  and  N2_10 
REMARK    4  A    between atoms: C6_9  and  C14_20 
REMARK       I    between atoms: N2_10  and  C7_12 
REMARK    5  A    between atoms: C7_12  and  C8_14 
ROOT
HETATM    1  C6  UNL     1     -39.133  -3.108   5.343  1.00  0.00     0.231 C 
ENDROOT
BRANCH   1   2
HETATM    2  C5  UNL     1     -40.492  -2.765   5.775  1.00  0.00     0.245 C 
HETATM    3  N1  UNL     1     -41.616  -2.579   4.953  1.00  0.00    -0.354 N 
ATOM      4  H1  UNL     1     -41.499  -2.691   3.945  1.00  0.00     0.162 HD
HETATM    5  O1  UNL     1     -40.683  -2.621   7.036  1.00  0.00    -0.271 OA
BRANCH   3   6
HETATM    6  C4  UNL     1     -42.932  -2.236   5.455  1.00  0.00     0.087 C 
HETATM    7  C3  UNL     1     -42.847  -0.816   5.973  1.00  0.00     0.040 C 
HETATM    8  C2  UNL     1     -43.968  -0.498   6.907  1.00  0.00     0.046 C 
HETATM    9  C1  UNL     1     -43.682  -0.905   8.338  1.00  0.00     0.021 C 
HETATM   10  S1  UNL     1     -45.446  -1.350   6.359  1.00  0.00    -0.155 SA
HETATM   11  C16 UNL     1     -45.311  -2.011   4.684  1.00  0.00     0.003 C 
HETATM   12  C15 UNL     1     -43.899  -2.355   4.304  1.00  0.00     0.045 C 
HETATM   13  C17 UNL     1     -45.842  -1.020   3.670  1.00  0.00     0.026 C 
HETATM   14  C18 UNL     1     -46.198  -3.245   4.617  1.00  0.00     0.026 C 
ENDBRANCH   3   6
ENDBRANCH   1   2
BRANCH   1  15
HETATM   15  N2  UNL     1     -39.139  -3.553   3.939  1.00  0.00    -0.344 N 
HETATM   16  C7  UNL     1     -39.192  -2.572   2.922  1.00  0.00     0.222 C 
HETATM   17  O2  UNL     1     -39.232  -1.358   3.233  1.00  0.00    -0.273 OA
ATOM     18  H2  UNL     1     -39.106  -4.545   3.707  1.00  0.00     0.163 HD
BRANCH  16  19
HETATM   19  C8  UNL     1     -39.205  -2.900   1.479  1.00  0.00     0.078 C 
HETATM   20  C9  UNL     1     -40.315  -2.239   0.735  1.00  0.00     0.014 C 
HETATM   21  C10 UNL     1     -39.879  -2.102  -0.718  1.00  0.00     0.001 C 
HETATM   22  C11 UNL     1     -39.168  -3.349  -1.179  1.00  0.00     0.000 C 
HETATM   23  C12 UNL     1     -37.817  -3.421  -0.482  1.00  0.00     0.001 C 
HETATM   24  C13 UNL     1     -37.891  -2.579   0.798  1.00  0.00     0.014 C 
ENDBRANCH  16  19
ENDBRANCH   1  15
BRANCH   1  25
HETATM   25  C14 UNL     1     -38.673  -4.355   6.113  1.00  0.00     0.217 C 
HETATM   26 CL1  UNL     1     -40.061  -5.353   6.520  1.00  0.00    -0.081 Cl
HETATM   27 CL2  UNL     1     -37.555  -5.212   5.016  1.00  0.00    -0.081 Cl
HETATM   28 CL3  UNL     1     -37.767  -3.961   7.576  1.00  0.00    -0.081 Cl
ENDBRANCH   1  25
TORSDOF 5
ENDMDL
MODEL 4
REMARK VINA RESULT: -8.097990112      3.599      7.281
REMARK  5 active torsions:
REMARK  status: ('A' for Active; 'I' for Inactive)
REMARK    1  A    between atoms: C4_4  and  N1_5 
REMARK       I    between atoms: N1_5  and  C5_7 
REMARK    2  A    between atoms: C5_7  and  C6_9 
REMARK    3  A    between atoms: C6_9  and  N2_10 
REMARK    4  A    between atoms: C6_9  and  C14_20 
REMARK       I    between atoms: N2_10  and  C7_12 
REMARK    5  A    between atoms: C7_12  and  C8_14 
ROOT
HETATM    1  C6  UNL     1     -43.066  -1.228   4.035  1.00  0.00     0.231 C 
ENDROOT
BRANCH   1   2
HETATM    2  C5  UNL     1     -42.284  -1.968   3.039  1.00  0.00     0.245 C 
HETATM    3  N1  UNL     1     -41.535  -1.425   1.982  1.00  0.00    -0.354 N 
ATOM      4  H1  UNL     1     -41.516  -0.410   1.877  1.00  0.00     0.162 HD
HETATM    5  O1  UNL     1     -42.275  -3.248   3.140  1.00  0.00    -0.271 OA
BRANCH   3   6
HETATM    6  C4  UNL     1     -40.787  -2.224   1.032  1.00  0.00     0.087 C 
HETATM    7  C3  UNL     1     -40.777  -1.457  -0.274  1.00  0.00     0.040 C 
HETATM    8  C2  UNL     1     -40.447  -2.338  -1.433  1.00  0.00     0.046 C 
HETATM    9  C1  UNL     1     -41.659  -3.046  -2.003  1.00  0.00     0.021 C 
HETATM   10  S1  UNL     1     -39.260  -3.574  -0.909  1.00  0.00    -0.155 SA
HETATM   11  C16 UNL     1     -38.502  -3.207   0.687  1.00  0.00     0.003 C 
HETATM   12  C15 UNL     1     -39.397  -2.402   1.587  1.00  0.00     0.045 C 
HETATM   13  C17 UNL     1     -37.208  -2.443   0.506  1.00  0.00     0.026 C 
HETATM   14  C18 UNL     1     -38.154  -4.539   1.334  1.00  0.00     0.026 C 
ENDBRANCH   3   6
ENDBRANCH   1   2
BRANCH   1  15
HETATM   15  N2  UNL     1     -42.591  -1.538   5.393  1.00  0.00    -0.344 N 
HETATM   16  C7  UNL     1     -41.375  -0.964   5.829  1.00  0.00     0.222 C 
HETATM   17  O2  UNL     1     -40.734  -0.210   5.058  1.00  0.00    -0.273 OA
ATOM     18  H2  UNL     1     -43.127  -2.154   6.005  1.00  0.00     0.163 HD
BRANCH  16  19
HETATM   19  C8  UNL     1     -40.799  -1.206   7.171  1.00  0.00     0.078 C 
HETATM   20  C9  UNL     1     -41.549  -2.223   7.959  1.00  0.00     0.014 C 
HETATM   21  C10 UNL     1     -40.579  -2.842   8.957  1.00  0.00     0.001 C 
HETATM   22  C11 UNL     1     -39.688  -1.784   9.558  1.00  0.00     0.000 C 
HETATM   23  C12 UNL     1     -38.724  -1.297   8.486  1.00  0.00     0.001 C 
HETATM   24  C13 UNL     1     -39.338  -1.600   7.114  1.00  0.00     0.014 C 
ENDBRANCH  16  19
ENDBRANCH   1  15
BRANCH   1  25
HETATM   25  C14 UNL     1     -44.506  -1.765   4.026  1.00  0.00     0.217 C 
HETATM   26 CL1  UNL     1     -44.635  -3.149   5.101  1.00  0.00    -0.081 Cl
HETATM   27 CL2  UNL     1     -45.527  -0.411   4.582  1.00  0.00    -0.081 Cl
HETATM   28 CL3  UNL     1     -45.061  -2.207   2.409  1.00  0.00    -0.081 Cl
ENDBRANCH   1  25
TORSDOF 5
ENDMDL
MODEL 5
REMARK VINA RESULT: -8.026179525      2.253      3.155
REMARK  5 active torsions:
REMARK  status: ('A' for Active; 'I' for Inactive)
REMARK    1  A    between atoms: C4_4  and  N1_5 
REMARK       I    between atoms: N1_5  and  C5_7 
REMARK    2  A    between atoms: C5_7  and  C6_9 
REMARK    3  A    between atoms: C6_9  and  N2_10 
REMARK    4  A    between atoms: C6_9  and  C14_20 
REMARK       I    between atoms: N2_10  and  C7_12 
REMARK    5  A    between atoms: C7_12  and  C8_14 
ROOT
HETATM    1  C6  UNL     1     -39.980  -2.257   6.151  1.00  0.00     0.231 C 
ENDROOT
BRANCH   1   2
HETATM    2  C5  UNL     1     -41.408  -1.931   6.071  1.00  0.00     0.245 C 
HETATM    3  N1  UNL     1     -42.445  -2.781   5.652  1.00  0.00    -0.354 N 
ATOM      4  H1  UNL     1     -42.204  -3.732   5.370  1.00  0.00     0.162 HD
HETATM    5  O1  UNL     1     -41.755  -0.746   6.423  1.00  0.00    -0.271 OA
BRANCH   3   6
HETATM    6  C4  UNL     1     -43.838  -2.385   5.596  1.00  0.00     0.087 C 
HETATM    7  C3  UNL     1     -44.495  -3.240   4.533  1.00  0.00     0.040 C 
HETATM    8  C2  UNL     1     -45.780  -2.647   4.058  1.00  0.00     0.046 C 
HETATM    9  C1  UNL     1     -45.592  -1.632   2.950  1.00  0.00     0.021 C 
HETATM   10  S1  UNL     1     -46.595  -1.839   5.436  1.00  0.00    -0.155 SA
HETATM   11  C16 UNL     1     -45.890  -2.275   7.039  1.00  0.00     0.003 C 
HETATM   12  C15 UNL     1     -44.433  -2.632   6.959  1.00  0.00     0.045 C 
HETATM   13  C17 UNL     1     -46.628  -3.447   7.651  1.00  0.00     0.026 C 
HETATM   14  C18 UNL     1     -46.097  -1.081   7.959  1.00  0.00     0.026 C 
ENDBRANCH   3   6
ENDBRANCH   1   2
BRANCH   1  15
HETATM   15  N2  UNL     1     -39.506  -2.795   4.865  1.00  0.00    -0.344 N 
HETATM   16  C7  UNL     1     -39.312  -1.898   3.790  1.00  0.00     0.222 C 
HETATM   17  O2  UNL     1     -39.544  -0.676   3.953  1.00  0.00    -0.273 OA
ATOM     18  H2  UNL     1     -39.322  -3.792   4.753  1.00  0.00     0.163 HD
BRANCH  16  19
HETATM   19  C8  UNL     1     -38.840  -2.322   2.453  1.00  0.00     0.078 C 
HETATM   20  C9  UNL     1     -37.981  -3.539   2.491  1.00  0.00     0.014 C 
HETATM   21  C10 UNL     1     -38.097  -4.229   1.139  1.00  0.00     0.001 C 
HETATM   22  C11 UNL     1     -38.090  -3.216   0.022  1.00  0.00     0.000 C 
HETATM   23  C12 UNL     1     -39.401  -2.443   0.062  1.00  0.00     0.001 C 
HETATM   24  C13 UNL     1     -39.977  -2.549   1.479  1.00  0.00     0.014 C 
ENDBRANCH  16  19
ENDBRANCH   1  15
BRANCH   1  25
HETATM   25  C14 UNL     1     -39.799  -3.435   7.121  1.00  0.00     0.217 C 
HETATM   26 CL1  UNL     1     -39.990  -4.955   6.260  1.00  0.00    -0.081 Cl
HETATM   27 CL2  UNL     1     -38.150  -3.264   7.782  1.00  0.00    -0.081 Cl
HETATM   28 CL3  UNL     1     -40.917  -3.374   8.487  1.00  0.00    -0.081 Cl
ENDBRANCH   1  25
TORSDOF 5
ENDMDL
