MODEL 1
REMARK VINA RESULT: -7.973001950      0.000      0.000
REMARK  7 active torsions:
REMARK  status: ('A' for Active; 'I' for Inactive)
REMARK    1  A    between atoms: C4_4  and  S1_5 
REMARK    2  A    between atoms: S1_5  and  C5_6 
REMARK    3  A    between atoms: N1_12  and  C11_13 
REMARK    4  A    between atoms: C11_13  and  O1_14 
REMARK    5  A    between atoms: C11_13  and  C12_16 
REMARK    6  A    between atoms: C12_16  and  N2_18 
REMARK    7  A    between atoms: C15_21  and  N3_22 
ROOT
HETATM    1  C1  UNL     1      -2.964  12.284   2.142  1.00  0.00     0.012 C 
HETATM    2  C2  UNL     1      -4.099  11.440   1.729  1.00  0.00     0.013 C 
HETATM    3  C3  UNL     1      -3.925   9.917   1.942  1.00  0.00     0.035 C 
HETATM    4  C4  UNL     1      -5.255   9.301   1.561  1.00  0.00     0.159 C 
HETATM    5  N1  UNL     1      -6.156  10.326   2.160  1.00  0.00    -0.343 N 
HETATM    6  C22 UNL     1      -5.193  11.198   2.785  1.00  0.00     0.100 C 
HETATM    7  C23 UNL     1      -4.219  10.234   3.356  1.00  0.00    -0.013 A 
HETATM    8  C24 UNL     1      -3.384  10.296   4.488  1.00  0.00     0.013 A 
HETATM    9  C25 UNL     1      -4.500   9.237   4.395  1.00  0.00     0.013 A 
ENDROOT
BRANCH   5  10
HETATM   10  C11 UNL     1      -7.540  10.283   2.057  1.00  0.00     0.164 C 
BRANCH  10  11
HETATM   11  O1  UNL     1      -8.020  11.129   1.172  1.00  0.00    -0.347 OA
ATOM     12  H1  UNL     1      -8.905  10.920   0.895  1.00  0.00     0.219 HD
ENDBRANCH  10  11
BRANCH  10  13
HETATM   13  C12 UNL     1      -8.569   9.508   2.711  1.00  0.00     0.392 C 
HETATM   14 CL1  UNL     1     -10.185  10.219   2.330  1.00  0.00    -0.083 Cl
BRANCH  13  15
HETATM   15  N2  UNL     1      -8.594   8.088   2.541  1.00  0.00     0.115 N 
HETATM   16  C13 UNL     1      -9.934   7.569   2.482  1.00  0.00     0.277 C 
HETATM   17  C14 UNL     1     -10.068   6.085   2.402  1.00  0.00     0.066 C 
HETATM   18  C15 UNL     1      -9.382   5.479   3.595  1.00  0.00     0.226 C 
HETATM   19  C20 UNL     1      -7.962   5.926   3.583  1.00  0.00     0.066 C 
HETATM   20  C21 UNL     1      -7.750   7.389   3.464  1.00  0.00     0.277 C 
BRANCH  18  21
HETATM   21  N3  UNL     1     -10.124   5.744   4.758  1.00  0.00     0.093 N 
HETATM   22  C16 UNL     1     -11.359   5.007   4.761  1.00  0.00     0.273 C 
HETATM   23  C17 UNL     1     -11.422   4.239   6.037  1.00  0.00     0.032 C 
HETATM   24  C18 UNL     1     -10.390   4.843   6.926  1.00  0.00     0.032 C 
HETATM   25  C19 UNL     1      -9.473   5.572   6.004  1.00  0.00     0.273 C 
ENDBRANCH  18  21
ENDBRANCH  13  15
ENDBRANCH  10  13
ENDBRANCH   5  10
BRANCH   4  26
HETATM   26  S1  UNL     1      -5.524   9.144  -0.195  1.00  0.00    -0.104 SA
BRANCH  26  27
HETATM   27  C5  UNL     1      -4.010   8.873  -1.062  1.00  0.00     0.002 A 
HETATM   28  C6  UNL     1      -3.382   7.652  -0.982  1.00  0.00     0.018 A 
HETATM   29  C7  UNL     1      -2.159   7.489  -1.654  1.00  0.00     0.001 A 
HETATM   30  C8  UNL     1      -1.625   8.546  -2.366  1.00  0.00     0.000 A 
HETATM   31  C9  UNL     1      -2.264   9.768  -2.440  1.00  0.00     0.001 A 
HETATM   32  C10 UNL     1      -3.463   9.933  -1.784  1.00  0.00     0.018 A 
ENDBRANCH  26  27
ENDBRANCH   4  26
TORSDOF 7
ENDMDL
MODEL 2
REMARK VINA RESULT: -7.950931423      1.959      4.499
REMARK  7 active torsions:
REMARK  status: ('A' for Active; 'I' for Inactive)
REMARK    1  A    between atoms: C4_4  and  S1_5 
REMARK    2  A    between atoms: S1_5  and  C5_6 
REMARK    3  A    between atoms: N1_12  and  C11_13 
REMARK    4  A    between atoms: C11_13  and  O1_14 
REMARK    5  A    between atoms: C11_13  and  C12_16 
REMARK    6  A    between atoms: C12_16  and  N2_18 
REMARK    7  A    between atoms: C15_21  and  N3_22 
ROOT
HETATM    1  C1  UNL     1      -3.952   9.012   0.514  1.00  0.00     0.012 C 
HETATM    2  C2  UNL     1      -4.749   9.164   1.744  1.00  0.00     0.013 C 
HETATM    3  C3  UNL     1      -4.366  10.351   2.660  1.00  0.00     0.035 C 
HETATM    4  C4  UNL     1      -5.398  10.356   3.768  1.00  0.00     0.159 C 
HETATM    5  N1  UNL     1      -6.603  10.036   2.952  1.00  0.00    -0.343 N 
HETATM    6  C22 UNL     1      -6.032  10.007   1.629  1.00  0.00     0.100 C 
HETATM    7  C23 UNL     1      -5.098  11.161   1.663  1.00  0.00    -0.013 A 
HETATM    8  C24 UNL     1      -4.642  12.035   0.658  1.00  0.00     0.013 A 
HETATM    9  C25 UNL     1      -5.473  12.568   1.842  1.00  0.00     0.013 A 
ENDROOT
BRANCH   5  10
HETATM   10  C11 UNL     1      -7.870   9.861   3.493  1.00  0.00     0.164 C 
BRANCH  10  11
HETATM   11  O1  UNL     1      -7.969  10.295   4.731  1.00  0.00    -0.347 OA
ATOM     12  H1  UNL     1      -8.861  10.509   4.983  1.00  0.00     0.219 HD
ENDBRANCH  10  11
BRANCH  10  13
HETATM   13  C12 UNL     1      -9.106   9.307   2.991  1.00  0.00     0.392 C 
HETATM   14 CL1  UNL     1      -9.574  10.168   1.474  1.00  0.00    -0.083 Cl
BRANCH  13  15
HETATM   15  N2  UNL     1      -9.223   7.891   2.819  1.00  0.00     0.115 N 
HETATM   16  C13 UNL     1     -10.507   7.396   3.237  1.00  0.00     0.277 C 
HETATM   17  C14 UNL     1     -10.695   5.916   3.187  1.00  0.00     0.066 C 
HETATM   18  C15 UNL     1      -9.642   5.273   4.046  1.00  0.00     0.226 C 
HETATM   19  C20 UNL     1      -8.310   5.696   3.532  1.00  0.00     0.066 C 
HETATM   20  C21 UNL     1      -8.121   7.158   3.368  1.00  0.00     0.277 C 
BRANCH  18  21
HETATM   21  N3  UNL     1      -9.912   5.523   5.401  1.00  0.00     0.093 N 
HETATM   22  C16 UNL     1     -10.438   4.351   6.048  1.00  0.00     0.273 C 
HETATM   23  C17 UNL     1      -9.592   4.080   7.246  1.00  0.00     0.032 C 
HETATM   24  C18 UNL     1      -8.814   5.329   7.485  1.00  0.00     0.032 C 
HETATM   25  C19 UNL     1      -8.866   6.064   6.189  1.00  0.00     0.273 C 
ENDBRANCH  18  21
ENDBRANCH  13  15
ENDBRANCH  10  13
ENDBRANCH   5  10
BRANCH   4  26
HETATM   26  S1  UNL     1      -5.129   9.134   5.038  1.00  0.00    -0.104 SA
BRANCH  26  27
HETATM   27  C5  UNL     1      -3.912   9.666   6.202  1.00  0.00     0.002 A 
HETATM   28  C6  UNL     1      -4.299  10.112   7.445  1.00  0.00     0.018 A 
HETATM   29  C7  UNL     1      -3.304  10.564   8.327  1.00  0.00     0.001 A 
HETATM   30  C8  UNL     1      -1.981  10.550   7.931  1.00  0.00     0.000 A 
HETATM   31  C9  UNL     1      -1.603  10.100   6.680  1.00  0.00     0.001 A 
HETATM   32  C10 UNL     1      -2.574   9.655   5.812  1.00  0.00     0.018 A 
ENDBRANCH  26  27
ENDBRANCH   4  26
TORSDOF 7
ENDMDL
MODEL 3
REMARK VINA RESULT: -7.784346025      1.906      4.412
REMARK  7 active torsions:
REMARK  status: ('A' for Active; 'I' for Inactive)
REMARK    1  A    between atoms: C4_4  and  S1_5 
REMARK    2  A    between atoms: S1_5  and  C5_6 
REMARK    3  A    between atoms: N1_12  and  C11_13 
REMARK    4  A    between atoms: C11_13  and  O1_14 
REMARK    5  A    between atoms: C11_13  and  C12_16 
REMARK    6  A    between atoms: C12_16  and  N2_18 
REMARK    7  A    between atoms: C15_21  and  N3_22 
ROOT
HETATM    1  C1  UNL     1      -3.249  10.458   0.554  1.00  0.00     0.012 C 
HETATM    2  C2  UNL     1      -4.435  10.055   1.329  1.00  0.00     0.013 C 
HETATM    3  C3  UNL     1      -4.814  10.970   2.518  1.00  0.00     0.035 C 
HETATM    4  C4  UNL     1      -6.115  10.414   3.058  1.00  0.00     0.159 C 
HETATM    5  N1  UNL     1      -6.774  10.088   1.762  1.00  0.00    -0.343 N 
HETATM    6  C22 UNL     1      -5.792  10.583   0.829  1.00  0.00     0.100 C 
HETATM    7  C23 UNL     1      -5.363  11.853   1.467  1.00  0.00    -0.013 A 
HETATM    8  C24 UNL     1      -4.890  13.066   0.930  1.00  0.00     0.013 A 
HETATM    9  C25 UNL     1      -6.214  13.022   1.718  1.00  0.00     0.013 A 
ENDROOT
BRANCH   5  10
HETATM   10  C11 UNL     1      -8.019   9.481   1.667  1.00  0.00     0.164 C 
BRANCH  10  11
HETATM   11  O1  UNL     1      -8.393   9.257   0.426  1.00  0.00    -0.347 OA
ATOM     12  H1  UNL     1      -9.121   9.804   0.149  1.00  0.00     0.219 HD
ENDBRANCH  10  11
BRANCH  10  13
HETATM   13  C12 UNL     1      -8.994   9.038   2.637  1.00  0.00     0.392 C 
HETATM   14 CL1  UNL     1     -10.353  10.224   2.702  1.00  0.00    -0.083 Cl
BRANCH  13  15
HETATM   15  N2  UNL     1      -9.498   7.701   2.566  1.00  0.00     0.115 N 
HETATM   16  C13 UNL     1     -10.755   7.556   3.247  1.00  0.00     0.277 C 
HETATM   17  C14 UNL     1     -11.320   6.175   3.312  1.00  0.00     0.066 C 
HETATM   18  C15 UNL     1     -10.315   5.281   3.985  1.00  0.00     0.226 C 
HETATM   19  C20 UNL     1      -9.049   5.345   3.204  1.00  0.00     0.066 C 
HETATM   20  C21 UNL     1      -8.532   6.707   2.930  1.00  0.00     0.277 C 
BRANCH  18  21
HETATM   21  N3  UNL     1     -10.237   5.595   5.352  1.00  0.00     0.093 N 
HETATM   22  C16 UNL     1     -10.866   4.577   6.151  1.00  0.00     0.273 C 
HETATM   23  C17 UNL     1      -9.874   4.127   7.169  1.00  0.00     0.032 C 
HETATM   24  C18 UNL     1      -8.806   5.165   7.183  1.00  0.00     0.032 C 
HETATM   25  C19 UNL     1      -8.958   5.885   5.886  1.00  0.00     0.273 C 
ENDBRANCH  18  21
ENDBRANCH  13  15
ENDBRANCH  10  13
ENDBRANCH   5  10
BRANCH   4  26
HETATM   26  S1  UNL     1      -5.934   8.963   4.079  1.00  0.00    -0.104 SA
BRANCH  26  27
HETATM   27  C5  UNL     1      -5.231   9.359   5.650  1.00  0.00     0.002 A 
HETATM   28  C6  UNL     1      -6.004   9.289   6.785  1.00  0.00     0.018 A 
HETATM   29  C7  UNL     1      -5.419   9.650   8.010  1.00  0.00     0.001 A 
HETATM   30  C8  UNL     1      -4.101  10.061   8.042  1.00  0.00     0.000 A 
HETATM   31  C9  UNL     1      -3.333  10.127   6.896  1.00  0.00     0.001 A 
HETATM   32  C10 UNL     1      -3.902   9.774   5.693  1.00  0.00     0.018 A 
ENDBRANCH  26  27
ENDBRANCH   4  26
TORSDOF 7
ENDMDL
MODEL 4
REMARK VINA RESULT: -7.676460874      1.641      3.765
REMARK  7 active torsions:
REMARK  status: ('A' for Active; 'I' for Inactive)
REMARK    1  A    between atoms: C4_4  and  S1_5 
REMARK    2  A    between atoms: S1_5  and  C5_6 
REMARK    3  A    between atoms: N1_12  and  C11_13 
REMARK    4  A    between atoms: C11_13  and  O1_14 
REMARK    5  A    between atoms: C11_13  and  C12_16 
REMARK    6  A    between atoms: C12_16  and  N2_18 
REMARK    7  A    between atoms: C15_21  and  N3_22 
ROOT
HETATM    1  C1  UNL     1      -4.201   8.713  -0.732  1.00  0.00     0.012 C 
HETATM    2  C2  UNL     1      -5.210   9.573  -0.090  1.00  0.00     0.013 C 
HETATM    3  C3  UNL     1      -5.621  10.841  -0.876  1.00  0.00     0.035 C 
HETATM    4  C4  UNL     1      -6.740  11.471  -0.073  1.00  0.00     0.159 C 
HETATM    5  N1  UNL     1      -7.460  10.226   0.319  1.00  0.00    -0.343 N 
HETATM    6  C22 UNL     1      -6.684   9.234  -0.381  1.00  0.00     0.100 C 
HETATM    7  C23 UNL     1      -6.424   9.897  -1.683  1.00  0.00    -0.013 A 
HETATM    8  C24 UNL     1      -6.231   9.386  -2.981  1.00  0.00     0.013 A 
HETATM    9  C25 UNL     1      -7.438  10.292  -2.667  1.00  0.00     0.013 A 
ENDROOT
BRANCH   5  10
HETATM   10  C11 UNL     1      -8.581  10.216   1.139  1.00  0.00     0.164 C 
BRANCH  10  11
HETATM   11  O1  UNL     1      -9.513  11.061   0.753  1.00  0.00    -0.347 OA
ATOM     12  H1  UNL     1     -10.306  10.632   0.451  1.00  0.00     0.219 HD
ENDBRANCH  10  11
BRANCH  10  13
HETATM   13  C12 UNL     1      -8.948   9.477   2.325  1.00  0.00     0.392 C 
HETATM   14 CL1  UNL     1     -10.628   9.924   2.811  1.00  0.00    -0.083 Cl
BRANCH  13  15
HETATM   15  N2  UNL     1      -8.781   8.056   2.347  1.00  0.00     0.115 N 
HETATM   16  C13 UNL     1     -10.039   7.360   2.372  1.00  0.00     0.277 C 
HETATM   17  C14 UNL     1      -9.973   5.874   2.492  1.00  0.00     0.066 C 
HETATM   18  C15 UNL     1      -9.221   5.531   3.748  1.00  0.00     0.226 C 
HETATM   19  C20 UNL     1      -7.873   6.158   3.663  1.00  0.00     0.066 C 
HETATM   20  C21 UNL     1      -7.859   7.606   3.346  1.00  0.00     0.277 C 
BRANCH  18  21
HETATM   21  N3  UNL     1     -10.001   5.848   4.873  1.00  0.00     0.093 N 
HETATM   22  C16 UNL     1     -11.199   5.052   4.911  1.00  0.00     0.273 C 
HETATM   23  C17 UNL     1     -11.253   4.384   6.243  1.00  0.00     0.032 C 
HETATM   24  C18 UNL     1     -10.271   5.105   7.100  1.00  0.00     0.032 C 
HETATM   25  C19 UNL     1      -9.371   5.806   6.141  1.00  0.00     0.273 C 
ENDBRANCH  18  21
ENDBRANCH  13  15
ENDBRANCH  10  13
ENDBRANCH   5  10
BRANCH   4  26
HETATM   26  S1  UNL     1      -6.200  12.388   1.358  1.00  0.00    -0.104 SA
BRANCH  26  27
HETATM   27  C5  UNL     1      -5.111  11.433   2.368  1.00  0.00     0.002 A 
HETATM   28  C6  UNL     1      -5.624  10.503   3.242  1.00  0.00     0.018 A 
HETATM   29  C7  UNL     1      -4.727   9.792   4.056  1.00  0.00     0.001 A 
HETATM   30  C8  UNL     1      -3.372  10.043   3.961  1.00  0.00     0.000 A 
HETATM   31  C9  UNL     1      -2.867  10.980   3.080  1.00  0.00     0.001 A 
HETATM   32  C10 UNL     1      -3.742  11.679   2.279  1.00  0.00     0.018 A 
ENDBRANCH  26  27
ENDBRANCH   4  26
TORSDOF 7
ENDMDL
MODEL 5
REMARK VINA RESULT: -7.409897796      1.898      4.063
REMARK  7 active torsions:
REMARK  status: ('A' for Active; 'I' for Inactive)
REMARK    1  A    between atoms: C4_4  and  S1_5 
REMARK    2  A    between atoms: S1_5  and  C5_6 
REMARK    3  A    between atoms: N1_12  and  C11_13 
REMARK    4  A    between atoms: C11_13  and  O1_14 
REMARK    5  A    between atoms: C11_13  and  C12_16 
REMARK    6  A    between atoms: C12_16  and  N2_18 
REMARK    7  A    between atoms: C15_21  and  N3_22 
ROOT
HETATM    1  C1  UNL     1      -6.287   9.504  -2.220  1.00  0.00     0.012 C 
HETATM    2  C2  UNL     1      -6.187   9.578  -0.752  1.00  0.00     0.013 C 
HETATM    3  C3  UNL     1      -5.169  10.598  -0.191  1.00  0.00     0.035 C 
HETATM    4  C4  UNL     1      -5.350  10.566   1.313  1.00  0.00     0.159 C 
HETATM    5  N1  UNL     1      -6.837  10.468   1.356  1.00  0.00    -0.343 N 
HETATM    6  C22 UNL     1      -7.153  10.549  -0.048  1.00  0.00     0.100 C 
HETATM    7  C23 UNL     1      -6.210  11.593  -0.524  1.00  0.00    -0.013 A 
HETATM    8  C24 UNL     1      -6.296  12.538  -1.565  1.00  0.00     0.013 A 
HETATM    9  C25 UNL     1      -6.192  12.997  -0.097  1.00  0.00     0.013 A 
ENDROOT
BRANCH   5  10
HETATM   10  C11 UNL     1      -7.562  10.351   2.534  1.00  0.00     0.164 C 
BRANCH  10  11
HETATM   11  O1  UNL     1      -7.127  11.141   3.492  1.00  0.00    -0.347 OA
ATOM     12  H1  UNL     1      -6.580  10.693   4.127  1.00  0.00     0.219 HD
ENDBRANCH  10  11
BRANCH  10  13
HETATM   13  C12 UNL     1      -8.696   9.551   2.937  1.00  0.00     0.392 C 
HETATM   14 CL1  UNL     1     -10.210  10.288   2.286  1.00  0.00    -0.083 Cl
BRANCH  13  15
HETATM   15  N2  UNL     1      -8.682   8.141   2.696  1.00  0.00     0.115 N 
HETATM   16  C13 UNL     1     -10.003   7.575   2.691  1.00  0.00     0.277 C 
HETATM   17  C14 UNL     1     -10.090   6.092   2.543  1.00  0.00     0.066 C 
HETATM   18  C15 UNL     1      -9.311   5.455   3.659  1.00  0.00     0.226 C 
HETATM   19  C20 UNL     1      -7.910   5.955   3.585  1.00  0.00     0.066 C 
HETATM   20  C21 UNL     1      -7.758   7.429   3.529  1.00  0.00     0.277 C 
BRANCH  18  21
HETATM   21  N3  UNL     1      -9.988   5.634   4.877  1.00  0.00     0.093 N 
HETATM   22  C16 UNL     1     -11.174   4.822   4.932  1.00  0.00     0.273 C 
HETATM   23  C17 UNL     1     -11.106   4.009   6.179  1.00  0.00     0.032 C 
HETATM   24  C18 UNL     1     -10.054   4.644   7.022  1.00  0.00     0.032 C 
HETATM   25  C19 UNL     1      -9.246   5.460   6.072  1.00  0.00     0.273 C 
ENDBRANCH  18  21
ENDBRANCH  13  15
ENDBRANCH  10  13
ENDBRANCH   5  10
BRANCH   4  26
HETATM   26  S1  UNL     1      -4.583   9.175   2.122  1.00  0.00    -0.104 SA
BRANCH  26  27
HETATM   27  C5  UNL     1      -4.038   9.591   3.749  1.00  0.00     0.002 A 
HETATM   28  C6  UNL     1      -2.906  10.353   3.921  1.00  0.00     0.018 A 
HETATM   29  C7  UNL     1      -2.483  10.629   5.232  1.00  0.00     0.001 A 
HETATM   30  C8  UNL     1      -3.205  10.133   6.301  1.00  0.00     0.000 A 
HETATM   31  C9  UNL     1      -4.341   9.369   6.117  1.00  0.00     0.001 A 
HETATM   32  C10 UNL     1      -4.760   9.097   4.834  1.00  0.00     0.018 A 
ENDBRANCH  26  27
ENDBRANCH   4  26
TORSDOF 7
ENDMDL
