MODEL 1
REMARK VINA RESULT: -7.369417743      0.000      0.000
REMARK  9 active torsions:
REMARK  status: ('A' for Active; 'I' for Inactive)
REMARK    1  A    between atoms: O1_2  and  C2_3 
REMARK    2  A    between atoms: C2_3  and  C3_5 
REMARK    3  A    between atoms: C5_7  and  C6_8 
REMARK    4  A    between atoms: C6_8  and  O4_10 
REMARK    5  A    between atoms: O4_10  and  C7_11 
REMARK    6  A    between atoms: C7_11  and  C8_12 
REMARK       I    between atoms: C8_12  and  N1_14 
REMARK    7  A    between atoms: N1_14  and  C9_16 
REMARK    8  A    between atoms: C9_16  and  C12_19 
REMARK    9  A    between atoms: C17_24  and  N2_25 
ROOT
HETATM    1  C6  UNL     1     -18.786  12.982  29.403  1.00  0.00     0.293 C 
HETATM    2  O3  UNL     1     -18.996  13.094  30.631  1.00  0.00    -0.259 OA
ENDROOT
BRANCH   1   3
HETATM    3  C5  UNL     1     -17.421  13.137  28.864  1.00  0.00     0.043 A 
HETATM    4  C4  UNL     1     -16.862  12.102  28.150  1.00  0.00     0.035 A 
HETATM    5  C3  UNL     1     -15.594  12.193  27.626  1.00  0.00     0.042 A 
HETATM    6  C18 UNL     1     -14.841  13.338  27.806  1.00  0.00     0.053 A 
HETATM    7  C17 UNL     1     -15.390  14.383  28.519  1.00  0.00     0.104 A 
HETATM    8  C16 UNL     1     -16.679  14.263  29.039  1.00  0.00     0.053 A 
BRANCH   5   9
HETATM    9  C2  UNL     1     -15.058  11.072  26.883  1.00  0.00     0.293 C 
HETATM   10  O2  UNL     1     -15.346   9.909  27.236  1.00  0.00    -0.259 OA
BRANCH   9  11
HETATM   11  O1  UNL     1     -14.224  11.264  25.781  1.00  0.00    -0.323 OA
HETATM   12  C1  UNL     1     -13.636  10.168  25.103  1.00  0.00     0.213 C 
ENDBRANCH   9  11
ENDBRANCH   5   9
BRANCH   7  13
HETATM   13  N2  UNL     1     -14.642  15.570  28.720  1.00  0.00    -0.116 N 
HETATM   14  O6  UNL     1     -13.564  15.750  28.122  1.00  0.00    -0.532 OA
HETATM   15  O7  UNL     1     -15.096  16.535  29.577  1.00  0.00    -0.532 OA
ENDBRANCH   7  13
ENDBRANCH   1   3
BRANCH   1  16
HETATM   16  O4  UNL     1     -19.832  12.715  28.558  1.00  0.00    -0.308 OA
BRANCH  16  17
HETATM   17  C7  UNL     1     -20.485  11.484  28.433  1.00  0.00     0.281 C 
BRANCH  17  18
HETATM   18  C8  UNL     1     -20.144  10.808  27.163  1.00  0.00     0.242 C 
HETATM   19  O5  UNL     1     -20.567  11.299  26.090  1.00  0.00    -0.271 OA
HETATM   20  N1  UNL     1     -19.342   9.615  27.176  1.00  0.00    -0.350 N 
ATOM     21  H1  UNL     1     -19.002   9.223  28.054  1.00  0.00     0.163 HD
BRANCH  20  22
HETATM   22  C9  UNL     1     -19.032   8.987  25.922  1.00  0.00     0.032 C 
HETATM   23  C10 UNL     1     -20.320   8.703  25.198  1.00  0.00     0.039 C 
HETATM   24  C11 UNL     1     -18.153   9.952  25.125  1.00  0.00     0.039 C 
BRANCH  22  25
HETATM   25  C12 UNL     1     -18.264   7.724  26.092  1.00  0.00    -0.027 C 
HETATM   26  C13 UNL     1     -19.107   6.561  25.601  1.00  0.00     0.017 C 
HETATM   27  C14 UNL     1     -16.990   7.725  25.269  1.00  0.00     0.017 C 
HETATM   28  C15 UNL     1     -17.881   7.434  27.514  1.00  0.00     0.017 C 
ENDBRANCH  22  25
ENDBRANCH  20  22
ENDBRANCH  17  18
ENDBRANCH  16  17
ENDBRANCH   1  16
TORSDOF 9
ENDMDL
MODEL 2
REMARK VINA RESULT: -7.346484994      2.893      4.488
REMARK  9 active torsions:
REMARK  status: ('A' for Active; 'I' for Inactive)
REMARK    1  A    between atoms: O1_2  and  C2_3 
REMARK    2  A    between atoms: C2_3  and  C3_5 
REMARK    3  A    between atoms: C5_7  and  C6_8 
REMARK    4  A    between atoms: C6_8  and  O4_10 
REMARK    5  A    between atoms: O4_10  and  C7_11 
REMARK    6  A    between atoms: C7_11  and  C8_12 
REMARK       I    between atoms: C8_12  and  N1_14 
REMARK    7  A    between atoms: N1_14  and  C9_16 
REMARK    8  A    between atoms: C9_16  and  C12_19 
REMARK    9  A    between atoms: C17_24  and  N2_25 
ROOT
HETATM    1  C6  UNL     1     -20.316  14.377  30.439  1.00  0.00     0.293 C 
HETATM    2  O3  UNL     1     -21.462  14.877  30.454  1.00  0.00    -0.259 OA
ENDROOT
BRANCH   1   3
HETATM    3  C5  UNL     1     -19.165  15.139  30.960  1.00  0.00     0.043 A 
HETATM    4  C4  UNL     1     -17.907  14.871  30.470  1.00  0.00     0.035 A 
HETATM    5  C3  UNL     1     -16.800  15.551  30.920  1.00  0.00     0.042 A 
HETATM    6  C18 UNL     1     -16.924  16.531  31.887  1.00  0.00     0.053 A 
HETATM    7  C17 UNL     1     -18.179  16.810  32.386  1.00  0.00     0.104 A 
HETATM    8  C16 UNL     1     -19.285  16.105  31.911  1.00  0.00     0.053 A 
BRANCH   5   9
HETATM    9  C2  UNL     1     -15.502  15.226  30.368  1.00  0.00     0.293 C 
HETATM   10  O2  UNL     1     -15.022  14.089  30.559  1.00  0.00    -0.259 OA
BRANCH   9  11
HETATM   11  O1  UNL     1     -14.775  16.158  29.626  1.00  0.00    -0.323 OA
HETATM   12  C1  UNL     1     -14.202  15.818  28.376  1.00  0.00     0.213 C 
ENDBRANCH   9  11
ENDBRANCH   5   9
BRANCH   7  13
HETATM   13  N2  UNL     1     -18.337  17.810  33.378  1.00  0.00    -0.116 N 
HETATM   14  O6  UNL     1     -19.090  17.624  34.353  1.00  0.00    -0.532 OA
HETATM   15  O7  UNL     1     -17.663  18.997  33.276  1.00  0.00    -0.532 OA
ENDBRANCH   7  13
ENDBRANCH   1   3
BRANCH   1  16
HETATM   16  O4  UNL     1     -20.133  13.115  29.936  1.00  0.00    -0.308 OA
BRANCH  16  17
HETATM   17  C7  UNL     1     -20.700  12.617  28.759  1.00  0.00     0.281 C 
BRANCH  17  18
HETATM   18  C8  UNL     1     -19.911  11.498  28.199  1.00  0.00     0.242 C 
HETATM   19  O5  UNL     1     -20.507  10.442  27.884  1.00  0.00    -0.271 OA
HETATM   20  N1  UNL     1     -18.490  11.637  28.025  1.00  0.00    -0.350 N 
ATOM     21  H1  UNL     1     -18.014  12.501  28.285  1.00  0.00     0.163 HD
BRANCH  20  22
HETATM   22  C9  UNL     1     -17.758  10.530  27.478  1.00  0.00     0.032 C 
HETATM   23  C10 UNL     1     -17.828   9.384  28.451  1.00  0.00     0.039 C 
HETATM   24  C11 UNL     1     -18.405  10.160  26.143  1.00  0.00     0.039 C 
BRANCH  22  25
HETATM   25  C12 UNL     1     -16.335  10.868  27.204  1.00  0.00    -0.027 C 
HETATM   26  C13 UNL     1     -15.441   9.925  27.990  1.00  0.00     0.017 C 
HETATM   27  C14 UNL     1     -15.986  10.689  25.738  1.00  0.00     0.017 C 
HETATM   28  C15 UNL     1     -15.959  12.269  27.589  1.00  0.00     0.017 C 
ENDBRANCH  22  25
ENDBRANCH  20  22
ENDBRANCH  17  18
ENDBRANCH  16  17
ENDBRANCH   1  16
TORSDOF 9
ENDMDL
MODEL 3
REMARK VINA RESULT: -7.219687473      3.878      6.619
REMARK  9 active torsions:
REMARK  status: ('A' for Active; 'I' for Inactive)
REMARK    1  A    between atoms: O1_2  and  C2_3 
REMARK    2  A    between atoms: C2_3  and  C3_5 
REMARK    3  A    between atoms: C5_7  and  C6_8 
REMARK    4  A    between atoms: C6_8  and  O4_10 
REMARK    5  A    between atoms: O4_10  and  C7_11 
REMARK    6  A    between atoms: C7_11  and  C8_12 
REMARK       I    between atoms: C8_12  and  N1_14 
REMARK    7  A    between atoms: N1_14  and  C9_16 
REMARK    8  A    between atoms: C9_16  and  C12_19 
REMARK    9  A    between atoms: C17_24  and  N2_25 
ROOT
HETATM    1  C6  UNL     1     -16.270  15.546  30.376  1.00  0.00     0.293 C 
HETATM    2  O3  UNL     1     -15.443  16.428  30.059  1.00  0.00    -0.259 OA
ENDROOT
BRANCH   1   3
HETATM    3  C5  UNL     1     -17.433  15.885  31.220  1.00  0.00     0.043 A 
HETATM    4  C4  UNL     1     -17.303  16.871  32.172  1.00  0.00     0.035 A 
HETATM    5  C3  UNL     1     -18.354  17.227  32.985  1.00  0.00     0.042 A 
HETATM    6  C18 UNL     1     -19.578  16.598  32.866  1.00  0.00     0.053 A 
HETATM    7  C17 UNL     1     -19.721  15.609  31.915  1.00  0.00     0.104 A 
HETATM    8  C16 UNL     1     -18.639  15.267  31.104  1.00  0.00     0.053 A 
BRANCH   5   9
HETATM    9  C2  UNL     1     -18.159  18.272  33.968  1.00  0.00     0.293 C 
HETATM   10  O2  UNL     1     -17.662  19.362  33.615  1.00  0.00    -0.259 OA
BRANCH   9  11
HETATM   11  O1  UNL     1     -18.513  18.085  35.305  1.00  0.00    -0.323 OA
HETATM   12  C1  UNL     1     -17.529  17.971  36.318  1.00  0.00     0.213 C 
ENDBRANCH   9  11
ENDBRANCH   5   9
BRANCH   7  13
HETATM   13  N2  UNL     1     -20.965  14.945  31.769  1.00  0.00    -0.116 N 
HETATM   14  O6  UNL     1     -21.586  14.988  30.690  1.00  0.00    -0.532 OA
HETATM   15  O7  UNL     1     -21.501  14.246  32.817  1.00  0.00    -0.532 OA
ENDBRANCH   7  13
ENDBRANCH   1   3
BRANCH   1  16
HETATM   16  O4  UNL     1     -16.094  14.260  29.937  1.00  0.00    -0.308 OA
BRANCH  16  17
HETATM   17  C7  UNL     1     -16.185  13.833  28.608  1.00  0.00     0.281 C 
BRANCH  17  18
HETATM   18  C8  UNL     1     -16.980  12.592  28.483  1.00  0.00     0.242 C 
HETATM   19  O5  UNL     1     -18.006  12.463  29.191  1.00  0.00    -0.271 OA
HETATM   20  N1  UNL     1     -16.571  11.565  27.563  1.00  0.00    -0.350 N 
ATOM     21  H1  UNL     1     -15.734  11.679  26.991  1.00  0.00     0.163 HD
BRANCH  20  22
HETATM   22  C9  UNL     1     -17.369  10.375  27.469  1.00  0.00     0.032 C 
HETATM   23  C10 UNL     1     -17.051   9.493  28.646  1.00  0.00     0.039 C 
HETATM   24  C11 UNL     1     -18.838  10.799  27.479  1.00  0.00     0.039 C 
BRANCH  22  25
HETATM   25  C12 UNL     1     -17.131   9.628  26.205  1.00  0.00    -0.027 C 
HETATM   26  C13 UNL     1     -18.390   9.672  25.357  1.00  0.00     0.017 C 
HETATM   27  C14 UNL     1     -16.022  10.255  25.381  1.00  0.00     0.017 C 
HETATM   28  C15 UNL     1     -16.777   8.184  26.411  1.00  0.00     0.017 C 
ENDBRANCH  22  25
ENDBRANCH  20  22
ENDBRANCH  17  18
ENDBRANCH  16  17
ENDBRANCH   1  16
TORSDOF 9
ENDMDL
MODEL 4
REMARK VINA RESULT: -7.191350142      3.677      6.555
REMARK  9 active torsions:
REMARK  status: ('A' for Active; 'I' for Inactive)
REMARK    1  A    between atoms: O1_2  and  C2_3 
REMARK    2  A    between atoms: C2_3  and  C3_5 
REMARK    3  A    between atoms: C5_7  and  C6_8 
REMARK    4  A    between atoms: C6_8  and  O4_10 
REMARK    5  A    between atoms: O4_10  and  C7_11 
REMARK    6  A    between atoms: C7_11  and  C8_12 
REMARK       I    between atoms: C8_12  and  N1_14 
REMARK    7  A    between atoms: N1_14  and  C9_16 
REMARK    8  A    between atoms: C9_16  and  C12_19 
REMARK    9  A    between atoms: C17_24  and  N2_25 
ROOT
HETATM    1  C6  UNL     1     -16.148  15.071  30.256  1.00  0.00     0.293 C 
HETATM    2  O3  UNL     1     -15.023  15.570  30.478  1.00  0.00    -0.259 OA
ENDROOT
BRANCH   1   3
HETATM    3  C5  UNL     1     -17.340  15.583  30.959  1.00  0.00     0.043 A 
HETATM    4  C4  UNL     1     -17.179  16.520  31.955  1.00  0.00     0.035 A 
HETATM    5  C3  UNL     1     -18.256  17.030  32.642  1.00  0.00     0.042 A 
HETATM    6  C18 UNL     1     -19.539  16.611  32.347  1.00  0.00     0.053 A 
HETATM    7  C17 UNL     1     -19.714  15.673  31.351  1.00  0.00     0.104 A 
HETATM    8  C16 UNL     1     -18.604  15.173  30.670  1.00  0.00     0.053 A 
BRANCH   5   9
HETATM    9  C2  UNL     1     -18.025  18.014  33.679  1.00  0.00     0.293 C 
HETATM   10  O2  UNL     1     -17.592  19.143  33.368  1.00  0.00    -0.259 OA
BRANCH   9  11
HETATM   11  O1  UNL     1     -18.276  17.725  35.021  1.00  0.00    -0.323 OA
HETATM   12  C1  UNL     1     -17.326  18.025  36.029  1.00  0.00     0.213 C 
ENDBRANCH   9  11
ENDBRANCH   5   9
BRANCH   7  13
HETATM   13  N2  UNL     1     -21.018  15.224  31.026  1.00  0.00    -0.116 N 
HETATM   14  O6  UNL     1     -21.846  14.974  31.923  1.00  0.00    -0.532 OA
HETATM   15  O7  UNL     1     -21.386  15.059  29.718  1.00  0.00    -0.532 OA
ENDBRANCH   7  13
ENDBRANCH   1   3
BRANCH   1  16
HETATM   16  O4  UNL     1     -16.270  14.045  29.355  1.00  0.00    -0.308 OA
BRANCH  16  17
HETATM   17  C7  UNL     1     -15.617  13.963  28.121  1.00  0.00     0.281 C 
BRANCH  17  18
HETATM   18  C8  UNL     1     -15.634  12.586  27.581  1.00  0.00     0.242 C 
HETATM   19  O5  UNL     1     -14.621  12.167  26.974  1.00  0.00    -0.271 OA
HETATM   20  N1  UNL     1     -16.797  11.759  27.759  1.00  0.00    -0.350 N 
ATOM     21  H1  UNL     1     -17.616  12.109  28.255  1.00  0.00     0.163 HD
BRANCH  20  22
HETATM   22  C9  UNL     1     -16.775  10.427  27.222  1.00  0.00     0.032 C 
HETATM   23  C10 UNL     1     -16.292  10.495  25.798  1.00  0.00     0.039 C 
HETATM   24  C11 UNL     1     -15.831   9.592  28.086  1.00  0.00     0.039 C 
BRANCH  22  25
HETATM   25  C12 UNL     1     -18.112   9.774  27.265  1.00  0.00    -0.027 C 
HETATM   26  C13 UNL     1     -18.491   9.326  25.865  1.00  0.00     0.017 C 
HETATM   27  C14 UNL     1     -18.104   8.535  28.140  1.00  0.00     0.017 C 
HETATM   28  C15 UNL     1     -19.209  10.670  27.763  1.00  0.00     0.017 C 
ENDBRANCH  22  25
ENDBRANCH  20  22
ENDBRANCH  17  18
ENDBRANCH  16  17
ENDBRANCH   1  16
TORSDOF 9
ENDMDL
MODEL 5
REMARK VINA RESULT: -7.147846656      3.211      5.783
REMARK  9 active torsions:
REMARK  status: ('A' for Active; 'I' for Inactive)
REMARK    1  A    between atoms: O1_2  and  C2_3 
REMARK    2  A    between atoms: C2_3  and  C3_5 
REMARK    3  A    between atoms: C5_7  and  C6_8 
REMARK    4  A    between atoms: C6_8  and  O4_10 
REMARK    5  A    between atoms: O4_10  and  C7_11 
REMARK    6  A    between atoms: C7_11  and  C8_12 
REMARK       I    between atoms: C8_12  and  N1_14 
REMARK    7  A    between atoms: N1_14  and  C9_16 
REMARK    8  A    between atoms: C9_16  and  C12_19 
REMARK    9  A    between atoms: C17_24  and  N2_25 
ROOT
HETATM    1  C6  UNL     1     -16.121  15.420  30.230  1.00  0.00     0.293 C 
HETATM    2  O3  UNL     1     -15.089  16.122  30.306  1.00  0.00    -0.259 OA
ENDROOT
BRANCH   1   3
HETATM    3  C5  UNL     1     -17.293  15.728  31.073  1.00  0.00     0.043 A 
HETATM    4  C4  UNL     1     -18.429  14.961  30.944  1.00  0.00     0.035 A 
HETATM    5  C3  UNL     1     -19.549  15.205  31.704  1.00  0.00     0.042 A 
HETATM    6  C18 UNL     1     -19.564  16.236  32.623  1.00  0.00     0.053 A 
HETATM    7  C17 UNL     1     -18.431  17.011  32.762  1.00  0.00     0.104 A 
HETATM    8  C16 UNL     1     -17.309  16.742  31.979  1.00  0.00     0.053 A 
BRANCH   5   9
HETATM    9  C2  UNL     1     -20.716  14.365  31.526  1.00  0.00     0.293 C 
HETATM   10  O2  UNL     1     -20.944  13.451  32.346  1.00  0.00    -0.259 OA
BRANCH   9  11
HETATM   11  O1  UNL     1     -21.590  14.555  30.454  1.00  0.00    -0.323 OA
HETATM   12  C1  UNL     1     -21.518  13.745  29.294  1.00  0.00     0.213 C 
ENDBRANCH   9  11
ENDBRANCH   5   9
BRANCH   7  13
HETATM   13  N2  UNL     1     -18.416  18.076  33.697  1.00  0.00    -0.116 N 
HETATM   14  O6  UNL     1     -19.055  17.994  34.764  1.00  0.00    -0.532 OA
HETATM   15  O7  UNL     1     -17.696  19.211  33.439  1.00  0.00    -0.532 OA
ENDBRANCH   7  13
ENDBRANCH   1   3
BRANCH   1  16
HETATM   16  O4  UNL     1     -16.160  14.362  29.361  1.00  0.00    -0.308 OA
BRANCH  16  17
HETATM   17  C7  UNL     1     -15.322  14.185  28.254  1.00  0.00     0.281 C 
BRANCH  17  18
HETATM   18  C8  UNL     1     -15.425  12.818  27.700  1.00  0.00     0.242 C 
HETATM   19  O5  UNL     1     -14.444  12.348  27.078  1.00  0.00    -0.271 OA
HETATM   20  N1  UNL     1     -16.632  12.058  27.881  1.00  0.00    -0.350 N 
ATOM     21  H1  UNL     1     -17.425  12.450  28.389  1.00  0.00     0.163 HD
BRANCH  20  22
HETATM   22  C9  UNL     1     -16.693  10.734  27.329  1.00  0.00     0.032 C 
HETATM   23  C10 UNL     1     -16.196  10.784  25.910  1.00  0.00     0.039 C 
HETATM   24  C11 UNL     1     -15.811   9.830  28.191  1.00  0.00     0.039 C 
BRANCH  22  25
HETATM   25  C12 UNL     1     -18.070  10.169  27.357  1.00  0.00    -0.027 C 
HETATM   26  C13 UNL     1     -18.506   9.854  25.937  1.00  0.00     0.017 C 
HETATM   27  C14 UNL     1     -18.129   8.868  28.136  1.00  0.00     0.017 C 
HETATM   28  C15 UNL     1     -19.094  11.095  27.947  1.00  0.00     0.017 C 
ENDBRANCH  22  25
ENDBRANCH  20  22
ENDBRANCH  17  18
ENDBRANCH  16  17
ENDBRANCH   1  16
TORSDOF 9
ENDMDL
