MODEL 1
REMARK VINA RESULT: -7.803051063      0.000      0.000
REMARK  12 active torsions:
REMARK  status: ('A' for Active; 'I' for Inactive)
REMARK    1  A    between atoms: O1_2  and  C2_3 
REMARK    2  A    between atoms: C4_5  and  C5_6 
REMARK    3  A    between atoms: C8_10  and  O3_11 
REMARK    4  A    between atoms: C10_13  and  O4_14 
REMARK    5  A    between atoms: C12_16  and  O5_17 
REMARK    6  A    between atoms: C16_21  and  C17_22 
REMARK    7  A    between atoms: C17_22  and  C18_23 
REMARK    8  A    between atoms: C20_25  and  O6_26 
REMARK    9  A    between atoms: C22_28  and  O7_29 
REMARK   10  A    between atoms: C24_31  and  O8_32 
REMARK   11  A    between atoms: C28_36  and  O9_37 
REMARK   12  A    between atoms: C30_39  and  O10_40 
ROOT
HETATM    1  C5  UNL     1       6.062   4.787  11.964  1.00  0.00     0.166 C 
HETATM    2  O2  UNL     1       5.578   3.815  11.059  1.00  0.00    -0.340 OA
HETATM    3  C6  UNL     1       6.078   2.555  10.881  1.00  0.00     0.081 A 
HETATM    4  C7  UNL     1       5.643   1.704   9.844  1.00  0.00     0.077 A 
HETATM    5  C8  UNL     1       6.180   0.458   9.718  1.00  0.00     0.107 A 
HETATM    6  C10 UNL     1       7.145   0.029  10.598  1.00  0.00     0.135 A 
HETATM    7  C12 UNL     1       7.570   0.856  11.614  1.00  0.00     0.113 A 
HETATM    8  C14 UNL     1       7.043   2.110  11.759  1.00  0.00     0.012 A 
HETATM    9  C15 UNL     1       7.492   2.938  12.876  1.00  0.00     0.052 C 
HETATM   10  C16 UNL     1       7.242   4.385  12.738  1.00  0.00     0.028 C 
ENDROOT
BRANCH  10  11
HETATM   11  C17 UNL     1       7.272   5.076  14.083  1.00  0.00     0.046 C 
BRANCH  11  12
HETATM   12  C18 UNL     1       8.027   6.339  14.022  1.00  0.00    -0.052 A 
HETATM   13  C19 UNL     1       9.058   6.450  13.126  1.00  0.00     0.047 A 
HETATM   14  C20 UNL     1       9.762   7.657  12.947  1.00  0.00     0.104 A 
HETATM   15  C22 UNL     1       9.398   8.744  13.701  1.00  0.00     0.135 A 
HETATM   16  C24 UNL     1       8.357   8.680  14.632  1.00  0.00     0.104 A 
HETATM   17  C26 UNL     1       7.698   7.437  14.751  1.00  0.00     0.047 A 
BRANCH  14  18
HETATM   18  O6  UNL     1      10.784   7.760  12.049  1.00  0.00    -0.353 OA
HETATM   19  C21 UNL     1      11.597   6.797  11.519  1.00  0.00     0.210 C 
ENDBRANCH  14  18
BRANCH  15  20
HETATM   20  O7  UNL     1      10.063   9.972  13.571  1.00  0.00    -0.351 OA
HETATM   21  C23 UNL     1      11.235  10.081  14.386  1.00  0.00     0.210 C 
ENDBRANCH  15  20
BRANCH  16  22
HETATM   22  O8  UNL     1       8.045   9.732  15.330  1.00  0.00    -0.353 OA
HETATM   23  C25 UNL     1       7.967  10.681  16.209  1.00  0.00     0.210 C 
ENDBRANCH  16  22
ENDBRANCH  11  12
ENDBRANCH  10  11
BRANCH   1  24
HETATM   24  C4  UNL     1       6.187   6.063  11.224  1.00  0.00    -0.023 A 
HETATM   25  C3  UNL     1       6.816   6.098  10.005  1.00  0.00     0.049 A 
HETATM   26  C2  UNL     1       6.953   7.243   9.226  1.00  0.00     0.104 A 
HETATM   27  C30 UNL     1       6.423   8.433   9.715  1.00  0.00     0.133 A 
HETATM   28  C28 UNL     1       5.799   8.394  10.937  1.00  0.00     0.104 A 
HETATM   29  C27 UNL     1       5.668   7.250  11.693  1.00  0.00     0.049 A 
BRANCH  26  30
HETATM   30  O1  UNL     1       7.579   7.178   8.058  1.00  0.00    -0.353 OA
HETATM   31  C1  UNL     1       7.419   6.605   6.837  1.00  0.00     0.210 C 
ENDBRANCH  26  30
BRANCH  27  32
HETATM   32  O10 UNL     1       6.547   9.587   8.953  1.00  0.00    -0.356 OA
ATOM     33  H10 UNL     1       7.397  10.007   8.888  1.00  0.00     0.218 HD
ENDBRANCH  27  32
BRANCH  28  34
HETATM   34  O9  UNL     1       5.290   9.627  11.391  1.00  0.00    -0.353 OA
HETATM   35  C29 UNL     1       3.914   9.922  11.370  1.00  0.00     0.210 C 
ENDBRANCH  28  34
ENDBRANCH   1  24
BRANCH   7  36
HETATM   36  O5  UNL     1       8.535   0.427  12.493  1.00  0.00    -0.352 OA
HETATM   37  C13 UNL     1       8.149   0.287  13.845  1.00  0.00     0.210 C 
ENDBRANCH   7  36
BRANCH   6  38
HETATM   38  O4  UNL     1       7.681  -1.236  10.459  1.00  0.00    -0.351 OA
HETATM   39  C11 UNL     1       8.198  -1.667   9.236  1.00  0.00     0.210 C 
ENDBRANCH   6  38
BRANCH   5  40
HETATM   40  O3  UNL     1       5.767  -0.389   8.717  1.00  0.00    -0.353 OA
HETATM   41  C9  UNL     1       5.633   0.101   7.397  1.00  0.00     0.210 C 
ENDBRANCH   5  40
TORSDOF 12
ENDMDL
MODEL 2
REMARK VINA RESULT: -7.800118278      0.494      2.039
REMARK  12 active torsions:
REMARK  status: ('A' for Active; 'I' for Inactive)
REMARK    1  A    between atoms: O1_2  and  C2_3 
REMARK    2  A    between atoms: C4_5  and  C5_6 
REMARK    3  A    between atoms: C8_10  and  O3_11 
REMARK    4  A    between atoms: C10_13  and  O4_14 
REMARK    5  A    between atoms: C12_16  and  O5_17 
REMARK    6  A    between atoms: C16_21  and  C17_22 
REMARK    7  A    between atoms: C17_22  and  C18_23 
REMARK    8  A    between atoms: C20_25  and  O6_26 
REMARK    9  A    between atoms: C22_28  and  O7_29 
REMARK   10  A    between atoms: C24_31  and  O8_32 
REMARK   11  A    between atoms: C28_36  and  O9_37 
REMARK   12  A    between atoms: C30_39  and  O10_40 
ROOT
HETATM    1  C5  UNL     1       6.070   4.687  11.804  1.00  0.00     0.166 C 
HETATM    2  O2  UNL     1       5.610   3.743  10.858  1.00  0.00    -0.340 OA
HETATM    3  C6  UNL     1       6.089   2.474  10.682  1.00  0.00     0.081 A 
HETATM    4  C7  UNL     1       5.687   1.653   9.608  1.00  0.00     0.077 A 
HETATM    5  C8  UNL     1       6.201   0.397   9.486  1.00  0.00     0.107 A 
HETATM    6  C10 UNL     1       7.110  -0.071  10.405  1.00  0.00     0.135 A 
HETATM    7  C12 UNL     1       7.503   0.727  11.456  1.00  0.00     0.113 A 
HETATM    8  C14 UNL     1       6.998   1.991  11.598  1.00  0.00     0.012 A 
HETATM    9  C15 UNL     1       7.409   2.789  12.751  1.00  0.00     0.052 C 
HETATM   10  C16 UNL     1       7.200   4.243  12.628  1.00  0.00     0.028 C 
ENDROOT
BRANCH  10  11
HETATM   11  C17 UNL     1       7.178   4.909  13.986  1.00  0.00     0.046 C 
BRANCH  11  12
HETATM   12  C18 UNL     1       7.970   6.151  13.989  1.00  0.00    -0.052 A 
HETATM   13  C19 UNL     1       9.051   6.247  13.153  1.00  0.00     0.047 A 
HETATM   14  C20 UNL     1       9.797   7.436  13.033  1.00  0.00     0.104 A 
HETATM   15  C22 UNL     1       9.422   8.521  13.784  1.00  0.00     0.135 A 
HETATM   16  C24 UNL     1       8.330   8.472  14.656  1.00  0.00     0.104 A 
HETATM   17  C26 UNL     1       7.632   7.247  14.717  1.00  0.00     0.047 A 
BRANCH  14  18
HETATM   18  O6  UNL     1      10.870   7.525  12.194  1.00  0.00    -0.353 OA
HETATM   19  C21 UNL     1      11.036   7.063  10.918  1.00  0.00     0.210 C 
ENDBRANCH  14  18
BRANCH  15  20
HETATM   20  O7  UNL     1      10.127   9.731  13.713  1.00  0.00    -0.351 OA
HETATM   21  C23 UNL     1      11.271   9.784  14.573  1.00  0.00     0.210 C 
ENDBRANCH  15  20
BRANCH  16  22
HETATM   22  O8  UNL     1       8.009   9.521  15.354  1.00  0.00    -0.353 OA
HETATM   23  C25 UNL     1       7.971  10.521  16.178  1.00  0.00     0.210 C 
ENDBRANCH  16  22
ENDBRANCH  11  12
ENDBRANCH  10  11
BRANCH   1  24
HETATM   24  C4  UNL     1       6.262   5.973  11.095  1.00  0.00    -0.023 A 
HETATM   25  C3  UNL     1       5.634   7.109  11.539  1.00  0.00     0.049 A 
HETATM   26  C2  UNL     1       5.779   8.364  10.955  1.00  0.00     0.104 A 
HETATM   27  C30 UNL     1       6.613   8.476   9.846  1.00  0.00     0.133 A 
HETATM   28  C28 UNL     1       7.235   7.335   9.404  1.00  0.00     0.104 A 
HETATM   29  C27 UNL     1       7.083   6.101   9.996  1.00  0.00     0.049 A 
BRANCH  26  30
HETATM   30  O1  UNL     1       5.130   9.406  11.457  1.00  0.00    -0.353 OA
HETATM   31  C1  UNL     1       3.915  10.005  11.357  1.00  0.00     0.210 C 
ENDBRANCH  26  30
BRANCH  27  32
HETATM   32  O10 UNL     1       6.774   9.719   9.249  1.00  0.00    -0.356 OA
ATOM     33  H10 UNL     1       7.626   9.956   8.903  1.00  0.00     0.218 HD
ENDBRANCH  27  32
BRANCH  28  34
HETATM   34  O9  UNL     1       8.058   7.500   8.271  1.00  0.00    -0.353 OA
HETATM   35  C29 UNL     1       8.878   6.465   7.785  1.00  0.00     0.210 C 
ENDBRANCH  28  34
ENDBRANCH   1  24
BRANCH   7  36
HETATM   36  O5  UNL     1       8.412   0.260  12.374  1.00  0.00    -0.352 OA
HETATM   37  C13 UNL     1       8.007   0.257  13.728  1.00  0.00     0.210 C 
ENDBRANCH   7  36
BRANCH   6  38
HETATM   38  O4  UNL     1       7.623  -1.345  10.269  1.00  0.00    -0.351 OA
HETATM   39  C11 UNL     1       8.210  -1.761   9.072  1.00  0.00     0.210 C 
ENDBRANCH   6  38
BRANCH   5  40
HETATM   40  O3  UNL     1       5.819  -0.423   8.450  1.00  0.00    -0.353 OA
HETATM   41  C9  UNL     1       4.541  -1.027   8.472  1.00  0.00     0.210 C 
ENDBRANCH   5  40
TORSDOF 12
ENDMDL
MODEL 3
REMARK VINA RESULT: -7.663203441      0.848      2.906
REMARK  12 active torsions:
REMARK  status: ('A' for Active; 'I' for Inactive)
REMARK    1  A    between atoms: O1_2  and  C2_3 
REMARK    2  A    between atoms: C4_5  and  C5_6 
REMARK    3  A    between atoms: C8_10  and  O3_11 
REMARK    4  A    between atoms: C10_13  and  O4_14 
REMARK    5  A    between atoms: C12_16  and  O5_17 
REMARK    6  A    between atoms: C16_21  and  C17_22 
REMARK    7  A    between atoms: C17_22  and  C18_23 
REMARK    8  A    between atoms: C20_25  and  O6_26 
REMARK    9  A    between atoms: C22_28  and  O7_29 
REMARK   10  A    between atoms: C24_31  and  O8_32 
REMARK   11  A    between atoms: C28_36  and  O9_37 
REMARK   12  A    between atoms: C30_39  and  O10_40 
ROOT
HETATM    1  C5  UNL     1       6.063   5.333  12.164  1.00  0.00     0.166 C 
HETATM    2  O2  UNL     1       5.620   4.304  11.302  1.00  0.00    -0.340 OA
HETATM    3  C6  UNL     1       6.139   3.042  11.212  1.00  0.00     0.081 A 
HETATM    4  C7  UNL     1       5.746   2.128  10.213  1.00  0.00     0.077 A 
HETATM    5  C8  UNL     1       6.302   0.885  10.175  1.00  0.00     0.107 A 
HETATM    6  C10 UNL     1       7.243   0.519  11.108  1.00  0.00     0.135 A 
HETATM    7  C12 UNL     1       7.628   1.408  12.087  1.00  0.00     0.113 A 
HETATM    8  C14 UNL     1       7.082   2.661  12.143  1.00  0.00     0.012 A 
HETATM    9  C15 UNL     1       7.486   3.558  13.223  1.00  0.00     0.052 C 
HETATM   10  C16 UNL     1       7.224   4.991  12.995  1.00  0.00     0.028 C 
ENDROOT
BRANCH  10  11
HETATM   11  C17 UNL     1       7.203   5.758  14.299  1.00  0.00     0.046 C 
BRANCH  11  12
HETATM   12  C18 UNL     1       8.073   6.945  14.237  1.00  0.00    -0.052 A 
HETATM   13  C19 UNL     1       7.919   7.927  15.181  1.00  0.00     0.047 A 
HETATM   14  C20 UNL     1       8.775   9.043  15.242  1.00  0.00     0.104 A 
HETATM   15  C22 UNL     1       9.787   9.142  14.320  1.00  0.00     0.135 A 
HETATM   16  C24 UNL     1       9.983   8.169  13.334  1.00  0.00     0.104 A 
HETATM   17  C26 UNL     1       9.085   7.080  13.341  1.00  0.00     0.047 A 
BRANCH  14  18
HETATM   18  O6  UNL     1       8.618  10.014  16.188  1.00  0.00    -0.353 OA
HETATM   19  C21 UNL     1       7.915  11.186  16.144  1.00  0.00     0.210 C 
ENDBRANCH  14  18
BRANCH  15  20
HETATM   20  O7  UNL     1      10.670  10.231  14.325  1.00  0.00    -0.351 OA
HETATM   21  C23 UNL     1      11.794  10.057  15.194  1.00  0.00     0.210 C 
ENDBRANCH  15  20
BRANCH  16  22
HETATM   22  O8  UNL     1      10.951   8.301  12.476  1.00  0.00    -0.353 OA
HETATM   23  C25 UNL     1      11.681   8.447  11.414  1.00  0.00     0.210 C 
ENDBRANCH  16  22
ENDBRANCH  11  12
ENDBRANCH  10  11
BRANCH   1  24
HETATM   24  C4  UNL     1       6.197   6.566  11.356  1.00  0.00    -0.023 A 
HETATM   25  C3  UNL     1       5.500   7.697  11.698  1.00  0.00     0.049 A 
HETATM   26  C2  UNL     1       5.587   8.908  11.016  1.00  0.00     0.104 A 
HETATM   27  C30 UNL     1       6.432   8.977   9.913  1.00  0.00     0.133 A 
HETATM   28  C28 UNL     1       7.124   7.841   9.572  1.00  0.00     0.104 A 
HETATM   29  C27 UNL     1       7.029   6.652  10.260  1.00  0.00     0.049 A 
BRANCH  26  30
HETATM   30  O1  UNL     1       4.872   9.949  11.423  1.00  0.00    -0.353 OA
HETATM   31  C1  UNL     1       3.597  10.410  11.354  1.00  0.00     0.210 C 
ENDBRANCH  26  30
BRANCH  27  32
HETATM   32  O10 UNL     1       6.535  10.175   9.219  1.00  0.00    -0.356 OA
ATOM     33  H10 UNL     1       6.712  10.973   9.703  1.00  0.00     0.218 HD
ENDBRANCH  27  32
BRANCH  28  34
HETATM   34  O9  UNL     1       7.956   7.961   8.441  1.00  0.00    -0.353 OA
HETATM   35  C29 UNL     1       9.334   7.680   8.493  1.00  0.00     0.210 C 
ENDBRANCH  28  34
ENDBRANCH   1  24
BRANCH   7  36
HETATM   36  O5  UNL     1       8.570   1.044  13.017  1.00  0.00    -0.352 OA
HETATM   37  C13 UNL     1       8.090   0.492  14.228  1.00  0.00     0.210 C 
ENDBRANCH   7  36
BRANCH   6  38
HETATM   38  O4  UNL     1       7.798  -0.744  11.057  1.00  0.00    -0.351 OA
HETATM   39  C11 UNL     1       7.823  -1.472   9.867  1.00  0.00     0.210 C 
ENDBRANCH   6  38
BRANCH   5  40
HETATM   40  O3  UNL     1       5.930  -0.024   9.212  1.00  0.00    -0.353 OA
HETATM   41  C9  UNL     1       5.642   0.424   7.903  1.00  0.00     0.210 C 
ENDBRANCH   5  40
TORSDOF 12
ENDMDL
MODEL 4
REMARK VINA RESULT: -7.658547858      0.698      2.113
REMARK  12 active torsions:
REMARK  status: ('A' for Active; 'I' for Inactive)
REMARK    1  A    between atoms: O1_2  and  C2_3 
REMARK    2  A    between atoms: C4_5  and  C5_6 
REMARK    3  A    between atoms: C8_10  and  O3_11 
REMARK    4  A    between atoms: C10_13  and  O4_14 
REMARK    5  A    between atoms: C12_16  and  O5_17 
REMARK    6  A    between atoms: C16_21  and  C17_22 
REMARK    7  A    between atoms: C17_22  and  C18_23 
REMARK    8  A    between atoms: C20_25  and  O6_26 
REMARK    9  A    between atoms: C22_28  and  O7_29 
REMARK   10  A    between atoms: C24_31  and  O8_32 
REMARK   11  A    between atoms: C28_36  and  O9_37 
REMARK   12  A    between atoms: C30_39  and  O10_40 
ROOT
HETATM    1  C5  UNL     1       6.033   5.305  12.198  1.00  0.00     0.166 C 
HETATM    2  O2  UNL     1       5.593   4.274  11.337  1.00  0.00    -0.340 OA
HETATM    3  C6  UNL     1       6.127   3.019  11.238  1.00  0.00     0.081 A 
HETATM    4  C7  UNL     1       5.737   2.104  10.239  1.00  0.00     0.077 A 
HETATM    5  C8  UNL     1       6.307   0.867  10.192  1.00  0.00     0.107 A 
HETATM    6  C10 UNL     1       7.262   0.510  11.115  1.00  0.00     0.135 A 
HETATM    7  C12 UNL     1       7.645   1.401  12.093  1.00  0.00     0.113 A 
HETATM    8  C14 UNL     1       7.084   2.647  12.159  1.00  0.00     0.012 A 
HETATM    9  C15 UNL     1       7.487   3.545  13.238  1.00  0.00     0.052 C 
HETATM   10  C16 UNL     1       7.205   4.975  13.017  1.00  0.00     0.028 C 
ENDROOT
BRANCH  10  11
HETATM   11  C17 UNL     1       7.187   5.738  14.323  1.00  0.00     0.046 C 
BRANCH  11  12
HETATM   12  C18 UNL     1       8.059   6.924  14.265  1.00  0.00    -0.052 A 
HETATM   13  C19 UNL     1       7.916   7.897  15.220  1.00  0.00     0.047 A 
HETATM   14  C20 UNL     1       8.775   9.011  15.283  1.00  0.00     0.104 A 
HETATM   15  C22 UNL     1       9.777   9.117  14.352  1.00  0.00     0.135 A 
HETATM   16  C24 UNL     1       9.961   8.154  13.354  1.00  0.00     0.104 A 
HETATM   17  C26 UNL     1       9.062   7.066  13.360  1.00  0.00     0.047 A 
BRANCH  14  18
HETATM   18  O6  UNL     1       8.628   9.973  16.240  1.00  0.00    -0.353 OA
HETATM   19  C21 UNL     1       7.935  11.151  16.211  1.00  0.00     0.210 C 
ENDBRANCH  14  18
BRANCH  15  20
HETATM   20  O7  UNL     1      10.661  10.205  14.359  1.00  0.00    -0.351 OA
HETATM   21  C23 UNL     1      11.788  10.026  15.223  1.00  0.00     0.210 C 
ENDBRANCH  15  20
BRANCH  16  22
HETATM   22  O8  UNL     1      10.920   8.292  12.488  1.00  0.00    -0.353 OA
HETATM   23  C25 UNL     1      11.640   8.442  11.420  1.00  0.00     0.210 C 
ENDBRANCH  16  22
ENDBRANCH  11  12
ENDBRANCH  10  11
BRANCH   1  24
HETATM   24  C4  UNL     1       6.143   6.543  11.393  1.00  0.00    -0.023 A 
HETATM   25  C3  UNL     1       6.811   6.531  10.194  1.00  0.00     0.049 A 
HETATM   26  C2  UNL     1       6.939   7.637   9.358  1.00  0.00     0.104 A 
HETATM   27  C30 UNL     1       6.357   8.833   9.763  1.00  0.00     0.133 A 
HETATM   28  C28 UNL     1       5.694   8.840  10.965  1.00  0.00     0.104 A 
HETATM   29  C27 UNL     1       5.572   7.736  11.779  1.00  0.00     0.049 A 
BRANCH  26  30
HETATM   30  O1  UNL     1       7.605   7.528   8.215  1.00  0.00    -0.353 OA
HETATM   31  C1  UNL     1       7.453   6.973   6.986  1.00  0.00     0.210 C 
ENDBRANCH  26  30
BRANCH  27  32
HETATM   32  O10 UNL     1       6.470   9.948   8.943  1.00  0.00    -0.356 OA
ATOM     33  H10 UNL     1       5.680  10.374   8.632  1.00  0.00     0.218 HD
ENDBRANCH  27  32
BRANCH  28  34
HETATM   34  O9  UNL     1       5.132  10.080  11.335  1.00  0.00    -0.353 OA
HETATM   35  C29 UNL     1       3.749  10.325  11.262  1.00  0.00     0.210 C 
ENDBRANCH  28  34
ENDBRANCH   1  24
BRANCH   7  36
HETATM   36  O5  UNL     1       8.600   1.045  13.014  1.00  0.00    -0.352 OA
HETATM   37  C13 UNL     1       8.138   0.479  14.224  1.00  0.00     0.210 C 
ENDBRANCH   7  36
BRANCH   6  38
HETATM   38  O4  UNL     1       7.832  -0.746  11.055  1.00  0.00    -0.351 OA
HETATM   39  C11 UNL     1       7.807  -1.492   9.876  1.00  0.00     0.210 C 
ENDBRANCH   6  38
BRANCH   5  40
HETATM   40  O3  UNL     1       5.937  -0.043   9.230  1.00  0.00    -0.353 OA
HETATM   41  C9  UNL     1       5.533   0.414   7.955  1.00  0.00     0.210 C 
ENDBRANCH   5  40
TORSDOF 12
ENDMDL
MODEL 5
REMARK VINA RESULT: -7.440438730      1.688      6.622
REMARK  12 active torsions:
REMARK  status: ('A' for Active; 'I' for Inactive)
REMARK    1  A    between atoms: O1_2  and  C2_3 
REMARK    2  A    between atoms: C4_5  and  C5_6 
REMARK    3  A    between atoms: C8_10  and  O3_11 
REMARK    4  A    between atoms: C10_13  and  O4_14 
REMARK    5  A    between atoms: C12_16  and  O5_17 
REMARK    6  A    between atoms: C16_21  and  C17_22 
REMARK    7  A    between atoms: C17_22  and  C18_23 
REMARK    8  A    between atoms: C20_25  and  O6_26 
REMARK    9  A    between atoms: C22_28  and  O7_29 
REMARK   10  A    between atoms: C24_31  and  O8_32 
REMARK   11  A    between atoms: C28_36  and  O9_37 
REMARK   12  A    between atoms: C30_39  and  O10_40 
ROOT
HETATM    1  C5  UNL     1       7.311   5.360  12.181  1.00  0.00     0.166 C 
HETATM    2  O2  UNL     1       7.224   5.630  10.796  1.00  0.00    -0.340 OA
HETATM    3  C6  UNL     1       6.659   6.734  10.221  1.00  0.00     0.081 A 
HETATM    4  C7  UNL     1       6.466   6.852   8.829  1.00  0.00     0.077 A 
HETATM    5  C8  UNL     1       5.895   7.977   8.316  1.00  0.00     0.107 A 
HETATM    6  C10 UNL     1       5.506   8.998   9.151  1.00  0.00     0.135 A 
HETATM    7  C12 UNL     1       5.694   8.888  10.511  1.00  0.00     0.113 A 
HETATM    8  C14 UNL     1       6.266   7.766  11.047  1.00  0.00     0.012 A 
HETATM    9  C15 UNL     1       6.487   7.709  12.490  1.00  0.00     0.052 C 
HETATM   10  C16 UNL     1       6.683   6.360  13.052  1.00  0.00     0.028 C 
ENDROOT
BRANCH  10  11
HETATM   11  C17 UNL     1       7.375   6.423  14.395  1.00  0.00     0.046 C 
BRANCH  11  12
HETATM   12  C18 UNL     1       8.298   7.568  14.472  1.00  0.00    -0.052 A 
HETATM   13  C19 UNL     1       8.207   8.420  15.542  1.00  0.00     0.047 A 
HETATM   14  C20 UNL     1       9.116   9.479  15.730  1.00  0.00     0.104 A 
HETATM   15  C22 UNL     1      10.113   9.657  14.805  1.00  0.00     0.135 A 
HETATM   16  C24 UNL     1      10.246   8.818  13.693  1.00  0.00     0.104 A 
HETATM   17  C26 UNL     1       9.299   7.778  13.577  1.00  0.00     0.047 A 
BRANCH  14  18
HETATM   18  O6  UNL     1       9.021  10.320  16.801  1.00  0.00    -0.353 OA
HETATM   19  C21 UNL     1       8.390  11.526  16.925  1.00  0.00     0.210 C 
ENDBRANCH  14  18
BRANCH  15  20
HETATM   20  O7  UNL     1      11.046  10.696  14.934  1.00  0.00    -0.351 OA
HETATM   21  C23 UNL     1      12.176  10.358  15.745  1.00  0.00     0.210 C 
ENDBRANCH  15  20
BRANCH  16  22
HETATM   22  O8  UNL     1      11.202   9.022  12.837  1.00  0.00    -0.353 OA
HETATM   23  C25 UNL     1      11.923   9.213  11.776  1.00  0.00     0.210 C 
ENDBRANCH  16  22
ENDBRANCH  11  12
ENDBRANCH  10  11
BRANCH   1  24
HETATM   24  C4  UNL     1       6.870   3.962  12.391  1.00  0.00    -0.023 A 
HETATM   25  C3  UNL     1       6.550   3.168  11.319  1.00  0.00     0.049 A 
HETATM   26  C2  UNL     1       6.156   1.837  11.419  1.00  0.00     0.104 A 
HETATM   27  C30 UNL     1       6.077   1.273  12.688  1.00  0.00     0.133 A 
HETATM   28  C28 UNL     1       6.395   2.072  13.758  1.00  0.00     0.104 A 
HETATM   29  C27 UNL     1       6.787   3.388  13.641  1.00  0.00     0.049 A 
BRANCH  26  30
HETATM   30  O1  UNL     1       5.865   1.149  10.323  1.00  0.00    -0.353 OA
HETATM   31  C1  UNL     1       6.497   0.405   9.379  1.00  0.00     0.210 C 
ENDBRANCH  26  30
BRANCH  27  32
HETATM   32  O10 UNL     1       5.688  -0.055  12.811  1.00  0.00    -0.356 OA
ATOM     33  H10 UNL     1       5.109  -0.301  13.523  1.00  0.00     0.218 HD
ENDBRANCH  27  32
BRANCH  28  34
HETATM   34  O9  UNL     1       6.287   1.457  15.022  1.00  0.00    -0.353 OA
HETATM   35  C29 UNL     1       7.329   0.686  15.569  1.00  0.00     0.210 C 
ENDBRANCH  28  34
ENDBRANCH   1  24
BRANCH   7  36
HETATM   36  O5  UNL     1       5.303   9.906  11.345  1.00  0.00    -0.352 OA
HETATM   37  C13 UNL     1       6.260  10.912  11.615  1.00  0.00     0.210 C 
ENDBRANCH   7  36
BRANCH   6  38
HETATM   38  O4  UNL     1       4.928  10.132   8.617  1.00  0.00    -0.351 OA
HETATM   39  C11 UNL     1       5.712  11.162   8.095  1.00  0.00     0.210 C 
ENDBRANCH   6  38
BRANCH   5  40
HETATM   40  O3  UNL     1       5.703   8.115   6.961  1.00  0.00    -0.353 OA
HETATM   41  C9  UNL     1       5.242   7.012   6.206  1.00  0.00     0.210 C 
ENDBRANCH   5  40
TORSDOF 12
ENDMDL
