MODEL 1
REMARK VINA RESULT: -6.079851346      0.000      0.000
REMARK  8 active torsions:
REMARK  status: ('A' for Active; 'I' for Inactive)
REMARK    1  A    between atoms: C2_2  and  S1_3 
REMARK    2  A    between atoms: S1_3  and  C3_4 
REMARK    3  A    between atoms: C3_4  and  N1_5 
REMARK    4  A    between atoms: C3_4  and  S2_19 
REMARK    5  A    between atoms: N1_5  and  C4_7 
REMARK    6  A    between atoms: C7_10  and  C8_11 
REMARK    7  A    between atoms: C8_11  and  O1_14 
REMARK    8  A    between atoms: S2_19  and  C13_20 
ROOT
HETATM    1  C4  UNL     1      25.037  27.623  28.676  1.00  0.00     0.111 C 
HETATM    2  C5  UNL     1      24.761  27.559  30.138  1.00  0.00     0.030 C 
HETATM    3  C6  UNL     1      23.851  26.373  30.487  1.00  0.00     0.037 C 
HETATM    4  C7  UNL     1      22.915  26.241  29.321  1.00  0.00     0.155 C 
HETATM    5  O2  UNL     1      23.619  25.701  28.265  1.00  0.00    -0.376 OA
HETATM    6  C11 UNL     1      24.756  26.368  27.917  1.00  0.00     0.140 C 
HETATM    7  C12 UNL     1      25.951  25.440  27.969  1.00  0.00     0.041 C 
ENDROOT
BRANCH   1   8
HETATM    8  N1  UNL     1      24.430  28.767  28.010  1.00  0.00    -0.372 N 
ATOM      9  H1  UNL     1      23.414  28.858  28.023  1.00  0.00     0.161 HD
BRANCH   8  10
HETATM   10  C3  UNL     1      25.190  29.760  27.345  1.00  0.00     0.104 C 
BRANCH  10  11
HETATM   11  S1  UNL     1      25.702  31.056  28.189  1.00  0.00    -0.106 SA
BRANCH  11  12
HETATM   12  C2  UNL     1      26.107  30.952  29.969  1.00  0.00     0.077 C 
HETATM   13  C1  UNL     1      26.169  32.367  30.525  1.00  0.00     0.016 C 
ENDBRANCH  11  12
ENDBRANCH  10  11
BRANCH  10  14
HETATM   14  S2  UNL     1      25.610  29.645  25.644  1.00  0.00    -0.097 SA
BRANCH  14  15
HETATM   15  C13 UNL     1      25.472  31.206  24.740  1.00  0.00     0.004 C 
HETATM   16  C14 UNL     1      26.742  31.994  24.759  1.00  0.00     0.026 C 
HETATM   17  C15 UNL     1      25.168  30.857  23.277  1.00  0.00     0.026 C 
HETATM   18  C16 UNL     1      24.345  32.057  25.238  1.00  0.00     0.026 C 
ENDBRANCH  14  15
ENDBRANCH  10  14
ENDBRANCH   8  10
ENDBRANCH   1   8
BRANCH   4  19
HETATM   19  C8  UNL     1      21.716  25.391  29.601  1.00  0.00     0.076 C 
HETATM   20  C9  UNL     1      21.215  25.479  31.009  1.00  0.00     0.048 C 
HETATM   21  C10 UNL     1      21.961  23.955  29.181  1.00  0.00     0.048 C 
BRANCH  19  22
HETATM   22  O1  UNL     1      20.680  25.865  28.766  1.00  0.00    -0.388 OA
ATOM     23  H1  UNL     1      19.887  25.866  29.290  1.00  0.00     0.210 HD
ENDBRANCH  19  22
ENDBRANCH   4  19
TORSDOF 8
ENDMDL
MODEL 2
REMARK VINA RESULT: -6.039580033      6.115      8.249
REMARK  8 active torsions:
REMARK  status: ('A' for Active; 'I' for Inactive)
REMARK    1  A    between atoms: C2_2  and  S1_3 
REMARK    2  A    between atoms: S1_3  and  C3_4 
REMARK    3  A    between atoms: C3_4  and  N1_5 
REMARK    4  A    between atoms: C3_4  and  S2_19 
REMARK    5  A    between atoms: N1_5  and  C4_7 
REMARK    6  A    between atoms: C7_10  and  C8_11 
REMARK    7  A    between atoms: C8_11  and  O1_14 
REMARK    8  A    between atoms: S2_19  and  C13_20 
ROOT
HETATM    1  C4  UNL     1      26.861  34.622  28.445  1.00  0.00     0.111 C 
HETATM    2  C5  UNL     1      26.016  35.093  27.313  1.00  0.00     0.030 C 
HETATM    3  C6  UNL     1      25.560  33.924  26.428  1.00  0.00     0.037 C 
HETATM    4  C7  UNL     1      26.706  32.954  26.439  1.00  0.00     0.155 C 
HETATM    5  O2  UNL     1      26.727  32.330  27.668  1.00  0.00    -0.376 OA
HETATM    6  C11 UNL     1      26.769  33.162  28.748  1.00  0.00     0.140 C 
HETATM    7  C12 UNL     1      25.605  32.888  29.675  1.00  0.00     0.041 C 
ENDROOT
BRANCH   1   8
HETATM    8  N1  UNL     1      28.255  35.036  28.353  1.00  0.00    -0.372 N 
ATOM      9  H1  UNL     1      28.775  34.815  27.503  1.00  0.00     0.161 HD
BRANCH   8  10
HETATM   10  C3  UNL     1      28.919  35.732  29.392  1.00  0.00     0.104 C 
BRANCH  10  11
HETATM   11  S1  UNL     1      28.050  36.710  30.364  1.00  0.00    -0.106 SA
BRANCH  11  12
HETATM   12  C2  UNL     1      27.857  36.374  32.150  1.00  0.00     0.077 C 
HETATM   13  C1  UNL     1      26.852  35.243  32.314  1.00  0.00     0.016 C 
ENDBRANCH  11  12
ENDBRANCH  10  11
BRANCH  10  14
HETATM   14  S2  UNL     1      30.644  35.578  29.680  1.00  0.00    -0.097 SA
BRANCH  14  15
HETATM   15  C13 UNL     1      31.081  34.315  30.899  1.00  0.00     0.004 C 
HETATM   16  C14 UNL     1      32.216  33.452  30.451  1.00  0.00     0.026 C 
HETATM   17  C15 UNL     1      31.535  35.050  32.168  1.00  0.00     0.026 C 
HETATM   18  C16 UNL     1      29.913  33.456  31.275  1.00  0.00     0.026 C 
ENDBRANCH  14  15
ENDBRANCH  10  14
ENDBRANCH   8  10
ENDBRANCH   1   8
BRANCH   4  19
HETATM   19  C8  UNL     1      26.632  31.920  25.361  1.00  0.00     0.076 C 
HETATM   20  C9  UNL     1      27.517  32.192  24.185  1.00  0.00     0.048 C 
HETATM   21  C10 UNL     1      25.195  31.682  24.938  1.00  0.00     0.048 C 
BRANCH  19  22
HETATM   22  O1  UNL     1      27.071  30.706  25.934  1.00  0.00    -0.388 OA
ATOM     23  H1  UNL     1      26.290  30.221  26.176  1.00  0.00     0.210 HD
ENDBRANCH  19  22
ENDBRANCH   4  19
TORSDOF 8
ENDMDL
MODEL 3
REMARK VINA RESULT: -6.027094277      5.989      8.592
REMARK  8 active torsions:
REMARK  status: ('A' for Active; 'I' for Inactive)
REMARK    1  A    between atoms: C2_2  and  S1_3 
REMARK    2  A    between atoms: S1_3  and  C3_4 
REMARK    3  A    between atoms: C3_4  and  N1_5 
REMARK    4  A    between atoms: C3_4  and  S2_19 
REMARK    5  A    between atoms: N1_5  and  C4_7 
REMARK    6  A    between atoms: C7_10  and  C8_11 
REMARK    7  A    between atoms: C8_11  and  O1_14 
REMARK    8  A    between atoms: S2_19  and  C13_20 
ROOT
HETATM    1  C4  UNL     1      27.141  34.822  28.603  1.00  0.00     0.111 C 
HETATM    2  C5  UNL     1      26.276  35.385  27.529  1.00  0.00     0.030 C 
HETATM    3  C6  UNL     1      25.652  34.275  26.671  1.00  0.00     0.037 C 
HETATM    4  C7  UNL     1      26.694  33.197  26.606  1.00  0.00     0.155 C 
HETATM    5  O2  UNL     1      26.732  32.562  27.829  1.00  0.00    -0.376 OA
HETATM    6  C11 UNL     1      26.925  33.376  28.906  1.00  0.00     0.140 C 
HETATM    7  C12 UNL     1      25.801  33.209  29.905  1.00  0.00     0.041 C 
ENDROOT
BRANCH   1   8
HETATM    8  N1  UNL     1      28.560  35.098  28.422  1.00  0.00    -0.372 N 
ATOM      9  H1  UNL     1      29.003  34.826  27.544  1.00  0.00     0.161 HD
BRANCH   8  10
HETATM   10  C3  UNL     1      29.352  35.728  29.414  1.00  0.00     0.104 C 
BRANCH  10  11
HETATM   11  S1  UNL     1      28.745  37.018  30.203  1.00  0.00    -0.106 SA
BRANCH  11  12
HETATM   12  C2  UNL     1      29.543  38.661  30.126  1.00  0.00     0.077 C 
HETATM   13  C1  UNL     1      29.991  38.904  28.692  1.00  0.00     0.016 C 
ENDBRANCH  11  12
ENDBRANCH  10  11
BRANCH  10  14
HETATM   14  S2  UNL     1      30.962  35.167  29.833  1.00  0.00    -0.097 SA
BRANCH  14  15
HETATM   15  C13 UNL     1      31.012  34.062  31.264  1.00  0.00     0.004 C 
HETATM   16  C14 UNL     1      29.703  33.383  31.511  1.00  0.00     0.026 C 
HETATM   17  C15 UNL     1      32.046  32.970  30.958  1.00  0.00     0.026 C 
HETATM   18  C16 UNL     1      31.458  34.762  32.511  1.00  0.00     0.026 C 
ENDBRANCH  14  15
ENDBRANCH  10  14
ENDBRANCH   8  10
ENDBRANCH   1   8
BRANCH   4  19
HETATM   19  C8  UNL     1      26.451  32.185  25.531  1.00  0.00     0.076 C 
HETATM   20  C9  UNL     1      26.171  30.805  26.038  1.00  0.00     0.048 C 
HETATM   21  C10 UNL     1      27.577  32.192  24.516  1.00  0.00     0.048 C 
BRANCH  19  22
HETATM   22  O1  UNL     1      25.299  32.608  24.831  1.00  0.00    -0.388 OA
ATOM     23  H1  UNL     1      24.611  31.986  25.038  1.00  0.00     0.210 HD
ENDBRANCH  19  22
ENDBRANCH   4  19
TORSDOF 8
ENDMDL
MODEL 4
REMARK VINA RESULT: -5.972968102      1.150      2.907
REMARK  8 active torsions:
REMARK  status: ('A' for Active; 'I' for Inactive)
REMARK    1  A    between atoms: C2_2  and  S1_3 
REMARK    2  A    between atoms: S1_3  and  C3_4 
REMARK    3  A    between atoms: C3_4  and  N1_5 
REMARK    4  A    between atoms: C3_4  and  S2_19 
REMARK    5  A    between atoms: N1_5  and  C4_7 
REMARK    6  A    between atoms: C7_10  and  C8_11 
REMARK    7  A    between atoms: C8_11  and  O1_14 
REMARK    8  A    between atoms: S2_19  and  C13_20 
ROOT
HETATM    1  C4  UNL     1      25.056  27.700  28.103  1.00  0.00     0.111 C 
HETATM    2  C5  UNL     1      24.798  27.861  29.561  1.00  0.00     0.030 C 
HETATM    3  C6  UNL     1      23.970  26.694  30.117  1.00  0.00     0.037 C 
HETATM    4  C7  UNL     1      23.033  26.315  29.008  1.00  0.00     0.155 C 
HETATM    5  O2  UNL     1      23.759  25.653  28.041  1.00  0.00    -0.376 OA
HETATM    6  C11 UNL     1      24.849  26.323  27.565  1.00  0.00     0.140 C 
HETATM    7  C12 UNL     1      26.101  25.492  27.745  1.00  0.00     0.041 C 
ENDROOT
BRANCH   1   8
HETATM    8  N1  UNL     1      24.370  28.680  27.271  1.00  0.00    -0.372 N 
ATOM      9  H1  UNL     1      23.398  28.508  27.014  1.00  0.00     0.161 HD
BRANCH   8  10
HETATM   10  C3  UNL     1      24.996  29.862  26.804  1.00  0.00     0.104 C 
BRANCH  10  11
HETATM   11  S1  UNL     1      25.062  30.136  25.199  1.00  0.00    -0.106 SA
BRANCH  11  12
HETATM   12  C2  UNL     1      23.918  31.295  24.369  1.00  0.00     0.077 C 
HETATM   13  C1  UNL     1      24.321  31.392  22.905  1.00  0.00     0.016 C 
ENDBRANCH  11  12
ENDBRANCH  10  11
BRANCH  10  14
HETATM   14  S2  UNL     1      25.698  31.050  27.890  1.00  0.00    -0.097 SA
BRANCH  14  15
HETATM   15  C13 UNL     1      25.991  32.665  27.129  1.00  0.00     0.004 C 
HETATM   16  C14 UNL     1      24.728  33.327  26.682  1.00  0.00     0.026 C 
HETATM   17  C15 UNL     1      26.627  33.561  28.201  1.00  0.00     0.026 C 
HETATM   18  C16 UNL     1      26.954  32.590  25.984  1.00  0.00     0.026 C 
ENDBRANCH  14  15
ENDBRANCH  10  14
ENDBRANCH   8  10
ENDBRANCH   1   8
BRANCH   4  19
HETATM   19  C8  UNL     1      21.893  25.451  29.447  1.00  0.00     0.076 C 
HETATM   20  C9  UNL     1      21.556  25.570  30.900  1.00  0.00     0.048 C 
HETATM   21  C10 UNL     1      22.121  24.008  29.041  1.00  0.00     0.048 C 
BRANCH  19  22
HETATM   22  O1  UNL     1      20.758  25.880  28.724  1.00  0.00    -0.388 OA
ATOM     23  H1  UNL     1      20.172  25.134  28.672  1.00  0.00     0.210 HD
ENDBRANCH  19  22
ENDBRANCH   4  19
TORSDOF 8
ENDMDL
MODEL 5
REMARK VINA RESULT: -5.967689987      6.139      8.464
REMARK  8 active torsions:
REMARK  status: ('A' for Active; 'I' for Inactive)
REMARK    1  A    between atoms: C2_2  and  S1_3 
REMARK    2  A    between atoms: S1_3  and  C3_4 
REMARK    3  A    between atoms: C3_4  and  N1_5 
REMARK    4  A    between atoms: C3_4  and  S2_19 
REMARK    5  A    between atoms: N1_5  and  C4_7 
REMARK    6  A    between atoms: C7_10  and  C8_11 
REMARK    7  A    between atoms: C8_11  and  O1_14 
REMARK    8  A    between atoms: S2_19  and  C13_20 
ROOT
HETATM    1  C4  UNL     1      26.837  34.728  28.377  1.00  0.00     0.111 C 
HETATM    2  C5  UNL     1      25.949  35.134  27.252  1.00  0.00     0.030 C 
HETATM    3  C6  UNL     1      25.502  33.921  26.423  1.00  0.00     0.037 C 
HETATM    4  C7  UNL     1      26.675  32.983  26.437  1.00  0.00     0.155 C 
HETATM    5  O2  UNL     1      26.746  32.406  27.687  1.00  0.00    -0.376 OA
HETATM    6  C11 UNL     1      26.794  33.278  28.734  1.00  0.00     0.140 C 
HETATM    7  C12 UNL     1      25.663  33.006  29.702  1.00  0.00     0.041 C 
ENDROOT
BRANCH   1   8
HETATM    8  N1  UNL     1      28.215  35.175  28.231  1.00  0.00    -0.372 N 
ATOM      9  H1  UNL     1      28.674  35.060  27.327  1.00  0.00     0.161 HD
BRANCH   8  10
HETATM   10  C3  UNL     1      28.947  35.765  29.292  1.00  0.00     0.104 C 
BRANCH  10  11
HETATM   11  S1  UNL     1      28.214  36.878  30.229  1.00  0.00    -0.106 SA
BRANCH  11  12
HETATM   12  C2  UNL     1      29.154  38.199  31.074  1.00  0.00     0.077 C 
HETATM   13  C1  UNL     1      29.797  39.079  30.011  1.00  0.00     0.016 C 
ENDBRANCH  11  12
ENDBRANCH  10  11
BRANCH  10  14
HETATM   14  S2  UNL     1      30.613  35.336  29.641  1.00  0.00    -0.097 SA
BRANCH  14  15
HETATM   15  C13 UNL     1      30.820  34.315  31.120  1.00  0.00     0.004 C 
HETATM   16  C14 UNL     1      29.605  33.500  31.429  1.00  0.00     0.026 C 
HETATM   17  C15 UNL     1      31.970  33.338  30.838  1.00  0.00     0.026 C 
HETATM   18  C16 UNL     1      31.204  35.122  32.322  1.00  0.00     0.026 C 
ENDBRANCH  14  15
ENDBRANCH  10  14
ENDBRANCH   8  10
ENDBRANCH   1   8
BRANCH   4  19
HETATM   19  C8  UNL     1      26.601  31.909  25.400  1.00  0.00     0.076 C 
HETATM   20  C9  UNL     1      27.492  32.132  24.218  1.00  0.00     0.048 C 
HETATM   21  C10 UNL     1      25.166  31.658  24.981  1.00  0.00     0.048 C 
BRANCH  19  22
HETATM   22  O1  UNL     1      27.034  30.716  26.021  1.00  0.00    -0.388 OA
ATOM     23  H1  UNL     1      27.944  30.849  26.261  1.00  0.00     0.210 HD
ENDBRANCH  19  22
ENDBRANCH   4  19
TORSDOF 8
ENDMDL
