MODEL 1
REMARK VINA RESULT: -8.784458758      0.000      0.000
REMARK  4 active torsions:
REMARK  status: ('A' for Active; 'I' for Inactive)
REMARK    1  A    between atoms: C6_6  and  C7_7 
REMARK    2  A    between atoms: C7_7  and  C8_8 
REMARK    3  A    between atoms: C12_12  and  O1_14 
REMARK    4  A    between atoms: N1_24  and  O3_26 
ROOT
HETATM    1  C8  UNL     1      24.504  26.687  29.254  1.00  0.00    -0.003 C 
HETATM    2  C9  UNL     1      23.435  25.929  28.490  1.00  0.00     0.006 C 
HETATM    3  C10 UNL     1      23.738  24.489  28.844  1.00  0.00     0.009 C 
HETATM    4  C11 UNL     1      24.952  24.505  29.709  1.00  0.00     0.036 C 
HETATM    5  C12 UNL     1      25.750  23.272  29.730  1.00  0.00     0.118 C 
HETATM    6  C13 UNL     1      25.263  22.447  30.937  1.00  0.00     0.055 C 
HETATM    7  C14 UNL     1      27.165  23.632  30.081  1.00  0.00     0.161 C 
HETATM    8  O2  UNL     1      28.048  22.865  29.779  1.00  0.00    -0.295 OA
HETATM    9  C15 UNL     1      27.434  24.901  30.776  1.00  0.00     0.082 C 
HETATM   10  C16 UNL     1      26.780  26.095  30.144  1.00  0.00     0.017 C 
HETATM   11  C17 UNL     1      25.659  25.757  29.195  1.00  0.00    -0.033 C 
HETATM   12  C18 UNL     1      26.142  25.470  27.803  1.00  0.00     0.016 C 
ENDROOT
BRANCH   1  13
HETATM   13  C7  UNL     1      24.661  28.087  28.858  1.00  0.00     0.033 C 
BRANCH  13  14
HETATM   14  C6  UNL     1      24.473  28.449  27.468  1.00  0.00    -0.023 C 
HETATM   15  C5  UNL     1      24.889  29.600  27.010  1.00  0.00    -0.078 C 
HETATM   16  C4  UNL     1      25.563  30.546  27.936  1.00  0.00     0.035 C 
HETATM   17  C19 UNL     1      24.681  29.946  25.561  1.00  0.00     0.088 C 
HETATM   18  C3  UNL     1      25.828  31.883  27.262  1.00  0.00     0.014 C 
HETATM   19  C2  UNL     1      26.581  31.593  26.004  1.00  0.00     0.030 C 
HETATM   20  C1  UNL     1      27.062  32.915  25.430  1.00  0.00     0.016 C 
HETATM   21  C20 UNL     1      25.679  30.888  25.067  1.00  0.00     0.017 C 
HETATM   22  N1  UNL     1      25.794  31.124  23.810  1.00  0.00    -0.277 N 
ATOM     23  H1  UNL     1      26.507  31.792  23.515  1.00  0.00     0.193 HD
BRANCH  22  24
HETATM   24  O3  UNL     1      25.028  30.543  22.843  1.00  0.00    -0.290 OA
ATOM     25  H3  UNL     1      24.795  30.959  22.021  1.00  0.00     0.244 HD
ENDBRANCH  22  24
ENDBRANCH  13  14
ENDBRANCH   1  13
BRANCH   5  26
HETATM   26  O1  UNL     1      25.646  22.433  28.650  1.00  0.00    -0.382 OA
ATOM     27  H1  UNL     1      26.321  22.492  27.984  1.00  0.00     0.211 HD
ENDBRANCH   5  26
TORSDOF 4
ENDMDL
MODEL 2
REMARK VINA RESULT: -8.441443123      1.486      2.612
REMARK  4 active torsions:
REMARK  status: ('A' for Active; 'I' for Inactive)
REMARK    1  A    between atoms: C6_6  and  C7_7 
REMARK    2  A    between atoms: C7_7  and  C8_8 
REMARK    3  A    between atoms: C12_12  and  O1_14 
REMARK    4  A    between atoms: N1_24  and  O3_26 
ROOT
HETATM    1  C8  UNL     1      25.067  26.918  29.250  1.00  0.00    -0.003 C 
HETATM    2  C9  UNL     1      26.101  26.785  30.352  1.00  0.00     0.006 C 
HETATM    3  C10 UNL     1      25.968  25.331  30.752  1.00  0.00     0.009 C 
HETATM    4  C11 UNL     1      24.866  24.758  29.927  1.00  0.00     0.036 C 
HETATM    5  C12 UNL     1      24.186  23.580  30.482  1.00  0.00     0.118 C 
HETATM    6  C13 UNL     1      24.880  22.342  29.883  1.00  0.00     0.055 C 
HETATM    7  C14 UNL     1      22.795  23.528  29.916  1.00  0.00     0.161 C 
HETATM    8  O2  UNL     1      21.953  22.899  30.510  1.00  0.00    -0.295 OA
HETATM    9  C15 UNL     1      22.501  24.242  28.663  1.00  0.00     0.082 C 
HETATM   10  C16 UNL     1      22.971  25.668  28.646  1.00  0.00     0.017 C 
HETATM   11  C17 UNL     1      23.999  25.993  29.700  1.00  0.00    -0.033 C 
HETATM   12  C18 UNL     1      23.382  26.367  31.017  1.00  0.00     0.016 C 
ENDROOT
BRANCH   1  13
HETATM   13  C7  UNL     1      24.744  28.297  28.879  1.00  0.00     0.033 C 
BRANCH  13  14
HETATM   14  C6  UNL     1      24.532  28.618  27.482  1.00  0.00    -0.023 C 
HETATM   15  C5  UNL     1      24.963  29.743  26.978  1.00  0.00    -0.078 C 
HETATM   16  C4  UNL     1      25.678  30.704  27.857  1.00  0.00     0.035 C 
HETATM   17  C19 UNL     1      24.728  30.047  25.523  1.00  0.00     0.088 C 
HETATM   18  C3  UNL     1      25.955  32.012  27.133  1.00  0.00     0.014 C 
HETATM   19  C2  UNL     1      26.673  31.665  25.869  1.00  0.00     0.030 C 
HETATM   20  C1  UNL     1      27.170  32.957  25.241  1.00  0.00     0.016 C 
HETATM   21  C20 UNL     1      25.735  30.950  24.976  1.00  0.00     0.017 C 
HETATM   22  N1  UNL     1      25.827  31.143  23.710  1.00  0.00    -0.277 N 
ATOM     23  H1  UNL     1      26.547  31.784  23.377  1.00  0.00     0.193 HD
BRANCH  22  24
HETATM   24  O3  UNL     1      25.027  30.548  22.780  1.00  0.00    -0.290 OA
ATOM     25  H3  UNL     1      25.191  30.558  21.844  1.00  0.00     0.244 HD
ENDBRANCH  22  24
ENDBRANCH  13  14
ENDBRANCH   1  13
BRANCH   5  26
HETATM   26  O1  UNL     1      24.235  23.404  31.841  1.00  0.00    -0.382 OA
ATOM     27  H1  UNL     1      23.692  23.972  32.376  1.00  0.00     0.211 HD
ENDBRANCH   5  26
TORSDOF 4
ENDMDL
MODEL 3
REMARK VINA RESULT: -8.343115349      6.369     10.679
REMARK  4 active torsions:
REMARK  status: ('A' for Active; 'I' for Inactive)
REMARK    1  A    between atoms: C6_6  and  C7_7 
REMARK    2  A    between atoms: C7_7  and  C8_8 
REMARK    3  A    between atoms: C12_12  and  O1_14 
REMARK    4  A    between atoms: N1_24  and  O3_26 
ROOT
HETATM    1  C8  UNL     1      27.728  36.182  29.445  1.00  0.00    -0.003 C 
HETATM    2  C9  UNL     1      27.680  35.547  30.822  1.00  0.00     0.006 C 
HETATM    3  C10 UNL     1      28.535  36.486  31.646  1.00  0.00     0.009 C 
HETATM    4  C11 UNL     1      29.049  37.529  30.712  1.00  0.00     0.036 C 
HETATM    5  C12 UNL     1      30.292  38.202  31.113  1.00  0.00     0.118 C 
HETATM    6  C13 UNL     1      29.882  39.489  31.854  1.00  0.00     0.055 C 
HETATM    7  C14 UNL     1      30.980  38.698  29.874  1.00  0.00     0.161 C 
HETATM    8  O2  UNL     1      32.166  38.923  29.922  1.00  0.00    -0.295 OA
HETATM    9  C15 UNL     1      30.196  38.893  28.644  1.00  0.00     0.082 C 
HETATM   10  C16 UNL     1      29.335  37.721  28.275  1.00  0.00     0.017 C 
HETATM   11  C17 UNL     1      29.098  36.748  29.401  1.00  0.00    -0.033 C 
HETATM   12  C18 UNL     1      30.188  35.721  29.521  1.00  0.00     0.016 C 
ENDROOT
BRANCH   1  13
HETATM   13  C7  UNL     1      27.246  35.324  28.361  1.00  0.00     0.033 C 
BRANCH  13  14
HETATM   14  C6  UNL     1      26.854  33.963  28.663  1.00  0.00    -0.023 C 
HETATM   15  C5  UNL     1      26.076  33.292  27.856  1.00  0.00    -0.078 C 
HETATM   16  C4  UNL     1      25.590  33.943  26.612  1.00  0.00     0.035 C 
HETATM   17  C19 UNL     1      25.688  31.879  28.197  1.00  0.00     0.088 C 
HETATM   18  C3  UNL     1      24.577  33.068  25.892  1.00  0.00     0.014 C 
HETATM   19  C2  UNL     1      25.221  31.734  25.690  1.00  0.00     0.030 C 
HETATM   20  C1  UNL     1      24.329  30.916  24.771  1.00  0.00     0.016 C 
HETATM   21  C20 UNL     1      25.384  31.087  27.010  1.00  0.00     0.017 C 
HETATM   22  N1  UNL     1      25.252  29.812  27.087  1.00  0.00    -0.277 N 
ATOM     23  H1  UNL     1      25.039  29.302  26.229  1.00  0.00     0.193 HD
BRANCH  22  24
HETATM   24  O3  UNL     1      25.377  29.093  28.239  1.00  0.00    -0.290 OA
ATOM     25  H3  UNL     1      24.664  28.916  28.842  1.00  0.00     0.244 HD
ENDBRANCH  22  24
ENDBRANCH  13  14
ENDBRANCH   1  13
BRANCH   5  26
HETATM   26  O1  UNL     1      31.123  37.534  31.976  1.00  0.00    -0.382 OA
ATOM     27  H1  UNL     1      30.720  37.072  32.702  1.00  0.00     0.211 HD
ENDBRANCH   5  26
TORSDOF 4
ENDMDL
MODEL 4
REMARK VINA RESULT: -8.233024132      5.717      8.799
REMARK  4 active torsions:
REMARK  status: ('A' for Active; 'I' for Inactive)
REMARK    1  A    between atoms: C6_6  and  C7_7 
REMARK    2  A    between atoms: C7_7  and  C8_8 
REMARK    3  A    between atoms: C12_12  and  O1_14 
REMARK    4  A    between atoms: N1_24  and  O3_26 
ROOT
HETATM    1  C8  UNL     1      26.755  33.316  27.630  1.00  0.00    -0.003 C 
HETATM    2  C9  UNL     1      25.830  32.553  28.560  1.00  0.00     0.006 C 
HETATM    3  C10 UNL     1      25.576  31.273  27.791  1.00  0.00     0.009 C 
HETATM    4  C11 UNL     1      26.296  31.403  26.492  1.00  0.00     0.036 C 
HETATM    5  C12 UNL     1      25.784  30.587  25.383  1.00  0.00     0.118 C 
HETATM    6  C13 UNL     1      26.606  29.285  25.371  1.00  0.00     0.055 C 
HETATM    7  C14 UNL     1      26.152  31.263  24.092  1.00  0.00     0.161 C 
HETATM    8  O2  UNL     1      25.518  30.996  23.099  1.00  0.00    -0.295 OA
HETATM    9  C15 UNL     1      27.265  32.225  24.075  1.00  0.00     0.082 C 
HETATM   10  C16 UNL     1      27.191  33.265  25.155  1.00  0.00     0.017 C 
HETATM   11  C17 UNL     1      26.263  32.915  26.290  1.00  0.00    -0.033 C 
HETATM   12  C18 UNL     1      24.839  33.309  26.018  1.00  0.00     0.016 C 
ENDROOT
BRANCH   1  13
HETATM   13  C7  UNL     1      26.923  34.731  27.964  1.00  0.00     0.033 C 
BRANCH  13  14
HETATM   14  C6  UNL     1      27.277  35.096  29.320  1.00  0.00    -0.023 C 
HETATM   15  C5  UNL     1      28.135  36.052  29.558  1.00  0.00    -0.078 C 
HETATM   16  C4  UNL     1      28.753  36.771  28.414  1.00  0.00     0.035 C 
HETATM   17  C19 UNL     1      28.480  36.409  30.978  1.00  0.00     0.088 C 
HETATM   18  C3  UNL     1      29.834  37.730  28.885  1.00  0.00     0.014 C 
HETATM   19  C2  UNL     1      29.212  38.614  29.917  1.00  0.00     0.030 C 
HETATM   20  C1  UNL     1      30.194  39.729  30.235  1.00  0.00     0.016 C 
HETATM   21  C20 UNL     1      28.907  37.798  31.112  1.00  0.00     0.017 C 
HETATM   22  N1  UNL     1      29.026  38.340  32.270  1.00  0.00    -0.277 N 
ATOM     23  H1  UNL     1      29.328  39.313  32.311  1.00  0.00     0.193 HD
BRANCH  22  24
HETATM   24  O3  UNL     1      28.777  37.701  33.449  1.00  0.00    -0.290 OA
ATOM     25  H3  UNL     1      28.099  37.955  34.065  1.00  0.00     0.244 HD
ENDBRANCH  22  24
ENDBRANCH  13  14
ENDBRANCH   1  13
BRANCH   5  26
HETATM   26  O1  UNL     1      24.473  30.190  25.443  1.00  0.00    -0.382 OA
ATOM     27  H1  UNL     1      23.988  30.156  24.626  1.00  0.00     0.211 HD
ENDBRANCH   5  26
TORSDOF 4
ENDMDL
MODEL 5
REMARK VINA RESULT: -8.209213452      5.563      9.006
REMARK  4 active torsions:
REMARK  status: ('A' for Active; 'I' for Inactive)
REMARK    1  A    between atoms: C6_6  and  C7_7 
REMARK    2  A    between atoms: C7_7  and  C8_8 
REMARK    3  A    between atoms: C12_12  and  O1_14 
REMARK    4  A    between atoms: N1_24  and  O3_26 
ROOT
HETATM    1  C8  UNL     1      27.666  34.591  29.105  1.00  0.00    -0.003 C 
HETATM    2  C9  UNL     1      27.818  35.956  28.461  1.00  0.00     0.006 C 
HETATM    3  C10 UNL     1      29.130  36.446  29.036  1.00  0.00     0.009 C 
HETATM    4  C11 UNL     1      29.602  35.396  29.984  1.00  0.00     0.036 C 
HETATM    5  C12 UNL     1      30.514  35.843  31.046  1.00  0.00     0.118 C 
HETATM    6  C13 UNL     1      31.946  35.604  30.533  1.00  0.00     0.055 C 
HETATM    7  C14 UNL     1      30.381  34.901  32.209  1.00  0.00     0.161 C 
HETATM    8  O2  UNL     1      30.723  35.282  33.303  1.00  0.00    -0.295 OA
HETATM    9  C15 UNL     1      29.839  33.551  31.984  1.00  0.00     0.082 C 
HETATM   10  C16 UNL     1      28.558  33.529  31.202  1.00  0.00     0.017 C 
HETATM   11  C17 UNL     1      28.273  34.799  30.442  1.00  0.00    -0.033 C 
HETATM   12  C18 UNL     1      27.572  35.832  31.278  1.00  0.00     0.016 C 
ENDROOT
BRANCH   1  13
HETATM   13  C7  UNL     1      26.331  34.004  28.982  1.00  0.00     0.033 C 
BRANCH  13  14
HETATM   14  C6  UNL     1      26.209  32.604  28.631  1.00  0.00    -0.023 C 
HETATM   15  C5  UNL     1      25.621  32.237  27.524  1.00  0.00    -0.078 C 
HETATM   16  C4  UNL     1      25.069  33.277  26.618  1.00  0.00     0.035 C 
HETATM   17  C19 UNL     1      25.512  30.775  27.186  1.00  0.00     0.088 C 
HETATM   18  C3  UNL     1      24.289  32.653  25.473  1.00  0.00     0.014 C 
HETATM   19  C2  UNL     1      25.198  31.666  24.814  1.00  0.00     0.030 C 
HETATM   20  C1  UNL     1      24.533  31.199  23.530  1.00  0.00     0.016 C 
HETATM   21  C20 UNL     1      25.429  30.543  25.748  1.00  0.00     0.017 C 
HETATM   22  N1  UNL     1      25.555  29.360  25.265  1.00  0.00    -0.277 N 
ATOM     23  H1  UNL     1      25.488  29.250  24.253  1.00  0.00     0.193 HD
BRANCH  22  24
HETATM   24  O3  UNL     1      25.770  28.241  26.013  1.00  0.00    -0.290 OA
ATOM     25  H3  UNL     1      25.417  27.382  25.810  1.00  0.00     0.244 HD
ENDBRANCH  22  24
ENDBRANCH  13  14
ENDBRANCH   1  13
BRANCH   5  26
HETATM   26  O1  UNL     1      30.469  37.167  31.401  1.00  0.00    -0.382 OA
ATOM     27  H1  UNL     1      30.894  37.417  32.213  1.00  0.00     0.211 HD
ENDBRANCH   5  26
TORSDOF 4
ENDMDL
