MODEL 1
REMARK VINA RESULT: -7.706513036      0.000      0.000
REMARK  6 active torsions:
REMARK  status: ('A' for Active; 'I' for Inactive)
REMARK    1  A    between atoms: C4_12  and  N5_13 
REMARK    2  A    between atoms: N5_13  and  N6_15 
REMARK    3  A    between atoms: N6_15  and  N7_16 
REMARK    4  A    between atoms: N7_16  and  C5_18 
REMARK    5  A    between atoms: C10_23  and  N8_24 
REMARK    6  A    between atoms: C12_31  and  C13_32 
ROOT
HETATM    1  C1  UNL     1      -9.181 -10.249  21.519  1.00  0.00     0.164 C 
HETATM    2  N1  UNL     1      -7.757  -9.992  21.337  1.00  0.00    -0.271 N 
HETATM    3  C2  UNL     1      -7.117  -8.830  21.857  1.00  0.00     0.327 C 
HETATM    4  O1  UNL     1      -7.636  -7.884  22.520  1.00  0.00    -0.247 OA
HETATM    5  N2  UNL     1      -5.751  -8.931  21.484  1.00  0.00    -0.305 N 
ATOM      6  H2  UNL     1      -5.075  -8.170  21.540  1.00  0.00     0.167 HD
HETATM    7  C3  UNL     1      -5.455 -10.262  21.015  1.00  0.00     0.224 C 
HETATM    8  N3  UNL     1      -4.523 -10.255  19.931  1.00  0.00    -0.295 N 
ATOM      9  H3  UNL     1      -4.711 -10.752  19.060  1.00  0.00     0.183 HD
HETATM   10  N4  UNL     1      -3.336  -9.532  20.126  1.00  0.00    -0.281 N 
ATOM     11  H4  UNL     1      -3.004  -8.929  19.374  1.00  0.00     0.189 HD
HETATM   12  C4  UNL     1      -2.646  -9.595  21.209  1.00  0.00     0.172 C 
HETATM   13  S1  UNL     1      -3.208 -10.650  22.532  1.00  0.00    -0.075 SA
HETATM   14  C12 UNL     1      -4.925 -11.125  22.154  1.00  0.00     0.176 C 
HETATM   15  C14 UNL     1      -6.782 -10.774  20.663  1.00  0.00     0.280 C 
HETATM   16  O7  UNL     1      -7.053 -11.731  19.905  1.00  0.00    -0.268 OA
ENDROOT
BRANCH  12  17
HETATM   17  N5  UNL     1      -1.441  -8.845  21.377  1.00  0.00    -0.263 N 
ATOM     18  H5  UNL     1      -0.909  -8.907  22.245  1.00  0.00     0.186 HD
BRANCH  17  19
HETATM   19  N6  UNL     1      -1.010  -8.039  20.348  1.00  0.00    -0.020 NA
BRANCH  19  20
HETATM   20  N7  UNL     1       0.348  -8.192  20.044  1.00  0.00    -0.282 N 
ATOM     21  H7  UNL     1       1.014  -7.467  20.307  1.00  0.00     0.184 HD
BRANCH  20  22
HETATM   22  C5  UNL     1       0.796  -9.347  19.375  1.00  0.00     0.082 A 
HETATM   23  C6  UNL     1       1.194 -10.466  20.125  1.00  0.00     0.073 A 
HETATM   24  C7  UNL     1       1.655 -11.628  19.590  1.00  0.00     0.107 A 
HETATM   25  C8  UNL     1       1.725 -11.685  18.201  1.00  0.00     0.107 A 
HETATM   26  O5  UNL     1       2.105 -12.853  20.062  1.00  0.00    -0.323 OA
HETATM   27  C9  UNL     1       1.342 -10.609  17.444  1.00  0.00     0.078 A 
HETATM   28  O4  UNL     1       2.218 -12.950  17.866  1.00  0.00    -0.323 OA
HETATM   29  C10 UNL     1       0.866  -9.410  18.022  1.00  0.00     0.133 A 
HETATM   30  C11 UNL     1       2.872 -13.419  19.028  1.00  0.00     0.352 C 
BRANCH  29  31
HETATM   31  N8  UNL     1       0.502  -8.366  17.156  1.00  0.00    -0.113 N 
HETATM   32  O2  UNL     1       0.152  -8.719  15.981  1.00  0.00    -0.532 OA
HETATM   33  O3  UNL     1       0.473  -7.032  17.392  1.00  0.00    -0.532 OA
ENDBRANCH  29  31
ENDBRANCH  20  22
ENDBRANCH  19  20
ENDBRANCH  17  19
ENDBRANCH  12  17
BRANCH  14  34
HETATM   34  C13 UNL     1      -4.899 -12.531  21.712  1.00  0.00     0.251 C 
HETATM   35  O6  UNL     1      -3.943 -12.945  21.107  1.00  0.00    -0.305 OA
ENDBRANCH  14  34
TORSDOF 6
ENDMDL
MODEL 2
REMARK VINA RESULT: -7.262720132      7.111     10.733
REMARK  6 active torsions:
REMARK  status: ('A' for Active; 'I' for Inactive)
REMARK    1  A    between atoms: C4_12  and  N5_13 
REMARK    2  A    between atoms: N5_13  and  N6_15 
REMARK    3  A    between atoms: N6_15  and  N7_16 
REMARK    4  A    between atoms: N7_16  and  C5_18 
REMARK    5  A    between atoms: C10_23  and  N8_24 
REMARK    6  A    between atoms: C12_31  and  C13_32 
ROOT
HETATM    1  C1  UNL     1     -12.063 -18.118  13.228  1.00  0.00     0.164 C 
HETATM    2  N1  UNL     1     -11.431 -17.033  13.970  1.00  0.00    -0.271 N 
HETATM    3  C2  UNL     1     -12.104 -16.320  15.004  1.00  0.00     0.327 C 
HETATM    4  O1  UNL     1     -13.285 -16.490  15.428  1.00  0.00    -0.247 OA
HETATM    5  N2  UNL     1     -11.179 -15.355  15.483  1.00  0.00    -0.305 N 
ATOM      6  H2  UNL     1     -11.420 -14.569  16.088  1.00  0.00     0.167 HD
HETATM    7  C3  UNL     1      -9.853 -15.643  14.997  1.00  0.00     0.224 C 
HETATM    8  N3  UNL     1      -9.122 -14.453  14.692  1.00  0.00    -0.295 N 
ATOM      9  H3  UNL     1      -8.660 -14.325  13.792  1.00  0.00     0.183 HD
HETATM   10  N4  UNL     1      -9.071 -13.471  15.694  1.00  0.00    -0.281 N 
ATOM     11  H4  UNL     1      -9.222 -12.498  15.429  1.00  0.00     0.189 HD
HETATM   12  C4  UNL     1      -8.842 -13.740  16.929  1.00  0.00     0.172 C 
HETATM   13  S1  UNL     1      -8.569 -15.436  17.408  1.00  0.00    -0.075 SA
HETATM   14  C12 UNL     1      -9.083 -16.484  16.009  1.00  0.00     0.176 C 
HETATM   15  C14 UNL     1     -10.122 -16.497  13.838  1.00  0.00     0.280 C 
HETATM   16  O7  UNL     1      -9.359 -16.740  12.877  1.00  0.00    -0.268 OA
ENDROOT
BRANCH  12  17
HETATM   17  N5  UNL     1      -8.796 -12.717  17.926  1.00  0.00    -0.263 N 
ATOM     18  H5  UNL     1      -8.144 -11.938  17.839  1.00  0.00     0.186 HD
BRANCH  17  19
HETATM   19  N6  UNL     1      -9.646 -12.802  19.005  1.00  0.00    -0.020 NA
BRANCH  19  20
HETATM   20  N7  UNL     1      -9.071 -12.376  20.209  1.00  0.00    -0.282 N 
ATOM     21  H7  UNL     1      -8.366 -12.953  20.668  1.00  0.00     0.184 HD
BRANCH  20  22
HETATM   22  C5  UNL     1      -9.465 -11.155  20.786  1.00  0.00     0.082 A 
HETATM   23  C6  UNL     1     -10.756 -11.033  21.325  1.00  0.00     0.073 A 
HETATM   24  C7  UNL     1     -11.251  -9.901  21.895  1.00  0.00     0.107 A 
HETATM   25  C8  UNL     1     -10.395  -8.804  21.934  1.00  0.00     0.107 A 
HETATM   26  O5  UNL     1     -12.440  -9.500  22.486  1.00  0.00    -0.323 OA
HETATM   27  C9  UNL     1      -9.130  -8.895  21.417  1.00  0.00     0.078 A 
HETATM   28  O4  UNL     1     -11.092  -7.761  22.552  1.00  0.00    -0.323 OA
HETATM   29  C10 UNL     1      -8.637 -10.081  20.829  1.00  0.00     0.133 A 
HETATM   30  C11 UNL     1     -12.460  -8.096  22.424  1.00  0.00     0.352 C 
BRANCH  29  31
HETATM   31  N8  UNL     1      -7.325 -10.067  20.327  1.00  0.00    -0.113 N 
HETATM   32  O2  UNL     1      -6.465  -9.460  21.047  1.00  0.00    -0.532 OA
HETATM   33  O3  UNL     1      -6.844 -10.607  19.181  1.00  0.00    -0.532 OA
ENDBRANCH  29  31
ENDBRANCH  20  22
ENDBRANCH  19  20
ENDBRANCH  17  19
ENDBRANCH  12  17
BRANCH  14  34
HETATM   34  C13 UNL     1      -7.854 -16.988  15.371  1.00  0.00     0.251 C 
HETATM   35  O6  UNL     1      -7.137 -17.742  15.977  1.00  0.00    -0.305 OA
ENDBRANCH  14  34
TORSDOF 6
ENDMDL
MODEL 3
REMARK VINA RESULT: -7.223513012      7.838     10.923
REMARK  6 active torsions:
REMARK  status: ('A' for Active; 'I' for Inactive)
REMARK    1  A    between atoms: C4_12  and  N5_13 
REMARK    2  A    between atoms: N5_13  and  N6_15 
REMARK    3  A    between atoms: N6_15  and  N7_16 
REMARK    4  A    between atoms: N7_16  and  C5_18 
REMARK    5  A    between atoms: C10_23  and  N8_24 
REMARK    6  A    between atoms: C12_31  and  C13_32 
ROOT
HETATM    1  C1  UNL     1     -10.419 -17.105  13.121  1.00  0.00     0.164 C 
HETATM    2  N1  UNL     1      -9.991 -16.272  14.239  1.00  0.00    -0.271 N 
HETATM    3  C2  UNL     1      -8.667 -16.314  14.763  1.00  0.00     0.327 C 
HETATM    4  O1  UNL     1      -7.698 -17.034  14.377  1.00  0.00    -0.247 OA
HETATM    5  N2  UNL     1      -8.633 -15.376  15.827  1.00  0.00    -0.305 N 
ATOM      6  H2  UNL     1      -7.888 -15.310  16.522  1.00  0.00     0.167 HD
HETATM    7  C3  UNL     1      -9.799 -14.529  15.789  1.00  0.00     0.224 C 
HETATM    8  N3  UNL     1     -10.275 -14.209  17.098  1.00  0.00    -0.295 N 
ATOM      9  H3  UNL     1     -11.252 -14.345  17.360  1.00  0.00     0.183 HD
HETATM   10  N4  UNL     1      -9.333 -13.699  18.004  1.00  0.00    -0.281 N 
ATOM     11  H4  UNL     1      -9.327 -14.063  18.957  1.00  0.00     0.189 HD
HETATM   12  C4  UNL     1      -8.476 -12.794  17.690  1.00  0.00     0.172 C 
HETATM   13  S1  UNL     1      -8.476 -12.142  16.031  1.00  0.00    -0.075 SA
HETATM   14  C12 UNL     1      -9.505 -13.249  15.014  1.00  0.00     0.176 C 
HETATM   15  C14 UNL     1     -10.735 -15.318  14.984  1.00  0.00     0.280 C 
HETATM   16  O7  UNL     1     -11.979 -15.204  14.933  1.00  0.00    -0.268 OA
ENDROOT
BRANCH  12  17
HETATM   17  N5  UNL     1      -7.528 -12.296  18.637  1.00  0.00    -0.263 N 
ATOM     18  H5  UNL     1      -6.700 -12.841  18.877  1.00  0.00     0.186 HD
BRANCH  17  19
HETATM   19  N6  UNL     1      -7.751 -11.068  19.218  1.00  0.00    -0.020 NA
BRANCH  19  20
HETATM   20  N7  UNL     1      -8.022 -11.137  20.590  1.00  0.00    -0.282 N 
ATOM     21  H7  UNL     1      -7.302 -11.461  21.236  1.00  0.00     0.184 HD
BRANCH  20  22
HETATM   22  C5  UNL     1      -9.286 -10.758  21.079  1.00  0.00     0.082 A 
HETATM   23  C6  UNL     1      -9.487  -9.439  21.520  1.00  0.00     0.073 A 
HETATM   24  C7  UNL     1     -10.657  -8.964  22.023  1.00  0.00     0.107 A 
HETATM   25  C8  UNL     1     -11.713  -9.869  22.093  1.00  0.00     0.107 A 
HETATM   26  O5  UNL     1     -11.133  -7.758  22.518  1.00  0.00    -0.323 OA
HETATM   27  C9  UNL     1     -11.546 -11.161  21.671  1.00  0.00     0.078 A 
HETATM   28  O4  UNL     1     -12.806  -9.184  22.633  1.00  0.00    -0.323 OA
HETATM   29  C10 UNL     1     -10.319 -11.633  21.151  1.00  0.00     0.133 A 
HETATM   30  C11 UNL     1     -12.256  -8.068  23.305  1.00  0.00     0.352 C 
BRANCH  29  31
HETATM   31  N8  UNL     1     -10.253 -12.977  20.748  1.00  0.00    -0.113 N 
HETATM   32  O2  UNL     1     -11.265 -13.411  20.103  1.00  0.00    -0.532 OA
HETATM   33  O3  UNL     1      -9.265 -13.882  20.951  1.00  0.00    -0.532 OA
ENDBRANCH  29  31
ENDBRANCH  20  22
ENDBRANCH  19  20
ENDBRANCH  17  19
ENDBRANCH  12  17
BRANCH  14  34
HETATM   34  C13 UNL     1     -10.774 -12.546  14.757  1.00  0.00     0.251 C 
HETATM   35  O6  UNL     1     -11.001 -12.114  13.657  1.00  0.00    -0.305 OA
ENDBRANCH  14  34
TORSDOF 6
ENDMDL
MODEL 4
REMARK VINA RESULT: -7.192667507      8.191     10.958
REMARK  6 active torsions:
REMARK  status: ('A' for Active; 'I' for Inactive)
REMARK    1  A    between atoms: C4_12  and  N5_13 
REMARK    2  A    between atoms: N5_13  and  N6_15 
REMARK    3  A    between atoms: N6_15  and  N7_16 
REMARK    4  A    between atoms: N7_16  and  C5_18 
REMARK    5  A    between atoms: C10_23  and  N8_24 
REMARK    6  A    between atoms: C12_31  and  C13_32 
ROOT
HETATM    1  C1  UNL     1     -14.430 -15.183  14.416  1.00  0.00     0.164 C 
HETATM    2  N1  UNL     1     -13.215 -14.644  15.016  1.00  0.00    -0.271 N 
HETATM    3  C2  UNL     1     -13.187 -14.104  16.334  1.00  0.00     0.327 C 
HETATM    4  O1  UNL     1     -14.145 -14.003  17.156  1.00  0.00    -0.247 OA
HETATM    5  N2  UNL     1     -11.849 -13.687  16.562  1.00  0.00    -0.305 N 
ATOM      6  H2  UNL     1     -11.549 -13.090  17.332  1.00  0.00     0.167 HD
HETATM    7  C3  UNL     1     -10.975 -14.227  15.551  1.00  0.00     0.224 C 
HETATM    8  N3  UNL     1      -9.945 -13.306  15.182  1.00  0.00    -0.295 N 
ATOM      9  H3  UNL     1      -9.766 -13.066  14.207  1.00  0.00     0.183 HD
HETATM   10  N4  UNL     1      -9.194 -12.750  16.229  1.00  0.00    -0.281 N 
ATOM     11  H4  UNL     1      -9.000 -11.749  16.211  1.00  0.00     0.189 HD
HETATM   12  C4  UNL     1      -8.738 -13.443  17.211  1.00  0.00     0.172 C 
HETATM   13  S1  UNL     1      -9.063 -15.196  17.256  1.00  0.00    -0.075 SA
HETATM   14  C12 UNL     1     -10.358 -15.539  16.021  1.00  0.00     0.176 C 
HETATM   15  C14 UNL     1     -11.907 -14.550  14.468  1.00  0.00     0.280 C 
HETATM   16  O7  UNL     1     -11.641 -14.721  13.258  1.00  0.00    -0.268 OA
ENDROOT
BRANCH  12  17
HETATM   17  N5  UNL     1      -7.976 -12.847  18.263  1.00  0.00    -0.263 N 
ATOM     18  H5  UNL     1      -7.192 -13.347  18.683  1.00  0.00     0.186 HD
BRANCH  17  19
HETATM   19  N6  UNL     1      -8.318 -11.587  18.700  1.00  0.00    -0.020 NA
BRANCH  19  20
HETATM   20  N7  UNL     1      -8.347 -11.465  20.095  1.00  0.00    -0.282 N 
ATOM     21  H7  UNL     1      -7.520 -11.696  20.644  1.00  0.00     0.184 HD
BRANCH  20  22
HETATM   22  C5  UNL     1      -9.517 -11.023  20.740  1.00  0.00     0.082 A 
HETATM   23  C6  UNL     1      -9.558  -9.726  21.279  1.00  0.00     0.073 A 
HETATM   24  C7  UNL     1     -10.626  -9.196  21.934  1.00  0.00     0.107 A 
HETATM   25  C8  UNL     1     -11.742 -10.018  22.062  1.00  0.00     0.107 A 
HETATM   26  O5  UNL     1     -10.943  -7.994  22.550  1.00  0.00    -0.323 OA
HETATM   27  C9  UNL     1     -11.731 -11.286  21.546  1.00  0.00     0.078 A 
HETATM   28  O4  UNL     1     -12.712  -9.288  22.758  1.00  0.00    -0.323 OA
HETATM   29  C10 UNL     1     -10.610 -11.816  20.869  1.00  0.00     0.133 A 
HETATM   30  C11 UNL     1     -12.002  -8.269  23.433  1.00  0.00     0.352 C 
BRANCH  29  31
HETATM   31  N8  UNL     1     -10.701 -13.130  20.379  1.00  0.00    -0.113 N 
HETATM   32  O2  UNL     1      -9.773 -13.924  20.751  1.00  0.00    -0.532 OA
HETATM   33  O3  UNL     1     -11.636 -13.674  19.564  1.00  0.00    -0.532 OA
ENDBRANCH  29  31
ENDBRANCH  20  22
ENDBRANCH  19  20
ENDBRANCH  17  19
ENDBRANCH  12  17
BRANCH  14  34
HETATM   34  C13 UNL     1      -9.702 -16.194  14.876  1.00  0.00     0.251 C 
HETATM   35  O6  UNL     1      -8.614 -15.820  14.521  1.00  0.00    -0.305 OA
ENDBRANCH  14  34
TORSDOF 6
ENDMDL
MODEL 5
REMARK VINA RESULT: -7.189483542      7.351     10.218
REMARK  6 active torsions:
REMARK  status: ('A' for Active; 'I' for Inactive)
REMARK    1  A    between atoms: C4_12  and  N5_13 
REMARK    2  A    between atoms: N5_13  and  N6_15 
REMARK    3  A    between atoms: N6_15  and  N7_16 
REMARK    4  A    between atoms: N7_16  and  C5_18 
REMARK    5  A    between atoms: C10_23  and  N8_24 
REMARK    6  A    between atoms: C12_31  and  C13_32 
ROOT
HETATM    1  C1  UNL     1     -12.520 -15.981  14.073  1.00  0.00     0.164 C 
HETATM    2  N1  UNL     1     -11.570 -15.073  14.706  1.00  0.00    -0.271 N 
HETATM    3  C2  UNL     1     -11.983 -13.964  15.500  1.00  0.00     0.327 C 
HETATM    4  O1  UNL     1     -13.164 -13.598  15.774  1.00  0.00    -0.247 OA
HETATM    5  N2  UNL     1     -10.793 -13.327  15.939  1.00  0.00    -0.305 N 
ATOM      6  H2  UNL     1     -10.751 -12.400  16.362  1.00  0.00     0.167 HD
HETATM    7  C3  UNL     1      -9.651 -14.175  15.702  1.00  0.00     0.224 C 
HETATM    8  N3  UNL     1      -8.498 -13.428  15.310  1.00  0.00    -0.295 N 
ATOM      9  H3  UNL     1      -7.962 -13.669  14.476  1.00  0.00     0.183 HD
HETATM   10  N4  UNL     1      -8.139 -12.347  16.131  1.00  0.00    -0.281 N 
ATOM     11  H4  UNL     1      -7.883 -11.465  15.688  1.00  0.00     0.189 HD
HETATM   12  C4  UNL     1      -8.118 -12.417  17.414  1.00  0.00     0.172 C 
HETATM   13  S1  UNL     1      -8.556 -13.955  18.203  1.00  0.00    -0.075 SA
HETATM   14  C12 UNL     1      -9.338 -15.009  16.940  1.00  0.00     0.176 C 
HETATM   15  C14 UNL     1     -10.150 -15.094  14.675  1.00  0.00     0.280 C 
HETATM   16  O7  UNL     1      -9.477 -15.794  13.887  1.00  0.00    -0.268 OA
ENDROOT
BRANCH  12  17
HETATM   17  N5  UNL     1      -7.748 -11.298  18.221  1.00  0.00    -0.263 N 
ATOM     18  H5  UNL     1      -7.722 -10.358  17.825  1.00  0.00     0.186 HD
BRANCH  17  19
HETATM   19  N6  UNL     1      -7.428 -11.508  19.543  1.00  0.00    -0.020 NA
BRANCH  19  20
HETATM   20  N7  UNL     1      -7.771 -10.440  20.382  1.00  0.00    -0.282 N 
ATOM     21  H7  UNL     1      -7.095  -9.700  20.566  1.00  0.00     0.184 HD
BRANCH  20  22
HETATM   22  C5  UNL     1      -9.048 -10.387  20.971  1.00  0.00     0.082 A 
HETATM   23  C6  UNL     1      -9.940 -11.454  20.776  1.00  0.00     0.073 A 
HETATM   24  C7  UNL     1     -11.201 -11.508  21.284  1.00  0.00     0.107 A 
HETATM   25  C8  UNL     1     -11.607 -10.417  22.047  1.00  0.00     0.107 A 
HETATM   26  O5  UNL     1     -12.267 -12.396  21.258  1.00  0.00    -0.323 OA
HETATM   27  C9  UNL     1     -10.758  -9.363  22.254  1.00  0.00     0.078 A 
HETATM   28  O4  UNL     1     -12.917 -10.674  22.466  1.00  0.00    -0.323 OA
HETATM   29  C10 UNL     1      -9.452  -9.328  21.716  1.00  0.00     0.133 A 
HETATM   30  C11 UNL     1     -13.415 -11.645  21.568  1.00  0.00     0.352 C 
BRANCH  29  31
HETATM   31  N8  UNL     1      -8.662  -8.198  21.987  1.00  0.00    -0.113 N 
HETATM   32  O2  UNL     1      -9.059  -7.465  22.953  1.00  0.00    -0.532 OA
HETATM   33  O3  UNL     1      -7.536  -7.774  21.363  1.00  0.00    -0.532 OA
ENDBRANCH  29  31
ENDBRANCH  20  22
ENDBRANCH  19  20
ENDBRANCH  17  19
ENDBRANCH  12  17
BRANCH  14  34
HETATM   34  C13 UNL     1      -8.359 -16.049  16.577  1.00  0.00     0.251 C 
HETATM   35  O6  UNL     1      -8.241 -17.022  17.277  1.00  0.00    -0.305 OA
ENDBRANCH  14  34
TORSDOF 6
ENDMDL
