MODEL 1
REMARK VINA RESULT: -7.166513489      0.000      0.000
REMARK  12 active torsions:
REMARK  status: ('A' for Active; 'I' for Inactive)
REMARK    1  A    between atoms: C2_2  and  C4_4 
REMARK    2  A    between atoms: C4_4  and  C5_5 
REMARK    3  A    between atoms: C5_5  and  N1_6 
REMARK    4  A    between atoms: C5_5  and  C11_15 
REMARK       I    between atoms: N1_6  and  C6_8 
REMARK    5  A    between atoms: C6_8  and  O2_10 
REMARK    6  A    between atoms: O2_10  and  C7_11 
REMARK       I    between atoms: C11_15  and  N2_17 
REMARK       I    between atoms: N2_17  and  C12_19 
REMARK    7  A    between atoms: C12_19  and  C13_21 
REMARK    8  A    between atoms: C13_21  and  C14_22 
REMARK    9  A    between atoms: C13_21  and  N3_25 
REMARK   10  A    between atoms: C18_27  and  O5_28 
REMARK   11  A    between atoms: C19_30  and  C20_31 
REMARK   12  A    between atoms: C21_33  and  C22_34 
REMARK       I    between atoms: C22_34  and  N4_36 
ROOT
HETATM    1  C11 UNL     1      10.323  20.893  18.012  1.00  0.00     0.247 C 
HETATM    2  O3  UNL     1      10.938  19.775  18.061  1.00  0.00    -0.271 OA
HETATM    3  N2  UNL     1      10.708  21.822  19.007  1.00  0.00    -0.294 N 
ATOM      4  H2  UNL     1      10.222  22.719  19.029  1.00  0.00     0.171 HD
HETATM    5  C12 UNL     1      11.710  21.605  19.968  1.00  0.00     0.258 C 
HETATM    6  O4  UNL     1      12.351  20.550  20.023  1.00  0.00    -0.271 OA
ENDROOT
BRANCH   5   7
HETATM    7  C13 UNL     1      12.018  22.724  20.986  1.00  0.00     0.319 C 
BRANCH   7   8
HETATM    8  C14 UNL     1      11.307  22.261  22.206  1.00  0.00     0.020 C 
HETATM    9  C15 UNL     1      10.405  23.201  22.925  1.00  0.00     0.012 C 
HETATM   10  C16 UNL     1      12.250  21.566  23.190  1.00  0.00     0.012 C 
ENDBRANCH   7   8
BRANCH   7  11
HETATM   11  N3  UNL     1      13.409  22.946  20.984  1.00  0.00     0.119 N 
HETATM   12  C17 UNL     1      13.872  23.221  19.604  1.00  0.00     0.307 C 
HETATM   13  C18 UNL     1      13.907  24.756  19.606  1.00  0.00     0.159 C 
HETATM   14  C19 UNL     1      14.711  24.957  20.866  1.00  0.00     0.120 C 
HETATM   15  C21 UNL     1      13.983  23.912  21.801  1.00  0.00     0.328 C 
BRANCH  13  16
HETATM   16  O5  UNL     1      14.498  25.262  18.477  1.00  0.00    -0.393 OA
ATOM     17  H5  UNL     1      14.460  26.211  18.447  1.00  0.00     0.210 HD
ENDBRANCH  13  16
BRANCH  14  18
HETATM   18  C20 UNL     1      14.598  26.300  21.448  1.00  0.00     0.241 C 
HETATM   19  O6  UNL     1      15.301  27.224  21.081  1.00  0.00    -0.306 OA
ENDBRANCH  14  18
BRANCH  15  20
HETATM   20  C22 UNL     1      14.944  23.517  22.832  1.00  0.00     0.256 C 
HETATM   21  O7  UNL     1      15.801  22.617  22.461  1.00  0.00    -0.271 OA
HETATM   22  N4  UNL     1      15.058  23.969  24.131  1.00  0.00    -0.327 N 
HETATM   23  C23 UNL     1      16.100  23.498  25.097  1.00  0.00     0.154 C 
HETATM   24  C25 UNL     1      14.337  24.904  24.954  1.00  0.00     0.296 C 
HETATM   25  C24 UNL     1      15.225  23.347  26.323  1.00  0.00     0.190 C 
HETATM   26  O8  UNL     1      14.230  24.307  26.211  1.00  0.00    -0.370 OA
ENDBRANCH  15  20
ENDBRANCH   7  11
ENDBRANCH   5   7
BRANCH   1  27
HETATM   27  C5  UNL     1       9.299  21.150  16.988  1.00  0.00     0.179 C 
BRANCH  27  28
HETATM   28  C4  UNL     1       8.939  20.020  16.104  1.00  0.00     0.038 C 
BRANCH  28  29
HETATM   29  C2  UNL     1       7.963  20.121  15.034  1.00  0.00    -0.020 C 
HETATM   30  C1  UNL     1       6.522  20.037  15.296  1.00  0.00     0.009 C 
HETATM   31  C3  UNL     1       8.226  21.470  14.322  1.00  0.00     0.009 C 
ENDBRANCH  28  29
ENDBRANCH  27  28
BRANCH  27  32
HETATM   32  N1  UNL     1       8.046  21.378  17.763  1.00  0.00    -0.324 N 
HETATM   33  C6  UNL     1       7.661  22.671  18.186  1.00  0.00     0.362 C 
HETATM   34  O1  UNL     1       8.349  23.691  17.941  1.00  0.00    -0.238 OA
ATOM     35  H1  UNL     1       7.452  20.583  17.994  1.00  0.00     0.165 HD
BRANCH  33  36
HETATM   36  O2  UNL     1       6.486  22.845  18.897  1.00  0.00    -0.294 OA
BRANCH  36  37
HETATM   37  C7  UNL     1       6.523  22.727  20.314  1.00  0.00     0.061 C 
HETATM   38  C8  UNL     1       6.725  24.126  20.914  1.00  0.00     0.046 C 
HETATM   39  C9  UNL     1       7.608  21.825  20.801  1.00  0.00     0.046 C 
HETATM   40  C10 UNL     1       5.197  22.185  20.790  1.00  0.00     0.046 C 
ENDBRANCH  36  37
ENDBRANCH  33  36
ENDBRANCH  27  32
ENDBRANCH   1  27
TORSDOF 12
ENDMDL
MODEL 2
REMARK VINA RESULT: -6.966849541      2.303      5.086
REMARK  12 active torsions:
REMARK  status: ('A' for Active; 'I' for Inactive)
REMARK    1  A    between atoms: C2_2  and  C4_4 
REMARK    2  A    between atoms: C4_4  and  C5_5 
REMARK    3  A    between atoms: C5_5  and  N1_6 
REMARK    4  A    between atoms: C5_5  and  C11_15 
REMARK       I    between atoms: N1_6  and  C6_8 
REMARK    5  A    between atoms: C6_8  and  O2_10 
REMARK    6  A    between atoms: O2_10  and  C7_11 
REMARK       I    between atoms: C11_15  and  N2_17 
REMARK       I    between atoms: N2_17  and  C12_19 
REMARK    7  A    between atoms: C12_19  and  C13_21 
REMARK    8  A    between atoms: C13_21  and  C14_22 
REMARK    9  A    between atoms: C13_21  and  N3_25 
REMARK   10  A    between atoms: C18_27  and  O5_28 
REMARK   11  A    between atoms: C19_30  and  C20_31 
REMARK   12  A    between atoms: C21_33  and  C22_34 
REMARK       I    between atoms: C22_34  and  N4_36 
ROOT
HETATM    1  C11 UNL     1       6.857  22.852  19.888  1.00  0.00     0.247 C 
HETATM    2  O3  UNL     1       6.408  24.040  20.024  1.00  0.00    -0.271 OA
HETATM    3  N2  UNL     1       8.205  22.683  20.287  1.00  0.00    -0.294 N 
ATOM      4  H2  UNL     1       8.619  21.758  20.166  1.00  0.00     0.171 HD
HETATM    5  C12 UNL     1       9.015  23.690  20.836  1.00  0.00     0.258 C 
HETATM    6  O4  UNL     1       8.603  24.841  21.015  1.00  0.00    -0.271 OA
ENDROOT
BRANCH   5   7
HETATM    7  C13 UNL     1      10.468  23.344  21.226  1.00  0.00     0.319 C 
BRANCH   7   8
HETATM    8  C14 UNL     1      11.263  24.051  20.189  1.00  0.00     0.020 C 
HETATM    9  C15 UNL     1      10.574  24.600  18.991  1.00  0.00     0.012 C 
HETATM   10  C16 UNL     1      12.503  23.254  19.776  1.00  0.00     0.012 C 
ENDBRANCH   7   8
BRANCH   7  11
HETATM   11  N3  UNL     1      10.631  23.625  22.597  1.00  0.00     0.119 N 
HETATM   12  C17 UNL     1       9.764  22.730  23.399  1.00  0.00     0.307 C 
HETATM   13  C18 UNL     1      10.761  21.629  23.791  1.00  0.00     0.159 C 
HETATM   14  C19 UNL     1      11.863  22.509  24.326  1.00  0.00     0.120 C 
HETATM   15  C21 UNL     1      11.887  23.605  23.190  1.00  0.00     0.328 C 
BRANCH  13  16
HETATM   16  O5  UNL     1      10.237  20.760  24.714  1.00  0.00    -0.393 OA
ATOM     17  H5  UNL     1      10.499  19.862  24.550  1.00  0.00     0.210 HD
ENDBRANCH  13  16
BRANCH  14  18
HETATM   18  C20 UNL     1      13.174  21.853  24.407  1.00  0.00     0.241 C 
HETATM   19  O6  UNL     1      13.756  21.449  23.417  1.00  0.00    -0.306 OA
ENDBRANCH  14  18
BRANCH  15  20
HETATM   20  C22 UNL     1      12.431  24.827  23.785  1.00  0.00     0.256 C 
HETATM   21  O7  UNL     1      11.940  25.131  24.946  1.00  0.00    -0.271 OA
HETATM   22  N4  UNL     1      13.384  25.688  23.281  1.00  0.00    -0.327 N 
HETATM   23  C23 UNL     1      13.876  26.909  23.994  1.00  0.00     0.154 C 
HETATM   24  C25 UNL     1      14.152  25.764  22.066  1.00  0.00     0.296 C 
HETATM   25  C24 UNL     1      13.884  27.870  22.825  1.00  0.00     0.190 C 
HETATM   26  O8  UNL     1      14.158  27.109  21.698  1.00  0.00    -0.370 OA
ENDBRANCH  15  20
ENDBRANCH   7  11
ENDBRANCH   5   7
BRANCH   1  27
HETATM   27  C5  UNL     1       6.009  21.778  19.351  1.00  0.00     0.179 C 
BRANCH  27  28
HETATM   28  C4  UNL     1       4.567  21.839  19.674  1.00  0.00     0.038 C 
BRANCH  28  29
HETATM   29  C2  UNL     1       3.925  20.962  20.636  1.00  0.00    -0.020 C 
HETATM   30  C1  UNL     1       3.493  21.447  21.952  1.00  0.00     0.009 C 
HETATM   31  C3  UNL     1       2.680  20.369  19.931  1.00  0.00     0.009 C 
ENDBRANCH  28  29
ENDBRANCH  27  28
BRANCH  27  32
HETATM   32  N1  UNL     1       6.029  21.991  17.875  1.00  0.00    -0.324 N 
HETATM   33  C6  UNL     1       7.092  21.517  17.072  1.00  0.00     0.362 C 
HETATM   34  O1  UNL     1       8.074  20.901  17.551  1.00  0.00    -0.238 OA
ATOM     35  H1  UNL     1       5.257  22.490  17.434  1.00  0.00     0.165 HD
BRANCH  33  36
HETATM   36  O2  UNL     1       7.071  21.726  15.703  1.00  0.00    -0.294 OA
BRANCH  36  37
HETATM   37  C7  UNL     1       8.030  22.608  15.135  1.00  0.00     0.061 C 
HETATM   38  C8  UNL     1       9.001  21.785  14.277  1.00  0.00     0.046 C 
HETATM   39  C9  UNL     1       8.807  23.371  16.156  1.00  0.00     0.046 C 
HETATM   40  C10 UNL     1       7.315  23.592  14.242  1.00  0.00     0.046 C 
ENDBRANCH  36  37
ENDBRANCH  33  36
ENDBRANCH  27  32
ENDBRANCH   1  27
TORSDOF 12
ENDMDL
MODEL 3
REMARK VINA RESULT: -6.963857685      1.362      1.619
REMARK  12 active torsions:
REMARK  status: ('A' for Active; 'I' for Inactive)
REMARK    1  A    between atoms: C2_2  and  C4_4 
REMARK    2  A    between atoms: C4_4  and  C5_5 
REMARK    3  A    between atoms: C5_5  and  N1_6 
REMARK    4  A    between atoms: C5_5  and  C11_15 
REMARK       I    between atoms: N1_6  and  C6_8 
REMARK    5  A    between atoms: C6_8  and  O2_10 
REMARK    6  A    between atoms: O2_10  and  C7_11 
REMARK       I    between atoms: C11_15  and  N2_17 
REMARK       I    between atoms: N2_17  and  C12_19 
REMARK    7  A    between atoms: C12_19  and  C13_21 
REMARK    8  A    between atoms: C13_21  and  C14_22 
REMARK    9  A    between atoms: C13_21  and  N3_25 
REMARK   10  A    between atoms: C18_27  and  O5_28 
REMARK   11  A    between atoms: C19_30  and  C20_31 
REMARK   12  A    between atoms: C21_33  and  C22_34 
REMARK       I    between atoms: C22_34  and  N4_36 
ROOT
HETATM    1  C11 UNL     1       8.814  21.882  18.067  1.00  0.00     0.247 C 
HETATM    2  O3  UNL     1       9.504  20.850  17.765  1.00  0.00    -0.271 OA
HETATM    3  N2  UNL     1       9.359  22.672  19.107  1.00  0.00    -0.294 N 
ATOM      4  H2  UNL     1       8.827  23.490  19.405  1.00  0.00     0.171 HD
HETATM    5  C12 UNL     1      10.577  22.416  19.759  1.00  0.00     0.258 C 
HETATM    6  O4  UNL     1      11.288  21.448  19.469  1.00  0.00    -0.271 OA
ENDROOT
BRANCH   5   7
HETATM    7  C13 UNL     1      11.038  23.380  20.874  1.00  0.00     0.319 C 
BRANCH   7   8
HETATM    8  C14 UNL     1      10.133  23.035  22.000  1.00  0.00     0.020 C 
HETATM    9  C15 UNL     1       9.699  24.103  22.941  1.00  0.00     0.012 C 
HETATM   10  C16 UNL     1      10.621  21.807  22.773  1.00  0.00     0.012 C 
ENDBRANCH   7   8
BRANCH   7  11
HETATM   11  N3  UNL     1      12.437  23.270  20.994  1.00  0.00     0.119 N 
HETATM   12  C17 UNL     1      13.068  23.401  19.660  1.00  0.00     0.307 C 
HETATM   13  C18 UNL     1      13.462  24.885  19.665  1.00  0.00     0.159 C 
HETATM   14  C19 UNL     1      14.180  24.918  20.991  1.00  0.00     0.120 C 
HETATM   15  C21 UNL     1      13.151  24.092  21.858  1.00  0.00     0.328 C 
BRANCH  13  16
HETATM   16  O5  UNL     1      14.249  25.216  18.592  1.00  0.00    -0.393 OA
ATOM     17  H5  UNL     1      14.436  26.147  18.557  1.00  0.00     0.210 HD
ENDBRANCH  13  16
BRANCH  14  18
HETATM   18  C20 UNL     1      14.336  26.263  21.561  1.00  0.00     0.241 C 
HETATM   19  O6  UNL     1      15.092  27.086  21.076  1.00  0.00    -0.306 OA
ENDBRANCH  14  18
BRANCH  15  20
HETATM   20  C22 UNL     1      13.900  23.505  22.969  1.00  0.00     0.256 C 
HETATM   21  O7  UNL     1      14.811  22.650  22.620  1.00  0.00    -0.271 OA
HETATM   22  N4  UNL     1      13.769  23.737  24.324  1.00  0.00    -0.327 N 
HETATM   23  C23 UNL     1      14.611  23.082  25.375  1.00  0.00     0.154 C 
HETATM   24  C25 UNL     1      12.907  24.548  25.142  1.00  0.00     0.296 C 
HETATM   25  C24 UNL     1      13.521  22.763  26.375  1.00  0.00     0.190 C 
HETATM   26  O8  UNL     1      12.565  23.760  26.241  1.00  0.00    -0.370 OA
ENDBRANCH  15  20
ENDBRANCH   7  11
ENDBRANCH   5   7
BRANCH   1  27
HETATM   27  C5  UNL     1       7.556  22.184  17.366  1.00  0.00     0.179 C 
BRANCH  27  28
HETATM   28  C4  UNL     1       7.270  21.407  16.141  1.00  0.00     0.038 C 
BRANCH  28  29
HETATM   29  C2  UNL     1       7.519  21.906  14.800  1.00  0.00    -0.020 C 
HETATM   30  C1  UNL     1       7.588  23.344  14.515  1.00  0.00     0.009 C 
HETATM   31  C3  UNL     1       8.856  21.278  14.337  1.00  0.00     0.009 C 
ENDBRANCH  28  29
ENDBRANCH  27  28
BRANCH  27  32
HETATM   32  N1  UNL     1       6.489  21.731  18.305  1.00  0.00    -0.324 N 
HETATM   33  C6  UNL     1       6.003  22.570  19.333  1.00  0.00     0.362 C 
HETATM   34  O1  UNL     1       6.440  23.730  19.519  1.00  0.00    -0.238 OA
ATOM     35  H1  UNL     1       6.101  20.794  18.202  1.00  0.00     0.165 HD
BRANCH  33  36
HETATM   36  O2  UNL     1       5.005  22.117  20.180  1.00  0.00    -0.294 OA
BRANCH  36  37
HETATM   37  C7  UNL     1       5.354  21.749  21.508  1.00  0.00     0.061 C 
HETATM   38  C8  UNL     1       5.587  23.029  22.323  1.00  0.00     0.046 C 
HETATM   39  C9  UNL     1       6.576  20.894  21.581  1.00  0.00     0.046 C 
HETATM   40  C10 UNL     1       4.201  20.992  22.121  1.00  0.00     0.046 C 
ENDBRANCH  36  37
ENDBRANCH  33  36
ENDBRANCH  27  32
ENDBRANCH   1  27
TORSDOF 12
ENDMDL
MODEL 4
REMARK VINA RESULT: -6.915864368      5.460     10.540
REMARK  12 active torsions:
REMARK  status: ('A' for Active; 'I' for Inactive)
REMARK    1  A    between atoms: C2_2  and  C4_4 
REMARK    2  A    between atoms: C4_4  and  C5_5 
REMARK    3  A    between atoms: C5_5  and  N1_6 
REMARK    4  A    between atoms: C5_5  and  C11_15 
REMARK       I    between atoms: N1_6  and  C6_8 
REMARK    5  A    between atoms: C6_8  and  O2_10 
REMARK    6  A    between atoms: O2_10  and  C7_11 
REMARK       I    between atoms: C11_15  and  N2_17 
REMARK       I    between atoms: N2_17  and  C12_19 
REMARK    7  A    between atoms: C12_19  and  C13_21 
REMARK    8  A    between atoms: C13_21  and  C14_22 
REMARK    9  A    between atoms: C13_21  and  N3_25 
REMARK   10  A    between atoms: C18_27  and  O5_28 
REMARK   11  A    between atoms: C19_30  and  C20_31 
REMARK   12  A    between atoms: C21_33  and  C22_34 
REMARK       I    between atoms: C22_34  and  N4_36 
ROOT
HETATM    1  C11 UNL     1       6.255  22.106  20.661  1.00  0.00     0.247 C 
HETATM    2  O3  UNL     1       7.014  21.296  21.294  1.00  0.00    -0.271 OA
HETATM    3  N2  UNL     1       4.879  21.986  20.968  1.00  0.00    -0.294 N 
ATOM      4  H2  UNL     1       4.229  22.589  20.464  1.00  0.00     0.171 HD
HETATM    5  C12 UNL     1       4.339  21.100  21.916  1.00  0.00     0.258 C 
HETATM    6  O4  UNL     1       5.046  20.329  22.573  1.00  0.00    -0.271 OA
ENDROOT
BRANCH   5   7
HETATM    7  C13 UNL     1       2.811  21.094  22.140  1.00  0.00     0.319 C 
BRANCH   7   8
HETATM    8  C14 UNL     1       2.323  20.214  21.047  1.00  0.00     0.020 C 
HETATM    9  C15 UNL     1       2.861  20.392  19.672  1.00  0.00     0.012 C 
HETATM   10  C16 UNL     1       0.795  20.131  21.017  1.00  0.00     0.012 C 
ENDBRANCH   7   8
BRANCH   7  11
HETATM   11  N3  UNL     1       2.570  20.789  23.494  1.00  0.00     0.119 N 
HETATM   12  C17 UNL     1       2.560  22.035  24.296  1.00  0.00     0.307 C 
HETATM   13  C18 UNL     1       1.053  22.319  24.379  1.00  0.00     0.159 C 
HETATM   14  C19 UNL     1       0.598  20.960  24.849  1.00  0.00     0.120 C 
HETATM   15  C21 UNL     1       1.454  20.056  23.878  1.00  0.00     0.328 C 
BRANCH  13  16
HETATM   16  O5  UNL     1       0.765  23.340  25.249  1.00  0.00    -0.393 OA
ATOM     17  H5  UNL     1       0.085  23.102  25.868  1.00  0.00     0.210 HD
ENDBRANCH  13  16
BRANCH  14  18
HETATM   18  C20 UNL     1      -0.831  20.695  24.638  1.00  0.00     0.241 C 
HETATM   19  O6  UNL     1      -1.688  21.511  24.922  1.00  0.00    -0.306 OA
ENDBRANCH  14  18
BRANCH  15  20
HETATM   20  C22 UNL     1       1.625  18.761  24.537  1.00  0.00     0.256 C 
HETATM   21  O7  UNL     1       1.107  17.755  23.903  1.00  0.00    -0.271 OA
HETATM   22  N4  UNL     1       2.255  18.470  25.731  1.00  0.00    -0.327 N 
HETATM   23  C23 UNL     1       2.381  17.092  26.301  1.00  0.00     0.154 C 
HETATM   24  C25 UNL     1       2.920  19.240  26.748  1.00  0.00     0.296 C 
HETATM   25  C24 UNL     1       2.056  17.411  27.744  1.00  0.00     0.190 C 
HETATM   26  O8  UNL     1       2.507  18.704  27.968  1.00  0.00    -0.370 OA
ENDBRANCH  15  20
ENDBRANCH   7  11
ENDBRANCH   5   7
BRANCH   1  27
HETATM   27  C5  UNL     1       6.810  23.065  19.695  1.00  0.00     0.179 C 
BRANCH  27  28
HETATM   28  C4  UNL     1       7.934  23.907  20.158  1.00  0.00     0.038 C 
BRANCH  28  29
HETATM   29  C2  UNL     1       9.324  23.635  19.836  1.00  0.00    -0.020 C 
HETATM   30  C1  UNL     1      10.146  24.601  19.097  1.00  0.00     0.009 C 
HETATM   31  C3  UNL     1      10.040  23.349  21.178  1.00  0.00     0.009 C 
ENDBRANCH  28  29
ENDBRANCH  27  28
BRANCH  27  32
HETATM   32  N1  UNL     1       7.442  22.213  18.645  1.00  0.00    -0.324 N 
HETATM   33  C6  UNL     1       6.783  21.927  17.428  1.00  0.00     0.362 C 
HETATM   34  O1  UNL     1       5.637  22.362  17.165  1.00  0.00    -0.238 OA
ATOM     35  H1  UNL     1       8.372  21.829  18.810  1.00  0.00     0.165 HD
BRANCH  33  36
HETATM   36  O2  UNL     1       7.405  21.139  16.474  1.00  0.00    -0.294 OA
BRANCH  36  37
HETATM   37  C7  UNL     1       8.545  21.659  15.801  1.00  0.00     0.061 C 
HETATM   38  C8  UNL     1       9.800  20.989  16.379  1.00  0.00     0.046 C 
HETATM   39  C9  UNL     1       8.679  23.140  15.927  1.00  0.00     0.046 C 
HETATM   40  C10 UNL     1       8.444  21.308  14.336  1.00  0.00     0.046 C 
ENDBRANCH  36  37
ENDBRANCH  33  36
ENDBRANCH  27  32
ENDBRANCH   1  27
TORSDOF 12
ENDMDL
MODEL 5
REMARK VINA RESULT: -6.895561347      3.298      7.957
REMARK  12 active torsions:
REMARK  status: ('A' for Active; 'I' for Inactive)
REMARK    1  A    between atoms: C2_2  and  C4_4 
REMARK    2  A    between atoms: C4_4  and  C5_5 
REMARK    3  A    between atoms: C5_5  and  N1_6 
REMARK    4  A    between atoms: C5_5  and  C11_15 
REMARK       I    between atoms: N1_6  and  C6_8 
REMARK    5  A    between atoms: C6_8  and  O2_10 
REMARK    6  A    between atoms: O2_10  and  C7_11 
REMARK       I    between atoms: C11_15  and  N2_17 
REMARK       I    between atoms: N2_17  and  C12_19 
REMARK    7  A    between atoms: C12_19  and  C13_21 
REMARK    8  A    between atoms: C13_21  and  C14_22 
REMARK    9  A    between atoms: C13_21  and  N3_25 
REMARK   10  A    between atoms: C18_27  and  O5_28 
REMARK   11  A    between atoms: C19_30  and  C20_31 
REMARK   12  A    between atoms: C21_33  and  C22_34 
REMARK       I    between atoms: C22_34  and  N4_36 
ROOT
HETATM    1  C11 UNL     1      10.699  23.644  22.401  1.00  0.00     0.247 C 
HETATM    2  O3  UNL     1      11.873  24.146  22.361  1.00  0.00    -0.271 OA
HETATM    3  N2  UNL     1      10.240  23.118  21.170  1.00  0.00    -0.294 N 
ATOM      4  H2  UNL     1       9.295  22.736  21.144  1.00  0.00     0.171 HD
HETATM    5  C12 UNL     1      10.987  23.084  19.980  1.00  0.00     0.258 C 
HETATM    6  O4  UNL     1      12.138  23.527  19.913  1.00  0.00    -0.271 OA
ENDROOT
BRANCH   5   7
HETATM    7  C13 UNL     1      10.344  22.470  18.718  1.00  0.00     0.319 C 
BRANCH   7   8
HETATM    8  C14 UNL     1      10.482  21.010  18.957  1.00  0.00     0.020 C 
HETATM    9  C15 UNL     1      11.493  20.524  19.935  1.00  0.00     0.012 C 
HETATM   10  C16 UNL     1      10.581  20.222  17.648  1.00  0.00     0.012 C 
ENDBRANCH   7   8
BRANCH   7  11
HETATM   11  N3  UNL     1       9.083  23.070  18.535  1.00  0.00     0.119 N 
HETATM   12  C17 UNL     1       9.062  23.815  17.255  1.00  0.00     0.307 C 
HETATM   13  C18 UNL     1       8.398  22.786  16.326  1.00  0.00     0.159 C 
HETATM   14  C19 UNL     1       7.199  22.459  17.180  1.00  0.00     0.120 C 
HETATM   15  C21 UNL     1       7.916  22.317  18.580  1.00  0.00     0.328 C 
BRANCH  13  16
HETATM   16  O5  UNL     1       8.087  23.319  15.101  1.00  0.00    -0.393 OA
ATOM     17  H5  UNL     1       8.741  23.941  14.804  1.00  0.00     0.210 HD
ENDBRANCH  13  16
BRANCH  14  18
HETATM   18  C20 UNL     1       6.537  21.195  16.835  1.00  0.00     0.241 C 
HETATM   19  O6  UNL     1       6.737  20.630  15.775  1.00  0.00    -0.306 OA
ENDBRANCH  14  18
BRANCH  15  20
HETATM   20  C22 UNL     1       6.910  22.593  19.607  1.00  0.00     0.256 C 
HETATM   21  O7  UNL     1       6.084  23.550  19.316  1.00  0.00    -0.271 OA
HETATM   22  N4  UNL     1       6.726  21.980  20.830  1.00  0.00    -0.327 N 
HETATM   23  C23 UNL     1       5.643  22.342  21.798  1.00  0.00     0.154 C 
HETATM   24  C25 UNL     1       7.393  20.933  21.558  1.00  0.00     0.296 C 
HETATM   25  C24 UNL     1       6.457  22.316  23.073  1.00  0.00     0.190 C 
HETATM   26  O8  UNL     1       7.445  21.360  22.885  1.00  0.00    -0.370 OA
ENDBRANCH  15  20
ENDBRANCH   7  11
ENDBRANCH   5   7
BRANCH   1  27
HETATM   27  C5  UNL     1       9.920  23.639  23.648  1.00  0.00     0.179 C 
BRANCH  27  28
HETATM   28  C4  UNL     1      10.478  22.871  24.783  1.00  0.00     0.038 C 
BRANCH  28  29
HETATM   29  C2  UNL     1       9.852  21.679  25.327  1.00  0.00    -0.020 C 
HETATM   30  C1  UNL     1      10.619  20.687  26.089  1.00  0.00     0.009 C 
HETATM   31  C3  UNL     1       8.693  22.164  26.232  1.00  0.00     0.009 C 
ENDBRANCH  28  29
ENDBRANCH  27  28
BRANCH  27  32
HETATM   32  N1  UNL     1       9.986  25.047  24.135  1.00  0.00    -0.324 N 
HETATM   33  C6  UNL     1       8.867  25.683  24.720  1.00  0.00     0.362 C 
HETATM   34  O1  UNL     1       7.762  25.107  24.857  1.00  0.00    -0.238 OA
ATOM     35  H1  UNL     1      10.860  25.564  24.043  1.00  0.00     0.165 HD
BRANCH  33  36
HETATM   36  O2  UNL     1       8.970  26.989  25.167  1.00  0.00    -0.294 OA
BRANCH  36  37
HETATM   37  C7  UNL     1       9.627  27.235  26.404  1.00  0.00     0.061 C 
HETATM   38  C8  UNL     1      11.056  27.712  26.111  1.00  0.00     0.046 C 
HETATM   39  C9  UNL     1       9.685  26.034  27.290  1.00  0.00     0.046 C 
HETATM   40  C10 UNL     1       8.893  28.334  27.133  1.00  0.00     0.046 C 
ENDBRANCH  36  37
ENDBRANCH  33  36
ENDBRANCH  27  32
ENDBRANCH   1  27
TORSDOF 12
ENDMDL
