MODEL 1
REMARK VINA RESULT: -6.728753880      0.000      0.000
REMARK  4 active torsions:
REMARK  status: ('A' for Active; 'I' for Inactive)
REMARK    1  A    between atoms: C2_2  and  N1_4 
REMARK    2  A    between atoms: C10_11  and  O1_12 
REMARK    3  A    between atoms: C11_14  and  C12_15 
REMARK    4  A    between atoms: C12_15  and  O2_16 
ROOT
HETATM    1  N1  UNL     1      -5.336   2.420  16.710  1.00  0.00     0.092 N 
HETATM    2  C4  UNL     1      -6.332   3.062  15.891  1.00  0.00     0.273 C 
HETATM    3  C5  UNL     1      -5.893   3.084  14.450  1.00  0.00     0.040 C 
HETATM    4  C6  UNL     1      -4.534   3.747  14.305  1.00  0.00    -0.029 C 
HETATM    5  C7  UNL     1      -4.639   5.141  14.826  1.00  0.00     0.010 C 
HETATM    6  C8  UNL     1      -3.725   6.145  14.254  1.00  0.00     0.003 C 
HETATM    7  C9  UNL     1      -2.978   5.753  13.028  1.00  0.00     0.032 C 
HETATM    8  C10 UNL     1      -3.903   4.925  12.168  1.00  0.00     0.125 C 
HETATM    9  C11 UNL     1      -4.115   3.629  12.885  1.00  0.00     0.046 C 
HETATM   10  C13 UNL     1      -3.583   2.970  15.195  1.00  0.00     0.040 C 
HETATM   11  C14 UNL     1      -4.269   1.844  15.916  1.00  0.00     0.273 C 
ENDROOT
BRANCH   9  12
HETATM   12  C12 UNL     1      -5.031   2.785  12.035  1.00  0.00     0.172 C 
BRANCH  12  13
HETATM   13  O2  UNL     1      -4.804   3.127  10.684  1.00  0.00    -0.400 OA
ATOM     14  H2  UNL     1      -5.268   2.499  10.143  1.00  0.00     0.209 HD
ENDBRANCH  12  13
ENDBRANCH   9  12
BRANCH   8  15
HETATM   15  O1  UNL     1      -5.031   5.584  11.781  1.00  0.00    -0.395 OA
ATOM     16  H1  UNL     1      -5.036   5.827  10.862  1.00  0.00     0.210 HD
ENDBRANCH   8  15
BRANCH   1  17
HETATM   17  C2  UNL     1      -5.907   1.444  17.614  1.00  0.00     0.215 C 
HETATM   18  C1  UNL     1      -7.166   0.804  17.141  1.00  0.00     0.042 C 
HETATM   19  C3  UNL     1      -6.218   2.180  18.900  1.00  0.00     0.042 C 
ENDBRANCH   1  17
TORSDOF 4
ENDMDL
MODEL 2
REMARK VINA RESULT: -6.656870291      0.983      1.012
REMARK  4 active torsions:
REMARK  status: ('A' for Active; 'I' for Inactive)
REMARK    1  A    between atoms: C2_2  and  N1_4 
REMARK    2  A    between atoms: C10_11  and  O1_12 
REMARK    3  A    between atoms: C11_14  and  C12_15 
REMARK    4  A    between atoms: C12_15  and  O2_16 
ROOT
HETATM    1  N1  UNL     1      -5.207   2.038  16.655  1.00  0.00     0.092 N 
HETATM    2  C4  UNL     1      -5.886   3.047  15.883  1.00  0.00     0.273 C 
HETATM    3  C5  UNL     1      -5.501   2.946  14.430  1.00  0.00     0.040 C 
HETATM    4  C6  UNL     1      -3.994   3.027  14.258  1.00  0.00    -0.029 C 
HETATM    5  C7  UNL     1      -3.533   4.332  14.816  1.00  0.00     0.010 C 
HETATM    6  C8  UNL     1      -2.310   4.915  14.240  1.00  0.00     0.003 C 
HETATM    7  C9  UNL     1      -1.800   4.305  12.982  1.00  0.00     0.032 C 
HETATM    8  C10 UNL     1      -2.993   3.936  12.132  1.00  0.00     0.125 C 
HETATM    9  C11 UNL     1      -3.683   2.803  12.823  1.00  0.00     0.046 C 
HETATM   10  C13 UNL     1      -3.408   1.909  15.098  1.00  0.00     0.040 C 
HETATM   11  C14 UNL     1      -4.468   1.118  15.813  1.00  0.00     0.273 C 
ENDROOT
BRANCH   9  12
HETATM   12  C12 UNL     1      -4.874   2.417  11.982  1.00  0.00     0.172 C 
BRANCH  12  13
HETATM   13  O2  UNL     1      -4.497   2.523  10.625  1.00  0.00    -0.400 OA
ATOM     14  H2  UNL     1      -4.878   1.788  10.159  1.00  0.00     0.209 HD
ENDBRANCH  12  13
ENDBRANCH   9  12
BRANCH   8  15
HETATM   15  O1  UNL     1      -3.778   4.998  11.796  1.00  0.00    -0.395 OA
ATOM     16  H1  UNL     1      -4.705   4.848  11.936  1.00  0.00     0.210 HD
ENDBRANCH   8  15
BRANCH   1  17
HETATM   17  C2  UNL     1      -6.097   1.335  17.551  1.00  0.00     0.215 C 
HETATM   18  C1  UNL     1      -7.443   1.023  16.993  1.00  0.00     0.042 C 
HETATM   19  C3  UNL     1      -6.293   2.233  18.754  1.00  0.00     0.042 C 
ENDBRANCH   1  17
TORSDOF 4
ENDMDL
MODEL 3
REMARK VINA RESULT: -6.454918366      1.083      1.102
REMARK  4 active torsions:
REMARK  status: ('A' for Active; 'I' for Inactive)
REMARK    1  A    between atoms: C2_2  and  N1_4 
REMARK    2  A    between atoms: C10_11  and  O1_12 
REMARK    3  A    between atoms: C11_14  and  C12_15 
REMARK    4  A    between atoms: C12_15  and  O2_16 
ROOT
HETATM    1  N1  UNL     1      -5.305   2.424  16.461  1.00  0.00     0.092 N 
HETATM    2  C4  UNL     1      -6.023   2.961  15.333  1.00  0.00     0.273 C 
HETATM    3  C5  UNL     1      -5.150   2.959  14.105  1.00  0.00     0.040 C 
HETATM    4  C6  UNL     1      -3.854   3.711  14.356  1.00  0.00    -0.029 C 
HETATM    5  C7  UNL     1      -4.197   5.113  14.733  1.00  0.00     0.010 C 
HETATM    6  C8  UNL     1      -3.206   6.156  14.419  1.00  0.00     0.003 C 
HETATM    7  C9  UNL     1      -2.087   5.772  13.516  1.00  0.00     0.032 C 
HETATM    8  C10 UNL     1      -2.643   4.847  12.460  1.00  0.00     0.125 C 
HETATM    9  C11 UNL     1      -3.000   3.568  13.149  1.00  0.00     0.046 C 
HETATM   10  C13 UNL     1      -3.194   3.040  15.544  1.00  0.00     0.040 C 
HETATM   11  C14 UNL     1      -4.011   1.896  16.078  1.00  0.00     0.273 C 
ENDROOT
BRANCH   9  12
HETATM   12  C12 UNL     1      -3.550   2.628  12.106  1.00  0.00     0.172 C 
BRANCH  12  13
HETATM   13  O2  UNL     1      -2.808   1.429  12.169  1.00  0.00    -0.400 OA
ATOM     14  H2  UNL     1      -3.423   0.705  12.155  1.00  0.00     0.209 HD
ENDBRANCH  12  13
ENDBRANCH   9  12
BRANCH   8  15
HETATM   15  O1  UNL     1      -3.624   5.408  11.699  1.00  0.00    -0.395 OA
ATOM     16  H1  UNL     1      -4.427   4.902  11.675  1.00  0.00     0.210 HD
ENDBRANCH   8  15
BRANCH   1  17
HETATM   17  C2  UNL     1      -6.078   1.447  17.195  1.00  0.00     0.215 C 
HETATM   18  C1  UNL     1      -7.457   1.213  16.680  1.00  0.00     0.042 C 
HETATM   19  C3  UNL     1      -6.197   1.969  18.611  1.00  0.00     0.042 C 
ENDBRANCH   1  17
TORSDOF 4
ENDMDL
MODEL 4
REMARK VINA RESULT: -6.442679467      2.698      5.290
REMARK  4 active torsions:
REMARK  status: ('A' for Active; 'I' for Inactive)
REMARK    1  A    between atoms: C2_2  and  N1_4 
REMARK    2  A    between atoms: C10_11  and  O1_12 
REMARK    3  A    between atoms: C11_14  and  C12_15 
REMARK    4  A    between atoms: C12_15  and  O2_16 
ROOT
HETATM    1  N1  UNL     1      -4.361   5.161  14.099  1.00  0.00     0.092 N 
HETATM    2  C4  UNL     1      -3.581   4.587  15.166  1.00  0.00     0.273 C 
HETATM    3  C5  UNL     1      -3.833   3.105  15.263  1.00  0.00     0.040 C 
HETATM    4  C6  UNL     1      -5.314   2.813  15.429  1.00  0.00    -0.029 C 
HETATM    5  C7  UNL     1      -5.785   3.490  16.672  1.00  0.00     0.010 C 
HETATM    6  C8  UNL     1      -6.930   2.887  17.375  1.00  0.00     0.003 C 
HETATM    7  C9  UNL     1      -7.339   1.522  16.948  1.00  0.00     0.032 C 
HETATM    8  C10 UNL     1      -6.085   0.740  16.637  1.00  0.00     0.125 C 
HETATM    9  C11 UNL     1      -5.497   1.339  15.399  1.00  0.00     0.046 C 
HETATM   10  C13 UNL     1      -6.011   3.448  14.241  1.00  0.00     0.040 C 
HETATM   11  C14 UNL     1      -5.047   4.147  13.323  1.00  0.00     0.273 C 
ENDROOT
BRANCH   9  12
HETATM   12  C12 UNL     1      -4.247   0.564  15.069  1.00  0.00     0.172 C 
BRANCH  12  13
HETATM   13  O2  UNL     1      -4.558  -0.811  15.144  1.00  0.00    -0.400 OA
ATOM     14  H2  UNL     1      -4.336  -1.113  16.017  1.00  0.00     0.209 HD
ENDBRANCH  12  13
ENDBRANCH   9  12
BRANCH   8  15
HETATM   15  O1  UNL     1      -5.239   0.613  17.698  1.00  0.00    -0.395 OA
ATOM     16  H1  UNL     1      -5.076   1.429  18.158  1.00  0.00     0.210 HD
ENDBRANCH   8  15
BRANCH   1  17
HETATM   17  C2  UNL     1      -3.580   6.036  13.251  1.00  0.00     0.215 C 
HETATM   18  C1  UNL     1      -2.587   5.350  12.376  1.00  0.00     0.042 C 
HETATM   19  C3  UNL     1      -2.818   6.962  14.176  1.00  0.00     0.042 C 
ENDBRANCH   1  17
TORSDOF 4
ENDMDL
MODEL 5
REMARK VINA RESULT: -6.438895091      1.889      3.082
REMARK  4 active torsions:
REMARK  status: ('A' for Active; 'I' for Inactive)
REMARK    1  A    between atoms: C2_2  and  N1_4 
REMARK    2  A    between atoms: C10_11  and  O1_12 
REMARK    3  A    between atoms: C11_14  and  C12_15 
REMARK    4  A    between atoms: C12_15  and  O2_16 
ROOT
HETATM    1  N1  UNL     1      -5.769   2.234  15.857  1.00  0.00     0.092 N 
HETATM    2  C4  UNL     1      -4.363   2.019  16.087  1.00  0.00     0.273 C 
HETATM    3  C5  UNL     1      -3.547   3.062  15.369  1.00  0.00     0.040 C 
HETATM    4  C6  UNL     1      -3.876   3.088  13.887  1.00  0.00    -0.029 C 
HETATM    5  C7  UNL     1      -3.583   1.738  13.323  1.00  0.00     0.010 C 
HETATM    6  C8  UNL     1      -3.216   1.669  11.898  1.00  0.00     0.003 C 
HETATM    7  C9  UNL     1      -2.902   2.956  11.220  1.00  0.00     0.032 C 
HETATM    8  C10 UNL     1      -2.151   3.823  12.203  1.00  0.00     0.125 C 
HETATM    9  C11 UNL     1      -3.126   4.211  13.270  1.00  0.00     0.046 C 
HETATM   10  C13 UNL     1      -5.368   3.340  13.785  1.00  0.00     0.040 C 
HETATM   11  C14 UNL     1      -6.017   3.467  15.134  1.00  0.00     0.273 C 
ENDROOT
BRANCH   9  12
HETATM   12  C12 UNL     1      -2.394   5.086  14.256  1.00  0.00     0.172 C 
BRANCH  12  13
HETATM   13  O2  UNL     1      -1.576   5.974  13.522  1.00  0.00    -0.400 OA
ATOM     14  H2  UNL     1      -1.196   6.593  14.135  1.00  0.00     0.209 HD
ENDBRANCH  12  13
ENDBRANCH   9  12
BRANCH   8  15
HETATM   15  O1  UNL     1      -0.980   3.278  12.634  1.00  0.00    -0.395 OA
ATOM     16  H1  UNL     1      -0.236   3.480  12.079  1.00  0.00     0.210 HD
ENDBRANCH   8  15
BRANCH   1  17
HETATM   17  C2  UNL     1      -6.546   2.171  17.075  1.00  0.00     0.215 C 
HETATM   18  C1  UNL     1      -5.784   1.773  18.292  1.00  0.00     0.042 C 
HETATM   19  C3  UNL     1      -7.623   1.132  16.845  1.00  0.00     0.042 C 
ENDBRANCH   1  17
TORSDOF 4
ENDMDL
