MODEL 1
REMARK VINA RESULT: -7.228059392      0.000      0.000
REMARK  2 active torsions:
REMARK  status: ('A' for Active; 'I' for Inactive)
REMARK    1  A    between atoms: N1_1  and  C1_5 
REMARK    2  A    between atoms: C1_5  and  C2_6 
ROOT
HETATM    1  C2  UNL     1      -4.613   0.994  12.261  1.00  0.00     0.016 C 
HETATM    2  C3  UNL     1      -4.461   1.632  10.906  1.00  0.00     0.008 C 
HETATM    3  C4  UNL     1      -4.546   3.140  10.965  1.00  0.00     0.033 C 
HETATM    4  C5  UNL     1      -3.686   3.712  12.054  1.00  0.00     0.186 C 
HETATM    5  C6  UNL     1      -2.821   2.605  12.595  1.00  0.00     0.038 C 
HETATM    6  C7  UNL     1      -3.736   1.597  13.311  1.00  0.00    -0.000 C 
HETATM    7  C8  UNL     1      -4.419   2.379  14.342  1.00  0.00     0.027 C 
HETATM    8  C9  UNL     1      -5.327   3.428  13.679  1.00  0.00     0.193 C 
HETATM    9  C10 UNL     1      -6.116   3.912  14.851  1.00  0.00     0.065 C 
HETATM   10  C11 UNL     1      -5.899   2.971  15.977  1.00  0.00     0.128 C 
HETATM   11  O1  UNL     1      -6.988   2.642  16.721  1.00  0.00    -0.385 OA
HETATM   12  C12 UNL     1      -6.538   1.867  17.799  1.00  0.00     0.168 C 
HETATM   13  C13 UNL     1      -5.834   0.622  17.377  1.00  0.00     0.027 C 
HETATM   14  C14 UNL     1      -4.751   0.874  16.335  1.00  0.00     0.010 C 
HETATM   15  C15 UNL     1      -5.345   1.721  15.266  1.00  0.00     0.021 C 
HETATM   16  N2  UNL     1      -4.453   4.383  13.088  1.00  0.00    -0.066 N 
ATOM     17  H21 UNL     1      -4.944   5.207  12.742  1.00  0.00     0.278 HD
ATOM     18  H22 UNL     1      -3.863   4.854  13.774  1.00  0.00     0.278 HD
ENDROOT
BRANCH   1  19
HETATM   19  C1  UNL     1      -4.207  -0.473  12.100  1.00  0.00     0.234 C 
BRANCH  19  20
HETATM   20  N1  UNL     1      -3.341  -0.658  10.955  1.00  0.00    -0.079 N 
ATOM     21  H13 UNL     1      -3.796  -0.366  10.090  1.00  0.00     0.274 HD
ATOM     22  H12 UNL     1      -2.568   0.009  10.958  1.00  0.00     0.274 HD
ATOM     23  H11 UNL     1      -3.005  -1.619  10.895  1.00  0.00     0.274 HD
ENDBRANCH  19  20
ENDBRANCH   1  19
TORSDOF 2
ENDMDL
MODEL 2
REMARK VINA RESULT: -7.007524057      1.834      3.650
REMARK  2 active torsions:
REMARK  status: ('A' for Active; 'I' for Inactive)
REMARK    1  A    between atoms: N1_1  and  C1_5 
REMARK    2  A    between atoms: C1_5  and  C2_6 
ROOT
HETATM    1  C2  UNL     1      -3.396   4.743  14.325  1.00  0.00     0.016 C 
HETATM    2  C3  UNL     1      -2.415   4.928  13.198  1.00  0.00     0.008 C 
HETATM    3  C4  UNL     1      -2.252   3.677  12.365  1.00  0.00     0.033 C 
HETATM    4  C5  UNL     1      -3.573   3.073  11.987  1.00  0.00     0.186 C 
HETATM    5  C6  UNL     1      -4.656   4.047  12.365  1.00  0.00     0.038 C 
HETATM    6  C7  UNL     1      -4.695   4.139  13.900  1.00  0.00    -0.000 C 
HETATM    7  C8  UNL     1      -4.942   2.769  14.349  1.00  0.00     0.027 C 
HETATM    8  C9  UNL     1      -3.744   1.880  13.977  1.00  0.00     0.193 C 
HETATM    9  C10 UNL     1      -4.056   0.636  14.742  1.00  0.00     0.065 C 
HETATM   10  C11 UNL     1      -5.138   0.946  15.709  1.00  0.00     0.128 C 
HETATM   11  O1  UNL     1      -5.015   0.418  16.956  1.00  0.00    -0.385 OA
HETATM   12  C12 UNL     1      -6.196   0.715  17.652  1.00  0.00     0.168 C 
HETATM   13  C13 UNL     1      -6.467   2.177  17.758  1.00  0.00     0.027 C 
HETATM   14  C14 UNL     1      -6.369   2.900  16.421  1.00  0.00     0.010 C 
HETATM   15  C15 UNL     1      -5.094   2.484  15.778  1.00  0.00     0.021 C 
HETATM   16  N2  UNL     1      -3.777   1.755  12.559  1.00  0.00    -0.066 N 
ATOM     17  H21 UNL     1      -3.113   1.066  12.208  1.00  0.00     0.278 HD
ATOM     18  H22 UNL     1      -4.629   1.307  12.223  1.00  0.00     0.278 HD
ENDROOT
BRANCH   1  19
HETATM   19  C1  UNL     1      -3.689   6.139  14.882  1.00  0.00     0.234 C 
BRANCH  19  20
HETATM   20  N1  UNL     1      -2.646   7.078  14.524  1.00  0.00    -0.079 N 
ATOM     21  H13 UNL     1      -1.718   6.683  14.676  1.00  0.00     0.274 HD
ATOM     22  H12 UNL     1      -2.595   7.215  13.514  1.00  0.00     0.274 HD
ATOM     23  H11 UNL     1      -2.760   7.964  15.016  1.00  0.00     0.274 HD
ENDBRANCH  19  20
ENDBRANCH   1  19
TORSDOF 2
ENDMDL
MODEL 3
REMARK VINA RESULT: -6.993731788      1.392      3.317
REMARK  2 active torsions:
REMARK  status: ('A' for Active; 'I' for Inactive)
REMARK    1  A    between atoms: N1_1  and  C1_5 
REMARK    2  A    between atoms: C1_5  and  C2_6 
ROOT
HETATM    1  C2  UNL     1      -3.313   3.791  13.371  1.00  0.00     0.016 C 
HETATM    2  C3  UNL     1      -2.419   3.524  12.189  1.00  0.00     0.008 C 
HETATM    3  C4  UNL     1      -2.447   2.073  11.761  1.00  0.00     0.033 C 
HETATM    4  C5  UNL     1      -3.846   1.543  11.652  1.00  0.00     0.186 C 
HETATM    5  C6  UNL     1      -4.796   2.704  11.778  1.00  0.00     0.038 C 
HETATM    6  C7  UNL     1      -4.696   3.244  13.215  1.00  0.00    -0.000 C 
HETATM    7  C8  UNL     1      -5.031   2.103  14.067  1.00  0.00     0.027 C 
HETATM    8  C9  UNL     1      -3.960   1.011  13.915  1.00  0.00     0.193 C 
HETATM    9  C10 UNL     1      -4.322   0.090  15.033  1.00  0.00     0.065 C 
HETATM   10  C11 UNL     1      -5.282   0.792  15.919  1.00  0.00     0.128 C 
HETATM   11  O1  UNL     1      -5.104   0.641  17.258  1.00  0.00    -0.385 OA
HETATM   12  C12 UNL     1      -6.188   1.262  17.896  1.00  0.00     0.168 C 
HETATM   13  C13 UNL     1      -6.309   2.713  17.573  1.00  0.00     0.027 C 
HETATM   14  C14 UNL     1      -6.258   2.997  16.077  1.00  0.00     0.010 C 
HETATM   15  C15 UNL     1      -5.088   2.267  15.521  1.00  0.00     0.021 C 
HETATM   16  N2  UNL     1      -4.126   0.483  12.603  1.00  0.00    -0.066 N 
ATOM     17  H21 UNL     1      -3.562  -0.352  12.440  1.00  0.00     0.278 HD
ATOM     18  H22 UNL     1      -5.042   0.058  12.462  1.00  0.00     0.278 HD
ENDROOT
BRANCH   1  19
HETATM   19  C1  UNL     1      -3.424   5.312  13.498  1.00  0.00     0.234 C 
BRANCH  19  20
HETATM   20  N1  UNL     1      -3.947   5.696  14.793  1.00  0.00    -0.079 N 
ATOM     21  H13 UNL     1      -3.199   5.945  15.440  1.00  0.00     0.274 HD
ATOM     22  H12 UNL     1      -4.425   6.597  14.752  1.00  0.00     0.274 HD
ATOM     23  H11 UNL     1      -4.550   4.970  15.179  1.00  0.00     0.274 HD
ENDBRANCH  19  20
ENDBRANCH   1  19
TORSDOF 2
ENDMDL
MODEL 4
REMARK VINA RESULT: -6.973750405      1.267      1.516
REMARK  2 active torsions:
REMARK  status: ('A' for Active; 'I' for Inactive)
REMARK    1  A    between atoms: N1_1  and  C1_5 
REMARK    2  A    between atoms: C1_5  and  C2_6 
ROOT
HETATM    1  C2  UNL     1      -3.903   2.543  12.592  1.00  0.00     0.016 C 
HETATM    2  C3  UNL     1      -3.657   3.573  11.521  1.00  0.00     0.008 C 
HETATM    3  C4  UNL     1      -4.056   4.965  11.958  1.00  0.00     0.033 C 
HETATM    4  C5  UNL     1      -3.527   5.302  13.321  1.00  0.00     0.186 C 
HETATM    5  C6  UNL     1      -2.560   4.223  13.727  1.00  0.00     0.038 C 
HETATM    6  C7  UNL     1      -3.358   2.924  13.930  1.00  0.00    -0.000 C 
HETATM    7  C8  UNL     1      -4.350   3.252  14.955  1.00  0.00     0.027 C 
HETATM    8  C9  UNL     1      -5.327   4.307  14.410  1.00  0.00     0.193 C 
HETATM    9  C10 UNL     1      -6.384   4.297  15.464  1.00  0.00     0.065 C 
HETATM   10  C11 UNL     1      -6.174   3.103  16.320  1.00  0.00     0.128 C 
HETATM   11  O1  UNL     1      -7.284   2.411  16.691  1.00  0.00    -0.385 OA
HETATM   12  C12 UNL     1      -6.874   1.422  17.597  1.00  0.00     0.168 C 
HETATM   13  C13 UNL     1      -5.871   0.479  17.026  1.00  0.00     0.027 C 
HETATM   14  C14 UNL     1      -4.702   1.187  16.354  1.00  0.00     0.010 C 
HETATM   15  C15 UNL     1      -5.266   2.220  15.444  1.00  0.00     0.021 C 
HETATM   16  N2  UNL     1      -4.577   5.512  14.301  1.00  0.00    -0.066 N 
ATOM     17  H21 UNL     1      -5.160   6.321  14.085  1.00  0.00     0.278 HD
ATOM     18  H22 UNL     1      -4.220   5.837  15.199  1.00  0.00     0.278 HD
ENDROOT
BRANCH   1  19
HETATM   19  C1  UNL     1      -3.187   1.267  12.141  1.00  0.00     0.234 C 
BRANCH  19  20
HETATM   20  N1  UNL     1      -1.874   1.561  11.606  1.00  0.00    -0.079 N 
ATOM     21  H13 UNL     1      -1.934   2.005  10.690  1.00  0.00     0.274 HD
ATOM     22  H12 UNL     1      -1.422   2.319  12.118  1.00  0.00     0.274 HD
ATOM     23  H11 UNL     1      -1.289   0.726  11.579  1.00  0.00     0.274 HD
ENDBRANCH  19  20
ENDBRANCH   1  19
TORSDOF 2
ENDMDL
MODEL 5
REMARK VINA RESULT: -6.892747109      1.290      3.246
REMARK  2 active torsions:
REMARK  status: ('A' for Active; 'I' for Inactive)
REMARK    1  A    between atoms: N1_1  and  C1_5 
REMARK    2  A    between atoms: C1_5  and  C2_6 
ROOT
HETATM    1  C2  UNL     1      -3.134   2.933  11.936  1.00  0.00     0.016 C 
HETATM    2  C3  UNL     1      -2.232   2.090  11.074  1.00  0.00     0.008 C 
HETATM    3  C4  UNL     1      -2.382   0.612  11.357  1.00  0.00     0.033 C 
HETATM    4  C5  UNL     1      -3.821   0.189  11.403  1.00  0.00     0.186 C 
HETATM    5  C6  UNL     1      -4.662   1.339  10.916  1.00  0.00     0.038 C 
HETATM    6  C7  UNL     1      -4.556   2.473  11.950  1.00  0.00    -0.000 C 
HETATM    7  C8  UNL     1      -5.024   1.880  13.203  1.00  0.00     0.027 C 
HETATM    8  C9  UNL     1      -4.056   0.770  13.644  1.00  0.00     0.193 C 
HETATM    9  C10 UNL     1      -4.538   0.497  15.030  1.00  0.00     0.065 C 
HETATM   10  C11 UNL     1      -5.456   1.593  15.426  1.00  0.00     0.128 C 
HETATM   11  O1  UNL     1      -5.335   2.066  16.695  1.00  0.00    -0.385 OA
HETATM   12  C12 UNL     1      -6.375   2.984  16.899  1.00  0.00     0.168 C 
HETATM   13  C13 UNL     1      -6.349   4.126  15.941  1.00  0.00     0.027 C 
HETATM   14  C14 UNL     1      -6.224   3.684  14.489  1.00  0.00     0.010 C 
HETATM   15  C15 UNL     1      -5.111   2.701  14.413  1.00  0.00     0.021 C 
HETATM   16  N2  UNL     1      -4.229  -0.291  12.711  1.00  0.00    -0.066 N 
ATOM     17  H21 UNL     1      -3.741  -1.143  12.987  1.00  0.00     0.278 HD
ATOM     18  H22 UNL     1      -5.176  -0.669  12.715  1.00  0.00     0.278 HD
ENDROOT
BRANCH   1  19
HETATM   19  C1  UNL     1      -3.106   4.345  11.345  1.00  0.00     0.234 C 
BRANCH  19  20
HETATM   20  N1  UNL     1      -4.341   5.053  11.612  1.00  0.00    -0.079 N 
ATOM     21  H13 UNL     1      -4.172   6.040  11.805  1.00  0.00     0.274 HD
ATOM     22  H12 UNL     1      -4.905   5.153  10.768  1.00  0.00     0.274 HD
ATOM     23  H11 UNL     1      -4.867   4.610  12.364  1.00  0.00     0.274 HD
ENDBRANCH  19  20
ENDBRANCH   1  19
TORSDOF 2
ENDMDL
