MODEL 1
REMARK VINA RESULT: -5.411515062      0.000      0.000
REMARK  5 active torsions:
REMARK  status: ('A' for Active; 'I' for Inactive)
REMARK    1  A    between atoms: N1_2  and  C3_4 
REMARK    2  A    between atoms: C5_6  and  C6_7 
REMARK    3  A    between atoms: C6_7  and  S1_8 
REMARK    4  A    between atoms: S1_8  and  N2_9 
REMARK    5  A    between atoms: S1_8  and  N3_12 
ROOT
HETATM    1  C6  UNL     1      94.290 -39.772  14.358  1.00  0.00     0.111 C 
ENDROOT
BRANCH   1   2
HETATM    2  C5  UNL     1      95.636 -39.459  14.953  1.00  0.00     0.001 C 
HETATM    3  C4  UNL     1      96.292 -38.246  14.315  1.00  0.00     0.041 C 
HETATM    4  C3  UNL     1      97.566 -39.060  14.233  1.00  0.00     0.223 C 
HETATM    5  C7  UNL     1      96.707 -40.303  14.340  1.00  0.00     0.041 C 
BRANCH   4   6
HETATM    6  N1  UNL     1      98.432 -38.964  15.375  1.00  0.00     0.084 N 
HETATM    7  C1  UNL     1      99.708 -39.573  14.991  1.00  0.00     0.309 C 
HETATM    8  C2  UNL     1      98.735 -37.612  15.769  1.00  0.00     0.309 C 
ENDBRANCH   4   6
ENDBRANCH   1   2
BRANCH   1   9
HETATM    9  S1  UNL     1      93.784 -38.491  13.506  1.00  0.00    -0.043 SA
BRANCH   9  10
HETATM   10  N2  UNL     1      92.969 -37.574  14.217  1.00  0.00    -0.367 N 
ATOM     11  H22 UNL     1      92.993 -36.613  13.877  1.00  0.00     0.165 HD
ATOM     12  H21 UNL     1      92.112 -37.965  14.607  1.00  0.00     0.165 HD
ENDBRANCH   9  10
BRANCH   9  13
HETATM   13  N3  UNL     1      93.471 -38.625  11.989  1.00  0.00    -0.367 N 
ATOM     14  H32 UNL     1      92.849 -37.913  11.606  1.00  0.00     0.165 HD
ATOM     15  H31 UNL     1      93.402 -39.544  11.553  1.00  0.00     0.165 HD
ENDBRANCH   9  13
ENDBRANCH   1   9
TORSDOF 5
ENDMDL
MODEL 2
REMARK VINA RESULT: -5.408836611      1.285      1.959
REMARK  5 active torsions:
REMARK  status: ('A' for Active; 'I' for Inactive)
REMARK    1  A    between atoms: N1_2  and  C3_4 
REMARK    2  A    between atoms: C5_6  and  C6_7 
REMARK    3  A    between atoms: C6_7  and  S1_8 
REMARK    4  A    between atoms: S1_8  and  N2_9 
REMARK    5  A    between atoms: S1_8  and  N3_12 
ROOT
HETATM    1  C6  UNL     1      94.402 -40.848  13.151  1.00  0.00     0.111 C 
ENDROOT
BRANCH   1   2
HETATM    2  C5  UNL     1      95.648 -40.086  13.513  1.00  0.00     0.001 C 
HETATM    3  C4  UNL     1      96.596 -40.891  14.384  1.00  0.00     0.041 C 
HETATM    4  C3  UNL     1      96.724 -39.666  15.264  1.00  0.00     0.223 C 
HETATM    5  C7  UNL     1      95.410 -39.187  14.684  1.00  0.00     0.041 C 
BRANCH   4   6
HETATM    6  N1  UNL     1      97.777 -38.758  14.906  1.00  0.00     0.084 N 
HETATM    7  C1  UNL     1      97.650 -37.593  15.785  1.00  0.00     0.309 C 
HETATM    8  C2  UNL     1      99.102 -39.281  15.123  1.00  0.00     0.309 C 
ENDBRANCH   4   6
ENDBRANCH   1   2
BRANCH   1   9
HETATM    9  S1  UNL     1      93.176 -39.802  12.994  1.00  0.00    -0.043 SA
BRANCH   9  10
HETATM   10  N2  UNL     1      91.892 -40.323  13.295  1.00  0.00    -0.367 N 
ATOM     11  H22 UNL     1      91.882 -41.116  13.935  1.00  0.00     0.165 HD
ATOM     12  H21 UNL     1      91.136 -39.639  13.302  1.00  0.00     0.165 HD
ENDBRANCH   9  10
BRANCH   9  13
HETATM   13  N3  UNL     1      93.209 -38.705  11.892  1.00  0.00    -0.367 N 
ATOM     14  H32 UNL     1      93.862 -38.873  11.126  1.00  0.00     0.165 HD
ATOM     15  H31 UNL     1      93.063 -37.725  12.132  1.00  0.00     0.165 HD
ENDBRANCH   9  13
ENDBRANCH   1   9
TORSDOF 5
ENDMDL
MODEL 3
REMARK VINA RESULT: -5.385982694      0.715      1.494
REMARK  5 active torsions:
REMARK  status: ('A' for Active; 'I' for Inactive)
REMARK    1  A    between atoms: N1_2  and  C3_4 
REMARK    2  A    between atoms: C5_6  and  C6_7 
REMARK    3  A    between atoms: C6_7  and  S1_8 
REMARK    4  A    between atoms: S1_8  and  N2_9 
REMARK    5  A    between atoms: S1_8  and  N3_12 
ROOT
HETATM    1  C6  UNL     1      94.577 -39.559  14.165  1.00  0.00     0.111 C 
ENDROOT
BRANCH   1   2
HETATM    2  C5  UNL     1      96.056 -39.285  14.225  1.00  0.00     0.001 C 
HETATM    3  C4  UNL     1      96.755 -40.077  15.317  1.00  0.00     0.041 C 
HETATM    4  C3  UNL     1      97.457 -38.793  15.707  1.00  0.00     0.223 C 
HETATM    5  C7  UNL     1      96.344 -38.043  15.005  1.00  0.00     0.041 C 
BRANCH   4   6
HETATM    6  N1  UNL     1      98.706 -38.548  15.043  1.00  0.00     0.084 N 
HETATM    7  C1  UNL     1      99.367 -37.461  15.771  1.00  0.00     0.309 C 
HETATM    8  C2  UNL     1      99.617 -39.665  15.077  1.00  0.00     0.309 C 
ENDBRANCH   4   6
ENDBRANCH   1   2
BRANCH   1   9
HETATM    9  S1  UNL     1      93.864 -38.387  13.305  1.00  0.00    -0.043 SA
BRANCH   9  10
HETATM   10  N2  UNL     1      93.074 -37.480  14.055  1.00  0.00    -0.367 N 
ATOM     11  H22 UNL     1      93.415 -36.519  14.078  1.00  0.00     0.165 HD
ATOM     12  H21 UNL     1      92.074 -37.677  14.062  1.00  0.00     0.165 HD
ENDBRANCH   9  10
BRANCH   9  13
HETATM   13  N3  UNL     1      93.371 -38.659  11.855  1.00  0.00    -0.367 N 
ATOM     14  H32 UNL     1      94.014 -38.378  11.114  1.00  0.00     0.165 HD
ATOM     15  H31 UNL     1      92.381 -38.588  11.622  1.00  0.00     0.165 HD
ENDBRANCH   9  13
ENDBRANCH   1   9
TORSDOF 5
ENDMDL
MODEL 4
REMARK VINA RESULT: -5.205391345      1.993      2.326
REMARK  5 active torsions:
REMARK  status: ('A' for Active; 'I' for Inactive)
REMARK    1  A    between atoms: N1_2  and  C3_4 
REMARK    2  A    between atoms: C5_6  and  C6_7 
REMARK    3  A    between atoms: C6_7  and  S1_8 
REMARK    4  A    between atoms: S1_8  and  N2_9 
REMARK    5  A    between atoms: S1_8  and  N3_12 
ROOT
HETATM    1  C6  UNL     1      93.550 -41.205  14.516  1.00  0.00     0.111 C 
ENDROOT
BRANCH   1   2
HETATM    2  C5  UNL     1      94.371 -39.999  14.888  1.00  0.00     0.001 C 
HETATM    3  C4  UNL     1      94.935 -39.277  13.677  1.00  0.00     0.041 C 
HETATM    4  C3  UNL     1      96.262 -39.233  14.404  1.00  0.00     0.223 C 
HETATM    5  C7  UNL     1      95.768 -40.387  15.251  1.00  0.00     0.041 C 
BRANCH   4   6
HETATM    6  N1  UNL     1      96.473 -38.076  15.229  1.00  0.00     0.084 N 
HETATM    7  C1  UNL     1      97.846 -38.163  15.735  1.00  0.00     0.309 C 
HETATM    8  C2  UNL     1      96.387 -36.825  14.518  1.00  0.00     0.309 C 
ENDBRANCH   4   6
ENDBRANCH   1   2
BRANCH   1   9
HETATM    9  S1  UNL     1      92.930 -40.980  13.038  1.00  0.00    -0.043 SA
BRANCH   9  10
HETATM   10  N2  UNL     1      91.607 -40.471  13.007  1.00  0.00    -0.367 N 
ATOM     11  H22 UNL     1      91.332 -39.920  13.820  1.00  0.00     0.165 HD
ATOM     12  H21 UNL     1      91.250 -40.243  12.080  1.00  0.00     0.165 HD
ENDBRANCH   9  10
BRANCH   9  13
HETATM   13  N3  UNL     1      93.304 -41.934  11.869  1.00  0.00    -0.367 N 
ATOM     14  H32 UNL     1      93.209 -41.540  10.933  1.00  0.00     0.165 HD
ATOM     15  H31 UNL     1      93.125 -42.936  11.940  1.00  0.00     0.165 HD
ENDBRANCH   9  13
ENDBRANCH   1   9
TORSDOF 5
ENDMDL
MODEL 5
REMARK VINA RESULT: -5.162221589      1.273      1.293
REMARK  5 active torsions:
REMARK  status: ('A' for Active; 'I' for Inactive)
REMARK    1  A    between atoms: N1_2  and  C3_4 
REMARK    2  A    between atoms: C5_6  and  C6_7 
REMARK    3  A    between atoms: C6_7  and  S1_8 
REMARK    4  A    between atoms: S1_8  and  N2_9 
REMARK    5  A    between atoms: S1_8  and  N3_12 
ROOT
HETATM    1  C6  UNL     1      94.339 -41.033  14.572  1.00  0.00     0.111 C 
ENDROOT
BRANCH   1   2
HETATM    2  C5  UNL     1      95.521 -40.290  15.133  1.00  0.00     0.001 C 
HETATM    3  C4  UNL     1      95.741 -38.945  14.462  1.00  0.00     0.041 C 
HETATM    4  C3  UNL     1      97.208 -39.306  14.368  1.00  0.00     0.223 C 
HETATM    5  C7  UNL     1      96.798 -40.757  14.512  1.00  0.00     0.041 C 
BRANCH   4   6
HETATM    6  N1  UNL     1      98.013 -38.911  15.490  1.00  0.00     0.084 N 
HETATM    7  C1  UNL     1      99.395 -39.282  15.171  1.00  0.00     0.309 C 
HETATM    8  C2  UNL     1      98.025 -37.491  15.732  1.00  0.00     0.309 C 
ENDBRANCH   4   6
ENDBRANCH   1   2
BRANCH   1   9
HETATM    9  S1  UNL     1      93.792 -40.239  13.270  1.00  0.00    -0.043 SA
BRANCH   9  10
HETATM   10  N2  UNL     1      92.441 -39.815  13.343  1.00  0.00    -0.367 N 
ATOM     11  H22 UNL     1      92.287 -38.924  13.813  1.00  0.00     0.165 HD
ATOM     12  H21 UNL     1      91.855 -40.097  12.557  1.00  0.00     0.165 HD
ENDBRANCH   9  10
BRANCH   9  13
HETATM   13  N3  UNL     1      94.301 -40.607  11.848  1.00  0.00    -0.367 N 
ATOM     14  H32 UNL     1      94.013 -39.973  11.102  1.00  0.00     0.165 HD
ATOM     15  H31 UNL     1      94.409 -41.583  11.573  1.00  0.00     0.165 HD
ENDBRANCH   9  13
ENDBRANCH   1   9
TORSDOF 5
ENDMDL
