MODEL 1
REMARK VINA RESULT: -7.430359134      0.000      0.000
REMARK  13 active torsions:
REMARK  status: ('A' for Active; 'I' for Inactive)
REMARK    1  A    between atoms: O1_2  and  C2_3 
REMARK    2  A    between atoms: C4_5  and  N1_6 
REMARK    3  A    between atoms: N1_6  and  C5_8 
REMARK    4  A    between atoms: C8_15  and  N4_16 
REMARK    5  A    between atoms: N4_16  and  C9_18 
REMARK    6  A    between atoms: C9_18  and  C10_19 
REMARK    7  A    between atoms: C10_19  and  C11_20 
REMARK    8  A    between atoms: C11_20  and  O2_21 
REMARK    9  A    between atoms: C18_32  and  O3_33 
REMARK   10  A    between atoms: O3_33  and  C19_34 
REMARK   11  A    between atoms: C19_34  and  C20_35 
REMARK   12  A    between atoms: C20_35  and  C21_36 
REMARK   13  A    between atoms: C21_36  and  N6_37 
ROOT
HETATM    1  C2  UNL     1      38.869 -22.000  26.464  1.00  0.00     0.104 A 
HETATM    2  C3  UNL     1      38.791 -20.786  27.093  1.00  0.00     0.070 A 
HETATM    3  C4  UNL     1      39.451 -20.455  28.258  1.00  0.00     0.063 A 
HETATM    4  C12 UNL     1      40.260 -21.452  28.824  1.00  0.00     0.004 A 
HETATM    5  C13 UNL     1      40.966 -21.165  29.975  1.00  0.00     0.018 A 
HETATM    6  C14 UNL     1      41.804 -22.090  30.566  1.00  0.00     0.043 A 
HETATM    7  C15 UNL     1      41.908 -23.317  29.958  1.00  0.00     0.117 A 
HETATM    8  F1  UNL     1      42.733 -24.239  30.532  1.00  0.00    -0.206 F 
HETATM    9  C16 UNL     1      41.200 -23.595  28.812  1.00  0.00     0.057 A 
HETATM   10  C17 UNL     1      40.353 -22.683  28.205  1.00  0.00     0.015 A 
HETATM   11  C18 UNL     1      39.689 -22.987  27.057  1.00  0.00     0.113 A 
ENDROOT
BRANCH   3  12
HETATM   12  N1  UNL     1      39.378 -19.228  28.928  1.00  0.00    -0.190 N 
ATOM     13  H1  UNL     1      39.535 -19.241  29.936  1.00  0.00     0.184 HD
BRANCH  12  14
HETATM   14  C5  UNL     1      39.133 -18.088  28.393  1.00  0.00     0.698 A 
HETATM   15  N2  UNL     1      39.707 -17.667  27.254  1.00  0.00    -0.180 N 
HETATM   16  C6  UNL     1      39.377 -16.447  26.786  1.00  0.00     0.109 A 
ATOM     17  H2  UNL     1      40.376 -18.255  26.757  1.00  0.00     0.185 HD
HETATM   18  C7  UNL     1      40.026 -16.002  25.513  1.00  0.00     0.090 C 
HETATM   19  N3  UNL     1      38.509 -15.648  27.404  1.00  0.00    -0.180 N 
HETATM   20  C8  UNL     1      37.903 -16.046  28.572  1.00  0.00     0.694 A 
ATOM     21  H3  UNL     1      38.293 -14.733  27.008  1.00  0.00     0.185 HD
HETATM   22  N5  UNL     1      38.240 -17.256  29.020  1.00  0.00    -0.022 N 
ATOM     23  H5  UNL     1      37.808 -17.584  29.883  1.00  0.00     0.203 HD
BRANCH  20  24
HETATM   24  N4  UNL     1      37.080 -15.245  29.139  1.00  0.00    -0.225 N 
ATOM     25  H4  UNL     1      37.433 -14.718  29.937  1.00  0.00     0.177 HD
BRANCH  24  26
HETATM   26  C9  UNL     1      35.729 -15.014  28.774  1.00  0.00     0.140 C 
BRANCH  26  27
HETATM   27  C10 UNL     1      35.552 -13.509  28.582  1.00  0.00     0.046 C 
BRANCH  27  28
HETATM   28  C11 UNL     1      35.970 -13.184  27.169  1.00  0.00     0.165 C 
BRANCH  28  29
HETATM   29  O2  UNL     1      37.321 -12.828  27.221  1.00  0.00    -0.401 OA
ATOM     30  H2  UNL     1      37.578 -12.602  26.335  1.00  0.00     0.209 HD
ENDBRANCH  28  29
ENDBRANCH  27  28
ENDBRANCH  26  27
ENDBRANCH  24  26
ENDBRANCH  20  24
ENDBRANCH  12  14
ENDBRANCH   3  12
BRANCH   1  31
HETATM   31  O1  UNL     1      38.176 -22.267  25.286  1.00  0.00    -0.353 OA
HETATM   32  C1  UNL     1      36.762 -22.307  25.309  1.00  0.00     0.210 C 
ENDBRANCH   1  31
BRANCH  11  33
HETATM   33  O3  UNL     1      39.722 -24.177  26.379  1.00  0.00    -0.347 OA
BRANCH  33  34
HETATM   34  C19 UNL     1      40.599 -24.648  25.447  1.00  0.00     0.177 C 
BRANCH  34  35
HETATM   35  C20 UNL     1      41.937 -24.143  25.166  1.00  0.00     0.046 C 
BRANCH  35  36
HETATM   36  C21 UNL     1      43.091 -24.646  25.975  1.00  0.00     0.124 C 
BRANCH  36  37
HETATM   37  N6  UNL     1      44.079 -23.592  26.124  1.00  0.00    -0.393 N 
HETATM   38  C22 UNL     1      43.666 -22.292  25.787  1.00  0.00     0.122 C 
HETATM   39  C23 UNL     1      43.445 -21.394  27.008  1.00  0.00     0.029 C 
HETATM   40  C24 UNL     1      44.784 -21.326  27.714  1.00  0.00    -0.042 C 
HETATM   41  C25 UNL     1      45.798 -20.836  26.717  1.00  0.00     0.015 C 
HETATM   42  C26 UNL     1      44.707 -20.409  28.915  1.00  0.00     0.015 C 
HETATM   43  C27 UNL     1      45.090 -22.723  28.198  1.00  0.00     0.053 C 
HETATM   44  C28 UNL     1      45.024 -23.772  27.150  1.00  0.00     0.059 C 
ENDBRANCH  36  37
ENDBRANCH  35  36
ENDBRANCH  34  35
ENDBRANCH  33  34
ENDBRANCH  11  33
TORSDOF 13
ENDMDL
MODEL 2
REMARK VINA RESULT: -7.352389212      2.549      3.985
REMARK  13 active torsions:
REMARK  status: ('A' for Active; 'I' for Inactive)
REMARK    1  A    between atoms: O1_2  and  C2_3 
REMARK    2  A    between atoms: C4_5  and  N1_6 
REMARK    3  A    between atoms: N1_6  and  C5_8 
REMARK    4  A    between atoms: C8_15  and  N4_16 
REMARK    5  A    between atoms: N4_16  and  C9_18 
REMARK    6  A    between atoms: C9_18  and  C10_19 
REMARK    7  A    between atoms: C10_19  and  C11_20 
REMARK    8  A    between atoms: C11_20  and  O2_21 
REMARK    9  A    between atoms: C18_32  and  O3_33 
REMARK   10  A    between atoms: O3_33  and  C19_34 
REMARK   11  A    between atoms: C19_34  and  C20_35 
REMARK   12  A    between atoms: C20_35  and  C21_36 
REMARK   13  A    between atoms: C21_36  and  N6_37 
ROOT
HETATM    1  C2  UNL     1      39.590 -20.798  27.977  1.00  0.00     0.104 A 
HETATM    2  C3  UNL     1      38.830 -19.669  27.827  1.00  0.00     0.070 A 
HETATM    3  C4  UNL     1      37.759 -19.545  26.965  1.00  0.00     0.063 A 
HETATM    4  C12 UNL     1      37.442 -20.674  26.195  1.00  0.00     0.004 A 
HETATM    5  C13 UNL     1      36.363 -20.614  25.337  1.00  0.00     0.018 A 
HETATM    6  C14 UNL     1      35.977 -21.698  24.572  1.00  0.00     0.043 A 
HETATM    7  C15 UNL     1      36.717 -22.848  24.702  1.00  0.00     0.117 A 
HETATM    8  F1  UNL     1      36.346 -23.926  23.953  1.00  0.00    -0.206 F 
HETATM    9  C16 UNL     1      37.792 -22.899  25.559  1.00  0.00     0.057 A 
HETATM   10  C17 UNL     1      38.196 -21.823  26.331  1.00  0.00     0.015 A 
HETATM   11  C18 UNL     1      39.251 -21.920  27.186  1.00  0.00     0.113 A 
ENDROOT
BRANCH   3  12
HETATM   12  N1  UNL     1      36.975 -18.400  26.783  1.00  0.00    -0.190 N 
ATOM     13  H1  UNL     1      35.978 -18.485  26.983  1.00  0.00     0.184 HD
BRANCH  12  14
HETATM   14  C5  UNL     1      37.393 -17.253  26.387  1.00  0.00     0.698 A 
HETATM   15  N2  UNL     1      38.148 -17.080  25.290  1.00  0.00    -0.180 N 
HETATM   16  C6  UNL     1      38.535 -15.829  24.973  1.00  0.00     0.109 A 
ATOM     17  H2  UNL     1      38.422 -17.875  24.712  1.00  0.00     0.185 HD
HETATM   18  C7  UNL     1      39.371 -15.660  23.743  1.00  0.00     0.090 C 
HETATM   19  N3  UNL     1      38.201 -14.764  25.700  1.00  0.00    -0.180 N 
HETATM   20  C8  UNL     1      37.430 -14.905  26.830  1.00  0.00     0.694 A 
ATOM     21  H3  UNL     1      38.520 -13.837  25.417  1.00  0.00     0.185 HD
HETATM   22  N5  UNL     1      37.055 -16.149  27.127  1.00  0.00    -0.022 N 
ATOM     23  H5  UNL     1      36.481 -16.289  27.958  1.00  0.00     0.203 HD
BRANCH  20  24
HETATM   24  N4  UNL     1      37.137 -13.857  27.505  1.00  0.00    -0.225 N 
ATOM     25  H4  UNL     1      37.914 -13.251  27.768  1.00  0.00     0.177 HD
BRANCH  24  26
HETATM   26  C9  UNL     1      35.846 -13.449  27.926  1.00  0.00     0.140 C 
BRANCH  26  27
HETATM   27  C10 UNL     1      35.443 -14.331  29.106  1.00  0.00     0.046 C 
BRANCH  27  28
HETATM   28  C11 UNL     1      34.031 -13.955  29.485  1.00  0.00     0.165 C 
BRANCH  28  29
HETATM   29  O2  UNL     1      33.289 -15.141  29.490  1.00  0.00    -0.401 OA
ATOM     30  H2  UNL     1      32.906 -15.226  28.625  1.00  0.00     0.209 HD
ENDBRANCH  28  29
ENDBRANCH  27  28
ENDBRANCH  26  27
ENDBRANCH  24  26
ENDBRANCH  20  24
ENDBRANCH  12  14
ENDBRANCH   3  12
BRANCH   1  31
HETATM   31  O1  UNL     1      40.658 -20.856  28.868  1.00  0.00    -0.353 OA
HETATM   32  C1  UNL     1      40.408 -21.142  30.231  1.00  0.00     0.210 C 
ENDBRANCH   1  31
BRANCH  11  33
HETATM   33  O3  UNL     1      40.051 -23.014  27.384  1.00  0.00    -0.347 OA
BRANCH  33  34
HETATM   34  C19 UNL     1      41.271 -23.331  26.865  1.00  0.00     0.177 C 
BRANCH  34  35
HETATM   35  C20 UNL     1      42.517 -23.519  27.599  1.00  0.00     0.046 C 
BRANCH  35  36
HETATM   36  C21 UNL     1      43.524 -22.413  27.622  1.00  0.00     0.124 C 
BRANCH  36  37
HETATM   37  N6  UNL     1      43.907 -22.129  28.993  1.00  0.00    -0.393 N 
HETATM   38  C22 UNL     1      44.715 -23.087  29.630  1.00  0.00     0.122 C 
HETATM   39  C23 UNL     1      46.170 -22.636  29.793  1.00  0.00     0.029 C 
HETATM   40  C24 UNL     1      46.117 -21.382  30.642  1.00  0.00    -0.042 C 
HETATM   41  C25 UNL     1      45.392 -21.724  31.914  1.00  0.00     0.015 C 
HETATM   42  C26 UNL     1      47.513 -20.871  30.925  1.00  0.00     0.015 C 
HETATM   43  C27 UNL     1      45.383 -20.341  29.831  1.00  0.00     0.053 C 
HETATM   44  C28 UNL     1      44.056 -20.770  29.324  1.00  0.00     0.059 C 
ENDBRANCH  36  37
ENDBRANCH  35  36
ENDBRANCH  34  35
ENDBRANCH  33  34
ENDBRANCH  11  33
TORSDOF 13
ENDMDL
MODEL 3
REMARK VINA RESULT: -7.217080211      3.589      8.066
REMARK  13 active torsions:
REMARK  status: ('A' for Active; 'I' for Inactive)
REMARK    1  A    between atoms: O1_2  and  C2_3 
REMARK    2  A    between atoms: C4_5  and  N1_6 
REMARK    3  A    between atoms: N1_6  and  C5_8 
REMARK    4  A    between atoms: C8_15  and  N4_16 
REMARK    5  A    between atoms: N4_16  and  C9_18 
REMARK    6  A    between atoms: C9_18  and  C10_19 
REMARK    7  A    between atoms: C10_19  and  C11_20 
REMARK    8  A    between atoms: C11_20  and  O2_21 
REMARK    9  A    between atoms: C18_32  and  O3_33 
REMARK   10  A    between atoms: O3_33  and  C19_34 
REMARK   11  A    between atoms: C19_34  and  C20_35 
REMARK   12  A    between atoms: C20_35  and  C21_36 
REMARK   13  A    between atoms: C21_36  and  N6_37 
ROOT
HETATM    1  C2  UNL     1      40.681 -19.122  25.086  1.00  0.00     0.104 A 
HETATM    2  C3  UNL     1      40.304 -19.927  26.128  1.00  0.00     0.070 A 
HETATM    3  C4  UNL     1      39.601 -19.507  27.238  1.00  0.00     0.063 A 
HETATM    4  C12 UNL     1      39.255 -18.148  27.282  1.00  0.00     0.004 A 
HETATM    5  C13 UNL     1      38.526 -17.679  28.356  1.00  0.00     0.018 A 
HETATM    6  C14 UNL     1      38.125 -16.360  28.446  1.00  0.00     0.043 A 
HETATM    7  C15 UNL     1      38.484 -15.526  27.415  1.00  0.00     0.117 A 
HETATM    8  F1  UNL     1      38.094 -14.222  27.493  1.00  0.00    -0.206 F 
HETATM    9  C16 UNL     1      39.212 -16.002  26.349  1.00  0.00     0.057 A 
HETATM   10  C17 UNL     1      39.625 -17.319  26.241  1.00  0.00     0.015 A 
HETATM   11  C18 UNL     1      40.322 -17.757  25.157  1.00  0.00     0.113 A 
ENDROOT
BRANCH   3  12
HETATM   12  N1  UNL     1      39.215 -20.305  28.322  1.00  0.00    -0.190 N 
ATOM     13  H1  UNL     1      38.299 -20.119  28.730  1.00  0.00     0.184 HD
BRANCH  12  14
HETATM   14  C5  UNL     1      39.908 -21.247  28.849  1.00  0.00     0.698 A 
HETATM   15  N2  UNL     1      39.535 -22.537  28.833  1.00  0.00    -0.180 N 
HETATM   16  C6  UNL     1      40.340 -23.441  29.425  1.00  0.00     0.109 A 
ATOM     17  H2  UNL     1      38.665 -22.825  28.385  1.00  0.00     0.185 HD
HETATM   18  C7  UNL     1      39.907 -24.873  29.389  1.00  0.00     0.090 C 
HETATM   19  N3  UNL     1      41.484 -23.108  30.021  1.00  0.00    -0.180 N 
HETATM   20  C8  UNL     1      41.895 -21.797  30.058  1.00  0.00     0.694 A 
ATOM     21  H3  UNL     1      42.058 -23.831  30.455  1.00  0.00     0.185 HD
HETATM   22  N5  UNL     1      41.087 -20.916  29.467  1.00  0.00    -0.022 N 
ATOM     23  H5  UNL     1      41.363 -19.935  29.474  1.00  0.00     0.203 HD
BRANCH  20  24
HETATM   24  N4  UNL     1      42.998 -21.518  30.648  1.00  0.00    -0.225 N 
ATOM     25  H4  UNL     1      43.044 -21.719  31.646  1.00  0.00     0.177 HD
BRANCH  24  26
HETATM   26  C9  UNL     1      44.160 -20.959  30.059  1.00  0.00     0.140 C 
BRANCH  26  27
HETATM   27  C10 UNL     1      45.356 -21.371  30.915  1.00  0.00     0.046 C 
BRANCH  27  28
HETATM   28  C11 UNL     1      44.820 -21.797  32.260  1.00  0.00     0.165 C 
BRANCH  28  29
HETATM   29  O2  UNL     1      44.780 -23.195  32.251  1.00  0.00    -0.401 OA
ATOM     30  H2  UNL     1      44.524 -23.454  31.373  1.00  0.00     0.209 HD
ENDBRANCH  28  29
ENDBRANCH  27  28
ENDBRANCH  26  27
ENDBRANCH  24  26
ENDBRANCH  20  24
ENDBRANCH  12  14
ENDBRANCH   3  12
BRANCH   1  31
HETATM   31  O1  UNL     1      41.390 -19.613  23.993  1.00  0.00    -0.353 OA
HETATM   32  C1  UNL     1      42.182 -20.775  24.147  1.00  0.00     0.210 C 
ENDBRANCH   1  31
BRANCH  11  33
HETATM   33  O3  UNL     1      40.730 -17.008  24.085  1.00  0.00    -0.347 OA
BRANCH  33  34
HETATM   34  C19 UNL     1      40.031 -16.522  23.019  1.00  0.00     0.177 C 
BRANCH  34  35
HETATM   35  C20 UNL     1      38.741 -16.989  22.528  1.00  0.00     0.046 C 
BRANCH  35  36
HETATM   36  C21 UNL     1      38.644 -18.346  21.907  1.00  0.00     0.124 C 
BRANCH  36  37
HETATM   37  N6  UNL     1      37.479 -19.040  22.427  1.00  0.00    -0.393 N 
HETATM   38  C22 UNL     1      37.503 -20.443  22.363  1.00  0.00     0.122 C 
HETATM   39  C23 UNL     1      37.727 -21.106  23.726  1.00  0.00     0.029 C 
HETATM   40  C24 UNL     1      36.564 -20.665  24.591  1.00  0.00    -0.042 C 
HETATM   41  C25 UNL     1      35.296 -21.048  23.877  1.00  0.00     0.015 C 
HETATM   42  C26 UNL     1      36.641 -21.310  25.957  1.00  0.00     0.015 C 
HETATM   43  C27 UNL     1      36.691 -19.170  24.760  1.00  0.00     0.053 C 
HETATM   44  C28 UNL     1      36.809 -18.409  23.492  1.00  0.00     0.059 C 
ENDBRANCH  36  37
ENDBRANCH  35  36
ENDBRANCH  34  35
ENDBRANCH  33  34
ENDBRANCH  11  33
TORSDOF 13
ENDMDL
MODEL 4
REMARK VINA RESULT: -7.192681971      2.481      4.413
REMARK  13 active torsions:
REMARK  status: ('A' for Active; 'I' for Inactive)
REMARK    1  A    between atoms: O1_2  and  C2_3 
REMARK    2  A    between atoms: C4_5  and  N1_6 
REMARK    3  A    between atoms: N1_6  and  C5_8 
REMARK    4  A    between atoms: C8_15  and  N4_16 
REMARK    5  A    between atoms: N4_16  and  C9_18 
REMARK    6  A    between atoms: C9_18  and  C10_19 
REMARK    7  A    between atoms: C10_19  and  C11_20 
REMARK    8  A    between atoms: C11_20  and  O2_21 
REMARK    9  A    between atoms: C18_32  and  O3_33 
REMARK   10  A    between atoms: O3_33  and  C19_34 
REMARK   11  A    between atoms: C19_34  and  C20_35 
REMARK   12  A    between atoms: C20_35  and  C21_36 
REMARK   13  A    between atoms: C21_36  and  N6_37 
ROOT
HETATM    1  C2  UNL     1      43.844 -21.744  29.501  1.00  0.00     0.104 A 
HETATM    2  C3  UNL     1      42.704 -20.985  29.482  1.00  0.00     0.070 A 
HETATM    3  C4  UNL     1      41.420 -21.487  29.519  1.00  0.00     0.063 A 
HETATM    4  C12 UNL     1      41.295 -22.883  29.581  1.00  0.00     0.004 A 
HETATM    5  C13 UNL     1      40.033 -23.437  29.648  1.00  0.00     0.018 A 
HETATM    6  C14 UNL     1      39.839 -24.802  29.742  1.00  0.00     0.043 A 
HETATM    7  C15 UNL     1      40.962 -25.592  29.768  1.00  0.00     0.117 A 
HETATM    8  F1  UNL     1      40.785 -26.941  29.861  1.00  0.00    -0.206 F 
HETATM    9  C16 UNL     1      42.217 -25.031  29.699  1.00  0.00     0.057 A 
HETATM   10  C17 UNL     1      42.432 -23.666  29.601  1.00  0.00     0.015 A 
HETATM   11  C18 UNL     1      43.690 -23.148  29.561  1.00  0.00     0.113 A 
ENDROOT
BRANCH   3  12
HETATM   12  N1  UNL     1      40.239 -20.735  29.487  1.00  0.00    -0.190 N 
ATOM     13  H1  UNL     1      39.531 -20.956  30.188  1.00  0.00     0.184 HD
BRANCH  12  14
HETATM   14  C5  UNL     1      39.964 -19.796  28.658  1.00  0.00     0.698 A 
HETATM   15  N2  UNL     1      40.332 -19.818  27.366  1.00  0.00    -0.180 N 
HETATM   16  C6  UNL     1      39.993 -18.771  26.588  1.00  0.00     0.109 A 
ATOM     17  H2  UNL     1      40.855 -20.606  26.984  1.00  0.00     0.185 HD
HETATM   18  C7  UNL     1      40.409 -18.821  25.152  1.00  0.00     0.090 C 
HETATM   19  N3  UNL     1      39.312 -17.722  27.047  1.00  0.00    -0.180 N 
HETATM   20  C8  UNL     1      38.920 -17.666  28.363  1.00  0.00     0.694 A 
ATOM     21  H3  UNL     1      39.079 -16.955  26.416  1.00  0.00     0.185 HD
HETATM   22  N5  UNL     1      39.263 -18.710  29.118  1.00  0.00    -0.022 N 
ATOM     23  H5  UNL     1      38.986 -18.702  30.099  1.00  0.00     0.203 HD
BRANCH  20  24
HETATM   24  N4  UNL     1      38.273 -16.637  28.765  1.00  0.00    -0.225 N 
ATOM     25  H4  UNL     1      38.810 -15.924  29.258  1.00  0.00     0.177 HD
BRANCH  24  26
HETATM   26  C9  UNL     1      36.888 -16.383  28.598  1.00  0.00     0.140 C 
BRANCH  26  27
HETATM   27  C10 UNL     1      36.717 -14.884  28.357  1.00  0.00     0.046 C 
BRANCH  27  28
HETATM   28  C11 UNL     1      37.347 -14.571  27.021  1.00  0.00     0.165 C 
BRANCH  28  29
HETATM   29  O2  UNL     1      37.034 -15.637  26.171  1.00  0.00    -0.401 OA
ATOM     30  H2  UNL     1      37.387 -15.416  25.316  1.00  0.00     0.209 HD
ENDBRANCH  28  29
ENDBRANCH  27  28
ENDBRANCH  26  27
ENDBRANCH  24  26
ENDBRANCH  20  24
ENDBRANCH  12  14
ENDBRANCH   3  12
BRANCH   1  31
HETATM   31  O1  UNL     1      45.113 -21.171  29.464  1.00  0.00    -0.353 OA
HETATM   32  C1  UNL     1      45.373 -20.014  30.235  1.00  0.00     0.210 C 
ENDBRANCH   1  31
BRANCH  11  33
HETATM   33  O3  UNL     1      44.868 -23.847  29.576  1.00  0.00    -0.347 OA
BRANCH  33  34
HETATM   34  C19 UNL     1      45.604 -24.375  28.556  1.00  0.00     0.177 C 
BRANCH  34  35
HETATM   35  C20 UNL     1      45.110 -24.837  27.264  1.00  0.00     0.046 C 
BRANCH  35  36
HETATM   36  C21 UNL     1      44.556 -26.221  27.147  1.00  0.00     0.124 C 
BRANCH  36  37
HETATM   37  N6  UNL     1      43.494 -26.241  26.158  1.00  0.00    -0.393 N 
HETATM   38  C22 UNL     1      42.741 -27.424  26.067  1.00  0.00     0.122 C 
HETATM   39  C23 UNL     1      41.334 -27.290  26.656  1.00  0.00     0.029 C 
HETATM   40  C24 UNL     1      40.654 -26.202  25.850  1.00  0.00    -0.042 C 
HETATM   41  C25 UNL     1      40.722 -26.601  24.401  1.00  0.00     0.015 C 
HETATM   42  C26 UNL     1      39.223 -26.018  26.303  1.00  0.00     0.015 C 
HETATM   43  C27 UNL     1      41.410 -24.924  26.123  1.00  0.00     0.053 C 
HETATM   44  C28 UNL     1      42.874 -25.006  25.893  1.00  0.00     0.059 C 
ENDBRANCH  36  37
ENDBRANCH  35  36
ENDBRANCH  34  35
ENDBRANCH  33  34
ENDBRANCH  11  33
TORSDOF 13
ENDMDL
MODEL 5
REMARK VINA RESULT: -7.190676467      4.118      7.009
REMARK  13 active torsions:
REMARK  status: ('A' for Active; 'I' for Inactive)
REMARK    1  A    between atoms: O1_2  and  C2_3 
REMARK    2  A    between atoms: C4_5  and  N1_6 
REMARK    3  A    between atoms: N1_6  and  C5_8 
REMARK    4  A    between atoms: C8_15  and  N4_16 
REMARK    5  A    between atoms: N4_16  and  C9_18 
REMARK    6  A    between atoms: C9_18  and  C10_19 
REMARK    7  A    between atoms: C10_19  and  C11_20 
REMARK    8  A    between atoms: C11_20  and  O2_21 
REMARK    9  A    between atoms: C18_32  and  O3_33 
REMARK   10  A    between atoms: O3_33  and  C19_34 
REMARK   11  A    between atoms: C19_34  and  C20_35 
REMARK   12  A    between atoms: C20_35  and  C21_36 
REMARK   13  A    between atoms: C21_36  and  N6_37 
ROOT
HETATM    1  C2  UNL     1      38.349 -21.292  26.269  1.00  0.00     0.104 A 
HETATM    2  C3  UNL     1      37.975 -20.030  25.890  1.00  0.00     0.070 A 
HETATM    3  C4  UNL     1      37.001 -19.741  24.956  1.00  0.00     0.063 A 
HETATM    4  C12 UNL     1      36.357 -20.838  24.364  1.00  0.00     0.004 A 
HETATM    5  C13 UNL     1      35.354 -20.606  23.445  1.00  0.00     0.018 A 
HETATM    6  C14 UNL     1      34.658 -21.639  22.848  1.00  0.00     0.043 A 
HETATM    7  C15 UNL     1      35.005 -22.918  23.210  1.00  0.00     0.117 A 
HETATM    8  F1  UNL     1      34.325 -23.947  22.628  1.00  0.00    -0.206 F 
HETATM    9  C16 UNL     1      36.007 -23.140  24.127  1.00  0.00     0.057 A 
HETATM   10  C17 UNL     1      36.719 -22.118  24.734  1.00  0.00     0.015 A 
HETATM   11  C18 UNL     1      37.686 -22.378  25.655  1.00  0.00     0.113 A 
ENDROOT
BRANCH   3  12
HETATM   12  N1  UNL     1      36.610 -18.463  24.540  1.00  0.00    -0.190 N 
ATOM     13  H1  UNL     1      35.646 -18.354  24.224  1.00  0.00     0.184 HD
BRANCH  12  14
HETATM   14  C5  UNL     1      37.350 -17.416  24.520  1.00  0.00     0.698 A 
HETATM   15  N2  UNL     1      38.262 -17.173  23.565  1.00  0.00    -0.180 N 
HETATM   16  C6  UNL     1      38.989 -16.041  23.649  1.00  0.00     0.109 A 
ATOM     17  H2  UNL     1      38.401 -17.828  22.795  1.00  0.00     0.185 HD
HETATM   18  C7  UNL     1      39.994 -15.789  22.570  1.00  0.00     0.090 C 
HETATM   19  N3  UNL     1      38.839 -15.159  24.637  1.00  0.00    -0.180 N 
HETATM   20  C8  UNL     1      37.916 -15.377  25.632  1.00  0.00     0.694 A 
ATOM     21  H3  UNL     1      39.414 -14.317  24.655  1.00  0.00     0.185 HD
HETATM   22  N5  UNL     1      37.206 -16.500  25.532  1.00  0.00    -0.022 N 
ATOM     23  H5  UNL     1      36.511 -16.692  26.253  1.00  0.00     0.203 HD
BRANCH  20  24
HETATM   24  N4  UNL     1      37.809 -14.508  26.567  1.00  0.00    -0.225 N 
ATOM     25  H4  UNL     1      38.508 -13.766  26.582  1.00  0.00     0.177 HD
BRANCH  24  26
HETATM   26  C9  UNL     1      36.821 -14.469  27.584  1.00  0.00     0.140 C 
BRANCH  26  27
HETATM   27  C10 UNL     1      37.332 -15.303  28.757  1.00  0.00     0.046 C 
BRANCH  27  28
HETATM   28  C11 UNL     1      36.331 -16.409  28.990  1.00  0.00     0.165 C 
BRANCH  28  29
HETATM   29  O2  UNL     1      36.827 -17.542  28.335  1.00  0.00    -0.401 OA
ATOM     30  H2  UNL     1      37.043 -18.174  29.011  1.00  0.00     0.209 HD
ENDBRANCH  28  29
ENDBRANCH  27  28
ENDBRANCH  26  27
ENDBRANCH  24  26
ENDBRANCH  20  24
ENDBRANCH  12  14
ENDBRANCH   3  12
BRANCH   1  31
HETATM   31  O1  UNL     1      39.341 -21.512  27.221  1.00  0.00    -0.353 OA
HETATM   32  C1  UNL     1      39.554 -20.550  28.235  1.00  0.00     0.210 C 
ENDBRANCH   1  31
BRANCH  11  33
HETATM   33  O3  UNL     1      38.108 -23.611  26.078  1.00  0.00    -0.347 OA
BRANCH  33  34
HETATM   34  C19 UNL     1      38.909 -24.535  25.474  1.00  0.00     0.177 C 
BRANCH  34  35
HETATM   35  C20 UNL     1      38.617 -25.948  25.264  1.00  0.00     0.046 C 
BRANCH  35  36
HETATM   36  C21 UNL     1      37.200 -26.421  25.345  1.00  0.00     0.124 C 
BRANCH  36  37
HETATM   37  N6  UNL     1      36.893 -27.244  24.190  1.00  0.00    -0.393 N 
HETATM   38  C22 UNL     1      35.608 -27.811  24.146  1.00  0.00     0.122 C 
HETATM   39  C23 UNL     1      34.685 -27.138  23.126  1.00  0.00     0.029 C 
HETATM   40  C24 UNL     1      35.358 -27.322  21.781  1.00  0.00    -0.042 C 
HETATM   41  C25 UNL     1      35.585 -28.796  21.585  1.00  0.00     0.015 C 
HETATM   42  C26 UNL     1      34.504 -26.746  20.674  1.00  0.00     0.015 C 
HETATM   43  C27 UNL     1      36.654 -26.550  21.836  1.00  0.00     0.053 C 
HETATM   44  C28 UNL     1      37.529 -26.883  22.987  1.00  0.00     0.059 C 
ENDBRANCH  36  37
ENDBRANCH  35  36
ENDBRANCH  34  35
ENDBRANCH  33  34
ENDBRANCH  11  33
TORSDOF 13
ENDMDL
