MODEL 1
REMARK VINA RESULT: -7.146815349      0.000      0.000
REMARK  14 active torsions:
REMARK  status: ('A' for Active; 'I' for Inactive)
REMARK    1  A    between atoms: C6_7  and  C7_8 
REMARK    2  A    between atoms: C7_8  and  O2_9 
REMARK    3  A    between atoms: C10_13  and  C11_14 
REMARK    4  A    between atoms: C11_14  and  O3_15 
REMARK    5  A    between atoms: C15_20  and  C16_21 
REMARK    6  A    between atoms: C18_24  and  C19_25 
REMARK    7  A    between atoms: C19_25  and  O6_27 
REMARK    8  A    between atoms: C21_29  and  C22_30 
REMARK    9  A    between atoms: C23_31  and  C24_32 
REMARK   10  A    between atoms: C24_32  and  N1_33 
REMARK   11  A    between atoms: C24_32  and  C25_37 
REMARK   12  A    between atoms: C25_37  and  C26_38 
REMARK   13  A    between atoms: C26_38  and  O7_39 
REMARK   14  A    between atoms: C26_38  and  C27_41 
ROOT
HETATM    1  C1  UNL     1      39.830 -22.390  22.874  1.00  0.00     0.015 C 
HETATM    2  C2  UNL     1      39.013 -22.441  23.899  1.00  0.00    -0.080 C 
HETATM    3  C3  UNL     1      39.324 -23.379  24.999  1.00  0.00     0.041 C 
HETATM    4  C4  UNL     1      38.853 -22.733  26.301  1.00  0.00     0.084 C 
HETATM    5  C5  UNL     1      38.842 -21.284  25.984  1.00  0.00     0.143 C 
HETATM    6  O1  UNL     1      39.727 -20.564  26.398  1.00  0.00    -0.297 OA
HETATM    7  C6  UNL     1      37.762 -20.648  25.148  1.00  0.00     0.078 C 
HETATM    8  C8  UNL     1      37.782 -21.550  23.926  1.00  0.00     0.059 C 
HETATM    9  C9  UNL     1      36.603 -22.427  23.908  1.00  0.00    -0.011 C 
HETATM   10  C10 UNL     1      35.439 -22.303  23.316  1.00  0.00    -0.059 C 
HETATM   11  C12 UNL     1      35.032 -21.163  22.468  1.00  0.00     0.040 C 
HETATM   12  C13 UNL     1      35.887 -20.944  21.258  1.00  0.00     0.034 C 
HETATM   13  C14 UNL     1      35.950 -19.541  20.837  1.00  0.00     0.006 C 
HETATM   14  C15 UNL     1      36.529 -18.477  21.456  1.00  0.00     0.044 C 
HETATM   15  O4  UNL     1      37.141 -18.672  22.606  1.00  0.00    -0.336 OA
HETATM   16  C18 UNL     1      37.655 -18.382  23.802  1.00  0.00     0.258 C 
HETATM   17  C21 UNL     1      38.011 -19.215  24.917  1.00  0.00    -0.022 C 
ENDROOT
BRANCH  17  18
HETATM   18  C22 UNL     1      37.876 -18.470  26.202  1.00  0.00     0.005 C 
HETATM   19  C23 UNL     1      37.192 -17.408  26.508  1.00  0.00     0.006 C 
BRANCH  19  20
HETATM   20  C24 UNL     1      37.210 -16.823  27.914  1.00  0.00     0.208 C 
BRANCH  20  21
HETATM   21  N1  UNL     1      37.034 -17.945  28.822  1.00  0.00    -0.072 N 
ATOM     22  H13 UNL     1      37.205 -18.851  28.386  1.00  0.00     0.275 HD
ATOM     23  H12 UNL     1      37.762 -18.010  29.534  1.00  0.00     0.275 HD
ATOM     24  H11 UNL     1      36.096 -17.853  29.210  1.00  0.00     0.275 HD
ENDBRANCH  20  21
BRANCH  20  25
HETATM   25  C25 UNL     1      36.076 -15.846  28.054  1.00  0.00     0.069 C 
BRANCH  25  26
HETATM   26  C26 UNL     1      36.589 -14.583  28.673  1.00  0.00     0.130 C 
BRANCH  26  27
HETATM   27  O7  UNL     1      37.677 -14.130  27.950  1.00  0.00    -0.395 OA
ATOM     28  H7  UNL     1      37.412 -13.388  27.420  1.00  0.00     0.210 HD
ENDBRANCH  26  27
BRANCH  26  29
HETATM   29  C27 UNL     1      35.497 -13.535  28.711  1.00  0.00     0.116 C 
HETATM   30 BR1  UNL     1      33.982 -14.253  29.684  1.00  0.00    -0.094 Br
ENDBRANCH  26  29
ENDBRANCH  25  26
ENDBRANCH  20  25
ENDBRANCH  19  20
ENDBRANCH  17  18
BRANCH   7  31
HETATM   31  C7  UNL     1      36.502 -20.945  25.906  1.00  0.00     0.187 C 
BRANCH  31  32
HETATM   32  O2  UNL     1      36.569 -20.797  27.285  1.00  0.00    -0.399 OA
ATOM     33  H2  UNL     1      35.785 -21.032  27.768  1.00  0.00     0.209 HD
ENDBRANCH  31  32
ENDBRANCH   7  31
BRANCH  16  34
HETATM   34  C19 UNL     1      38.903 -17.537  23.502  1.00  0.00     0.292 C 
HETATM   35  O5  UNL     1      39.989 -18.129  23.347  1.00  0.00    -0.262 OA
BRANCH  34  36
HETATM   36  O6  UNL     1      38.912 -16.184  23.392  1.00  0.00    -0.324 OA
HETATM   37  C20 UNL     1      39.588 -15.414  24.364  1.00  0.00     0.213 C 
ENDBRANCH  34  36
ENDBRANCH  16  34
BRANCH  14  38
HETATM   38  C16 UNL     1      36.341 -17.183  20.641  1.00  0.00     0.060 C 
HETATM   39  C17 UNL     1      34.875 -17.007  20.252  1.00  0.00     0.012 C 
ENDBRANCH  14  38
BRANCH  10  40
HETATM   40  C11 UNL     1      34.369 -23.342  23.441  1.00  0.00     0.198 C 
BRANCH  40  41
HETATM   41  O3  UNL     1      33.287 -22.928  22.660  1.00  0.00    -0.397 OA
ATOM     42  H3  UNL     1      32.492 -23.189  23.111  1.00  0.00     0.209 HD
ENDBRANCH  40  41
ENDBRANCH  10  40
TORSDOF 14
ENDMDL
MODEL 2
REMARK VINA RESULT: -6.931999371      0.962      1.016
REMARK  14 active torsions:
REMARK  status: ('A' for Active; 'I' for Inactive)
REMARK    1  A    between atoms: C6_7  and  C7_8 
REMARK    2  A    between atoms: C7_8  and  O2_9 
REMARK    3  A    between atoms: C10_13  and  C11_14 
REMARK    4  A    between atoms: C11_14  and  O3_15 
REMARK    5  A    between atoms: C15_20  and  C16_21 
REMARK    6  A    between atoms: C18_24  and  C19_25 
REMARK    7  A    between atoms: C19_25  and  O6_27 
REMARK    8  A    between atoms: C21_29  and  C22_30 
REMARK    9  A    between atoms: C23_31  and  C24_32 
REMARK   10  A    between atoms: C24_32  and  N1_33 
REMARK   11  A    between atoms: C24_32  and  C25_37 
REMARK   12  A    between atoms: C25_37  and  C26_38 
REMARK   13  A    between atoms: C26_38  and  O7_39 
REMARK   14  A    between atoms: C26_38  and  C27_41 
ROOT
HETATM    1  C1  UNL     1      40.414 -22.323  23.853  1.00  0.00     0.015 C 
HETATM    2  C2  UNL     1      39.649 -22.308  24.918  1.00  0.00    -0.080 C 
HETATM    3  C3  UNL     1      40.111 -23.027  26.125  1.00  0.00     0.041 C 
HETATM    4  C4  UNL     1      39.618 -22.247  27.342  1.00  0.00     0.084 C 
HETATM    5  C5  UNL     1      39.424 -20.874  26.818  1.00  0.00     0.143 C 
HETATM    6  O1  UNL     1      40.232 -20.005  27.072  1.00  0.00    -0.297 OA
HETATM    7  C6  UNL     1      38.243 -20.495  25.960  1.00  0.00     0.078 C 
HETATM    8  C8  UNL     1      38.323 -21.566  24.884  1.00  0.00     0.059 C 
HETATM    9  C9  UNL     1      37.256 -22.560  25.061  1.00  0.00    -0.011 C 
HETATM   10  C10 UNL     1      36.064 -22.658  24.523  1.00  0.00    -0.059 C 
HETATM   11  C12 UNL     1      35.492 -21.712  23.541  1.00  0.00     0.040 C 
HETATM   12  C13 UNL     1      36.268 -21.586  22.266  1.00  0.00     0.034 C 
HETATM   13  C14 UNL     1      36.147 -20.265  21.642  1.00  0.00     0.006 C 
HETATM   14  C15 UNL     1      36.620 -19.061  22.065  1.00  0.00     0.044 C 
HETATM   15  O4  UNL     1      37.295 -19.010  23.195  1.00  0.00    -0.336 OA
HETATM   16  C18 UNL     1      37.817 -18.486  24.304  1.00  0.00     0.258 C 
HETATM   17  C21 UNL     1      38.313 -19.096  25.508  1.00  0.00    -0.022 C 
ENDROOT
BRANCH  17  18
HETATM   18  C22 UNL     1      38.140 -18.184  26.675  1.00  0.00     0.005 C 
HETATM   19  C23 UNL     1      37.276 -17.240  26.905  1.00  0.00     0.006 C 
BRANCH  19  20
HETATM   20  C24 UNL     1      37.298 -16.432  28.196  1.00  0.00     0.208 C 
BRANCH  20  21
HETATM   21  N1  UNL     1      37.377 -17.400  29.278  1.00  0.00    -0.072 N 
ATOM     22  H13 UNL     1      36.481 -17.579  29.729  1.00  0.00     0.275 HD
ATOM     23  H12 UNL     1      37.549 -18.354  28.959  1.00  0.00     0.275 HD
ATOM     24  H11 UNL     1      38.091 -17.053  29.918  1.00  0.00     0.275 HD
ENDBRANCH  20  21
BRANCH  20  25
HETATM   25  C25 UNL     1      36.030 -15.631  28.294  1.00  0.00     0.069 C 
BRANCH  25  26
HETATM   26  C26 UNL     1      36.339 -14.189  28.031  1.00  0.00     0.130 C 
BRANCH  26  27
HETATM   27  O7  UNL     1      36.544 -14.008  26.676  1.00  0.00    -0.395 OA
ATOM     28  H7  UNL     1      36.134 -13.195  26.404  1.00  0.00     0.210 HD
ENDBRANCH  26  27
BRANCH  26  29
HETATM   29  C27 UNL     1      35.208 -13.311  28.524  1.00  0.00     0.116 C 
HETATM   30 BR1  UNL     1      34.059 -14.367  29.673  1.00  0.00    -0.094 Br
ENDBRANCH  26  29
ENDBRANCH  25  26
ENDBRANCH  20  25
ENDBRANCH  19  20
ENDBRANCH  17  18
BRANCH   7  31
HETATM   31  C7  UNL     1      37.058 -20.813  26.822  1.00  0.00     0.187 C 
BRANCH  31  32
HETATM   32  O2  UNL     1      37.139 -20.405  28.147  1.00  0.00    -0.399 OA
ATOM     33  H2  UNL     1      36.991 -21.078  28.801  1.00  0.00     0.209 HD
ENDBRANCH  31  32
ENDBRANCH   7  31
BRANCH  16  34
HETATM   34  C19 UNL     1      38.944 -17.563  23.815  1.00  0.00     0.292 C 
HETATM   35  O5  UNL     1      40.047 -18.077  23.543  1.00  0.00    -0.262 OA
BRANCH  34  36
HETATM   36  O6  UNL     1      38.828 -16.221  23.654  1.00  0.00    -0.324 OA
HETATM   37  C20 UNL     1      39.516 -15.355  24.533  1.00  0.00     0.213 C 
ENDBRANCH  34  36
ENDBRANCH  16  34
BRANCH  14  38
HETATM   38  C16 UNL     1      36.250 -17.935  21.081  1.00  0.00     0.060 C 
HETATM   39  C17 UNL     1      34.734 -17.757  21.022  1.00  0.00     0.012 C 
ENDBRANCH  14  38
BRANCH  10  40
HETATM   40  C11 UNL     1      35.130 -23.778  24.858  1.00  0.00     0.198 C 
BRANCH  40  41
HETATM   41  O3  UNL     1      34.303 -23.984  23.751  1.00  0.00    -0.397 OA
ATOM     42  H3  UNL     1      34.856 -23.994  22.978  1.00  0.00     0.209 HD
ENDBRANCH  40  41
ENDBRANCH  10  40
TORSDOF 14
ENDMDL
MODEL 3
REMARK VINA RESULT: -6.796008837      2.755      5.563
REMARK  14 active torsions:
REMARK  status: ('A' for Active; 'I' for Inactive)
REMARK    1  A    between atoms: C6_7  and  C7_8 
REMARK    2  A    between atoms: C7_8  and  O2_9 
REMARK    3  A    between atoms: C10_13  and  C11_14 
REMARK    4  A    between atoms: C11_14  and  O3_15 
REMARK    5  A    between atoms: C15_20  and  C16_21 
REMARK    6  A    between atoms: C18_24  and  C19_25 
REMARK    7  A    between atoms: C19_25  and  O6_27 
REMARK    8  A    between atoms: C21_29  and  C22_30 
REMARK    9  A    between atoms: C23_31  and  C24_32 
REMARK   10  A    between atoms: C24_32  and  N1_33 
REMARK   11  A    between atoms: C24_32  and  C25_37 
REMARK   12  A    between atoms: C25_37  and  C26_38 
REMARK   13  A    between atoms: C26_38  and  O7_39 
REMARK   14  A    between atoms: C26_38  and  C27_41 
ROOT
HETATM    1  C1  UNL     1      38.461 -23.950  25.960  1.00  0.00     0.015 C 
HETATM    2  C2  UNL     1      38.052 -22.807  25.464  1.00  0.00    -0.080 C 
HETATM    3  C3  UNL     1      36.652 -22.703  24.998  1.00  0.00     0.041 C 
HETATM    4  C4  UNL     1      36.179 -21.278  25.277  1.00  0.00     0.084 C 
HETATM    5  C5  UNL     1      37.069 -20.825  26.373  1.00  0.00     0.143 C 
HETATM    6  O1  UNL     1      36.654 -20.773  27.512  1.00  0.00    -0.297 OA
HETATM    7  C6  UNL     1      38.502 -20.421  26.136  1.00  0.00     0.078 C 
HETATM    8  C8  UNL     1      39.016 -21.634  25.379  1.00  0.00     0.059 C 
HETATM    9  C9  UNL     1      39.201 -21.319  23.956  1.00  0.00    -0.011 C 
HETATM   10  C10 UNL     1      40.260 -20.936  23.283  1.00  0.00    -0.059 C 
HETATM   11  C12 UNL     1      41.605 -20.726  23.860  1.00  0.00     0.040 C 
HETATM   12  C13 UNL     1      42.211 -21.937  24.499  1.00  0.00     0.034 C 
HETATM   13  C14 UNL     1      43.125 -21.618  25.600  1.00  0.00     0.006 C 
HETATM   14  C15 UNL     1      42.854 -21.091  26.824  1.00  0.00     0.044 C 
HETATM   15  O4  UNL     1      41.604 -20.806  27.126  1.00  0.00    -0.336 OA
HETATM   16  C18 UNL     1      40.582 -20.212  27.744  1.00  0.00     0.258 C 
HETATM   17  C21 UNL     1      39.196 -20.079  27.389  1.00  0.00    -0.022 C 
ENDROOT
BRANCH  17  18
HETATM   18  C22 UNL     1      38.620 -18.826  27.954  1.00  0.00     0.005 C 
HETATM   19  C23 UNL     1      39.139 -17.647  28.129  1.00  0.00     0.006 C 
BRANCH  19  20
HETATM   20  C24 UNL     1      38.338 -16.502  28.735  1.00  0.00     0.208 C 
BRANCH  20  21
HETATM   21  N1  UNL     1      37.999 -16.916  30.087  1.00  0.00    -0.072 N 
ATOM     22  H13 UNL     1      36.995 -16.956  30.260  1.00  0.00     0.275 HD
ATOM     23  H12 UNL     1      38.197 -17.900  30.272  1.00  0.00     0.275 HD
ATOM     24  H11 UNL     1      38.493 -16.279  30.712  1.00  0.00     0.275 HD
ENDBRANCH  20  21
BRANCH  20  25
HETATM   25  C25 UNL     1      37.093 -16.289  27.919  1.00  0.00     0.069 C 
BRANCH  25  26
HETATM   26  C26 UNL     1      37.369 -15.266  26.861  1.00  0.00     0.130 C 
BRANCH  26  27
HETATM   27  O7  UNL     1      36.998 -15.774  25.629  1.00  0.00    -0.395 OA
ATOM     28  H7  UNL     1      36.570 -15.091  25.125  1.00  0.00     0.210 HD
ENDBRANCH  26  27
BRANCH  26  29
HETATM   29  C27 UNL     1      36.619 -13.985  27.160  1.00  0.00     0.116 C 
HETATM   30 BR1  UNL     1      35.430 -14.299  28.658  1.00  0.00    -0.094 Br
ENDBRANCH  26  29
ENDBRANCH  25  26
ENDBRANCH  20  25
ENDBRANCH  19  20
ENDBRANCH  17  18
BRANCH   7  31
HETATM   31  C7  UNL     1      38.397 -19.291  25.154  1.00  0.00     0.187 C 
BRANCH  31  32
HETATM   32  O2  UNL     1      37.215 -18.562  25.186  1.00  0.00    -0.399 OA
ATOM     33  H2  UNL     1      37.146 -17.909  25.872  1.00  0.00     0.209 HD
ENDBRANCH  31  32
ENDBRANCH   7  31
BRANCH  16  34
HETATM   34  C19 UNL     1      40.590 -20.790  29.168  1.00  0.00     0.292 C 
HETATM   35  O5  UNL     1      41.419 -20.335  29.981  1.00  0.00    -0.262 OA
BRANCH  34  36
HETATM   36  O6  UNL     1      39.758 -21.767  29.610  1.00  0.00    -0.324 OA
HETATM   37  C20 UNL     1      40.105 -23.120  29.403  1.00  0.00     0.213 C 
ENDBRANCH  34  36
ENDBRANCH  16  34
BRANCH  14  38
HETATM   38  C16 UNL     1      44.137 -20.924  27.660  1.00  0.00     0.060 C 
HETATM   39  C17 UNL     1      45.373 -21.106  26.781  1.00  0.00     0.012 C 
ENDBRANCH  14  38
BRANCH  10  40
HETATM   40  C11 UNL     1      40.214 -20.667  21.812  1.00  0.00     0.198 C 
BRANCH  40  41
HETATM   41  O3  UNL     1      39.484 -19.491  21.621  1.00  0.00    -0.397 OA
ATOM     42  H3  UNL     1      39.764 -19.111  20.796  1.00  0.00     0.209 HD
ENDBRANCH  40  41
ENDBRANCH  10  40
TORSDOF 14
ENDMDL
MODEL 4
REMARK VINA RESULT: -6.761110801      1.982      3.383
REMARK  14 active torsions:
REMARK  status: ('A' for Active; 'I' for Inactive)
REMARK    1  A    between atoms: C6_7  and  C7_8 
REMARK    2  A    between atoms: C7_8  and  O2_9 
REMARK    3  A    between atoms: C10_13  and  C11_14 
REMARK    4  A    between atoms: C11_14  and  O3_15 
REMARK    5  A    between atoms: C15_20  and  C16_21 
REMARK    6  A    between atoms: C18_24  and  C19_25 
REMARK    7  A    between atoms: C19_25  and  O6_27 
REMARK    8  A    between atoms: C21_29  and  C22_30 
REMARK    9  A    between atoms: C23_31  and  C24_32 
REMARK   10  A    between atoms: C24_32  and  N1_33 
REMARK   11  A    between atoms: C24_32  and  C25_37 
REMARK   12  A    between atoms: C25_37  and  C26_38 
REMARK   13  A    between atoms: C26_38  and  O7_39 
REMARK   14  A    between atoms: C26_38  and  C27_41 
ROOT
HETATM    1  C1  UNL     1      41.367 -20.890  24.081  1.00  0.00     0.015 C 
HETATM    2  C2  UNL     1      41.097 -21.045  25.355  1.00  0.00    -0.080 C 
HETATM    3  C3  UNL     1      42.197 -20.888  26.331  1.00  0.00     0.041 C 
HETATM    4  C4  UNL     1      41.603 -20.282  27.601  1.00  0.00     0.084 C 
HETATM    5  C5  UNL     1      40.379 -19.597  27.118  1.00  0.00     0.143 C 
HETATM    6  O1  UNL     1      40.364 -18.390  26.998  1.00  0.00    -0.297 OA
HETATM    7  C6  UNL     1      39.123 -20.348  26.756  1.00  0.00     0.078 C 
HETATM    8  C8  UNL     1      39.679 -21.380  25.790  1.00  0.00     0.059 C 
HETATM    9  C9  UNL     1      39.713 -22.710  26.413  1.00  0.00    -0.011 C 
HETATM   10  C10 UNL     1      38.860 -23.706  26.377  1.00  0.00    -0.059 C 
HETATM   11  C12 UNL     1      37.580 -23.705  25.639  1.00  0.00     0.040 C 
HETATM   12  C13 UNL     1      37.708 -23.509  24.160  1.00  0.00     0.034 C 
HETATM   13  C14 UNL     1      36.547 -22.844  23.559  1.00  0.00     0.006 C 
HETATM   14  C15 UNL     1      36.111 -21.564  23.705  1.00  0.00     0.044 C 
HETATM   15  O4  UNL     1      36.791 -20.752  24.487  1.00  0.00    -0.336 OA
HETATM   16  C18 UNL     1      37.029 -19.709  25.284  1.00  0.00     0.258 C 
HETATM   17  C21 UNL     1      38.073 -19.454  26.238  1.00  0.00    -0.022 C 
ENDROOT
BRANCH  17  18
HETATM   18  C22 UNL     1      37.588 -18.566  27.333  1.00  0.00     0.005 C 
HETATM   19  C23 UNL     1      37.600 -17.271  27.454  1.00  0.00     0.006 C 
BRANCH  19  20
HETATM   20  C24 UNL     1      37.035 -16.578  28.687  1.00  0.00     0.208 C 
BRANCH  20  21
HETATM   21  N1  UNL     1      36.595 -17.637  29.581  1.00  0.00    -0.072 N 
ATOM     22  H13 UNL     1      36.973 -17.556  30.524  1.00  0.00     0.275 HD
ATOM     23  H12 UNL     1      35.609 -17.570  29.835  1.00  0.00     0.275 HD
ATOM     24  H11 UNL     1      36.836 -18.515  29.122  1.00  0.00     0.275 HD
ENDBRANCH  20  21
BRANCH  20  25
HETATM   25  C25 UNL     1      35.874 -15.716  28.275  1.00  0.00     0.069 C 
BRANCH  25  26
HETATM   26  C26 UNL     1      36.353 -14.312  28.071  1.00  0.00     0.130 C 
BRANCH  26  27
HETATM   27  O7  UNL     1      36.632 -14.116  26.731  1.00  0.00    -0.395 OA
ATOM     28  H7  UNL     1      35.935 -13.605  26.338  1.00  0.00     0.210 HD
ENDBRANCH  26  27
BRANCH  26  29
HETATM   29  C27 UNL     1      35.308 -13.326  28.550  1.00  0.00     0.116 C 
HETATM   30 BR1  UNL     1      34.029 -14.268  29.660  1.00  0.00    -0.094 Br
ENDBRANCH  26  29
ENDBRANCH  25  26
ENDBRANCH  20  25
ENDBRANCH  19  20
ENDBRANCH  17  18
BRANCH   7  31
HETATM   31  C7  UNL     1      38.759 -21.067  28.021  1.00  0.00     0.187 C 
BRANCH  31  32
HETATM   32  O2  UNL     1      39.248 -20.517  29.199  1.00  0.00    -0.399 OA
ATOM     33  H2  UNL     1      40.190 -20.553  29.317  1.00  0.00     0.209 HD
ENDBRANCH  31  32
ENDBRANCH   7  31
BRANCH  16  34
HETATM   34  C19 UNL     1      37.013 -18.487  24.353  1.00  0.00     0.292 C 
HETATM   35  O5  UNL     1      35.909 -18.076  23.944  1.00  0.00    -0.262 OA
BRANCH  34  36
HETATM   36  O6  UNL     1      38.118 -17.815  23.940  1.00  0.00    -0.324 OA
HETATM   37  C20 UNL     1      38.775 -18.224  22.759  1.00  0.00     0.213 C 
ENDBRANCH  34  36
ENDBRANCH  16  34
BRANCH  14  38
HETATM   38  C16 UNL     1      34.836 -21.307  22.879  1.00  0.00     0.060 C 
HETATM   39  C17 UNL     1      34.012 -22.587  22.760  1.00  0.00     0.012 C 
ENDBRANCH  14  38
BRANCH  10  40
HETATM   40  C11 UNL     1      39.108 -24.991  27.102  1.00  0.00     0.198 C 
BRANCH  40  41
HETATM   41  O3  UNL     1      38.199 -25.934  26.613  1.00  0.00    -0.397 OA
ATOM     42  H3  UNL     1      37.462 -25.459  26.248  1.00  0.00     0.209 HD
ENDBRANCH  40  41
ENDBRANCH  10  40
TORSDOF 14
ENDMDL
MODEL 5
REMARK VINA RESULT: -6.623226783      1.199      1.362
REMARK  14 active torsions:
REMARK  status: ('A' for Active; 'I' for Inactive)
REMARK    1  A    between atoms: C6_7  and  C7_8 
REMARK    2  A    between atoms: C7_8  and  O2_9 
REMARK    3  A    between atoms: C10_13  and  C11_14 
REMARK    4  A    between atoms: C11_14  and  O3_15 
REMARK    5  A    between atoms: C15_20  and  C16_21 
REMARK    6  A    between atoms: C18_24  and  C19_25 
REMARK    7  A    between atoms: C19_25  and  O6_27 
REMARK    8  A    between atoms: C21_29  and  C22_30 
REMARK    9  A    between atoms: C23_31  and  C24_32 
REMARK   10  A    between atoms: C24_32  and  N1_33 
REMARK   11  A    between atoms: C24_32  and  C25_37 
REMARK   12  A    between atoms: C25_37  and  C26_38 
REMARK   13  A    between atoms: C26_38  and  O7_39 
REMARK   14  A    between atoms: C26_38  and  C27_41 
ROOT
HETATM    1  C1  UNL     1      40.098 -23.004  23.732  1.00  0.00     0.015 C 
HETATM    2  C2  UNL     1      39.346 -22.785  24.784  1.00  0.00    -0.080 C 
HETATM    3  C3  UNL     1      39.805 -23.294  26.094  1.00  0.00     0.041 C 
HETATM    4  C4  UNL     1      39.344 -22.302  27.160  1.00  0.00     0.084 C 
HETATM    5  C5  UNL     1      39.175 -21.036  26.405  1.00  0.00     0.143 C 
HETATM    6  O1  UNL     1      40.006 -20.157  26.498  1.00  0.00    -0.297 OA
HETATM    7  C6  UNL     1      37.994 -20.785  25.503  1.00  0.00     0.078 C 
HETATM    8  C8  UNL     1      38.036 -22.028  24.630  1.00  0.00     0.059 C 
HETATM    9  C9  UNL     1      36.950 -22.950  24.985  1.00  0.00    -0.011 C 
HETATM   10  C10 UNL     1      35.749 -23.111  24.481  1.00  0.00    -0.059 C 
HETATM   11  C12 UNL     1      35.189 -22.338  23.354  1.00  0.00     0.040 C 
HETATM   12  C13 UNL     1      35.952 -22.454  22.071  1.00  0.00     0.034 C 
HETATM   13  C14 UNL     1      35.855 -21.260  21.226  1.00  0.00     0.006 C 
HETATM   14  C15 UNL     1      36.359 -20.013  21.429  1.00  0.00     0.044 C 
HETATM   15  O4  UNL     1      37.048 -19.782  22.528  1.00  0.00    -0.336 OA
HETATM   16  C18 UNL     1      37.595 -19.086  23.525  1.00  0.00     0.258 C 
HETATM   17  C21 UNL     1      38.090 -19.487  24.813  1.00  0.00    -0.022 C 
ENDROOT
BRANCH  17  18
HETATM   18  C22 UNL     1      37.952 -18.383  25.804  1.00  0.00     0.005 C 
HETATM   19  C23 UNL     1      37.302 -17.257  25.748  1.00  0.00     0.006 C 
BRANCH  19  20
HETATM   20  C24 UNL     1      37.308 -16.272  26.909  1.00  0.00     0.208 C 
BRANCH  20  21
HETATM   21  N1  UNL     1      38.687 -15.837  27.064  1.00  0.00    -0.072 N 
ATOM     22  H13 UNL     1      39.306 -16.567  27.416  1.00  0.00     0.275 HD
ATOM     23  H12 UNL     1      39.167 -15.683  26.177  1.00  0.00     0.275 HD
ATOM     24  H11 UNL     1      38.659 -15.009  27.659  1.00  0.00     0.275 HD
ENDBRANCH  20  21
BRANCH  20  25
HETATM   25  C25 UNL     1      36.831 -16.974  28.151  1.00  0.00     0.069 C 
BRANCH  25  26
HETATM   26  C26 UNL     1      36.511 -15.953  29.199  1.00  0.00     0.130 C 
BRANCH  26  27
HETATM   27  O7  UNL     1      37.685 -15.515  29.782  1.00  0.00    -0.395 OA
ATOM     28  H7  UNL     1      37.544 -14.657  30.163  1.00  0.00     0.210 HD
ENDBRANCH  26  27
BRANCH  26  29
HETATM   29  C27 UNL     1      35.750 -14.795  28.589  1.00  0.00     0.116 C 
HETATM   30 BR1  UNL     1      34.126 -14.515  29.607  1.00  0.00    -0.094 Br
ENDBRANCH  26  29
ENDBRANCH  25  26
ENDBRANCH  20  25
ENDBRANCH  19  20
ENDBRANCH  17  18
BRANCH   7  31
HETATM   31  C7  UNL     1      36.811 -20.918  26.416  1.00  0.00     0.187 C 
BRANCH  31  32
HETATM   32  O2  UNL     1      36.987 -20.457  27.714  1.00  0.00    -0.399 OA
ATOM     33  H2  UNL     1      36.350 -20.755  28.353  1.00  0.00     0.209 HD
ENDBRANCH  31  32
ENDBRANCH   7  31
BRANCH  16  34
HETATM   34  C19 UNL     1      38.736 -18.290  22.873  1.00  0.00     0.292 C 
HETATM   35  O5  UNL     1      39.869 -18.810  22.838  1.00  0.00    -0.262 OA
BRANCH  34  36
HETATM   36  O6  UNL     1      38.604 -17.053  22.329  1.00  0.00    -0.324 OA
HETATM   37  C20 UNL     1      39.308 -15.968  22.895  1.00  0.00     0.213 C 
ENDBRANCH  34  36
ENDBRANCH  16  34
BRANCH  14  38
HETATM   38  C16 UNL     1      36.003 -19.067  20.267  1.00  0.00     0.060 C 
HETATM   39  C17 UNL     1      35.117 -17.926  20.761  1.00  0.00     0.012 C 
ENDBRANCH  14  38
BRANCH  10  40
HETATM   40  C11 UNL     1      34.794 -24.132  25.014  1.00  0.00     0.198 C 
BRANCH  40  41
HETATM   41  O3  UNL     1      34.126 -24.695  23.923  1.00  0.00    -0.397 OA
ATOM     42  H3  UNL     1      34.487 -24.307  23.135  1.00  0.00     0.209 HD
ENDBRANCH  40  41
ENDBRANCH  10  40
TORSDOF 14
ENDMDL
