MODEL 1
REMARK VINA RESULT: -7.826413369      0.000      0.000
REMARK  6 active torsions:
REMARK  status: ('A' for Active; 'I' for Inactive)
REMARK    1  A    between atoms: N1_6  and  C6_7 
REMARK    2  A    between atoms: C6_7  and  C7_8 
REMARK    3  A    between atoms: C7_8  and  O1_9 
REMARK    4  A    between atoms: N2_15  and  C12_16 
REMARK    5  A    between atoms: C12_16  and  C13_17 
REMARK    6  A    between atoms: C21_25  and  O2_26 
ROOT
HETATM    1  C1  UNL     1      -1.844   8.269  15.387  1.00  0.00     0.014 C 
HETATM    2  C2  UNL     1      -2.501   7.708  14.381  1.00  0.00    -0.086 C 
HETATM    3  C3  UNL     1      -3.664   6.856  14.672  1.00  0.00     0.041 C 
HETATM    4  C4  UNL     1      -4.248   6.141  13.537  1.00  0.00     0.039 C 
HETATM    5  C5  UNL     1      -3.983   6.761  12.175  1.00  0.00     0.263 C 
HETATM    6  N1  UNL     1      -4.514   5.701  11.345  1.00  0.00     0.109 N 
HETATM    7  C8  UNL     1      -3.758   4.583  11.844  1.00  0.00     0.170 C 
HETATM    8  C9  UNL     1      -4.343   3.240  11.566  1.00  0.00     0.045 C 
HETATM    9  C10 UNL     1      -4.545   2.543  12.923  1.00  0.00     0.039 C 
HETATM   10  C11 UNL     1      -4.963   3.746  13.761  1.00  0.00     0.234 C 
HETATM   11  N2  UNL     1      -4.722   3.513  15.146  1.00  0.00     0.094 N 
HETATM   12  C16 UNL     1      -3.305   3.506  15.333  1.00  0.00     0.274 C 
HETATM   13  C17 UNL     1      -2.714   4.233  14.126  1.00  0.00     0.045 C 
HETATM   14  C18 UNL     1      -3.865   4.734  13.327  1.00  0.00     0.034 C 
HETATM   15  C19 UNL     1      -2.352   4.687  11.324  1.00  0.00     0.045 C 
HETATM   16  C20 UNL     1      -1.665   5.959  11.667  1.00  0.00     0.043 C 
HETATM   17  C21 UNL     1      -2.570   7.121  11.937  1.00  0.00     0.093 C 
HETATM   18  C22 UNL     1      -1.985   7.973  13.023  1.00  0.00     0.073 C 
ENDROOT
BRANCH   6  19
HETATM   19  C6  UNL     1      -4.373   6.009   9.976  1.00  0.00     0.300 C 
BRANCH  19  20
HETATM   20  C7  UNL     1      -5.504   6.803   9.353  1.00  0.00     0.194 C 
BRANCH  20  21
HETATM   21  O1  UNL     1      -6.738   6.165   9.565  1.00  0.00    -0.399 OA
ATOM     22  H1  UNL     1      -6.811   5.384   9.029  1.00  0.00     0.209 HD
ENDBRANCH  20  21
ENDBRANCH  19  20
ENDBRANCH   6  19
BRANCH  17  23
HETATM   23  O2  UNL     1      -2.526   7.957  10.797  1.00  0.00    -0.387 OA
ATOM     24  H2  UNL     1      -2.359   7.407  10.041  1.00  0.00     0.210 HD
ENDBRANCH  17  23
BRANCH  11  25
HETATM   25  C12 UNL     1      -5.308   2.329  15.700  1.00  0.00     0.277 C 
BRANCH  25  26
HETATM   26  C13 UNL     1      -6.462   2.538  16.621  1.00  0.00     0.014 A 
HETATM   27  C14 UNL     1      -7.190   1.292  17.020  1.00  0.00     0.007 A 
HETATM   28  C15 UNL     1      -6.327   2.039  18.019  1.00  0.00     0.007 A 
ENDBRANCH  25  26
ENDBRANCH  11  25
TORSDOF 6
ENDMDL
MODEL 2
REMARK VINA RESULT: -7.729025699      1.176      1.225
REMARK  6 active torsions:
REMARK  status: ('A' for Active; 'I' for Inactive)
REMARK    1  A    between atoms: N1_6  and  C6_7 
REMARK    2  A    between atoms: C6_7  and  C7_8 
REMARK    3  A    between atoms: C7_8  and  O1_9 
REMARK    4  A    between atoms: N2_15  and  C12_16 
REMARK    5  A    between atoms: C12_16  and  C13_17 
REMARK    6  A    between atoms: C21_25  and  O2_26 
ROOT
HETATM    1  C1  UNL     1      -2.215   8.174  15.250  1.00  0.00     0.014 C 
HETATM    2  C2  UNL     1      -2.505   7.418  14.200  1.00  0.00    -0.086 C 
HETATM    3  C3  UNL     1      -3.708   6.572  14.237  1.00  0.00     0.041 C 
HETATM    4  C4  UNL     1      -3.888   5.645  13.120  1.00  0.00     0.039 C 
HETATM    5  C5  UNL     1      -3.176   6.034  11.834  1.00  0.00     0.263 C 
HETATM    6  N1  UNL     1      -3.412   4.822  11.079  1.00  0.00     0.109 N 
HETATM    7  C8  UNL     1      -2.879   3.845  11.990  1.00  0.00     0.170 C 
HETATM    8  C9  UNL     1      -3.353   2.447  11.779  1.00  0.00     0.045 C 
HETATM    9  C10 UNL     1      -4.004   1.985  13.093  1.00  0.00     0.039 C 
HETATM   10  C11 UNL     1      -4.665   3.292  13.518  1.00  0.00     0.234 C 
HETATM   11  N2  UNL     1      -4.902   3.313  14.923  1.00  0.00     0.094 N 
HETATM   12  C16 UNL     1      -3.630   3.407  15.566  1.00  0.00     0.274 C 
HETATM   13  C17 UNL     1      -2.661   3.944  14.513  1.00  0.00     0.045 C 
HETATM   14  C18 UNL     1      -3.473   4.244  13.303  1.00  0.00     0.034 C 
HETATM   15  C19 UNL     1      -1.379   3.926  11.955  1.00  0.00     0.045 C 
HETATM   16  C20 UNL     1      -0.831   5.270  12.272  1.00  0.00     0.043 C 
HETATM   17  C21 UNL     1      -1.761   6.416  12.017  1.00  0.00     0.093 C 
HETATM   18  C22 UNL     1      -1.562   7.469  13.064  1.00  0.00     0.073 C 
ENDROOT
BRANCH   6  19
HETATM   19  C6  UNL     1      -2.818   4.897   9.802  1.00  0.00     0.300 C 
BRANCH  19  20
HETATM   20  C7  UNL     1      -3.631   5.597   8.731  1.00  0.00     0.194 C 
BRANCH  20  21
HETATM   21  O1  UNL     1      -4.004   4.697   7.719  1.00  0.00    -0.399 OA
ATOM     22  H1  UNL     1      -4.458   5.148   7.016  1.00  0.00     0.209 HD
ENDBRANCH  20  21
ENDBRANCH  19  20
ENDBRANCH   6  19
BRANCH  17  23
HETATM   23  O2  UNL     1      -1.329   7.045  10.826  1.00  0.00    -0.387 OA
ATOM     24  H2  UNL     1      -0.453   7.383  10.979  1.00  0.00     0.210 HD
ENDBRANCH  17  23
BRANCH  11  25
HETATM   25  C12 UNL     1      -5.653   2.214  15.453  1.00  0.00     0.277 C 
BRANCH  25  26
HETATM   26  C13 UNL     1      -6.622   2.546  16.537  1.00  0.00     0.014 A 
HETATM   27  C14 UNL     1      -7.377   1.378  17.094  1.00  0.00     0.007 A 
HETATM   28  C15 UNL     1      -6.305   2.072  17.914  1.00  0.00     0.007 A 
ENDBRANCH  25  26
ENDBRANCH  11  25
TORSDOF 6
ENDMDL
MODEL 3
REMARK VINA RESULT: -7.440603710      2.924      6.479
REMARK  6 active torsions:
REMARK  status: ('A' for Active; 'I' for Inactive)
REMARK    1  A    between atoms: N1_6  and  C6_7 
REMARK    2  A    between atoms: C6_7  and  C7_8 
REMARK    3  A    between atoms: C7_8  and  O1_9 
REMARK    4  A    between atoms: N2_15  and  C12_16 
REMARK    5  A    between atoms: C12_16  and  C13_17 
REMARK    6  A    between atoms: C21_25  and  O2_26 
ROOT
HETATM    1  C1  UNL     1      -3.559   0.065  11.152  1.00  0.00     0.014 C 
HETATM    2  C2  UNL     1      -4.143   0.737  12.134  1.00  0.00    -0.086 C 
HETATM    3  C3  UNL     1      -4.848   1.990  11.825  1.00  0.00     0.041 C 
HETATM    4  C4  UNL     1      -5.333   2.764  12.967  1.00  0.00     0.039 C 
HETATM    5  C5  UNL     1      -5.561   1.967  14.241  1.00  0.00     0.263 C 
HETATM    6  N1  UNL     1      -5.818   3.067  15.145  1.00  0.00     0.109 N 
HETATM    7  C8  UNL     1      -4.634   3.856  14.931  1.00  0.00     0.170 C 
HETATM    8  C9  UNL     1      -4.738   5.288  15.331  1.00  0.00     0.045 C 
HETATM    9  C10 UNL     1      -4.425   6.132  14.083  1.00  0.00     0.039 C 
HETATM   10  C11 UNL     1      -5.087   5.262  13.021  1.00  0.00     0.234 C 
HETATM   11  N2  UNL     1      -4.530   5.513  11.733  1.00  0.00     0.094 N 
HETATM   12  C16 UNL     1      -3.197   4.999  11.742  1.00  0.00     0.274 C 
HETATM   13  C17 UNL     1      -3.137   3.993  12.891  1.00  0.00     0.045 C 
HETATM   14  C18 UNL     1      -4.515   3.895  13.441  1.00  0.00     0.034 C 
HETATM   15  C19 UNL     1      -3.479   3.178  15.613  1.00  0.00     0.045 C 
HETATM   16  C20 UNL     1      -3.244   1.778  15.174  1.00  0.00     0.043 C 
HETATM   17  C21 UNL     1      -4.441   1.077  14.608  1.00  0.00     0.093 C 
HETATM   18  C22 UNL     1      -4.013   0.172  13.493  1.00  0.00     0.073 C 
ENDROOT
BRANCH   6  19
HETATM   19  C6  UNL     1      -6.049   2.603  16.456  1.00  0.00     0.300 C 
BRANCH  19  20
HETATM   20  C7  UNL     1      -7.413   1.995  16.716  1.00  0.00     0.194 C 
BRANCH  20  21
HETATM   21  O1  UNL     1      -7.338   0.592  16.740  1.00  0.00    -0.399 OA
ATOM     22  H1  UNL     1      -7.678   0.250  17.558  1.00  0.00     0.209 HD
ENDBRANCH  20  21
ENDBRANCH  19  20
ENDBRANCH   6  19
BRANCH  17  23
HETATM   23  O2  UNL     1      -4.908   0.185  15.601  1.00  0.00    -0.387 OA
ATOM     24  H2  UNL     1      -4.867  -0.694  15.242  1.00  0.00     0.210 HD
ENDBRANCH  17  23
BRANCH  11  25
HETATM   25  C12 UNL     1      -4.541   6.877  11.295  1.00  0.00     0.277 C 
BRANCH  25  26
HETATM   26  C13 UNL     1      -5.540   7.219  10.242  1.00  0.00     0.014 A 
HETATM   27  C14 UNL     1      -6.858   7.710  10.753  1.00  0.00     0.007 A 
HETATM   28  C15 UNL     1      -5.892   8.656  10.066  1.00  0.00     0.007 A 
ENDBRANCH  25  26
ENDBRANCH  11  25
TORSDOF 6
ENDMDL
MODEL 4
REMARK VINA RESULT: -7.408685098      3.157      6.029
REMARK  6 active torsions:
REMARK  status: ('A' for Active; 'I' for Inactive)
REMARK    1  A    between atoms: N1_6  and  C6_7 
REMARK    2  A    between atoms: C6_7  and  C7_8 
REMARK    3  A    between atoms: C7_8  and  O1_9 
REMARK    4  A    between atoms: N2_15  and  C12_16 
REMARK    5  A    between atoms: C12_16  and  C13_17 
REMARK    6  A    between atoms: C21_25  and  O2_26 
ROOT
HETATM    1  C1  UNL     1      -2.347   8.272  14.595  1.00  0.00     0.014 C 
HETATM    2  C2  UNL     1      -2.612   6.975  14.516  1.00  0.00    -0.086 C 
HETATM    3  C3  UNL     1      -1.559   6.055  14.061  1.00  0.00     0.041 C 
HETATM    4  C4  UNL     1      -1.958   4.665  13.843  1.00  0.00     0.039 C 
HETATM    5  C5  UNL     1      -3.188   4.215  14.614  1.00  0.00     0.263 C 
HETATM    6  N1  UNL     1      -3.372   2.919  13.996  1.00  0.00     0.109 N 
HETATM    7  C8  UNL     1      -3.428   3.302  12.610  1.00  0.00     0.170 C 
HETATM    8  C9  UNL     1      -3.147   2.212  11.633  1.00  0.00     0.045 C 
HETATM    9  C10 UNL     1      -1.957   2.670  10.772  1.00  0.00     0.039 C 
HETATM   10  C11 UNL     1      -1.143   3.396  11.836  1.00  0.00     0.234 C 
HETATM   11  N2  UNL     1      -0.262   4.348  11.246  1.00  0.00     0.094 N 
HETATM   12  C16 UNL     1      -1.069   5.405  10.725  1.00  0.00     0.274 C 
HETATM   13  C17 UNL     1      -2.410   5.313  11.452  1.00  0.00     0.045 C 
HETATM   14  C18 UNL     1      -2.269   4.236  12.468  1.00  0.00     0.034 C 
HETATM   15  C19 UNL     1      -4.760   3.946  12.346  1.00  0.00     0.045 C 
HETATM   16  C20 UNL     1      -5.056   5.117  13.210  1.00  0.00     0.043 C 
HETATM   17  C21 UNL     1      -4.334   5.142  14.522  1.00  0.00     0.093 C 
HETATM   18  C22 UNL     1      -3.982   6.555  14.876  1.00  0.00     0.073 C 
ENDROOT
BRANCH   6  19
HETATM   19  C6  UNL     1      -4.502   2.261  14.524  1.00  0.00     0.300 C 
BRANCH  19  20
HETATM   20  C7  UNL     1      -4.278   0.844  15.013  1.00  0.00     0.194 C 
BRANCH  20  21
HETATM   21  O1  UNL     1      -3.567   0.840  16.226  1.00  0.00    -0.399 OA
ATOM     22  H1  UNL     1      -3.865   0.136  16.790  1.00  0.00     0.209 HD
ENDBRANCH  20  21
ENDBRANCH  19  20
ENDBRANCH   6  19
BRANCH  17  23
HETATM   23  O2  UNL     1      -5.268   4.773  15.518  1.00  0.00    -0.387 OA
ATOM     24  H2  UNL     1      -6.137   4.842  15.140  1.00  0.00     0.210 HD
ENDBRANCH  17  23
BRANCH  11  25
HETATM   25  C12 UNL     1       0.624   3.848  10.237  1.00  0.00     0.277 C 
BRANCH  25  26
HETATM   26  C13 UNL     1       2.025   4.357  10.286  1.00  0.00     0.014 A 
HETATM   27  C14 UNL     1       2.882   3.971   9.121  1.00  0.00     0.007 A 
HETATM   28  C15 UNL     1       2.414   5.403   9.298  1.00  0.00     0.007 A 
ENDBRANCH  25  26
ENDBRANCH  11  25
TORSDOF 6
ENDMDL
MODEL 5
REMARK VINA RESULT: -7.271420906      1.677      3.483
REMARK  6 active torsions:
REMARK  status: ('A' for Active; 'I' for Inactive)
REMARK    1  A    between atoms: N1_6  and  C6_7 
REMARK    2  A    between atoms: C6_7  and  C7_8 
REMARK    3  A    between atoms: C7_8  and  O1_9 
REMARK    4  A    between atoms: N2_15  and  C12_16 
REMARK    5  A    between atoms: C12_16  and  C13_17 
REMARK    6  A    between atoms: C21_25  and  O2_26 
ROOT
HETATM    1  C1  UNL     1      -6.248   7.565  10.674  1.00  0.00     0.014 C 
HETATM    2  C2  UNL     1      -5.104   6.993  11.024  1.00  0.00    -0.086 C 
HETATM    3  C3  UNL     1      -5.106   5.581  11.435  1.00  0.00     0.041 C 
HETATM    4  C4  UNL     1      -3.847   5.053  11.959  1.00  0.00     0.039 C 
HETATM    5  C5  UNL     1      -2.597   5.794  11.512  1.00  0.00     0.263 C 
HETATM    6  N1  UNL     1      -1.634   5.135  12.368  1.00  0.00     0.109 N 
HETATM    7  C8  UNL     1      -2.242   5.355  13.653  1.00  0.00     0.170 C 
HETATM    8  C9  UNL     1      -1.795   4.435  14.738  1.00  0.00     0.045 C 
HETATM    9  C10 UNL     1      -3.050   3.728  15.279  1.00  0.00     0.039 C 
HETATM   10  C11 UNL     1      -3.822   3.559  13.976  1.00  0.00     0.234 C 
HETATM   11  N2  UNL     1      -5.217   3.406  14.224  1.00  0.00     0.094 N 
HETATM   12  C16 UNL     1      -5.704   4.665  14.690  1.00  0.00     0.274 C 
HETATM   13  C17 UNL     1      -4.681   5.708  14.243  1.00  0.00     0.045 C 
HETATM   14  C18 UNL     1      -3.672   4.987  13.421  1.00  0.00     0.034 C 
HETATM   15  C19 UNL     1      -2.041   6.794  14.037  1.00  0.00     0.045 C 
HETATM   16  C20 UNL     1      -2.571   7.771  13.051  1.00  0.00     0.043 C 
HETATM   17  C21 UNL     1      -2.683   7.262  11.646  1.00  0.00     0.093 C 
HETATM   18  C22 UNL     1      -3.899   7.847  10.995  1.00  0.00     0.073 C 
ENDROOT
BRANCH   6  19
HETATM   19  C6  UNL     1      -0.340   5.661  12.174  1.00  0.00     0.300 C 
BRANCH  19  20
HETATM   20  C7  UNL     1       0.572   4.865  11.262  1.00  0.00     0.194 C 
BRANCH  20  21
HETATM   21  O1  UNL     1       1.852   4.734  11.827  1.00  0.00    -0.399 OA
ATOM     22  H1  UNL     1       2.122   3.823  11.845  1.00  0.00     0.209 HD
ENDBRANCH  20  21
ENDBRANCH  19  20
ENDBRANCH   6  19
BRANCH  17  23
HETATM   23  O2  UNL     1      -1.611   7.824  10.913  1.00  0.00    -0.387 OA
ATOM     24  H2  UNL     1      -1.281   8.566  11.407  1.00  0.00     0.210 HD
ENDBRANCH  17  23
BRANCH  11  25
HETATM   25  C12 UNL     1      -5.587   2.358  15.128  1.00  0.00     0.277 C 
BRANCH  25  26
HETATM   26  C13 UNL     1      -6.492   2.748  16.248  1.00  0.00     0.014 A 
HETATM   27  C14 UNL     1      -7.275   1.625  16.853  1.00  0.00     0.007 A 
HETATM   28  C15 UNL     1      -6.138   2.277  17.616  1.00  0.00     0.007 A 
ENDBRANCH  25  26
ENDBRANCH  11  25
TORSDOF 6
ENDMDL
