MODEL 1
REMARK VINA RESULT: -5.384597776      0.000      0.000
REMARK  9 active torsions:
REMARK  status: ('A' for Active; 'I' for Inactive)
REMARK    1  A    between atoms: C2_2  and  C3_3 
REMARK    2  A    between atoms: C2_2  and  C4_6 
REMARK    3  A    between atoms: C3_3  and  O1_4 
REMARK    4  A    between atoms: C4_6  and  O2_7 
REMARK    5  A    between atoms: C16_20  and  C17_21 
REMARK    6  A    between atoms: C17_21  and  C18_23 
REMARK    7  A    between atoms: C18_23  and  O4_24 
REMARK    8  A    between atoms: C20_27  and  C21_28 
REMARK    9  A    between atoms: C21_28  and  C22_29 
ROOT
HETATM    1  C4  UNL     1     -18.864  -7.195  24.996  1.00  0.00     0.087 C 
HETATM    2  C5  UNL     1     -20.291  -7.589  24.715  1.00  0.00     0.044 C 
HETATM    3  C6  UNL     1     -20.201  -8.683  23.639  1.00  0.00     0.014 C 
HETATM    4  C7  UNL     1     -19.005  -9.473  24.195  1.00  0.00    -0.029 C 
HETATM    5  C8  UNL     1     -19.571 -10.094  25.437  1.00  0.00     0.016 C 
HETATM    6  C9  UNL     1     -18.052  -8.322  24.445  1.00  0.00     0.033 C 
HETATM    7  C10 UNL     1     -17.577  -7.819  23.079  1.00  0.00     0.009 C 
HETATM    8  C11 UNL     1     -17.023  -8.895  22.206  1.00  0.00     0.006 C 
HETATM    9  C12 UNL     1     -18.098  -9.911  21.917  1.00  0.00    -0.001 C 
HETATM   10  C13 UNL     1     -17.728 -10.975  20.959  1.00  0.00     0.003 C 
HETATM   11  C14 UNL     1     -17.379 -10.524  19.573  1.00  0.00     0.011 C 
HETATM   12  C15 UNL     1     -17.575 -11.723  18.674  1.00  0.00     0.042 C 
HETATM   13  C16 UNL     1     -17.361 -13.012  19.371  1.00  0.00    -0.013 C 
HETATM   14  C19 UNL     1     -16.955 -13.183  20.600  1.00  0.00    -0.006 C 
HETATM   15  C20 UNL     1     -16.666 -11.940  21.419  1.00  0.00    -0.017 C 
HETATM   16  C23 UNL     1     -16.807 -12.302  22.841  1.00  0.00     0.015 C 
HETATM   17  C24 UNL     1     -17.329 -11.237  23.766  1.00  0.00     0.011 C 
HETATM   18  C25 UNL     1     -18.514 -10.494  23.230  1.00  0.00    -0.032 C 
HETATM   19  C26 UNL     1     -19.629 -11.528  23.106  1.00  0.00     0.016 C 
ENDROOT
BRANCH   1  20
HETATM   20  C2  UNL     1     -18.579  -6.752  26.357  1.00  0.00    -0.032 C 
HETATM   21  C1  UNL     1     -19.128  -5.729  26.993  1.00  0.00     0.019 C 
BRANCH  20  22
HETATM   22  C3  UNL     1     -17.562  -7.529  27.147  1.00  0.00     0.200 C 
BRANCH  22  23
HETATM   23  O1  UNL     1     -16.484  -6.688  27.387  1.00  0.00    -0.397 OA
ATOM     24  H1  UNL     1     -16.223  -6.807  28.292  1.00  0.00     0.209 HD
ENDBRANCH  22  23
ENDBRANCH  20  22
ENDBRANCH   1  20
BRANCH   1  25
HETATM   25  O2  UNL     1     -18.680  -6.005  24.214  1.00  0.00    -0.385 OA
ATOM     26  H2  UNL     1     -18.519  -6.339  23.339  1.00  0.00     0.211 HD
ENDBRANCH   1  25
BRANCH  15  27
HETATM   27  C21 UNL     1     -15.277 -11.576  20.955  1.00  0.00     0.025 C 
BRANCH  27  28
HETATM   28  C22 UNL     1     -14.178 -12.060  21.855  1.00  0.00     0.086 C 
HETATM   29 BR1  UNL     1     -13.649 -10.497  22.916  1.00  0.00    -0.096 Br
ENDBRANCH  27  28
ENDBRANCH  15  27
BRANCH  13  30
HETATM   30  C17 UNL     1     -17.633 -14.233  18.602  1.00  0.00     0.178 C 
HETATM   31  O3  UNL     1     -16.906 -15.270  18.772  1.00  0.00    -0.290 OA
BRANCH  30  32
HETATM   32  C18 UNL     1     -18.736 -14.262  17.640  1.00  0.00     0.247 C 
BRANCH  32  33
HETATM   33  O4  UNL     1     -18.537 -15.295  16.739  1.00  0.00    -0.393 OA
ATOM     34  H4  UNL     1     -19.199 -15.255  16.059  1.00  0.00     0.209 HD
ENDBRANCH  32  33
ENDBRANCH  30  32
ENDBRANCH  13  30
TORSDOF 9
ENDMDL
MODEL 2
REMARK VINA RESULT: -5.278805585      9.891     13.038
REMARK  9 active torsions:
REMARK  status: ('A' for Active; 'I' for Inactive)
REMARK    1  A    between atoms: C2_2  and  C3_3 
REMARK    2  A    between atoms: C2_2  and  C4_6 
REMARK    3  A    between atoms: C3_3  and  O1_4 
REMARK    4  A    between atoms: C4_6  and  O2_7 
REMARK    5  A    between atoms: C16_20  and  C17_21 
REMARK    6  A    between atoms: C17_21  and  C18_23 
REMARK    7  A    between atoms: C18_23  and  O4_24 
REMARK    8  A    between atoms: C20_27  and  C21_28 
REMARK    9  A    between atoms: C21_28  and  C22_29 
ROOT
HETATM    1  C4  UNL     1      -8.833 -17.330  26.980  1.00  0.00     0.087 C 
HETATM    2  C5  UNL     1      -7.414 -17.613  27.399  1.00  0.00     0.044 C 
HETATM    3  C6  UNL     1      -6.591 -16.437  26.846  1.00  0.00     0.014 C 
HETATM    4  C7  UNL     1      -7.554 -15.288  27.183  1.00  0.00    -0.029 C 
HETATM    5  C8  UNL     1      -7.489 -15.232  28.680  1.00  0.00     0.016 C 
HETATM    6  C9  UNL     1      -8.835 -15.877  26.630  1.00  0.00     0.033 C 
HETATM    7  C10 UNL     1      -8.726 -15.851  25.103  1.00  0.00     0.009 C 
HETATM    8  C11 UNL     1      -8.381 -14.508  24.551  1.00  0.00     0.006 C 
HETATM    9  C12 UNL     1      -7.029 -14.087  25.065  1.00  0.00    -0.001 C 
HETATM   10  C13 UNL     1      -6.499 -12.826  24.502  1.00  0.00     0.003 C 
HETATM   11  C14 UNL     1      -6.261 -12.811  23.023  1.00  0.00     0.011 C 
HETATM   12  C15 UNL     1      -5.259 -11.710  22.764  1.00  0.00     0.042 C 
HETATM   13  C16 UNL     1      -5.329 -10.615  23.759  1.00  0.00    -0.013 C 
HETATM   14  C19 UNL     1      -6.193 -10.489  24.729  1.00  0.00    -0.006 C 
HETATM   15  C20 UNL     1      -7.247 -11.571  24.869  1.00  0.00    -0.017 C 
HETATM   16  C23 UNL     1      -7.701 -11.570  26.272  1.00  0.00     0.015 C 
HETATM   17  C24 UNL     1      -8.092 -12.898  26.861  1.00  0.00     0.011 C 
HETATM   18  C25 UNL     1      -7.132 -14.006  26.555  1.00  0.00    -0.032 C 
HETATM   19  C26 UNL     1      -5.821 -13.616  27.231  1.00  0.00     0.016 C 
ENDROOT
BRANCH   1  20
HETATM   20  C2  UNL     1      -9.875 -17.814  27.881  1.00  0.00    -0.032 C 
HETATM   21  C1  UNL     1     -10.954 -17.156  28.275  1.00  0.00     0.019 C 
BRANCH  20  22
HETATM   22  C3  UNL     1      -9.735 -19.207  28.427  1.00  0.00     0.200 C 
BRANCH  22  23
HETATM   23  O1  UNL     1     -10.134 -20.091  27.434  1.00  0.00    -0.397 OA
ATOM     24  H1  UNL     1      -9.579 -20.860  27.493  1.00  0.00     0.209 HD
ENDBRANCH  22  23
ENDBRANCH  20  22
ENDBRANCH   1  20
BRANCH   1  25
HETATM   25  O2  UNL     1      -9.008 -18.136  25.805  1.00  0.00    -0.385 OA
ATOM     26  H2  UNL     1      -8.129 -18.206  25.452  1.00  0.00     0.211 HD
ENDBRANCH   1  25
BRANCH  15  27
HETATM   27  C21 UNL     1      -8.265 -11.150  23.836  1.00  0.00     0.025 C 
BRANCH  27  28
HETATM   28  C22 UNL     1      -9.451 -10.421  24.398  1.00  0.00     0.086 C 
HETATM   29 BR1  UNL     1     -10.913 -11.729  24.399  1.00  0.00    -0.096 Br
ENDBRANCH  27  28
ENDBRANCH  15  27
BRANCH  13  30
HETATM   30  C17 UNL     1      -4.320  -9.555  23.647  1.00  0.00     0.178 C 
HETATM   31  O3  UNL     1      -3.119  -9.775  24.023  1.00  0.00    -0.290 OA
BRANCH  30  32
HETATM   32  C18 UNL     1      -4.690  -8.246  23.104  1.00  0.00     0.247 C 
BRANCH  32  33
HETATM   33  O4  UNL     1      -3.758  -7.860  22.153  1.00  0.00    -0.393 OA
ATOM     34  H4  UNL     1      -4.200  -7.681  21.331  1.00  0.00     0.209 HD
ENDBRANCH  32  33
ENDBRANCH  30  32
ENDBRANCH  13  30
TORSDOF 9
ENDMDL
MODEL 3
REMARK VINA RESULT: -5.244136397      9.888     13.200
REMARK  9 active torsions:
REMARK  status: ('A' for Active; 'I' for Inactive)
REMARK    1  A    between atoms: C2_2  and  C3_3 
REMARK    2  A    between atoms: C2_2  and  C4_6 
REMARK    3  A    between atoms: C3_3  and  O1_4 
REMARK    4  A    between atoms: C4_6  and  O2_7 
REMARK    5  A    between atoms: C16_20  and  C17_21 
REMARK    6  A    between atoms: C17_21  and  C18_23 
REMARK    7  A    between atoms: C18_23  and  O4_24 
REMARK    8  A    between atoms: C20_27  and  C21_28 
REMARK    9  A    between atoms: C21_28  and  C22_29 
ROOT
HETATM    1  C4  UNL     1      -7.941 -16.872  27.350  1.00  0.00     0.087 C 
HETATM    2  C5  UNL     1      -6.452 -17.047  27.505  1.00  0.00     0.044 C 
HETATM    3  C6  UNL     1      -5.826 -15.890  26.709  1.00  0.00     0.014 C 
HETATM    4  C7  UNL     1      -6.779 -14.761  27.132  1.00  0.00    -0.029 C 
HETATM    5  C8  UNL     1      -6.435 -14.564  28.578  1.00  0.00     0.016 C 
HETATM    6  C9  UNL     1      -8.102 -15.459  26.889  1.00  0.00     0.033 C 
HETATM    7  C10 UNL     1      -8.287 -15.569  25.374  1.00  0.00     0.009 C 
HETATM    8  C11 UNL     1      -8.141 -14.268  24.657  1.00  0.00     0.006 C 
HETATM    9  C12 UNL     1      -6.745 -13.737  24.862  1.00  0.00    -0.001 C 
HETATM   10  C13 UNL     1      -6.414 -12.510  24.106  1.00  0.00     0.003 C 
HETATM   11  C14 UNL     1      -6.463 -12.620  22.612  1.00  0.00     0.011 C 
HETATM   12  C15 UNL     1      -5.601 -11.502  22.074  1.00  0.00     0.042 C 
HETATM   13  C16 UNL     1      -5.550 -10.325  22.971  1.00  0.00    -0.013 C 
HETATM   14  C19 UNL     1      -6.221 -10.151  24.077  1.00  0.00    -0.006 C 
HETATM   15  C20 UNL     1      -7.158 -11.264  24.508  1.00  0.00    -0.017 C 
HETATM   16  C23 UNL     1      -7.336 -11.155  25.967  1.00  0.00     0.015 C 
HETATM   17  C24 UNL     1      -7.522 -12.439  26.728  1.00  0.00     0.011 C 
HETATM   18  C25 UNL     1      -6.568 -13.524  26.332  1.00  0.00    -0.032 C 
HETATM   19  C26 UNL     1      -5.181 -13.011  26.706  1.00  0.00     0.016 C 
ENDROOT
BRANCH   1  20
HETATM   20  C2  UNL     1      -8.759 -17.319  28.472  1.00  0.00    -0.032 C 
HETATM   21  C1  UNL     1      -9.769 -16.670  29.029  1.00  0.00     0.019 C 
BRANCH  20  22
HETATM   22  C3  UNL     1      -8.446 -18.661  29.074  1.00  0.00     0.200 C 
BRANCH  22  23
HETATM   23  O1  UNL     1      -9.100 -19.624  28.319  1.00  0.00    -0.397 OA
ATOM     24  H1  UNL     1      -9.484 -20.250  28.921  1.00  0.00     0.209 HD
ENDBRANCH  22  23
ENDBRANCH  20  22
ENDBRANCH   1  20
BRANCH   1  25
HETATM   25  O2  UNL     1      -8.284 -17.790  26.301  1.00  0.00    -0.385 OA
ATOM     26  H2  UNL     1      -8.303 -17.242  25.525  1.00  0.00     0.211 HD
ENDBRANCH   1  25
BRANCH  15  27
HETATM   27  C21 UNL     1      -8.379 -10.989  23.663  1.00  0.00     0.025 C 
BRANCH  27  28
HETATM   28  C22 UNL     1      -9.508 -10.333  24.403  1.00  0.00     0.086 C 
HETATM   29 BR1  UNL     1     -10.913 -11.697  24.518  1.00  0.00    -0.096 Br
ENDBRANCH  27  28
ENDBRANCH  15  27
BRANCH  13  30
HETATM   30  C17 UNL     1      -4.651  -9.232  22.578  1.00  0.00     0.178 C 
HETATM   31  O3  UNL     1      -4.486  -8.956  21.342  1.00  0.00    -0.290 OA
BRANCH  30  32
HETATM   32  C18 UNL     1      -3.946  -8.461  23.603  1.00  0.00     0.247 C 
BRANCH  32  33
HETATM   33  O4  UNL     1      -2.638  -8.907  23.699  1.00  0.00    -0.393 OA
ATOM     34  H4  UNL     1      -2.369  -9.282  22.868  1.00  0.00     0.209 HD
ENDBRANCH  32  33
ENDBRANCH  30  32
ENDBRANCH  13  30
TORSDOF 9
ENDMDL
MODEL 4
REMARK VINA RESULT: -5.056063602      9.752     12.623
REMARK  9 active torsions:
REMARK  status: ('A' for Active; 'I' for Inactive)
REMARK    1  A    between atoms: C2_2  and  C3_3 
REMARK    2  A    between atoms: C2_2  and  C4_6 
REMARK    3  A    between atoms: C3_3  and  O1_4 
REMARK    4  A    between atoms: C4_6  and  O2_7 
REMARK    5  A    between atoms: C16_20  and  C17_21 
REMARK    6  A    between atoms: C17_21  and  C18_23 
REMARK    7  A    between atoms: C18_23  and  O4_24 
REMARK    8  A    between atoms: C20_27  and  C21_28 
REMARK    9  A    between atoms: C21_28  and  C22_29 
ROOT
HETATM    1  C4  UNL     1     -10.032 -17.245  26.429  1.00  0.00     0.087 C 
HETATM    2  C5  UNL     1      -8.721 -17.770  26.954  1.00  0.00     0.044 C 
HETATM    3  C6  UNL     1      -7.676 -16.715  26.554  1.00  0.00     0.014 C 
HETATM    4  C7  UNL     1      -8.479 -15.445  26.877  1.00  0.00    -0.029 C 
HETATM    5  C8  UNL     1      -8.554 -15.474  28.374  1.00  0.00     0.016 C 
HETATM    6  C9  UNL     1      -9.775 -15.795  26.174  1.00  0.00     0.033 C 
HETATM    7  C10 UNL     1      -9.514 -15.711  24.668  1.00  0.00     0.009 C 
HETATM    8  C11 UNL     1      -8.913 -14.414  24.237  1.00  0.00     0.006 C 
HETATM    9  C12 UNL     1      -7.570 -14.240  24.896  1.00  0.00    -0.001 C 
HETATM   10  C13 UNL     1      -6.799 -13.053  24.465  1.00  0.00     0.003 C 
HETATM   11  C14 UNL     1      -6.417 -13.003  23.016  1.00  0.00     0.011 C 
HETATM   12  C15 UNL     1      -5.237 -12.065  22.920  1.00  0.00     0.042 C 
HETATM   13  C16 UNL     1      -5.235 -11.023  23.973  1.00  0.00    -0.013 C 
HETATM   14  C19 UNL     1      -6.161 -10.809  24.867  1.00  0.00    -0.006 C 
HETATM   15  C20 UNL     1      -7.378 -11.715  24.843  1.00  0.00    -0.017 C 
HETATM   16  C23 UNL     1      -7.962 -11.711  26.197  1.00  0.00     0.015 C 
HETATM   17  C24 UNL     1      -8.609 -12.987  26.662  1.00  0.00     0.011 C 
HETATM   18  C25 UNL     1      -7.805 -14.217  26.373  1.00  0.00    -0.032 C 
HETATM   19  C26 UNL     1      -6.524 -14.074  27.187  1.00  0.00     0.016 C 
ENDROOT
BRANCH   1  20
HETATM   20  C2  UNL     1     -11.219 -17.601  27.200  1.00  0.00    -0.032 C 
HETATM   21  C1  UNL     1     -12.127 -16.771  27.689  1.00  0.00     0.019 C 
BRANCH  20  22
HETATM   22  C3  UNL     1     -11.464 -19.058  27.474  1.00  0.00     0.200 C 
BRANCH  22  23
HETATM   23  O1  UNL     1     -12.105 -19.593  26.365  1.00  0.00    -0.397 OA
ATOM     24  H1  UNL     1     -11.465 -20.098  25.878  1.00  0.00     0.209 HD
ENDBRANCH  22  23
ENDBRANCH  20  22
ENDBRANCH   1  20
BRANCH   1  25
HETATM   25  O2  UNL     1     -10.212 -17.954  25.193  1.00  0.00    -0.385 OA
ATOM     26  H2  UNL     1      -9.834 -17.369  24.546  1.00  0.00     0.211 HD
ENDBRANCH   1  25
BRANCH  15  27
HETATM   27  C21 UNL     1      -8.212 -11.087  23.752  1.00  0.00     0.025 C 
BRANCH  27  28
HETATM   28  C22 UNL     1      -9.321 -10.207  24.252  1.00  0.00     0.086 C 
HETATM   29 BR1  UNL     1     -10.965 -11.243  23.986  1.00  0.00    -0.096 Br
ENDBRANCH  27  28
ENDBRANCH  15  27
BRANCH  13  30
HETATM   30  C17 UNL     1      -4.069 -10.132  24.020  1.00  0.00     0.178 C 
HETATM   31  O3  UNL     1      -2.976 -10.539  24.543  1.00  0.00    -0.290 OA
BRANCH  30  32
HETATM   32  C18 UNL     1      -4.158  -8.779  23.468  1.00  0.00     0.247 C 
BRANCH  32  33
HETATM   33  O4  UNL     1      -2.893  -8.217  23.418  1.00  0.00    -0.393 OA
ATOM     34  H4  UNL     1      -2.925  -7.407  22.922  1.00  0.00     0.209 HD
ENDBRANCH  32  33
ENDBRANCH  30  32
ENDBRANCH  13  30
TORSDOF 9
ENDMDL
MODEL 5
REMARK VINA RESULT: -5.038182904     10.097     11.896
REMARK  9 active torsions:
REMARK  status: ('A' for Active; 'I' for Inactive)
REMARK    1  A    between atoms: C2_2  and  C3_3 
REMARK    2  A    between atoms: C2_2  and  C4_6 
REMARK    3  A    between atoms: C3_3  and  O1_4 
REMARK    4  A    between atoms: C4_6  and  O2_7 
REMARK    5  A    between atoms: C16_20  and  C17_21 
REMARK    6  A    between atoms: C17_21  and  C18_23 
REMARK    7  A    between atoms: C18_23  and  O4_24 
REMARK    8  A    between atoms: C20_27  and  C21_28 
REMARK    9  A    between atoms: C21_28  and  C22_29 
ROOT
HETATM    1  C4  UNL     1      -8.746 -12.402  29.828  1.00  0.00     0.087 C 
HETATM    2  C5  UNL     1      -9.880 -11.535  29.345  1.00  0.00     0.044 C 
HETATM    3  C6  UNL     1      -9.458 -11.066  27.943  1.00  0.00     0.014 C 
HETATM    4  C7  UNL     1      -8.873 -12.384  27.412  1.00  0.00    -0.029 C 
HETATM    5  C8  UNL     1     -10.089 -13.247  27.262  1.00  0.00     0.016 C 
HETATM    6  C9  UNL     1      -7.986 -12.743  28.587  1.00  0.00     0.033 C 
HETATM    7  C10 UNL     1      -6.805 -11.770  28.582  1.00  0.00     0.009 C 
HETATM    8  C11 UNL     1      -6.091 -11.704  27.273  1.00  0.00     0.006 C 
HETATM    9  C12 UNL     1      -7.036 -11.207  26.210  1.00  0.00    -0.001 C 
HETATM   10  C13 UNL     1      -6.432 -10.972  24.881  1.00  0.00     0.003 C 
HETATM   11  C14 UNL     1      -5.356  -9.930  24.818  1.00  0.00     0.011 C 
HETATM   12  C15 UNL     1      -5.284  -9.479  23.377  1.00  0.00     0.042 C 
HETATM   13  C16 UNL     1      -5.688 -10.533  22.418  1.00  0.00    -0.013 C 
HETATM   14  C19 UNL     1      -5.997 -11.770  22.695  1.00  0.00    -0.006 C 
HETATM   15  C20 UNL     1      -5.942 -12.195  24.150  1.00  0.00    -0.017 C 
HETATM   16  C23 UNL     1      -6.844 -13.350  24.311  1.00  0.00     0.015 C 
HETATM   17  C24 UNL     1      -7.560 -13.478  25.627  1.00  0.00     0.011 C 
HETATM   18  C25 UNL     1      -8.155 -12.195  26.122  1.00  0.00    -0.032 C 
HETATM   19  C26 UNL     1      -9.221 -11.812  25.099  1.00  0.00     0.016 C 
ENDROOT
BRANCH   1  20
HETATM   20  C2  UNL     1      -9.112 -13.494  30.724  1.00  0.00    -0.032 C 
HETATM   21  C1  UNL     1      -8.577 -14.705  30.762  1.00  0.00     0.019 C 
BRANCH  20  22
HETATM   22  C3  UNL     1     -10.205 -13.241  31.725  1.00  0.00     0.200 C 
BRANCH  22  23
HETATM   23  O1  UNL     1      -9.654 -12.524  32.777  1.00  0.00    -0.397 OA
ATOM     24  H1  UNL     1     -10.265 -12.563  33.503  1.00  0.00     0.209 HD
ENDBRANCH  22  23
ENDBRANCH  20  22
ENDBRANCH   1  20
BRANCH   1  25
HETATM   25  O2  UNL     1      -7.981 -11.525  30.668  1.00  0.00    -0.385 OA
ATOM     26  H2  UNL     1      -8.469 -10.710  30.639  1.00  0.00     0.211 HD
ENDBRANCH   1  25
BRANCH  15  27
HETATM   27  C21 UNL     1      -4.469 -12.464  24.342  1.00  0.00     0.025 C 
BRANCH  27  28
HETATM   28  C22 UNL     1      -4.089 -13.913  24.253  1.00  0.00     0.086 C 
HETATM   29 BR1  UNL     1      -3.692 -14.459  26.095  1.00  0.00    -0.096 Br
ENDBRANCH  27  28
ENDBRANCH  15  27
BRANCH  13  30
HETATM   30  C17 UNL     1      -5.750 -10.149  21.002  1.00  0.00     0.178 C 
HETATM   31  O3  UNL     1      -4.915  -9.304  20.534  1.00  0.00    -0.290 OA
BRANCH  30  32
HETATM   32  C18 UNL     1      -6.767 -10.737  20.128  1.00  0.00     0.247 C 
BRANCH  32  33
HETATM   33  O4  UNL     1      -7.561  -9.730  19.603  1.00  0.00    -0.393 OA
ATOM     34  H4  UNL     1      -8.222 -10.111  19.036  1.00  0.00     0.209 HD
ENDBRANCH  32  33
ENDBRANCH  30  32
ENDBRANCH  13  30
TORSDOF 9
ENDMDL
