MODEL 1
REMARK VINA RESULT: -6.345422319      0.000      0.000
REMARK  6 active torsions:
REMARK  status: ('A' for Active; 'I' for Inactive)
REMARK    1  A    between atoms: N1_2  and  C2_4 
REMARK    2  A    between atoms: C2_4  and  C3_5 
REMARK    3  A    between atoms: C8_10  and  C9_11 
REMARK    4  A    between atoms: C9_11  and  C10_12 
REMARK    5  A    between atoms: C10_12  and  N2_13 
REMARK       I    between atoms: N2_13  and  C11_15 
REMARK       I    between atoms: C11_15  and  N3_17 
REMARK    6  A    between atoms: N4_23  and  C17_24 
ROOT
HETATM    1  N2  UNL     1     -12.626 -11.517  23.018  1.00  0.00    -0.343 N 
ATOM      2  H2  UNL     1     -12.466 -12.145  22.230  1.00  0.00     0.164 HD
HETATM    3  C11 UNL     1     -13.889 -10.853  23.116  1.00  0.00     0.322 C 
HETATM    4  O1  UNL     1     -14.027 -10.091  24.096  1.00  0.00    -0.247 OA
HETATM    5  N3  UNL     1     -14.923 -11.019  22.188  1.00  0.00    -0.299 N 
HETATM    6  C12 UNL     1     -14.859 -12.147  21.253  1.00  0.00     0.135 C 
HETATM    7  C13 UNL     1     -16.192 -12.868  21.501  1.00  0.00     0.035 C 
HETATM    8  C14 UNL     1     -17.304 -12.044  20.890  1.00  0.00    -0.006 C 
HETATM    9  C15 UNL     1     -16.932 -11.873  19.438  1.00  0.00     0.045 C 
HETATM   10  C16 UNL     1     -18.071 -11.916  18.478  1.00  0.00     0.274 C 
HETATM   11  N4  UNL     1     -18.827 -13.115  18.779  1.00  0.00     0.092 N 
HETATM   12  C20 UNL     1     -19.534 -12.865  19.994  1.00  0.00     0.274 C 
HETATM   13  C21 UNL     1     -18.589 -12.760  21.134  1.00  0.00     0.045 C 
HETATM   14  C22 UNL     1     -17.265 -10.696  21.498  1.00  0.00    -0.021 A 
HETATM   15  C23 UNL     1     -18.368  -9.845  21.465  1.00  0.00     0.034 A 
HETATM   16  C24 UNL     1     -18.329  -8.577  21.992  1.00  0.00     0.034 A 
HETATM   17 CL1  UNL     1     -19.737  -7.521  21.938  1.00  0.00    -0.084 Cl
HETATM   18  C25 UNL     1     -17.186  -8.111  22.573  1.00  0.00     0.026 A 
HETATM   19  C26 UNL     1     -16.062  -8.953  22.617  1.00  0.00     0.032 A 
HETATM   20  C27 UNL     1     -16.105 -10.228  22.087  1.00  0.00     0.046 A 
ENDROOT
BRANCH   1  21
HETATM   21  C10 UNL     1     -11.583 -11.341  23.969  1.00  0.00     0.126 C 
BRANCH  21  22
HETATM   22  C9  UNL     1     -10.603 -10.242  23.687  1.00  0.00     0.052 C 
BRANCH  22  23
HETATM   23  C8  UNL     1      -9.320 -10.555  24.455  1.00  0.00     0.188 C 
HETATM   24  C7  UNL     1      -9.531 -11.753  25.311  1.00  0.00     0.033 C 
HETATM   25  C6  UNL     1      -8.761 -11.718  26.606  1.00  0.00     0.002 C 
HETATM   26  C5  UNL     1      -7.277 -11.962  26.413  1.00  0.00     0.002 C 
HETATM   27  C4  UNL     1      -6.731 -11.000  25.347  1.00  0.00     0.038 C 
HETATM   28  C3  UNL     1      -7.120 -11.423  23.999  1.00  0.00     0.224 C 
HETATM   29  N5  UNL     1      -8.262 -10.641  23.497  1.00  0.00    -0.062 N 
ATOM     30  H52 UNL     1      -7.968  -9.714  23.188  1.00  0.00     0.278 HD
ATOM     31  H51 UNL     1      -8.599 -11.009  22.607  1.00  0.00     0.278 HD
BRANCH  28  32
HETATM   32  C2  UNL     1      -6.081 -11.478  22.955  1.00  0.00     0.087 C 
BRANCH  32  33
HETATM   33  N1  UNL     1      -5.457 -10.294  22.516  1.00  0.00    -0.405 N 
HETATM   34  C1  UNL     1      -5.534  -9.929  21.171  1.00  0.00     0.145 C 
ATOM     35  H1  UNL     1      -4.951  -9.706  23.178  1.00  0.00     0.158 HD
ENDBRANCH  32  33
ENDBRANCH  28  32
ENDBRANCH  22  23
ENDBRANCH  21  22
ENDBRANCH   1  21
BRANCH  11  36
HETATM   36  C17 UNL     1     -19.599 -13.595  17.685  1.00  0.00     0.215 C 
HETATM   37  C18 UNL     1     -19.056 -14.871  17.081  1.00  0.00     0.042 C 
HETATM   38  C19 UNL     1     -21.035 -13.759  18.134  1.00  0.00     0.042 C 
ENDBRANCH  11  36
TORSDOF 6
ENDMDL
MODEL 2
REMARK VINA RESULT: -6.231008619      2.690      3.988
REMARK  6 active torsions:
REMARK  status: ('A' for Active; 'I' for Inactive)
REMARK    1  A    between atoms: N1_2  and  C2_4 
REMARK    2  A    between atoms: C2_4  and  C3_5 
REMARK    3  A    between atoms: C8_10  and  C9_11 
REMARK    4  A    between atoms: C9_11  and  C10_12 
REMARK    5  A    between atoms: C10_12  and  N2_13 
REMARK       I    between atoms: N2_13  and  C11_15 
REMARK       I    between atoms: C11_15  and  N3_17 
REMARK    6  A    between atoms: N4_23  and  C17_24 
ROOT
HETATM    1  N2  UNL     1     -14.132 -11.173  22.677  1.00  0.00    -0.343 N 
ATOM      2  H2  UNL     1     -14.639 -10.573  23.329  1.00  0.00     0.164 HD
HETATM    3  C11 UNL     1     -14.815 -11.642  21.511  1.00  0.00     0.322 C 
HETATM    4  O1  UNL     1     -14.149 -12.377  20.752  1.00  0.00    -0.247 OA
HETATM    5  N3  UNL     1     -16.144 -11.322  21.213  1.00  0.00    -0.299 N 
HETATM    6  C12 UNL     1     -16.783 -10.214  21.931  1.00  0.00     0.135 C 
HETATM    7  C13 UNL     1     -17.261  -9.303  20.791  1.00  0.00     0.035 C 
HETATM    8  C14 UNL     1     -18.459  -9.952  20.130  1.00  0.00    -0.006 C 
HETATM    9  C15 UNL     1     -19.462 -10.173  21.235  1.00  0.00     0.045 C 
HETATM   10  C16 UNL     1     -20.887  -9.959  20.853  1.00  0.00     0.274 C 
HETATM   11  N4  UNL     1     -20.958  -8.661  20.212  1.00  0.00     0.092 N 
HETATM   12  C20 UNL     1     -20.374  -8.806  18.918  1.00  0.00     0.274 C 
HETATM   13  C21 UNL     1     -18.914  -9.053  19.030  1.00  0.00     0.045 C 
HETATM   14  C22 UNL     1     -18.050 -11.292  19.655  1.00  0.00    -0.021 A 
HETATM   15  C23 UNL     1     -18.768 -11.969  18.670  1.00  0.00     0.034 A 
HETATM   16  C24 UNL     1     -18.420 -13.230  18.250  1.00  0.00     0.034 A 
HETATM   17 CL1  UNL     1     -19.343 -14.066  17.004  1.00  0.00    -0.084 Cl
HETATM   18  C25 UNL     1     -17.342 -13.862  18.797  1.00  0.00     0.026 A 
HETATM   19  C26 UNL     1     -16.605 -13.197  19.791  1.00  0.00     0.032 A 
HETATM   20  C27 UNL     1     -16.957 -11.928  20.210  1.00  0.00     0.046 A 
ENDROOT
BRANCH   1  21
HETATM   21  C10 UNL     1     -12.781 -11.504  22.968  1.00  0.00     0.126 C 
BRANCH  21  22
HETATM   22  C9  UNL     1     -11.884 -10.365  23.352  1.00  0.00     0.052 C 
BRANCH  22  23
HETATM   23  C8  UNL     1     -10.895 -10.883  24.396  1.00  0.00     0.188 C 
HETATM   24  C7  UNL     1     -11.035 -12.359  24.525  1.00  0.00     0.033 C 
HETATM   25  C6  UNL     1     -10.782 -12.873  25.919  1.00  0.00     0.002 C 
HETATM   26  C5  UNL     1      -9.312 -12.852  26.294  1.00  0.00     0.002 C 
HETATM   27  C4  UNL     1      -8.735 -11.451  26.042  1.00  0.00     0.038 C 
HETATM   28  C3  UNL     1      -8.520 -11.214  24.612  1.00  0.00     0.224 C 
HETATM   29  N5  UNL     1      -9.600 -10.400  24.030  1.00  0.00    -0.062 N 
ATOM     30  H52 UNL     1      -9.492  -9.415  24.273  1.00  0.00     0.278 HD
ATOM     31  H51 UNL     1      -9.505 -10.329  23.017  1.00  0.00     0.278 HD
BRANCH  28  32
HETATM   32  C2  UNL     1      -7.222 -10.665  24.181  1.00  0.00     0.087 C 
BRANCH  32  33
HETATM   33  N1  UNL     1      -6.774 -10.865  22.860  1.00  0.00    -0.405 N 
HETATM   34  C1  UNL     1      -5.631 -10.202  22.410  1.00  0.00     0.145 C 
ATOM     35  H1  UNL     1      -7.282 -11.492  22.236  1.00  0.00     0.158 HD
ENDBRANCH  32  33
ENDBRANCH  28  32
ENDBRANCH  22  23
ENDBRANCH  21  22
ENDBRANCH   1  21
BRANCH  11  36
HETATM   36  C17 UNL     1     -22.251  -8.070  20.260  1.00  0.00     0.215 C 
HETATM   37  C18 UNL     1     -22.353  -6.785  19.468  1.00  0.00     0.042 C 
HETATM   38  C19 UNL     1     -23.272  -9.089  19.801  1.00  0.00     0.042 C 
ENDBRANCH  11  36
TORSDOF 6
ENDMDL
MODEL 3
REMARK VINA RESULT: -6.089643423      1.498      2.602
REMARK  6 active torsions:
REMARK  status: ('A' for Active; 'I' for Inactive)
REMARK    1  A    between atoms: N1_2  and  C2_4 
REMARK    2  A    between atoms: C2_4  and  C3_5 
REMARK    3  A    between atoms: C8_10  and  C9_11 
REMARK    4  A    between atoms: C9_11  and  C10_12 
REMARK    5  A    between atoms: C10_12  and  N2_13 
REMARK       I    between atoms: N2_13  and  C11_15 
REMARK       I    between atoms: C11_15  and  N3_17 
REMARK    6  A    between atoms: N4_23  and  C17_24 
ROOT
HETATM    1  N2  UNL     1     -12.694 -11.120  22.562  1.00  0.00    -0.343 N 
ATOM      2  H2  UNL     1     -12.558 -11.794  21.808  1.00  0.00     0.164 HD
HETATM    3  C11 UNL     1     -13.982 -10.517  22.714  1.00  0.00     0.322 C 
HETATM    4  O1  UNL     1     -14.090  -9.696  23.648  1.00  0.00    -0.247 OA
HETATM    5  N3  UNL     1     -15.071 -10.803  21.882  1.00  0.00    -0.299 N 
HETATM    6  C12 UNL     1     -15.013 -11.990  21.023  1.00  0.00     0.135 C 
HETATM    7  C13 UNL     1     -16.279 -12.760  21.423  1.00  0.00     0.035 C 
HETATM    8  C14 UNL     1     -17.480 -12.040  20.846  1.00  0.00    -0.006 C 
HETATM    9  C15 UNL     1     -17.227 -11.954  19.361  1.00  0.00     0.045 C 
HETATM   10  C16 UNL     1     -18.430 -12.125  18.499  1.00  0.00     0.274 C 
HETATM   11  N4  UNL     1     -19.091 -13.338  18.938  1.00  0.00     0.092 N 
HETATM   12  C20 UNL     1     -19.719 -13.039  20.185  1.00  0.00     0.274 C 
HETATM   13  C21 UNL     1     -18.700 -12.803  21.238  1.00  0.00     0.045 C 
HETATM   14  C22 UNL     1     -17.472 -10.653  21.358  1.00  0.00    -0.021 A 
HETATM   15  C23 UNL     1     -18.622  -9.865  21.354  1.00  0.00     0.034 A 
HETATM   16  C24 UNL     1     -18.617  -8.562  21.790  1.00  0.00     0.034 A 
HETATM   17 CL1  UNL     1     -20.083  -7.587  21.776  1.00  0.00    -0.084 Cl
HETATM   18  C25 UNL     1     -17.462  -7.997  22.247  1.00  0.00     0.026 A 
HETATM   19  C26 UNL     1     -16.292  -8.773  22.259  1.00  0.00     0.032 A 
HETATM   20  C27 UNL     1     -16.301 -10.084  21.821  1.00  0.00     0.046 A 
ENDROOT
BRANCH   1  21
HETATM   21  C10 UNL     1     -11.596 -10.822  23.414  1.00  0.00     0.126 C 
BRANCH  21  22
HETATM   22  C9  UNL     1     -11.441 -11.688  24.629  1.00  0.00     0.052 C 
BRANCH  22  23
HETATM   23  C8  UNL     1      -9.955 -11.735  24.981  1.00  0.00     0.188 C 
HETATM   24  C7  UNL     1      -9.268 -10.550  24.400  1.00  0.00     0.033 C 
HETATM   25  C6  UNL     1      -7.848 -10.821  23.972  1.00  0.00     0.002 C 
HETATM   26  C5  UNL     1      -6.897 -10.955  25.145  1.00  0.00     0.002 C 
HETATM   27  C4  UNL     1      -7.447 -11.990  26.138  1.00  0.00     0.038 C 
HETATM   28  C3  UNL     1      -8.558 -11.441  26.919  1.00  0.00     0.224 C 
HETATM   29  N5  UNL     1      -9.859 -11.891  26.398  1.00  0.00    -0.062 N 
ATOM     30  H52 UNL     1     -10.057 -12.852  26.679  1.00  0.00     0.278 HD
ATOM     31  H51 UNL     1     -10.630 -11.421  26.874  1.00  0.00     0.278 HD
BRANCH  28  32
HETATM   32  C2  UNL     1      -8.540 -11.618  28.382  1.00  0.00     0.087 C 
BRANCH  32  33
HETATM   33  N1  UNL     1      -8.551 -10.493  29.230  1.00  0.00    -0.405 N 
HETATM   34  C1  UNL     1      -9.769  -9.953  29.649  1.00  0.00     0.145 C 
ATOM     35  H1  UNL     1      -7.673 -10.075  29.537  1.00  0.00     0.158 HD
ENDBRANCH  32  33
ENDBRANCH  28  32
ENDBRANCH  22  23
ENDBRANCH  21  22
ENDBRANCH   1  21
BRANCH  11  36
HETATM   36  C17 UNL     1     -19.914 -13.934  17.942  1.00  0.00     0.215 C 
HETATM   37  C18 UNL     1     -19.128 -14.570  16.817  1.00  0.00     0.042 C 
HETATM   38  C19 UNL     1     -20.841 -14.929  18.605  1.00  0.00     0.042 C 
ENDBRANCH  11  36
TORSDOF 6
ENDMDL
MODEL 4
REMARK VINA RESULT: -6.085108179      2.364      3.765
REMARK  6 active torsions:
REMARK  status: ('A' for Active; 'I' for Inactive)
REMARK    1  A    between atoms: N1_2  and  C2_4 
REMARK    2  A    between atoms: C2_4  and  C3_5 
REMARK    3  A    between atoms: C8_10  and  C9_11 
REMARK    4  A    between atoms: C9_11  and  C10_12 
REMARK    5  A    between atoms: C10_12  and  N2_13 
REMARK       I    between atoms: N2_13  and  C11_15 
REMARK       I    between atoms: C11_15  and  N3_17 
REMARK    6  A    between atoms: N4_23  and  C17_24 
ROOT
HETATM    1  N2  UNL     1     -12.599 -11.183  22.843  1.00  0.00    -0.343 N 
ATOM      2  H2  UNL     1     -12.454 -11.857  22.091  1.00  0.00     0.164 HD
HETATM    3  C11 UNL     1     -13.883 -10.564  22.967  1.00  0.00     0.322 C 
HETATM    4  O1  UNL     1     -14.001  -9.743  23.900  1.00  0.00    -0.247 OA
HETATM    5  N3  UNL     1     -14.956 -10.835  22.110  1.00  0.00    -0.299 N 
HETATM    6  C12 UNL     1     -14.893 -12.021  21.250  1.00  0.00     0.135 C 
HETATM    7  C13 UNL     1     -16.178 -12.775  21.620  1.00  0.00     0.035 C 
HETATM    8  C14 UNL     1     -17.356 -12.040  21.017  1.00  0.00    -0.006 C 
HETATM    9  C15 UNL     1     -17.068 -11.954  19.539  1.00  0.00     0.045 C 
HETATM   10  C16 UNL     1     -18.254 -12.108  18.649  1.00  0.00     0.274 C 
HETATM   11  N4  UNL     1     -18.940 -13.313  19.071  1.00  0.00     0.092 N 
HETATM   12  C20 UNL     1     -19.592 -13.008  20.303  1.00  0.00     0.274 C 
HETATM   13  C21 UNL     1     -18.594 -12.788  21.380  1.00  0.00     0.045 C 
HETATM   14  C22 UNL     1     -17.342 -10.653  21.532  1.00  0.00    -0.021 A 
HETATM   15  C23 UNL     1     -18.482  -9.850  21.503  1.00  0.00     0.034 A 
HETATM   16  C24 UNL     1     -18.470  -8.549  21.942  1.00  0.00     0.034 A 
HETATM   17 CL1  UNL     1     -19.923  -7.555  21.897  1.00  0.00    -0.084 Cl
HETATM   18  C25 UNL     1     -17.319  -7.999  22.426  1.00  0.00     0.026 A 
HETATM   19  C26 UNL     1     -16.159  -8.791  22.464  1.00  0.00     0.032 A 
HETATM   20  C27 UNL     1     -16.175 -10.100  22.023  1.00  0.00     0.046 A 
ENDROOT
BRANCH   1  21
HETATM   21  C10 UNL     1     -11.516 -10.901  23.721  1.00  0.00     0.126 C 
BRANCH  21  22
HETATM   22  C9  UNL     1     -11.368 -11.805  24.907  1.00  0.00     0.052 C 
BRANCH  22  23
HETATM   23  C8  UNL     1     -10.858 -13.155  24.403  1.00  0.00     0.188 C 
HETATM   24  C7  UNL     1      -9.693 -13.584  25.221  1.00  0.00     0.033 C 
HETATM   25  C6  UNL     1      -8.663 -14.368  24.448  1.00  0.00     0.002 C 
HETATM   26  C5  UNL     1      -9.119 -15.779  24.127  1.00  0.00     0.002 C 
HETATM   27  C4  UNL     1     -10.495 -15.734  23.447  1.00  0.00     0.038 C 
HETATM   28  C3  UNL     1     -11.559 -15.458  24.416  1.00  0.00     0.224 C 
HETATM   29  N5  UNL     1     -11.975 -14.047  24.374  1.00  0.00    -0.062 N 
ATOM     30  H52 UNL     1     -12.576 -13.862  23.570  1.00  0.00     0.278 HD
ATOM     31  H51 UNL     1     -12.636 -13.834  25.122  1.00  0.00     0.278 HD
BRANCH  28  32
HETATM   32  C2  UNL     1     -12.760 -16.313  24.398  1.00  0.00     0.087 C 
BRANCH  32  33
HETATM   33  N1  UNL     1     -12.654 -17.674  24.052  1.00  0.00    -0.405 N 
HETATM   34  C1  UNL     1     -13.790 -18.374  23.642  1.00  0.00     0.145 C 
ATOM     35  H1  UNL     1     -11.751 -18.146  24.101  1.00  0.00     0.158 HD
ENDBRANCH  32  33
ENDBRANCH  28  32
ENDBRANCH  22  23
ENDBRANCH  21  22
ENDBRANCH   1  21
BRANCH  11  36
HETATM   36  C17 UNL     1     -19.747 -13.897  18.055  1.00  0.00     0.215 C 
HETATM   37  C18 UNL     1     -18.947 -14.617  16.992  1.00  0.00     0.042 C 
HETATM   38  C19 UNL     1     -20.762 -14.813  18.704  1.00  0.00     0.042 C 
ENDBRANCH  11  36
TORSDOF 6
ENDMDL
MODEL 5
REMARK VINA RESULT: -6.072899139      4.438     10.381
REMARK  6 active torsions:
REMARK  status: ('A' for Active; 'I' for Inactive)
REMARK    1  A    between atoms: N1_2  and  C2_4 
REMARK    2  A    between atoms: C2_4  and  C3_5 
REMARK    3  A    between atoms: C8_10  and  C9_11 
REMARK    4  A    between atoms: C9_11  and  C10_12 
REMARK    5  A    between atoms: C10_12  and  N2_13 
REMARK       I    between atoms: N2_13  and  C11_15 
REMARK       I    between atoms: C11_15  and  N3_17 
REMARK    6  A    between atoms: N4_23  and  C17_24 
ROOT
HETATM    1  N2  UNL     1     -13.514 -11.055  23.515  1.00  0.00    -0.343 N 
ATOM      2  H2  UNL     1     -14.135 -11.775  23.886  1.00  0.00     0.164 HD
HETATM    3  C11 UNL     1     -12.102 -11.243  23.638  1.00  0.00     0.322 C 
HETATM    4  O1  UNL     1     -11.390 -10.328  23.172  1.00  0.00    -0.247 OA
HETATM    5  N3  UNL     1     -11.521 -12.365  24.239  1.00  0.00    -0.299 N 
HETATM    6  C12 UNL     1     -12.351 -13.551  24.472  1.00  0.00     0.135 C 
HETATM    7  C13 UNL     1     -11.566 -14.659  23.755  1.00  0.00     0.035 C 
HETATM    8  C14 UNL     1     -10.342 -14.992  24.582  1.00  0.00    -0.006 C 
HETATM    9  C15 UNL     1     -10.863 -15.361  25.949  1.00  0.00     0.045 C 
HETATM   10  C16 UNL     1     -10.138 -16.471  26.629  1.00  0.00     0.274 C 
HETATM   11  N4  UNL     1     -10.069 -17.567  25.683  1.00  0.00     0.092 N 
HETATM   12  C20 UNL     1      -9.101 -17.204  24.699  1.00  0.00     0.274 C 
HETATM   13  C21 UNL     1      -9.595 -16.072  23.875  1.00  0.00     0.045 C 
HETATM   14  C22 UNL     1      -9.552 -13.753  24.750  1.00  0.00    -0.021 A 
HETATM   15  C23 UNL     1      -8.202 -13.787  25.097  1.00  0.00     0.034 A 
HETATM   16  C24 UNL     1      -7.469 -12.641  25.294  1.00  0.00     0.034 A 
HETATM   17 CL1  UNL     1      -5.765 -12.711  25.731  1.00  0.00    -0.084 Cl
HETATM   18  C25 UNL     1      -8.058 -11.419  25.153  1.00  0.00     0.026 A 
HETATM   19  C26 UNL     1      -9.417 -11.362  24.804  1.00  0.00     0.032 A 
HETATM   20  C27 UNL     1     -10.151 -12.515  24.605  1.00  0.00     0.046 A 
ENDROOT
BRANCH   1  21
HETATM   21  C10 UNL     1     -14.092  -9.911  22.900  1.00  0.00     0.126 C 
BRANCH  21  22
HETATM   22  C9  UNL     1     -15.561  -9.707  23.120  1.00  0.00     0.052 C 
BRANCH  22  23
HETATM   23  C8  UNL     1     -16.260  -9.860  21.770  1.00  0.00     0.188 C 
HETATM   24  C7  UNL     1     -16.623 -11.286  21.556  1.00  0.00     0.033 C 
HETATM   25  C6  UNL     1     -16.563 -11.719  20.114  1.00  0.00     0.002 C 
HETATM   26  C5  UNL     1     -17.712 -11.171  19.289  1.00  0.00     0.002 C 
HETATM   27  C4  UNL     1     -17.796  -9.649  19.469  1.00  0.00     0.038 C 
HETATM   28  C3  UNL     1     -18.376  -9.299  20.769  1.00  0.00     0.224 C 
HETATM   29  N5  UNL     1     -17.337  -8.920  21.740  1.00  0.00    -0.062 N 
ATOM     30  H52 UNL     1     -16.997  -7.974  21.568  1.00  0.00     0.278 HD
ATOM     31  H51 UNL     1     -17.733  -8.784  22.671  1.00  0.00     0.278 HD
BRANCH  28  32
HETATM   32  C2  UNL     1     -19.455  -8.295  20.806  1.00  0.00     0.087 C 
BRANCH  32  33
HETATM   33  N1  UNL     1     -19.994  -7.791  19.606  1.00  0.00    -0.405 N 
HETATM   34  C1  UNL     1     -20.556  -6.514  19.583  1.00  0.00     0.145 C 
ATOM     35  H1  UNL     1     -19.973  -8.357  18.758  1.00  0.00     0.158 HD
ENDBRANCH  32  33
ENDBRANCH  28  32
ENDBRANCH  22  23
ENDBRANCH  21  22
ENDBRANCH   1  21
BRANCH  11  36
HETATM   36  C17 UNL     1      -9.902 -18.840  26.296  1.00  0.00     0.215 C 
HETATM   37  C18 UNL     1      -9.170 -18.779  27.617  1.00  0.00     0.042 C 
HETATM   38  C19 UNL     1     -11.259 -19.494  26.441  1.00  0.00     0.042 C 
ENDBRANCH  11  36
TORSDOF 6
ENDMDL
