MODEL 1
REMARK VINA RESULT: -7.914635342      0.000      0.000
REMARK  8 active torsions:
REMARK  status: ('A' for Active; 'I' for Inactive)
REMARK    1  A    between atoms: O1_2  and  S1_3 
REMARK    2  A    between atoms: S1_3  and  N1_6 
REMARK    3  A    between atoms: N1_6  and  C2_8 
REMARK    4  A    between atoms: C2_8  and  C3_9 
REMARK    5  A    between atoms: C3_9  and  N2_10 
REMARK    6  A    between atoms: C10_21  and  C12_23 
REMARK    7  A    between atoms: C15_34  and  N10_35 
REMARK    8  A    between atoms: C15_34  and  O4_39 
ROOT
HETATM    1  N2  UNL     1      27.597  29.647  28.105  1.00  0.00    -0.365 N 
HETATM    2  C4  UNL     1      26.507  28.787  27.736  1.00  0.00     0.126 C 
HETATM    3  C5  UNL     1      25.814  29.212  26.462  1.00  0.00     0.039 C 
HETATM    4  C6  UNL     1      24.362  29.558  26.648  1.00  0.00     0.115 C 
HETATM    5  N3  UNL     1      24.129  30.905  26.256  1.00  0.00    -0.420 N 
ATOM      6  H3  UNL     1      23.420  31.162  25.569  1.00  0.00     0.153 HD
HETATM    7  C7  UNL     1      24.959  31.870  26.892  1.00  0.00     0.133 C 
HETATM    8  C8  UNL     1      25.160  31.614  28.344  1.00  0.00     0.140 C 
HETATM    9  N4  UNL     1      26.571  31.844  28.693  1.00  0.00    -0.374 N 
ATOM     10  H4  UNL     1      26.907  32.807  28.720  1.00  0.00     0.161 HD
HETATM   11  C9  UNL     1      27.514  30.782  29.000  1.00  0.00     0.107 C 
HETATM   12  C10 UNL     1      28.179  30.872  30.115  1.00  0.00     0.011 C 
HETATM   13  C11 UNL     1      28.009  32.140  30.931  1.00  0.00     0.054 C 
ENDROOT
BRANCH   1  14
HETATM   14  C3  UNL     1      28.901  29.350  27.481  1.00  0.00     0.145 C 
BRANCH  14  15
HETATM   15  C2  UNL     1      29.406  27.958  27.787  1.00  0.00     0.154 C 
BRANCH  15  16
HETATM   16  N1  UNL     1      30.809  27.989  28.177  1.00  0.00    -0.295 N 
ATOM     17  H1  UNL     1      31.247  28.674  28.794  1.00  0.00     0.174 HD
BRANCH  16  18
HETATM   18  S1  UNL     1      31.602  26.657  27.409  1.00  0.00     0.357 S 
HETATM   19  O2  UNL     1      31.142  26.668  25.961  1.00  0.00    -0.176 OA
HETATM   20  O3  UNL     1      31.124  25.345  27.984  1.00  0.00    -0.176 OA
BRANCH  18  21
HETATM   21  O1  UNL     1      33.258  26.792  27.476  1.00  0.00    -0.265 OA
HETATM   22  C1  UNL     1      33.582  27.552  28.619  1.00  0.00     0.227 C 
ENDBRANCH  18  21
ENDBRANCH  16  18
ENDBRANCH  15  16
ENDBRANCH  14  15
ENDBRANCH   1  14
BRANCH  12  23
HETATM   23  C12 UNL     1      28.899  29.833  30.861  1.00  0.00     0.106 A 
HETATM   24  N5  UNL     1      28.281  28.733  31.018  1.00  0.00    -0.328 N 
HETATM   25  C13 UNL     1      28.438  27.477  31.594  1.00  0.00     0.195 A 
ATOM     26  H5  UNL     1      27.365  28.791  30.572  1.00  0.00     0.168 HD
HETATM   27  N6  UNL     1      27.334  26.553  31.527  1.00  0.00    -0.063 NA
HETATM   28  N7  UNL     1      29.502  27.068  32.194  1.00  0.00    -0.305 N 
HETATM   29  C14 UNL     1      30.723  27.809  32.387  1.00  0.00     0.194 A 
ATOM     30  H7  UNL     1      29.479  26.121  32.570  1.00  0.00     0.171 HD
HETATM   31  N8  UNL     1      31.775  27.120  33.051  1.00  0.00    -0.063 NA
HETATM   32  N9  UNL     1      30.884  29.000  32.003  1.00  0.00    -0.304 N 
HETATM   33  C15 UNL     1      30.257  30.094  31.351  1.00  0.00     0.349 A 
ATOM     34  H9  UNL     1      31.829  29.287  32.260  1.00  0.00     0.167 HD
BRANCH  33  35
HETATM   35  N10 UNL     1      30.330  31.175  32.339  1.00  0.00    -0.021 N 
ATOM     36 3H10 UNL     1      30.947  31.919  32.014  1.00  0.00     0.280 HD
ATOM     37 2H10 UNL     1      29.448  31.688  32.375  1.00  0.00     0.280 HD
ATOM     38 1H10 UNL     1      30.603  30.862  33.270  1.00  0.00     0.280 HD
ENDBRANCH  33  35
BRANCH  33  39
HETATM   39  O4  UNL     1      31.136  30.371  30.255  1.00  0.00    -0.344 OA
ATOM     40  H4  UNL     1      30.742  31.009  29.671  1.00  0.00     0.214 HD
ENDBRANCH  33  39
ENDBRANCH  12  23
TORSDOF 8
ENDMDL
MODEL 2
REMARK VINA RESULT: -7.202427471      1.935      2.918
REMARK  8 active torsions:
REMARK  status: ('A' for Active; 'I' for Inactive)
REMARK    1  A    between atoms: O1_2  and  S1_3 
REMARK    2  A    between atoms: S1_3  and  N1_6 
REMARK    3  A    between atoms: N1_6  and  C2_8 
REMARK    4  A    between atoms: C2_8  and  C3_9 
REMARK    5  A    between atoms: C3_9  and  N2_10 
REMARK    6  A    between atoms: C10_21  and  C12_23 
REMARK    7  A    between atoms: C15_34  and  N10_35 
REMARK    8  A    between atoms: C15_34  and  O4_39 
ROOT
HETATM    1  N2  UNL     1      28.886  29.231  29.918  1.00  0.00    -0.365 N 
HETATM    2  C4  UNL     1      27.591  29.533  30.463  1.00  0.00     0.126 C 
HETATM    3  C5  UNL     1      26.462  29.296  29.486  1.00  0.00     0.039 C 
HETATM    4  C6  UNL     1      25.673  30.535  29.158  1.00  0.00     0.115 C 
HETATM    5  N3  UNL     1      25.735  30.796  27.762  1.00  0.00    -0.420 N 
ATOM      6  H3  UNL     1      24.899  30.913  27.189  1.00  0.00     0.153 HD
HETATM    7  C7  UNL     1      27.049  30.881  27.222  1.00  0.00     0.133 C 
HETATM    8  C8  UNL     1      27.999  31.626  28.091  1.00  0.00     0.140 C 
HETATM    9  N4  UNL     1      29.290  30.919  28.126  1.00  0.00    -0.374 N 
ATOM     10  H4  UNL     1      29.877  30.953  27.294  1.00  0.00     0.161 HD
HETATM   11  C9  UNL     1      29.775  30.177  29.277  1.00  0.00     0.107 C 
HETATM   12  C10 UNL     1      30.965  30.463  29.720  1.00  0.00     0.011 C 
HETATM   13  C11 UNL     1      31.790  31.453  28.918  1.00  0.00     0.054 C 
ENDROOT
BRANCH   1  14
HETATM   14  C3  UNL     1      29.316  27.822  30.003  1.00  0.00     0.145 C 
BRANCH  14  15
HETATM   15  C2  UNL     1      28.952  27.011  28.780  1.00  0.00     0.154 C 
BRANCH  15  16
HETATM   16  N1  UNL     1      29.599  27.548  27.590  1.00  0.00    -0.295 N 
ATOM     17  H1  UNL     1      29.210  28.248  26.959  1.00  0.00     0.174 HD
BRANCH  16  18
HETATM   18  S1  UNL     1      31.144  26.786  27.439  1.00  0.00     0.357 S 
HETATM   19  O2  UNL     1      31.397  26.629  25.949  1.00  0.00    -0.176 OA
HETATM   20  O3  UNL     1      31.108  25.384  28.002  1.00  0.00    -0.176 OA
BRANCH  18  21
HETATM   21  O1  UNL     1      32.359  27.694  28.124  1.00  0.00    -0.265 OA
HETATM   22  C1  UNL     1      33.570  26.995  27.945  1.00  0.00     0.227 C 
ENDBRANCH  18  21
ENDBRANCH  16  18
ENDBRANCH  15  16
ENDBRANCH  14  15
ENDBRANCH   1  14
BRANCH  12  23
HETATM   23  C12 UNL     1      31.572  30.172  31.024  1.00  0.00     0.106 A 
HETATM   24  N5  UNL     1      32.294  29.127  31.080  1.00  0.00    -0.328 N 
HETATM   25  C13 UNL     1      33.068  28.394  31.973  1.00  0.00     0.195 A 
ATOM     26  H5  UNL     1      32.311  28.677  30.165  1.00  0.00     0.168 HD
HETATM   27  N6  UNL     1      33.671  27.171  31.508  1.00  0.00    -0.063 NA
HETATM   28  N7  UNL     1      33.290  28.722  33.199  1.00  0.00    -0.305 N 
HETATM   29  C14 UNL     1      32.793  29.890  33.884  1.00  0.00     0.194 A 
ATOM     30  H7  UNL     1      33.878  28.090  33.742  1.00  0.00     0.171 HD
HETATM   31  N8  UNL     1      33.213  30.049  35.233  1.00  0.00    -0.063 NA
HETATM   32  N9  UNL     1      32.032  30.741  33.349  1.00  0.00    -0.304 N 
HETATM   33  C15 UNL     1      31.346  31.082  32.153  1.00  0.00     0.349 A 
ATOM     34  H9  UNL     1      31.831  31.462  34.042  1.00  0.00     0.167 HD
BRANCH  33  35
HETATM   35  N10 UNL     1      29.943  31.168  32.569  1.00  0.00    -0.021 N 
ATOM     36 3H10 UNL     1      29.323  31.073  31.765  1.00  0.00     0.280 HD
ATOM     37 2H10 UNL     1      29.672  30.335  33.093  1.00  0.00     0.280 HD
ATOM     38 1H10 UNL     1      29.723  32.012  33.096  1.00  0.00     0.280 HD
ENDBRANCH  33  35
BRANCH  33  39
HETATM   39  O4  UNL     1      31.848  32.388  31.847  1.00  0.00    -0.344 OA
ATOM     40  H4  UNL     1      31.919  32.907  32.639  1.00  0.00     0.214 HD
ENDBRANCH  33  39
ENDBRANCH  12  23
TORSDOF 8
ENDMDL
MODEL 3
REMARK VINA RESULT: -7.007565445      1.973      2.674
REMARK  8 active torsions:
REMARK  status: ('A' for Active; 'I' for Inactive)
REMARK    1  A    between atoms: O1_2  and  S1_3 
REMARK    2  A    between atoms: S1_3  and  N1_6 
REMARK    3  A    between atoms: N1_6  and  C2_8 
REMARK    4  A    between atoms: C2_8  and  C3_9 
REMARK    5  A    between atoms: C3_9  and  N2_10 
REMARK    6  A    between atoms: C10_21  and  C12_23 
REMARK    7  A    between atoms: C15_34  and  N10_35 
REMARK    8  A    between atoms: C15_34  and  O4_39 
ROOT
HETATM    1  N2  UNL     1      28.345  30.157  28.601  1.00  0.00    -0.365 N 
HETATM    2  C4  UNL     1      27.189  29.446  29.072  1.00  0.00     0.126 C 
HETATM    3  C5  UNL     1      26.150  29.217  27.999  1.00  0.00     0.039 C 
HETATM    4  C6  UNL     1      24.822  29.859  28.293  1.00  0.00     0.115 C 
HETATM    5  N3  UNL     1      24.492  30.786  27.266  1.00  0.00    -0.420 N 
ATOM      6  H3  UNL     1      23.611  30.744  26.752  1.00  0.00     0.153 HD
HETATM    7  C7  UNL     1      25.481  31.775  27.006  1.00  0.00     0.133 C 
HETATM    8  C8  UNL     1      26.104  32.327  28.239  1.00  0.00     0.140 C 
HETATM    9  N4  UNL     1      27.557  32.456  28.039  1.00  0.00    -0.374 N 
ATOM     10  H4  UNL     1      27.892  33.198  27.424  1.00  0.00     0.161 HD
HETATM   11  C9  UNL     1      28.541  31.590  28.666  1.00  0.00     0.107 C 
HETATM   12  C10 UNL     1      29.510  32.157  29.324  1.00  0.00     0.011 C 
HETATM   13  C11 UNL     1      29.599  33.671  29.270  1.00  0.00     0.054 C 
ENDROOT
BRANCH   1  14
HETATM   14  C3  UNL     1      29.401  29.340  27.973  1.00  0.00     0.145 C 
BRANCH  14  15
HETATM   15  C2  UNL     1      29.833  28.166  28.822  1.00  0.00     0.154 C 
BRANCH  15  16
HETATM   16  N1  UNL     1      29.730  26.919  28.076  1.00  0.00    -0.295 N 
ATOM     17  H1  UNL     1      28.887  26.359  27.954  1.00  0.00     0.174 HD
BRANCH  16  18
HETATM   18  S1  UNL     1      31.294  26.557  27.432  1.00  0.00     0.357 S 
HETATM   19  O2  UNL     1      31.143  26.560  25.920  1.00  0.00    -0.176 OA
HETATM   20  O3  UNL     1      31.715  25.154  27.802  1.00  0.00    -0.176 OA
BRANCH  18  21
HETATM   21  O1  UNL     1      32.433  27.681  27.887  1.00  0.00    -0.265 OA
HETATM   22  C1  UNL     1      33.613  26.986  28.221  1.00  0.00     0.227 C 
ENDBRANCH  18  21
ENDBRANCH  16  18
ENDBRANCH  15  16
ENDBRANCH  14  15
ENDBRANCH   1  14
BRANCH  12  23
HETATM   23  C12 UNL     1      30.412  31.590  30.333  1.00  0.00     0.106 A 
HETATM   24  N5  UNL     1      31.561  31.241  29.918  1.00  0.00    -0.328 N 
HETATM   25  C13 UNL     1      32.752  30.683  30.372  1.00  0.00     0.195 A 
ATOM     26  H5  UNL     1      31.634  31.433  28.919  1.00  0.00     0.168 HD
HETATM   27  N6  UNL     1      33.795  30.429  29.410  1.00  0.00    -0.063 NA
HETATM   28  N7  UNL     1      33.000  30.369  31.596  1.00  0.00    -0.305 N 
HETATM   29  C14 UNL     1      32.116  30.526  32.724  1.00  0.00     0.194 A 
ATOM     30  H7  UNL     1      33.917  29.967  31.787  1.00  0.00     0.171 HD
HETATM   31  N8  UNL     1      32.639  30.137  33.987  1.00  0.00    -0.063 NA
HETATM   32  N9  UNL     1      30.942  30.979  32.632  1.00  0.00    -0.304 N 
HETATM   33  C15 UNL     1      29.969  31.481  31.729  1.00  0.00     0.349 A 
ATOM     34  H9  UNL     1      30.535  30.988  33.568  1.00  0.00     0.167 HD
BRANCH  33  35
HETATM   35  N10 UNL     1      28.826  30.584  31.916  1.00  0.00    -0.021 N 
ATOM     36 3H10 UNL     1      29.141  29.634  32.114  1.00  0.00     0.280 HD
ATOM     37 2H10 UNL     1      28.345  30.790  32.792  1.00  0.00     0.280 HD
ATOM     38 1H10 UNL     1      28.169  30.589  31.136  1.00  0.00     0.280 HD
ENDBRANCH  33  35
BRANCH  33  39
HETATM   39  O4  UNL     1      29.668  32.778  32.257  1.00  0.00    -0.344 OA
ATOM     40  H4  UNL     1      30.253  32.985  32.975  1.00  0.00     0.214 HD
ENDBRANCH  33  39
ENDBRANCH  12  23
TORSDOF 8
ENDMDL
MODEL 4
REMARK VINA RESULT: -6.936026395      2.488      4.584
REMARK  8 active torsions:
REMARK  status: ('A' for Active; 'I' for Inactive)
REMARK    1  A    between atoms: O1_2  and  S1_3 
REMARK    2  A    between atoms: S1_3  and  N1_6 
REMARK    3  A    between atoms: N1_6  and  C2_8 
REMARK    4  A    between atoms: C2_8  and  C3_9 
REMARK    5  A    between atoms: C3_9  and  N2_10 
REMARK    6  A    between atoms: C10_21  and  C12_23 
REMARK    7  A    between atoms: C15_34  and  N10_35 
REMARK    8  A    between atoms: C15_34  and  O4_39 
ROOT
HETATM    1  N2  UNL     1      27.685  32.507  29.737  1.00  0.00    -0.365 N 
HETATM    2  C4  UNL     1      28.673  33.461  29.313  1.00  0.00     0.126 C 
HETATM    3  C5  UNL     1      28.387  34.868  29.785  1.00  0.00     0.039 C 
HETATM    4  C6  UNL     1      28.187  35.854  28.667  1.00  0.00     0.115 C 
HETATM    5  N3  UNL     1      26.894  36.437  28.757  1.00  0.00    -0.420 N 
ATOM      6  H3  UNL     1      26.748  37.446  28.787  1.00  0.00     0.153 HD
HETATM    7  C7  UNL     1      25.816  35.509  28.805  1.00  0.00     0.133 C 
HETATM    8  C8  UNL     1      25.977  34.365  27.868  1.00  0.00     0.140 C 
HETATM    9  N4  UNL     1      25.582  33.118  28.542  1.00  0.00    -0.374 N 
ATOM     10  H4  UNL     1      24.589  32.959  28.713  1.00  0.00     0.161 HD
HETATM   11  C9  UNL     1      26.522  32.099  28.977  1.00  0.00     0.107 C 
HETATM   12  C10 UNL     1      26.308  30.876  28.588  1.00  0.00     0.011 C 
HETATM   13  C11 UNL     1      25.025  30.600  27.824  1.00  0.00     0.054 C 
ENDROOT
BRANCH   1  14
HETATM   14  C3  UNL     1      27.874  31.928  31.081  1.00  0.00     0.145 C 
BRANCH  14  15
HETATM   15  C2  UNL     1      29.292  31.472  31.341  1.00  0.00     0.154 C 
BRANCH  15  16
HETATM   16  N1  UNL     1      29.307  30.255  32.142  1.00  0.00    -0.295 N 
ATOM     17  H1  UNL     1      28.689  30.043  32.926  1.00  0.00     0.174 HD
BRANCH  16  18
HETATM   18  S1  UNL     1      30.561  29.234  31.529  1.00  0.00     0.357 S 
HETATM   19  O2  UNL     1      31.858  29.743  32.135  1.00  0.00    -0.176 OA
HETATM   20  O3  UNL     1      30.708  29.404  30.035  1.00  0.00    -0.176 OA
BRANCH  18  21
HETATM   21  O1  UNL     1      30.331  27.640  31.947  1.00  0.00    -0.265 OA
HETATM   22  C1  UNL     1      31.500  26.932  31.602  1.00  0.00     0.227 C 
ENDBRANCH  18  21
ENDBRANCH  16  18
ENDBRANCH  15  16
ENDBRANCH  14  15
ENDBRANCH   1  14
BRANCH  12  23
HETATM   23  C12 UNL     1      27.227  29.732  28.548  1.00  0.00     0.106 A 
HETATM   24  N5  UNL     1      27.057  28.851  29.447  1.00  0.00    -0.328 N 
HETATM   25  C13 UNL     1      27.579  27.638  29.886  1.00  0.00     0.195 A 
ATOM     26  H5  UNL     1      26.278  29.123  30.047  1.00  0.00     0.168 HD
HETATM   27  N6  UNL     1      27.015  27.042  31.070  1.00  0.00    -0.063 NA
HETATM   28  N7  UNL     1      28.540  26.999  29.314  1.00  0.00    -0.305 N 
HETATM   29  C14 UNL     1      29.258  27.398  28.129  1.00  0.00     0.194 A 
ATOM     30  H7  UNL     1      28.823  26.119  29.745  1.00  0.00     0.171 HD
HETATM   31  N8  UNL     1      30.258  26.497  27.671  1.00  0.00    -0.063 NA
HETATM   32  N9  UNL     1      29.038  28.474  27.510  1.00  0.00    -0.304 N 
HETATM   33  C15 UNL     1      28.245  29.652  27.494  1.00  0.00     0.349 A 
ATOM     34  H9  UNL     1      29.675  28.515  26.714  1.00  0.00     0.167 HD
BRANCH  33  35
HETATM   35  N10 UNL     1      29.231  30.735  27.543  1.00  0.00    -0.021 N 
ATOM     36 3H10 UNL     1      29.349  31.071  28.499  1.00  0.00     0.280 HD
ATOM     37 2H10 UNL     1      30.170  30.375  27.371  1.00  0.00     0.280 HD
ATOM     38 1H10 UNL     1      29.022  31.509  26.913  1.00  0.00     0.280 HD
ENDBRANCH  33  35
BRANCH  33  39
HETATM   39  O4  UNL     1      27.623  29.612  26.204  1.00  0.00    -0.344 OA
ATOM     40  H4  UNL     1      28.052  28.970  25.651  1.00  0.00     0.214 HD
ENDBRANCH  33  39
ENDBRANCH  12  23
TORSDOF 8
ENDMDL
MODEL 5
REMARK VINA RESULT: -6.917926105      4.019      5.592
REMARK  8 active torsions:
REMARK  status: ('A' for Active; 'I' for Inactive)
REMARK    1  A    between atoms: O1_2  and  S1_3 
REMARK    2  A    between atoms: S1_3  and  N1_6 
REMARK    3  A    between atoms: N1_6  and  C2_8 
REMARK    4  A    between atoms: C2_8  and  C3_9 
REMARK    5  A    between atoms: C3_9  and  N2_10 
REMARK    6  A    between atoms: C10_21  and  C12_23 
REMARK    7  A    between atoms: C15_34  and  N10_35 
REMARK    8  A    between atoms: C15_34  and  O4_39 
ROOT
HETATM    1  N2  UNL     1      25.751  30.917  27.163  1.00  0.00    -0.365 N 
HETATM    2  C4  UNL     1      24.491  31.502  27.532  1.00  0.00     0.126 C 
HETATM    3  C5  UNL     1      23.848  32.290  26.414  1.00  0.00     0.039 C 
HETATM    4  C6  UNL     1      23.652  33.747  26.733  1.00  0.00     0.115 C 
HETATM    5  N3  UNL     1      24.353  34.550  25.793  1.00  0.00    -0.420 N 
ATOM      6  H3  UNL     1      23.898  35.287  25.254  1.00  0.00     0.153 HD
HETATM    7  C7  UNL     1      25.737  34.249  25.657  1.00  0.00     0.133 C 
HETATM    8  C8  UNL     1      26.415  33.980  26.953  1.00  0.00     0.140 C 
HETATM    9  N4  UNL     1      27.317  32.826  26.806  1.00  0.00    -0.374 N 
ATOM     10  H4  UNL     1      28.178  32.956  26.275  1.00  0.00     0.161 HD
HETATM   11  C9  UNL     1      27.054  31.514  27.371  1.00  0.00     0.107 C 
HETATM   12  C10 UNL     1      27.984  30.978  28.107  1.00  0.00     0.011 C 
HETATM   13  C11 UNL     1      29.309  31.711  28.203  1.00  0.00     0.054 C 
ENDROOT
BRANCH   1  14
HETATM   14  C3  UNL     1      25.688  29.607  26.486  1.00  0.00     0.145 C 
BRANCH  14  15
HETATM   15  C2  UNL     1      24.282  29.066  26.363  1.00  0.00     0.154 C 
BRANCH  15  16
HETATM   16  N1  UNL     1      24.096  28.392  25.084  1.00  0.00    -0.295 N 
ATOM     17  H1  UNL     1      24.812  27.889  24.560  1.00  0.00     0.174 HD
BRANCH  16  18
HETATM   18  S1  UNL     1      22.444  28.597  24.614  1.00  0.00     0.357 S 
HETATM   19  O2  UNL     1      21.607  28.192  25.816  1.00  0.00    -0.176 OA
HETATM   20  O3  UNL     1      22.077  27.632  23.511  1.00  0.00    -0.176 OA
BRANCH  18  21
HETATM   21  O1  UNL     1      22.103  30.170  24.195  1.00  0.00    -0.265 OA
HETATM   22  C1  UNL     1      21.048  30.615  25.017  1.00  0.00     0.227 C 
ENDBRANCH  18  21
ENDBRANCH  16  18
ENDBRANCH  15  16
ENDBRANCH  14  15
ENDBRANCH   1  14
BRANCH  12  23
HETATM   23  C12 UNL     1      27.891  29.883  29.080  1.00  0.00     0.106 A 
HETATM   24  N5  UNL     1      28.317  28.752  28.687  1.00  0.00    -0.328 N 
HETATM   25  C13 UNL     1      28.475  27.443  29.128  1.00  0.00     0.195 A 
ATOM     26  H5  UNL     1      28.657  28.832  27.728  1.00  0.00     0.168 HD
HETATM   27  N6  UNL     1      28.996  26.470  28.201  1.00  0.00    -0.063 NA
HETATM   28  N7  UNL     1      28.186  27.023  30.311  1.00  0.00    -0.305 N 
HETATM   29  C14 UNL     1      27.652  27.804  31.398  1.00  0.00     0.194 A 
ATOM     30  H7  UNL     1      28.353  26.034  30.497  1.00  0.00     0.171 HD
HETATM   31  N8  UNL     1      27.453  27.114  32.625  1.00  0.00    -0.063 NA
HETATM   32  N9  UNL     1      27.368  29.029  31.302  1.00  0.00    -0.304 N 
HETATM   33  C15 UNL     1      27.353  30.142  30.421  1.00  0.00     0.349 A 
ATOM     34  H9  UNL     1      27.012  29.340  32.206  1.00  0.00     0.167 HD
BRANCH  33  35
HETATM   35  N10 UNL     1      25.950  30.567  30.421  1.00  0.00    -0.021 N 
ATOM     36 3H10 UNL     1      25.763  31.191  29.637  1.00  0.00     0.280 HD
ATOM     37 2H10 UNL     1      25.339  29.789  30.170  1.00  0.00     0.280 HD
ATOM     38 1H10 UNL     1      25.650  30.991  31.299  1.00  0.00     0.280 HD
ENDBRANCH  33  35
BRANCH  33  39
HETATM   39  O4  UNL     1      28.159  31.111  31.101  1.00  0.00    -0.344 OA
ATOM     40  H4  UNL     1      27.634  31.864  31.344  1.00  0.00     0.214 HD
ENDBRANCH  33  39
ENDBRANCH  12  23
TORSDOF 8
ENDMDL
