MODEL 1
REMARK VINA RESULT: -7.691332335      0.000      0.000
REMARK  12 active torsions:
REMARK  status: ('A' for Active; 'I' for Inactive)
REMARK    1  A    between atoms: O1_2  and  C2_3 
REMARK    2  A    between atoms: C2_3  and  C3_5 
REMARK    3  A    between atoms: C3_5  and  C12_33 
REMARK    4  A    between atoms: N1_6  and  N2_8 
REMARK    5  A    between atoms: N2_8  and  C4_10 
REMARK    6  A    between atoms: C4_10  and  O3_11 
REMARK    7  A    between atoms: C4_10  and  C5_13 
REMARK    8  A    between atoms: C5_13  and  C6_14 
REMARK    9  A    between atoms: C8_18  and  N4_19 
REMARK       I    between atoms: N4_19  and  C9_21 
REMARK   10  A    between atoms: C9_21  and  C10_23 
REMARK   11  A    between atoms: C10_23  and  N5_25 
REMARK   12  A    between atoms: C16_39  and  N9_40 
ROOT
HETATM    1  N2  UNL     1      26.730  28.904  30.060  1.00  0.00    -0.307 N 
ATOM      2  H2  UNL     1      26.984  29.777  30.523  1.00  0.00     0.183 HD
ENDROOT
BRANCH   1   3
HETATM    3  N1  UNL     1      25.848  28.983  29.011  1.00  0.00    -0.295 N 
HETATM    4  C3  UNL     1      26.102  29.343  27.803  1.00  0.00     0.150 C 
ATOM      5  H1  UNL     1      24.881  28.728  29.212  1.00  0.00     0.187 HD
BRANCH   4   6
HETATM    6  C2  UNL     1      27.459  29.717  27.459  1.00  0.00     0.313 C 
HETATM    7  O2  UNL     1      28.323  28.807  27.375  1.00  0.00    -0.257 OA
BRANCH   6   8
HETATM    8  O1  UNL     1      27.907  30.998  27.210  1.00  0.00    -0.321 OA
HETATM    9  C1  UNL     1      27.960  32.014  28.206  1.00  0.00     0.213 C 
ENDBRANCH   6   8
ENDBRANCH   4   6
BRANCH   4  10
HETATM   10  C12 UNL     1      24.990  29.348  26.859  1.00  0.00     0.069 A 
HETATM   11  C13 UNL     1      24.423  28.295  26.177  1.00  0.00     0.063 A 
HETATM   12  C14 UNL     1      23.382  28.748  25.378  1.00  0.00     0.062 A 
HETATM   13  C15 UNL     1      23.334  30.109  25.596  1.00  0.00     0.103 A 
HETATM   14  N11 UNL     1      22.493  28.081  24.497  1.00  0.00    -0.372 N 
HETATM   15  N8  UNL     1      24.298  30.447  26.480  1.00  0.00    -0.349 N 
HETATM   16  C16 UNL     1      22.309  30.869  24.866  1.00  0.00     0.125 C 
ATOM     17  H8  UNL     1      24.478  31.394  26.813  1.00  0.00     0.166 HD
HETATM   18  N10 UNL     1      21.434  30.193  23.994  1.00  0.00    -0.359 N 
HETATM   19  C17 UNL     1      21.334  28.751  23.927  1.00  0.00     0.245 C 
ATOM     20  H10 UNL     1      20.841  30.748  23.376  1.00  0.00     0.162 HD
ATOM     21  H11 UNL     1      22.671  27.106  24.256  1.00  0.00     0.161 HD
BRANCH  16  22
HETATM   22  N9  UNL     1      22.282  32.140  25.085  1.00  0.00    -0.384 N 
ATOM     23  H92 UNL     1      23.110  32.720  25.216  1.00  0.00     0.157 HD
ATOM     24  H91 UNL     1      21.357  32.569  25.125  1.00  0.00     0.157 HD
ENDBRANCH  16  22
ENDBRANCH   4  10
ENDBRANCH   1   3
BRANCH   1  25
HETATM   25  C4  UNL     1      27.326  27.689  30.562  1.00  0.00     0.240 C 
BRANCH  25  26
HETATM   26  O3  UNL     1      27.841  26.896  29.539  1.00  0.00    -0.375 OA
ATOM     27  H3  UNL     1      27.555  25.993  29.609  1.00  0.00     0.212 HD
ENDBRANCH  25  26
BRANCH  25  28
HETATM   28  C5  UNL     1      28.460  28.000  31.498  1.00  0.00     0.132 C 
BRANCH  28  29
HETATM   29  C6  UNL     1      29.718  28.200  30.738  1.00  0.00     0.100 A 
HETATM   30  N3  UNL     1      29.895  29.399  30.144  1.00  0.00    -0.351 N 
HETATM   31  C7  UNL     1      31.036  29.604  29.448  1.00  0.00     0.139 A 
ATOM     32  H3  UNL     1      29.188  30.129  30.217  1.00  0.00     0.166 HD
HETATM   33  C8  UNL     1      31.949  28.583  29.387  1.00  0.00     0.138 A 
HETATM   34  N6  UNL     1      31.745  27.394  29.992  1.00  0.00    -0.283 N 
HETATM   35  N7  UNL     1      30.618  27.226  30.664  1.00  0.00    -0.287 N 
ATOM     36  H6  UNL     1      32.439  26.649  29.934  1.00  0.00     0.188 HD
ATOM     37  H7  UNL     1      30.438  26.337  31.131  1.00  0.00     0.188 HD
BRANCH  33  38
HETATM   38  N4  UNL     1      33.051  28.724  28.744  1.00  0.00    -0.309 N 
HETATM   39  C9  UNL     1      33.744  27.567  28.314  1.00  0.00     0.253 C 
HETATM   40  O4  UNL     1      33.266  26.889  27.377  1.00  0.00    -0.271 OA
ATOM     41  H4  UNL     1      33.421  29.654  28.546  1.00  0.00     0.170 HD
BRANCH  39  42
HETATM   42  C10 UNL     1      35.005  27.148  28.940  1.00  0.00     0.271 C 
HETATM   43  C11 UNL     1      35.556  28.194  29.884  1.00  0.00     0.050 C 
BRANCH  42  44
HETATM   44  N5  UNL     1      35.960  26.788  27.923  1.00  0.00    -0.067 N 
ATOM     45  H53 UNL     1      35.769  25.868  27.526  1.00  0.00     0.275 HD
ATOM     46  H52 UNL     1      35.844  27.342  27.075  1.00  0.00     0.275 HD
ATOM     47  H51 UNL     1      36.906  26.855  28.298  1.00  0.00     0.275 HD
ENDBRANCH  42  44
ENDBRANCH  39  42
ENDBRANCH  33  38
ENDBRANCH  28  29
ENDBRANCH  25  28
ENDBRANCH   1  25
TORSDOF 12
ENDMDL
MODEL 2
REMARK VINA RESULT: -7.662464157      0.690      1.449
REMARK  12 active torsions:
REMARK  status: ('A' for Active; 'I' for Inactive)
REMARK    1  A    between atoms: O1_2  and  C2_3 
REMARK    2  A    between atoms: C2_3  and  C3_5 
REMARK    3  A    between atoms: C3_5  and  C12_33 
REMARK    4  A    between atoms: N1_6  and  N2_8 
REMARK    5  A    between atoms: N2_8  and  C4_10 
REMARK    6  A    between atoms: C4_10  and  O3_11 
REMARK    7  A    between atoms: C4_10  and  C5_13 
REMARK    8  A    between atoms: C5_13  and  C6_14 
REMARK    9  A    between atoms: C8_18  and  N4_19 
REMARK       I    between atoms: N4_19  and  C9_21 
REMARK   10  A    between atoms: C9_21  and  C10_23 
REMARK   11  A    between atoms: C10_23  and  N5_25 
REMARK   12  A    between atoms: C16_39  and  N9_40 
ROOT
HETATM    1  N2  UNL     1      26.606  28.877  30.330  1.00  0.00    -0.307 N 
ATOM      2  H2  UNL     1      26.798  29.587  31.037  1.00  0.00     0.183 HD
ENDROOT
BRANCH   1   3
HETATM    3  N1  UNL     1      25.778  29.228  29.292  1.00  0.00    -0.295 N 
HETATM    4  C3  UNL     1      26.107  29.811  28.195  1.00  0.00     0.150 C 
ATOM      5  H1  UNL     1      24.790  29.002  29.405  1.00  0.00     0.187 HD
BRANCH   4   6
HETATM    6  C2  UNL     1      27.498  30.157  27.980  1.00  0.00     0.313 C 
HETATM    7  O2  UNL     1      28.257  29.286  27.484  1.00  0.00    -0.257 OA
BRANCH   6   8
HETATM    8  O1  UNL     1      28.085  31.372  28.271  1.00  0.00    -0.321 OA
HETATM    9  C1  UNL     1      27.573  32.270  29.249  1.00  0.00     0.213 C 
ENDBRANCH   6   8
ENDBRANCH   4   6
BRANCH   4  10
HETATM   10  C12 UNL     1      25.041  30.085  27.238  1.00  0.00     0.069 A 
HETATM   11  C13 UNL     1      24.487  31.291  26.873  1.00  0.00     0.063 A 
HETATM   12  C14 UNL     1      23.492  31.093  25.925  1.00  0.00     0.062 A 
HETATM   13  C15 UNL     1      23.458  29.729  25.726  1.00  0.00     0.103 A 
HETATM   14  N11 UNL     1      22.634  31.990  25.238  1.00  0.00    -0.372 N 
HETATM   15  N8  UNL     1      24.386  29.146  26.516  1.00  0.00    -0.349 N 
HETATM   16  C16 UNL     1      22.478  29.218  24.757  1.00  0.00     0.125 C 
ATOM     17  H8  UNL     1      24.567  28.144  26.561  1.00  0.00     0.166 HD
HETATM   18  N10 UNL     1      21.632  30.120  24.084  1.00  0.00    -0.359 N 
HETATM   19  C17 UNL     1      21.809  31.556  24.122  1.00  0.00     0.245 C 
ATOM     20  H10 UNL     1      20.854  29.743  23.542  1.00  0.00     0.162 HD
ATOM     21  H11 UNL     1      22.595  32.965  25.535  1.00  0.00     0.161 HD
BRANCH  16  22
HETATM   22  N9  UNL     1      22.464  27.939  24.586  1.00  0.00    -0.384 N 
ATOM     23  H92 UNL     1      23.205  27.309  24.890  1.00  0.00     0.157 HD
ATOM     24  H91 UNL     1      21.644  27.559  24.112  1.00  0.00     0.157 HD
ENDBRANCH  16  22
ENDBRANCH   4  10
ENDBRANCH   1   3
BRANCH   1  25
HETATM   25  C4  UNL     1      27.227  27.585  30.503  1.00  0.00     0.240 C 
BRANCH  25  26
HETATM   26  O3  UNL     1      27.728  27.079  29.306  1.00  0.00    -0.375 OA
ATOM     27  H3  UNL     1      28.410  26.433  29.448  1.00  0.00     0.212 HD
ENDBRANCH  25  26
BRANCH  25  28
HETATM   28  C5  UNL     1      28.378  27.673  31.466  1.00  0.00     0.132 C 
BRANCH  28  29
HETATM   29  C6  UNL     1      29.639  27.967  30.740  1.00  0.00     0.100 A 
HETATM   30  N3  UNL     1      29.833  29.239  30.333  1.00  0.00    -0.351 N 
HETATM   31  C7  UNL     1      30.976  29.530  29.672  1.00  0.00     0.139 A 
ATOM     32  H3  UNL     1      29.138  29.961  30.520  1.00  0.00     0.166 HD
HETATM   33  C8  UNL     1      31.873  28.516  29.452  1.00  0.00     0.138 A 
HETATM   34  N6  UNL     1      31.651  27.252  29.871  1.00  0.00    -0.283 N 
HETATM   35  N7  UNL     1      30.523  27.002  30.514  1.00  0.00    -0.287 N 
ATOM     36  H6  UNL     1      32.332  26.514  29.696  1.00  0.00     0.188 HD
ATOM     37  H7  UNL     1      30.329  26.055  30.841  1.00  0.00     0.188 HD
BRANCH  33  38
HETATM   38  N4  UNL     1      32.975  28.736  28.833  1.00  0.00    -0.309 N 
HETATM   39  C9  UNL     1      33.736  27.633  28.380  1.00  0.00     0.253 C 
HETATM   40  O4  UNL     1      33.311  26.960  27.415  1.00  0.00    -0.271 OA
ATOM     41  H4  UNL     1      33.298  29.690  28.671  1.00  0.00     0.170 HD
BRANCH  39  42
HETATM   42  C10 UNL     1      35.008  27.262  29.016  1.00  0.00     0.271 C 
HETATM   43  C11 UNL     1      35.533  28.345  29.933  1.00  0.00     0.050 C 
BRANCH  42  44
HETATM   44  N5  UNL     1      35.973  26.902  28.007  1.00  0.00    -0.067 N 
ATOM     45  H53 UNL     1      36.035  25.892  27.880  1.00  0.00     0.275 HD
ATOM     46  H52 UNL     1      35.657  27.150  27.070  1.00  0.00     0.275 HD
ATOM     47  H51 UNL     1      36.877  27.318  28.229  1.00  0.00     0.275 HD
ENDBRANCH  42  44
ENDBRANCH  39  42
ENDBRANCH  33  38
ENDBRANCH  28  29
ENDBRANCH  25  28
ENDBRANCH   1  25
TORSDOF 12
ENDMDL
MODEL 3
REMARK VINA RESULT: -7.584462199      2.911      3.669
REMARK  12 active torsions:
REMARK  status: ('A' for Active; 'I' for Inactive)
REMARK    1  A    between atoms: O1_2  and  C2_3 
REMARK    2  A    between atoms: C2_3  and  C3_5 
REMARK    3  A    between atoms: C3_5  and  C12_33 
REMARK    4  A    between atoms: N1_6  and  N2_8 
REMARK    5  A    between atoms: N2_8  and  C4_10 
REMARK    6  A    between atoms: C4_10  and  O3_11 
REMARK    7  A    between atoms: C4_10  and  C5_13 
REMARK    8  A    between atoms: C5_13  and  C6_14 
REMARK    9  A    between atoms: C8_18  and  N4_19 
REMARK       I    between atoms: N4_19  and  C9_21 
REMARK   10  A    between atoms: C9_21  and  C10_23 
REMARK   11  A    between atoms: C10_23  and  N5_25 
REMARK   12  A    between atoms: C16_39  and  N9_40 
ROOT
HETATM    1  N2  UNL     1      26.419  29.501  30.530  1.00  0.00    -0.307 N 
ATOM      2  H2  UNL     1      26.673  28.528  30.702  1.00  0.00     0.183 HD
ENDROOT
BRANCH   1   3
HETATM    3  N1  UNL     1      25.615  29.760  29.447  1.00  0.00    -0.295 N 
HETATM    4  C3  UNL     1      25.905  29.601  28.205  1.00  0.00     0.150 C 
ATOM      5  H1  UNL     1      24.683  30.119  29.652  1.00  0.00     0.187 HD
BRANCH   4   6
HETATM    6  C2  UNL     1      27.216  29.094  27.855  1.00  0.00     0.313 C 
HETATM    7  O2  UNL     1      27.602  29.216  26.664  1.00  0.00    -0.257 OA
BRANCH   6   8
HETATM    8  O1  UNL     1      28.102  28.477  28.715  1.00  0.00    -0.321 OA
HETATM    9  C1  UNL     1      28.604  27.162  28.506  1.00  0.00     0.213 C 
ENDBRANCH   6   8
ENDBRANCH   4   6
BRANCH   4  10
HETATM   10  C12 UNL     1      24.878  29.950  27.230  1.00  0.00     0.069 A 
HETATM   11  C13 UNL     1      24.370  31.189  26.906  1.00  0.00     0.063 A 
HETATM   12  C14 UNL     1      23.400  31.064  25.920  1.00  0.00     0.062 A 
HETATM   13  C15 UNL     1      23.335  29.713  25.655  1.00  0.00     0.103 A 
HETATM   14  N11 UNL     1      22.590  32.017  25.251  1.00  0.00    -0.372 N 
HETATM   15  N8  UNL     1      24.221  29.066  26.444  1.00  0.00    -0.349 N 
HETATM   16  C16 UNL     1      22.373  29.276  24.633  1.00  0.00     0.125 C 
ATOM     17  H8  UNL     1      24.372  28.058  26.446  1.00  0.00     0.166 HD
HETATM   18  N10 UNL     1      21.574  30.234  23.978  1.00  0.00    -0.359 N 
HETATM   19  C17 UNL     1      21.790  31.661  24.090  1.00  0.00     0.245 C 
ATOM     20  H10 UNL     1      20.804  29.905  23.395  1.00  0.00     0.162 HD
ATOM     21  H11 UNL     1      22.569  32.978  25.592  1.00  0.00     0.161 HD
BRANCH  16  22
HETATM   22  N9  UNL     1      22.328  28.009  24.400  1.00  0.00    -0.384 N 
ATOM     23  H92 UNL     1      21.468  27.470  24.305  1.00  0.00     0.157 HD
ATOM     24  H91 UNL     1      23.228  27.536  24.311  1.00  0.00     0.157 HD
ENDBRANCH  16  22
ENDBRANCH   4  10
ENDBRANCH   1   3
BRANCH   1  25
HETATM   25  C4  UNL     1      26.933  30.492  31.446  1.00  0.00     0.240 C 
BRANCH  25  26
HETATM   26  O3  UNL     1      27.416  29.919  32.621  1.00  0.00    -0.375 OA
ATOM     27  H3  UNL     1      26.893  30.160  33.376  1.00  0.00     0.212 HD
ENDBRANCH  25  26
BRANCH  25  28
HETATM   28  C5  UNL     1      28.069  31.253  30.822  1.00  0.00     0.132 C 
BRANCH  28  29
HETATM   29  C6  UNL     1      29.369  30.762  31.342  1.00  0.00     0.100 A 
HETATM   30  N3  UNL     1      29.998  31.531  32.255  1.00  0.00    -0.351 N 
HETATM   31  C7  UNL     1      31.183  31.101  32.744  1.00  0.00     0.139 A 
ATOM     32  H3  UNL     1      29.591  32.412  32.568  1.00  0.00     0.166 HD
HETATM   33  C8  UNL     1      31.678  29.908  32.284  1.00  0.00     0.138 A 
HETATM   34  N6  UNL     1      31.026  29.159  31.370  1.00  0.00    -0.283 N 
HETATM   35  N7  UNL     1      29.870  29.609  30.912  1.00  0.00    -0.287 N 
ATOM     36  H6  UNL     1      31.413  28.274  31.043  1.00  0.00     0.188 HD
ATOM     37  H7  UNL     1      29.356  29.064  30.220  1.00  0.00     0.188 HD
BRANCH  33  38
HETATM   38  N4  UNL     1      32.796  29.450  32.717  1.00  0.00    -0.309 N 
HETATM   39  C9  UNL     1      32.801  28.649  33.884  1.00  0.00     0.253 C 
HETATM   40  O4  UNL     1      32.331  27.491  33.825  1.00  0.00    -0.271 OA
ATOM     41  H4  UNL     1      33.667  29.660  32.229  1.00  0.00     0.170 HD
BRANCH  39  42
HETATM   42  C10 UNL     1      33.341  29.146  35.157  1.00  0.00     0.271 C 
HETATM   43  C11 UNL     1      34.677  29.836  34.986  1.00  0.00     0.050 C 
BRANCH  42  44
HETATM   44  N5  UNL     1      33.414  28.069  36.111  1.00  0.00    -0.067 N 
ATOM     45  H53 UNL     1      32.491  27.699  36.342  1.00  0.00     0.275 HD
ATOM     46  H52 UNL     1      33.815  27.224  35.705  1.00  0.00     0.275 HD
ATOM     47  H51 UNL     1      33.923  28.375  36.940  1.00  0.00     0.275 HD
ENDBRANCH  42  44
ENDBRANCH  39  42
ENDBRANCH  33  38
ENDBRANCH  28  29
ENDBRANCH  25  28
ENDBRANCH   1  25
TORSDOF 12
ENDMDL
MODEL 4
REMARK VINA RESULT: -7.576209389      1.220      1.715
REMARK  12 active torsions:
REMARK  status: ('A' for Active; 'I' for Inactive)
REMARK    1  A    between atoms: O1_2  and  C2_3 
REMARK    2  A    between atoms: C2_3  and  C3_5 
REMARK    3  A    between atoms: C3_5  and  C12_33 
REMARK    4  A    between atoms: N1_6  and  N2_8 
REMARK    5  A    between atoms: N2_8  and  C4_10 
REMARK    6  A    between atoms: C4_10  and  O3_11 
REMARK    7  A    between atoms: C4_10  and  C5_13 
REMARK    8  A    between atoms: C5_13  and  C6_14 
REMARK    9  A    between atoms: C8_18  and  N4_19 
REMARK       I    between atoms: N4_19  and  C9_21 
REMARK   10  A    between atoms: C9_21  and  C10_23 
REMARK   11  A    between atoms: C10_23  and  N5_25 
REMARK   12  A    between atoms: C16_39  and  N9_40 
ROOT
HETATM    1  N2  UNL     1      26.505  29.008  30.305  1.00  0.00    -0.307 N 
ATOM      2  H2  UNL     1      26.828  29.892  30.699  1.00  0.00     0.183 HD
ENDROOT
BRANCH   1   3
HETATM    3  N1  UNL     1      25.675  29.072  29.213  1.00  0.00    -0.295 N 
HETATM    4  C3  UNL     1      25.971  29.476  28.029  1.00  0.00     0.150 C 
ATOM      5  H1  UNL     1      24.713  28.763  29.358  1.00  0.00     0.187 HD
BRANCH   4   6
HETATM    6  C2  UNL     1      27.323  29.926  27.766  1.00  0.00     0.313 C 
HETATM    7  O2  UNL     1      27.494  30.820  26.898  1.00  0.00    -0.257 OA
BRANCH   6   8
HETATM    8  O1  UNL     1      28.466  29.461  28.384  1.00  0.00    -0.321 OA
HETATM    9  C1  UNL     1      29.394  28.586  27.752  1.00  0.00     0.213 C 
ENDBRANCH   6   8
ENDBRANCH   4   6
BRANCH   4  10
HETATM   10  C12 UNL     1      24.910  29.451  27.029  1.00  0.00     0.069 A 
HETATM   11  C13 UNL     1      24.383  28.378  26.346  1.00  0.00     0.063 A 
HETATM   12  C14 UNL     1      23.383  28.807  25.483  1.00  0.00     0.062 A 
HETATM   13  C15 UNL     1      23.319  30.172  25.663  1.00  0.00     0.103 A 
HETATM   14  N11 UNL     1      22.543  28.113  24.574  1.00  0.00    -0.372 N 
HETATM   15  N8  UNL     1      24.235  30.537  26.586  1.00  0.00    -0.349 N 
HETATM   16  C16 UNL     1      22.330  30.908  24.861  1.00  0.00     0.125 C 
ATOM     17  H8  UNL     1      24.394  31.493  26.904  1.00  0.00     0.166 HD
HETATM   18  N10 UNL     1      21.505  30.206  23.962  1.00  0.00    -0.359 N 
HETATM   19  C17 UNL     1      21.413  28.762  23.928  1.00  0.00     0.245 C 
ATOM     20  H10 UNL     1      20.943  30.742  23.301  1.00  0.00     0.162 HD
ATOM     21  H11 UNL     1      22.737  27.133  24.368  1.00  0.00     0.161 HD
BRANCH  16  22
HETATM   22  N9  UNL     1      22.288  32.184  25.046  1.00  0.00    -0.384 N 
ATOM     23  H92 UNL     1      22.816  32.681  25.762  1.00  0.00     0.157 HD
ATOM     24  H91 UNL     1      21.676  32.708  24.420  1.00  0.00     0.157 HD
ENDBRANCH  16  22
ENDBRANCH   4  10
ENDBRANCH   1   3
BRANCH   1  25
HETATM   25  C4  UNL     1      26.958  27.794  30.941  1.00  0.00     0.240 C 
BRANCH  25  26
HETATM   26  O3  UNL     1      27.728  27.010  30.087  1.00  0.00    -0.375 OA
ATOM     27  H3  UNL     1      27.519  26.086  30.162  1.00  0.00     0.212 HD
ENDBRANCH  25  26
BRANCH  25  28
HETATM   28  C5  UNL     1      27.805  28.108  32.143  1.00  0.00     0.132 C 
BRANCH  28  29
HETATM   29  C6  UNL     1      29.215  28.331  31.738  1.00  0.00     0.100 A 
HETATM   30  N3  UNL     1      30.078  27.310  31.926  1.00  0.00    -0.351 N 
HETATM   31  C7  UNL     1      31.367  27.489  31.562  1.00  0.00     0.139 A 
ATOM     32  H3  UNL     1      29.766  26.428  32.331  1.00  0.00     0.166 HD
HETATM   33  C8  UNL     1      31.725  28.698  31.022  1.00  0.00     0.138 A 
HETATM   34  N6  UNL     1      30.840  29.701  30.846  1.00  0.00    -0.283 N 
HETATM   35  N7  UNL     1      29.586  29.493  31.214  1.00  0.00    -0.287 N 
ATOM     36  H6  UNL     1      31.128  30.592  30.442  1.00  0.00     0.188 HD
ATOM     37  H7  UNL     1      28.896  30.234  31.092  1.00  0.00     0.188 HD
BRANCH  33  38
HETATM   38  N4  UNL     1      32.935  28.922  30.655  1.00  0.00    -0.309 N 
HETATM   39  C9  UNL     1      33.231  28.969  29.272  1.00  0.00     0.253 C 
HETATM   40  O4  UNL     1      32.830  29.944  28.600  1.00  0.00    -0.271 OA
ATOM     41  H4  UNL     1      33.669  29.064  31.349  1.00  0.00     0.170 HD
BRANCH  39  42
HETATM   42  C10 UNL     1      33.995  27.901  28.613  1.00  0.00     0.271 C 
HETATM   43  C11 UNL     1      33.101  26.855  27.984  1.00  0.00     0.050 C 
BRANCH  42  44
HETATM   44  N5  UNL     1      34.926  27.318  29.546  1.00  0.00    -0.067 N 
ATOM     45  H53 UNL     1      35.211  27.981  30.267  1.00  0.00     0.275 HD
ATOM     46  H52 UNL     1      34.482  26.626  30.148  1.00  0.00     0.275 HD
ATOM     47  H51 UNL     1      35.724  26.932  29.042  1.00  0.00     0.275 HD
ENDBRANCH  42  44
ENDBRANCH  39  42
ENDBRANCH  33  38
ENDBRANCH  28  29
ENDBRANCH  25  28
ENDBRANCH   1  25
TORSDOF 12
ENDMDL
MODEL 5
REMARK VINA RESULT: -7.571995821      2.271      2.989
REMARK  12 active torsions:
REMARK  status: ('A' for Active; 'I' for Inactive)
REMARK    1  A    between atoms: O1_2  and  C2_3 
REMARK    2  A    between atoms: C2_3  and  C3_5 
REMARK    3  A    between atoms: C3_5  and  C12_33 
REMARK    4  A    between atoms: N1_6  and  N2_8 
REMARK    5  A    between atoms: N2_8  and  C4_10 
REMARK    6  A    between atoms: C4_10  and  O3_11 
REMARK    7  A    between atoms: C4_10  and  C5_13 
REMARK    8  A    between atoms: C5_13  and  C6_14 
REMARK    9  A    between atoms: C8_18  and  N4_19 
REMARK       I    between atoms: N4_19  and  C9_21 
REMARK   10  A    between atoms: C9_21  and  C10_23 
REMARK   11  A    between atoms: C10_23  and  N5_25 
REMARK   12  A    between atoms: C16_39  and  N9_40 
ROOT
HETATM    1  N2  UNL     1      26.460  29.500  30.456  1.00  0.00    -0.307 N 
ATOM      2  H2  UNL     1      26.793  28.543  30.571  1.00  0.00     0.183 HD
ENDROOT
BRANCH   1   3
HETATM    3  N1  UNL     1      25.637  29.756  29.387  1.00  0.00    -0.295 N 
HETATM    4  C3  UNL     1      25.917  29.630  28.139  1.00  0.00     0.150 C 
ATOM      5  H1  UNL     1      24.697  30.084  29.609  1.00  0.00     0.187 HD
BRANCH   4   6
HETATM    6  C2  UNL     1      27.238  29.168  27.765  1.00  0.00     0.313 C 
HETATM    7  O2  UNL     1      27.603  29.314  26.570  1.00  0.00    -0.257 OA
BRANCH   6   8
HETATM    8  O1  UNL     1      28.156  28.571  28.606  1.00  0.00    -0.321 OA
HETATM    9  C1  UNL     1      28.457  27.181  28.570  1.00  0.00     0.213 C 
ENDBRANCH   6   8
ENDBRANCH   4   6
BRANCH   4  10
HETATM   10  C12 UNL     1      24.869  29.968  27.182  1.00  0.00     0.069 A 
HETATM   11  C13 UNL     1      24.329  31.198  26.881  1.00  0.00     0.063 A 
HETATM   12  C14 UNL     1      23.350  31.064  25.906  1.00  0.00     0.062 A 
HETATM   13  C15 UNL     1      23.311  29.715  25.624  1.00  0.00     0.103 A 
HETATM   14  N11 UNL     1      22.509  32.007  25.260  1.00  0.00    -0.372 N 
HETATM   15  N8  UNL     1      24.222  29.079  26.393  1.00  0.00    -0.349 N 
HETATM   16  C16 UNL     1      22.346  29.270  24.609  1.00  0.00     0.125 C 
ATOM     17  H8  UNL     1      24.397  28.075  26.380  1.00  0.00     0.166 HD
HETATM   18  N10 UNL     1      21.517  30.217  23.977  1.00  0.00    -0.359 N 
HETATM   19  C17 UNL     1      21.701  31.647  24.105  1.00  0.00     0.245 C 
ATOM     20  H10 UNL     1      20.747  29.878  23.400  1.00  0.00     0.162 HD
ATOM     21  H11 UNL     1      22.470  32.963  25.614  1.00  0.00     0.161 HD
BRANCH  16  22
HETATM   22  N9  UNL     1      22.327  28.004  24.361  1.00  0.00    -0.384 N 
ATOM     23  H92 UNL     1      22.628  27.284  25.016  1.00  0.00     0.157 HD
ATOM     24  H91 UNL     1      21.983  27.733  23.439  1.00  0.00     0.157 HD
ENDBRANCH  16  22
ENDBRANCH   4  10
ENDBRANCH   1   3
BRANCH   1  25
HETATM   25  C4  UNL     1      26.892  30.474  31.431  1.00  0.00     0.240 C 
BRANCH  25  26
HETATM   26  O3  UNL     1      27.297  29.878  32.623  1.00  0.00    -0.375 OA
ATOM     27  H3  UNL     1      27.354  30.504  33.334  1.00  0.00     0.212 HD
ENDBRANCH  25  26
BRANCH  25  28
HETATM   28  C5  UNL     1      28.059  31.265  30.910  1.00  0.00     0.132 C 
BRANCH  28  29
HETATM   29  C6  UNL     1      29.335  30.694  31.407  1.00  0.00     0.100 A 
HETATM   30  N3  UNL     1      29.896  31.286  32.483  1.00  0.00    -0.351 N 
HETATM   31  C7  UNL     1      31.058  30.781  32.955  1.00  0.00     0.139 A 
ATOM     32  H3  UNL     1      29.457  32.092  32.927  1.00  0.00     0.166 HD
HETATM   33  C8  UNL     1      31.600  29.696  32.315  1.00  0.00     0.138 A 
HETATM   34  N6  UNL     1      31.015  29.125  31.241  1.00  0.00    -0.283 N 
HETATM   35  N7  UNL     1      29.880  29.644  30.804  1.00  0.00    -0.287 N 
ATOM     36  H6  UNL     1      31.436  28.317  30.781  1.00  0.00     0.188 HD
ATOM     37  H7  UNL     1      29.417  29.232  29.994  1.00  0.00     0.188 HD
BRANCH  33  38
HETATM   38  N4  UNL     1      32.699  29.173  32.723  1.00  0.00    -0.309 N 
HETATM   39  C9  UNL     1      33.285  28.134  31.962  1.00  0.00     0.253 C 
HETATM   40  O4  UNL     1      33.808  28.412  30.860  1.00  0.00    -0.271 OA
ATOM     41  H4  UNL     1      33.142  29.501  33.581  1.00  0.00     0.170 HD
BRANCH  39  42
HETATM   42  C10 UNL     1      33.291  26.743  32.434  1.00  0.00     0.271 C 
HETATM   43  C11 UNL     1      34.674  26.130  32.405  1.00  0.00     0.050 C 
BRANCH  42  44
HETATM   44  N5  UNL     1      32.345  25.964  31.676  1.00  0.00    -0.067 N 
ATOM     45  H53 UNL     1      31.610  25.574  32.266  1.00  0.00     0.275 HD
ATOM     46  H52 UNL     1      31.761  26.548  31.078  1.00  0.00     0.275 HD
ATOM     47  H51 UNL     1      32.835  25.244  31.147  1.00  0.00     0.275 HD
ENDBRANCH  42  44
ENDBRANCH  39  42
ENDBRANCH  33  38
ENDBRANCH  28  29
ENDBRANCH  25  28
ENDBRANCH   1  25
TORSDOF 12
ENDMDL
