MODEL 1
REMARK VINA RESULT: -8.530614405      0.000      0.000
REMARK  12 active torsions:
REMARK  status: ('A' for Active; 'I' for Inactive)
REMARK    1  A    between atoms: N1_2  and  C2_4 
REMARK    2  A    between atoms: C2_4  and  O1_5 
REMARK    3  A    between atoms: C2_4  and  N2_7 
REMARK    4  A    between atoms: N2_7  and  C3_9 
REMARK    5  A    between atoms: C4_10  and  C5_11 
REMARK    6  A    between atoms: C5_11  and  O2_12 
REMARK    7  A    between atoms: C5_11  and  N3_14 
REMARK    8  A    between atoms: N3_14  and  C6_16 
REMARK    9  A    between atoms: N6_23  and  O4_24 
REMARK   10  A    between atoms: C9_29  and  N8_30 
REMARK   11  A    between atoms: N8_30  and  C10_32 
REMARK   12  A    between atoms: C13_37  and  N10_38 
ROOT
HETATM    1  C6  UNL     1     -13.279  11.427   2.091  1.00  0.00     0.154 A 
HETATM    2  N4  UNL     1     -14.542  11.804   2.324  1.00  0.00    -0.321 N 
ATOM      3  H4  UNL     1     -14.981  11.503   3.194  1.00  0.00     0.169 HD
HETATM    4  C7  UNL     1     -15.273  12.565   1.467  1.00  0.00     0.178 A 
HETATM    5  N5  UNL     1     -16.509  13.040   1.467  1.00  0.00    -0.219 N 
ATOM      6  H5  UNL     1     -17.207  12.905   2.198  1.00  0.00     0.198 HD
HETATM    7  O3  UNL     1     -16.671  13.709   0.361  1.00  0.00    -0.125 OA
HETATM    8  N6  UNL     1     -15.570  13.673  -0.345  1.00  0.00    -0.081 N 
HETATM    9  C8  UNL     1     -14.653  12.958   0.320  1.00  0.00     0.208 A 
HETATM   10  N7  UNL     1     -13.392  12.571   0.107  1.00  0.00    -0.319 N 
ATOM     11  H7  UNL     1     -12.964  12.883  -0.764  1.00  0.00     0.169 HD
HETATM   12  C9  UNL     1     -12.632  11.828   0.901  1.00  0.00     0.152 A 
ENDROOT
BRANCH   1  13
HETATM   13  N3  UNL     1     -12.590  10.690   3.081  1.00  0.00    -0.318 N 
ATOM     14  H3  UNL     1     -11.729  11.031   3.509  1.00  0.00     0.169 HD
BRANCH  13  15
HETATM   15  C5  UNL     1     -13.173   9.436   3.448  1.00  0.00     0.174 C 
BRANCH  15  16
HETATM   16  C4  UNL     1     -13.361   8.376   2.462  1.00  0.00     0.146 A 
HETATM   17  C3  UNL     1     -14.570   7.643   2.254  1.00  0.00     0.155 A 
HETATM   18  N14 UNL     1     -14.344   6.823   1.215  1.00  0.00    -0.265 N 
HETATM   19  N13 UNL     1     -13.084   7.010   0.794  1.00  0.00    -0.239 N 
HETATM   20  C15 UNL     1     -15.290   5.907   0.543  1.00  0.00     0.181 C 
HETATM   21  N12 UNL     1     -12.512   7.926   1.535  1.00  0.00    -0.279 N 
ATOM     22  H13 UNL     1     -12.642   6.516   0.019  1.00  0.00     0.208 HD
ATOM     23  H12 UNL     1     -11.551   8.250   1.420  1.00  0.00     0.189 HD
BRANCH  17  24
HETATM   24  N2  UNL     1     -15.548   7.820   2.995  1.00  0.00    -0.331 N 
ATOM     25  H2  UNL     1     -15.334   7.587   3.964  1.00  0.00     0.165 HD
BRANCH  24  26
HETATM   26  C2  UNL     1     -16.864   8.254   2.849  1.00  0.00     0.323 C 
BRANCH  26  27
HETATM   27  N1  UNL     1     -16.984   9.567   2.232  1.00  0.00    -0.385 N 
HETATM   28  C1  UNL     1     -18.123   9.765   1.435  1.00  0.00     0.144 C 
ATOM     29  H1  UNL     1     -16.285  10.297   2.369  1.00  0.00     0.157 HD
ENDBRANCH  26  27
BRANCH  26  30
HETATM   30  O1  UNL     1     -17.482   8.442   4.134  1.00  0.00    -0.360 OA
ATOM     31  H1  UNL     1     -16.749   8.670   4.694  1.00  0.00     0.214 HD
ENDBRANCH  26  30
ENDBRANCH  24  26
ENDBRANCH  17  24
ENDBRANCH  15  16
BRANCH  15  32
HETATM   32  O2  UNL     1     -13.260   9.109   4.771  1.00  0.00    -0.344 OA
ATOM     33  H2  UNL     1     -12.628   9.489   5.370  1.00  0.00     0.219 HD
ENDBRANCH  15  32
ENDBRANCH  13  15
ENDBRANCH   1  13
BRANCH  12  34
HETATM   34  N8  UNL     1     -11.346  11.348   0.713  1.00  0.00    -0.348 N 
ATOM     35  H8  UNL     1     -10.704  11.537   1.483  1.00  0.00     0.167 HD
BRANCH  34  36
HETATM   36  C10 UNL     1     -10.762  10.626  -0.391  1.00  0.00     0.108 C 
HETATM   37  C11 UNL     1     -11.494  10.553  -1.613  1.00  0.00     0.064 A 
HETATM   38  C12 UNL     1     -11.759  11.564  -2.479  1.00  0.00     0.124 A 
HETATM   39  C14 UNL     1     -11.901   9.256  -2.019  1.00  0.00     0.272 A 
HETATM   40  N9  UNL     1     -12.386  11.320  -3.658  1.00  0.00    -0.201 N 
HETATM   41  C13 UNL     1     -12.772  10.102  -4.033  1.00  0.00     0.678 A 
ATOM     42  H9  UNL     1     -12.570  12.105  -4.284  1.00  0.00     0.183 HD
HETATM   43  N11 UNL     1     -12.512   9.077  -3.191  1.00  0.00    -0.156 N 
ATOM     44  H11 UNL     1     -12.794   8.134  -3.460  1.00  0.00     0.187 HD
HETATM   45  O5  UNL     1     -11.685   8.275  -1.281  1.00  0.00    -0.267 OA
BRANCH  41  46
HETATM   46  N10 UNL     1     -13.376   9.868  -5.141  1.00  0.00    -0.234 N 
ATOM     47 2H10 UNL     1     -13.230  10.495  -5.933  1.00  0.00     0.174 HD
ATOM     48 1H10 UNL     1     -13.999   9.073  -5.278  1.00  0.00     0.174 HD
ENDBRANCH  41  46
ENDBRANCH  34  36
ENDBRANCH  12  34
BRANCH   8  49
HETATM   49  O4  UNL     1     -15.369  14.270  -1.576  1.00  0.00    -0.260 OA
ATOM     50  H4  UNL     1     -14.938  13.877  -2.327  1.00  0.00     0.247 HD
ENDBRANCH   8  49
TORSDOF 12
ENDMDL
MODEL 2
REMARK VINA RESULT: -8.495815144      2.086      5.214
REMARK  12 active torsions:
REMARK  status: ('A' for Active; 'I' for Inactive)
REMARK    1  A    between atoms: N1_2  and  C2_4 
REMARK    2  A    between atoms: C2_4  and  O1_5 
REMARK    3  A    between atoms: C2_4  and  N2_7 
REMARK    4  A    between atoms: N2_7  and  C3_9 
REMARK    5  A    between atoms: C4_10  and  C5_11 
REMARK    6  A    between atoms: C5_11  and  O2_12 
REMARK    7  A    between atoms: C5_11  and  N3_14 
REMARK    8  A    between atoms: N3_14  and  C6_16 
REMARK    9  A    between atoms: N6_23  and  O4_24 
REMARK   10  A    between atoms: C9_29  and  N8_30 
REMARK   11  A    between atoms: N8_30  and  C10_32 
REMARK   12  A    between atoms: C13_37  and  N10_38 
ROOT
HETATM    1  C6  UNL     1     -13.316   9.178   1.801  1.00  0.00     0.154 A 
HETATM    2  N4  UNL     1     -14.075   8.118   1.501  1.00  0.00    -0.321 N 
ATOM      3  H4  UNL     1     -13.608   7.237   1.286  1.00  0.00     0.169 HD
HETATM    4  C7  UNL     1     -15.434   8.147   1.469  1.00  0.00     0.178 A 
HETATM    5  N5  UNL     1     -16.378   7.260   1.193  1.00  0.00    -0.219 N 
ATOM      6  H5  UNL     1     -16.231   6.285   0.932  1.00  0.00     0.198 HD
HETATM    7  O3  UNL     1     -17.527   7.860   1.315  1.00  0.00    -0.125 OA
HETATM    8  N6  UNL     1     -17.341   9.109   1.661  1.00  0.00    -0.081 N 
HETATM    9  C8  UNL     1     -16.026   9.335   1.773  1.00  0.00     0.208 A 
HETATM   10  N7  UNL     1     -15.249  10.381   2.070  1.00  0.00    -0.319 N 
ATOM     11  H7  UNL     1     -15.730  11.254   2.288  1.00  0.00     0.169 HD
HETATM   12  C9  UNL     1     -13.924  10.415   2.113  1.00  0.00     0.152 A 
ENDROOT
BRANCH   1  13
HETATM   13  N3  UNL     1     -11.913   9.019   1.870  1.00  0.00    -0.318 N 
ATOM     14  H3  UNL     1     -11.383   9.251   2.710  1.00  0.00     0.169 HD
BRANCH  13  15
HETATM   15  C5  UNL     1     -11.281   8.512   0.691  1.00  0.00     0.174 C 
BRANCH  15  16
HETATM   16  C4  UNL     1     -10.408   9.358  -0.118  1.00  0.00     0.146 A 
HETATM   17  C3  UNL     1     -10.312   9.326  -1.543  1.00  0.00     0.155 A 
HETATM   18  N14 UNL     1      -9.460  10.305  -1.889  1.00  0.00    -0.265 N 
HETATM   19  N13 UNL     1      -9.034  10.911  -0.771  1.00  0.00    -0.239 N 
HETATM   20  C15 UNL     1      -9.071  10.749  -3.244  1.00  0.00     0.181 C 
HETATM   21  N12 UNL     1      -9.597  10.346   0.269  1.00  0.00    -0.279 N 
ATOM     22  H13 UNL     1      -8.376  11.689  -0.736  1.00  0.00     0.208 HD
ATOM     23  H12 UNL     1      -9.438  10.623   1.238  1.00  0.00     0.189 HD
BRANCH  17  24
HETATM   24  N2  UNL     1     -10.937   8.478  -2.197  1.00  0.00    -0.331 N 
ATOM     25  H2  UNL     1     -10.416   7.605  -2.276  1.00  0.00     0.165 HD
BRANCH  24  26
HETATM   26  C2  UNL     1     -12.165   8.406  -2.850  1.00  0.00     0.323 C 
BRANCH  26  27
HETATM   27  N1  UNL     1     -12.866   9.679  -2.927  1.00  0.00    -0.385 N 
HETATM   28  C1  UNL     1     -12.861  10.305  -4.183  1.00  0.00     0.144 C 
ATOM     29  H1  UNL     1     -13.332  10.091  -2.118  1.00  0.00     0.157 HD
ENDBRANCH  26  27
BRANCH  26  30
HETATM   30  O1  UNL     1     -13.081   7.573  -2.120  1.00  0.00    -0.360 OA
ATOM     31  H1  UNL     1     -12.649   6.727  -2.119  1.00  0.00     0.214 HD
ENDBRANCH  26  30
ENDBRANCH  24  26
ENDBRANCH  17  24
ENDBRANCH  15  16
BRANCH  15  32
HETATM   32  O2  UNL     1     -11.234   7.162   0.494  1.00  0.00    -0.344 OA
ATOM     33  H2  UNL     1     -10.659   6.646   1.048  1.00  0.00     0.219 HD
ENDBRANCH  15  32
ENDBRANCH  13  15
ENDBRANCH   1  13
BRANCH  12  34
HETATM   34  N8  UNL     1     -13.064  11.474   2.357  1.00  0.00    -0.348 N 
ATOM     35  H8  UNL     1     -12.672  11.496   3.298  1.00  0.00     0.167 HD
BRANCH  34  36
HETATM   36  C10 UNL     1     -12.632  12.552   1.501  1.00  0.00     0.108 C 
HETATM   37  C11 UNL     1     -13.500  12.969   0.449  1.00  0.00     0.064 A 
HETATM   38  C12 UNL     1     -14.694  13.605   0.564  1.00  0.00     0.124 A 
HETATM   39  C14 UNL     1     -13.011  12.789  -0.871  1.00  0.00     0.272 A 
HETATM   40  N9  UNL     1     -15.363  14.030  -0.537  1.00  0.00    -0.201 N 
HETATM   41  C13 UNL     1     -14.903  13.854  -1.775  1.00  0.00     0.678 A 
ATOM     42  H9  UNL     1     -16.258  14.504  -0.412  1.00  0.00     0.183 HD
HETATM   43  N11 UNL     1     -13.713  13.229  -1.916  1.00  0.00    -0.156 N 
ATOM     44  H11 UNL     1     -13.339  13.089  -2.855  1.00  0.00     0.187 HD
HETATM   45  O5  UNL     1     -11.918  12.220  -1.058  1.00  0.00    -0.267 OA
BRANCH  41  46
HETATM   46  N10 UNL     1     -15.537  14.243  -2.820  1.00  0.00    -0.234 N 
ATOM     47 2H10 UNL     1     -16.557  14.207  -2.829  1.00  0.00     0.174 HD
ATOM     48 1H10 UNL     1     -15.071  14.597  -3.655  1.00  0.00     0.174 HD
ENDBRANCH  41  46
ENDBRANCH  34  36
ENDBRANCH  12  34
BRANCH   8  49
HETATM   49  O4  UNL     1     -18.329  10.051   1.881  1.00  0.00    -0.260 OA
ATOM     50  H4  UNL     1     -18.253  10.828   2.423  1.00  0.00     0.247 HD
ENDBRANCH   8  49
TORSDOF 12
ENDMDL
MODEL 3
REMARK VINA RESULT: -8.338323919      1.047      1.152
REMARK  12 active torsions:
REMARK  status: ('A' for Active; 'I' for Inactive)
REMARK    1  A    between atoms: N1_2  and  C2_4 
REMARK    2  A    between atoms: C2_4  and  O1_5 
REMARK    3  A    between atoms: C2_4  and  N2_7 
REMARK    4  A    between atoms: N2_7  and  C3_9 
REMARK    5  A    between atoms: C4_10  and  C5_11 
REMARK    6  A    between atoms: C5_11  and  O2_12 
REMARK    7  A    between atoms: C5_11  and  N3_14 
REMARK    8  A    between atoms: N3_14  and  C6_16 
REMARK    9  A    between atoms: N6_23  and  O4_24 
REMARK   10  A    between atoms: C9_29  and  N8_30 
REMARK   11  A    between atoms: N8_30  and  C10_32 
REMARK   12  A    between atoms: C13_37  and  N10_38 
ROOT
HETATM    1  C6  UNL     1     -13.459  11.204   1.302  1.00  0.00     0.154 A 
HETATM    2  N4  UNL     1     -14.559  11.800   1.776  1.00  0.00    -0.321 N 
ATOM      3  H4  UNL     1     -14.867  11.562   2.719  1.00  0.00     0.169 HD
HETATM    4  C7  UNL     1     -15.290  12.706   1.072  1.00  0.00     0.178 A 
HETATM    5  N5  UNL     1     -16.392  13.400   1.311  1.00  0.00    -0.219 N 
ATOM      6  H5  UNL     1     -16.945  13.376   2.168  1.00  0.00     0.198 HD
HETATM    7  O3  UNL     1     -16.640  14.118   0.253  1.00  0.00    -0.125 OA
HETATM    8  N6  UNL     1     -15.724  13.899  -0.656  1.00  0.00    -0.081 N 
HETATM    9  C8  UNL     1     -14.844  13.009  -0.178  1.00  0.00     0.208 A 
HETATM   10  N7  UNL     1     -13.743  12.403  -0.631  1.00  0.00    -0.319 N 
ATOM     11  H7  UNL     1     -13.444  12.655  -1.573  1.00  0.00     0.169 HD
HETATM   12  C9  UNL     1     -12.994  11.511   0.004  1.00  0.00     0.152 A 
ENDROOT
BRANCH   1  13
HETATM   13  N3  UNL     1     -12.739  10.327   2.145  1.00  0.00    -0.318 N 
ATOM     14  H3  UNL     1     -11.781  10.522   2.437  1.00  0.00     0.169 HD
BRANCH  13  15
HETATM   15  C5  UNL     1     -13.433   9.148   2.563  1.00  0.00     0.174 C 
BRANCH  15  16
HETATM   16  C4  UNL     1     -13.824   8.123   1.599  1.00  0.00     0.146 A 
HETATM   17  C3  UNL     1     -15.076   7.434   1.585  1.00  0.00     0.155 A 
HETATM   18  N14 UNL     1     -15.060   6.639   0.503  1.00  0.00    -0.265 N 
HETATM   19  N13 UNL     1     -13.885   6.799  -0.124  1.00  0.00    -0.239 N 
HETATM   20  C15 UNL     1     -16.138   5.772  -0.017  1.00  0.00     0.181 C 
HETATM   21  N12 UNL     1     -13.163   7.675   0.529  1.00  0.00    -0.279 N 
ATOM     22  H13 UNL     1     -13.600   6.315  -0.975  1.00  0.00     0.208 HD
ATOM     23  H12 UNL     1     -12.225   7.973   0.258  1.00  0.00     0.189 HD
BRANCH  17  24
HETATM   24  N2  UNL     1     -15.906   7.619   2.487  1.00  0.00    -0.331 N 
ATOM     25  H2  UNL     1     -15.636   7.149   3.350  1.00  0.00     0.165 HD
BRANCH  24  26
HETATM   26  C2  UNL     1     -17.111   8.303   2.630  1.00  0.00     0.323 C 
BRANCH  26  27
HETATM   27  N1  UNL     1     -17.072   9.673   2.140  1.00  0.00    -0.385 N 
HETATM   28  C1  UNL     1     -18.129  10.051   1.297  1.00  0.00     0.144 C 
ATOM     29  H1  UNL     1     -16.322  10.318   2.392  1.00  0.00     0.157 HD
ENDBRANCH  26  27
BRANCH  26  30
HETATM   30  O1  UNL     1     -17.442   8.465   4.020  1.00  0.00    -0.360 OA
ATOM     31  H1  UNL     1     -18.034   7.740   4.186  1.00  0.00     0.214 HD
ENDBRANCH  26  30
ENDBRANCH  24  26
ENDBRANCH  17  24
ENDBRANCH  15  16
BRANCH  15  32
HETATM   32  O2  UNL     1     -13.450   8.826   3.890  1.00  0.00    -0.344 OA
ATOM     33  H2  UNL     1     -13.979   8.087   4.166  1.00  0.00     0.219 HD
ENDBRANCH  15  32
ENDBRANCH  13  15
ENDBRANCH   1  13
BRANCH  12  34
HETATM   34  N8  UNL     1     -11.881  10.809  -0.429  1.00  0.00    -0.348 N 
ATOM     35  H8  UNL     1     -11.551  10.093   0.219  1.00  0.00     0.167 HD
BRANCH  34  36
HETATM   36  C10 UNL     1     -11.110  10.921  -1.643  1.00  0.00     0.108 C 
HETATM   37  C11 UNL     1     -11.617  10.302  -2.824  1.00  0.00     0.064 A 
HETATM   38  C12 UNL     1     -12.710  10.663  -3.543  1.00  0.00     0.124 A 
HETATM   39  C14 UNL     1     -10.829   9.254  -3.365  1.00  0.00     0.272 A 
HETATM   40  N9  UNL     1     -13.012  10.036  -4.708  1.00  0.00    -0.201 N 
HETATM   41  C13 UNL     1     -12.272   9.048  -5.210  1.00  0.00     0.678 A 
ATOM     42  H9  UNL     1     -13.842  10.333  -5.222  1.00  0.00     0.183 HD
HETATM   43  N11 UNL     1     -11.174   8.675  -4.516  1.00  0.00    -0.156 N 
ATOM     44  H11 UNL     1     -10.590   7.923  -4.884  1.00  0.00     0.187 HD
HETATM   45  O5  UNL     1      -9.804   8.871  -2.766  1.00  0.00    -0.267 OA
BRANCH  41  46
HETATM   46  N10 UNL     1     -12.561   8.443  -6.304  1.00  0.00    -0.234 N 
ATOM     47 2H10 UNL     1     -13.537   8.239  -6.522  1.00  0.00     0.174 HD
ATOM     48 1H10 UNL     1     -11.857   8.155  -6.984  1.00  0.00     0.174 HD
ENDBRANCH  41  46
ENDBRANCH  34  36
ENDBRANCH  12  34
BRANCH   8  49
HETATM   49  O4  UNL     1     -15.661  14.481  -1.909  1.00  0.00    -0.260 OA
ATOM     50  H4  UNL     1     -15.485  14.033  -2.728  1.00  0.00     0.247 HD
ENDBRANCH   8  49
TORSDOF 12
ENDMDL
MODEL 4
REMARK VINA RESULT: -8.333373595      1.410      1.458
REMARK  12 active torsions:
REMARK  status: ('A' for Active; 'I' for Inactive)
REMARK    1  A    between atoms: N1_2  and  C2_4 
REMARK    2  A    between atoms: C2_4  and  O1_5 
REMARK    3  A    between atoms: C2_4  and  N2_7 
REMARK    4  A    between atoms: N2_7  and  C3_9 
REMARK    5  A    between atoms: C4_10  and  C5_11 
REMARK    6  A    between atoms: C5_11  and  O2_12 
REMARK    7  A    between atoms: C5_11  and  N3_14 
REMARK    8  A    between atoms: N3_14  and  C6_16 
REMARK    9  A    between atoms: N6_23  and  O4_24 
REMARK   10  A    between atoms: C9_29  and  N8_30 
REMARK   11  A    between atoms: N8_30  and  C10_32 
REMARK   12  A    between atoms: C13_37  and  N10_38 
ROOT
HETATM    1  C6  UNL     1     -12.908  11.430   1.001  1.00  0.00     0.154 A 
HETATM    2  N4  UNL     1     -14.179  11.252   1.381  1.00  0.00    -0.321 N 
ATOM      3  H4  UNL     1     -14.429  10.368   1.825  1.00  0.00     0.169 HD
HETATM    4  C7  UNL     1     -15.156  12.182   1.209  1.00  0.00     0.178 A 
HETATM    5  N5  UNL     1     -16.451  12.232   1.478  1.00  0.00    -0.219 N 
ATOM      6  H5  UNL     1     -17.004  11.497   1.918  1.00  0.00     0.198 HD
HETATM    7  O3  UNL     1     -16.890  13.392   1.078  1.00  0.00    -0.125 OA
HETATM    8  N6  UNL     1     -15.907  14.083   0.559  1.00  0.00    -0.081 N 
HETATM    9  C8  UNL     1     -14.784  13.354   0.623  1.00  0.00     0.208 A 
HETATM   10  N7  UNL     1     -13.511  13.511   0.252  1.00  0.00    -0.319 N 
ATOM     11  H7  UNL     1     -13.274  14.401  -0.186  1.00  0.00     0.169 HD
HETATM   12  C9  UNL     1     -12.518  12.642   0.389  1.00  0.00     0.152 A 
ENDROOT
BRANCH   1  13
HETATM   13  N3  UNL     1     -11.960  10.421   1.289  1.00  0.00    -0.318 N 
ATOM     14  H3  UNL     1     -10.960  10.563   1.150  1.00  0.00     0.169 HD
BRANCH  13  15
HETATM   15  C5  UNL     1     -12.488   9.188   1.786  1.00  0.00     0.174 C 
BRANCH  15  16
HETATM   16  C4  UNL     1     -12.956   8.148   0.875  1.00  0.00     0.146 A 
HETATM   17  C3  UNL     1     -13.962   7.177   1.172  1.00  0.00     0.155 A 
HETATM   18  N14 UNL     1     -14.145   6.463   0.049  1.00  0.00    -0.265 N 
HETATM   19  N13 UNL     1     -13.314   6.934  -0.893  1.00  0.00    -0.239 N 
HETATM   20  C15 UNL     1     -15.125   5.388  -0.207  1.00  0.00     0.181 C 
HETATM   21  N12 UNL     1     -12.616   7.926  -0.398  1.00  0.00    -0.279 N 
ATOM     22  H13 UNL     1     -13.238   6.575  -1.845  1.00  0.00     0.208 HD
ATOM     23  H12 UNL     1     -11.912   8.455  -0.912  1.00  0.00     0.189 HD
BRANCH  17  24
HETATM   24  N2  UNL     1     -14.456   7.111   2.307  1.00  0.00    -0.331 N 
ATOM     25  H2  UNL     1     -13.878   6.557   2.938  1.00  0.00     0.165 HD
BRANCH  24  26
HETATM   26  C2  UNL     1     -15.595   7.597   2.945  1.00  0.00     0.323 C 
BRANCH  26  27
HETATM   27  N1  UNL     1     -16.780   7.613   2.100  1.00  0.00    -0.385 N 
HETATM   28  C1  UNL     1     -17.164   8.871   1.609  1.00  0.00     0.144 C 
ATOM     29  H1  UNL     1     -17.300   6.763   1.879  1.00  0.00     0.157 HD
ENDBRANCH  26  27
BRANCH  26  30
HETATM   30  O1  UNL     1     -15.429   8.981   3.297  1.00  0.00    -0.360 OA
ATOM     31  H1  UNL     1     -14.572   8.996   3.708  1.00  0.00     0.214 HD
ENDBRANCH  26  30
ENDBRANCH  24  26
ENDBRANCH  17  24
ENDBRANCH  15  16
BRANCH  15  32
HETATM   32  O2  UNL     1     -12.263   8.850   3.090  1.00  0.00    -0.344 OA
ATOM     33  H2  UNL     1     -11.387   8.964   3.438  1.00  0.00     0.219 HD
ENDBRANCH  15  32
ENDBRANCH  13  15
ENDBRANCH   1  13
BRANCH  12  34
HETATM   34  N8  UNL     1     -11.198  12.721  -0.023  1.00  0.00    -0.348 N 
ATOM     35  H8  UNL     1     -10.549  13.057   0.689  1.00  0.00     0.167 HD
BRANCH  34  36
HETATM   36  C10 UNL     1     -10.587  12.407  -1.291  1.00  0.00     0.108 C 
HETATM   37  C11 UNL     1     -11.336  11.638  -2.230  1.00  0.00     0.064 A 
HETATM   38  C12 UNL     1     -12.445  12.021  -2.915  1.00  0.00     0.124 A 
HETATM   39  C14 UNL     1     -10.803  10.367  -2.563  1.00  0.00     0.272 A 
HETATM   40  N9  UNL     1     -12.994  11.210  -3.855  1.00  0.00    -0.201 N 
HETATM   41  C13 UNL     1     -12.492  10.014  -4.160  1.00  0.00     0.678 A 
ATOM     42  H9  UNL     1     -13.828  11.530  -4.349  1.00  0.00     0.183 HD
HETATM   43  N11 UNL     1     -11.385   9.613  -3.497  1.00  0.00    -0.156 N 
ATOM     44  H11 UNL     1     -10.980   8.703  -3.718  1.00  0.00     0.187 HD
HETATM   45  O5  UNL     1      -9.781   9.949  -1.983  1.00  0.00    -0.267 OA
BRANCH  41  46
HETATM   46  N10 UNL     1     -13.015   9.239  -5.038  1.00  0.00    -0.234 N 
ATOM     47 2H10 UNL     1     -13.956   8.874  -4.888  1.00  0.00     0.174 HD
ATOM     48 1H10 UNL     1     -12.536   8.966  -5.896  1.00  0.00     0.174 HD
ENDBRANCH  41  46
ENDBRANCH  34  36
ENDBRANCH  12  34
BRANCH   8  49
HETATM   49  O4  UNL     1     -15.995  15.357   0.029  1.00  0.00    -0.260 OA
ATOM     50  H4  UNL     1     -15.447  16.099   0.257  1.00  0.00     0.247 HD
ENDBRANCH   8  49
TORSDOF 12
ENDMDL
MODEL 5
REMARK VINA RESULT: -8.228053603      1.601      1.938
REMARK  12 active torsions:
REMARK  status: ('A' for Active; 'I' for Inactive)
REMARK    1  A    between atoms: N1_2  and  C2_4 
REMARK    2  A    between atoms: C2_4  and  O1_5 
REMARK    3  A    between atoms: C2_4  and  N2_7 
REMARK    4  A    between atoms: N2_7  and  C3_9 
REMARK    5  A    between atoms: C4_10  and  C5_11 
REMARK    6  A    between atoms: C5_11  and  O2_12 
REMARK    7  A    between atoms: C5_11  and  N3_14 
REMARK    8  A    between atoms: N3_14  and  C6_16 
REMARK    9  A    between atoms: N6_23  and  O4_24 
REMARK   10  A    between atoms: C9_29  and  N8_30 
REMARK   11  A    between atoms: N8_30  and  C10_32 
REMARK   12  A    between atoms: C13_37  and  N10_38 
ROOT
HETATM    1  C6  UNL     1     -12.862  11.517   1.189  1.00  0.00     0.154 A 
HETATM    2  N4  UNL     1     -14.122  11.282   1.575  1.00  0.00    -0.321 N 
ATOM      3  H4  UNL     1     -14.309  10.439   2.118  1.00  0.00     0.169 HD
HETATM    4  C7  UNL     1     -15.166  12.103   1.283  1.00  0.00     0.178 A 
HETATM    5  N5  UNL     1     -16.466  12.078   1.531  1.00  0.00    -0.219 N 
ATOM      6  H5  UNL     1     -16.967  11.357   2.049  1.00  0.00     0.198 HD
HETATM    7  O3  UNL     1     -16.988  13.143   0.992  1.00  0.00    -0.125 OA
HETATM    8  N6  UNL     1     -16.053  13.846   0.404  1.00  0.00    -0.081 N 
HETATM    9  C8  UNL     1     -14.878  13.224   0.566  1.00  0.00     0.208 A 
HETATM   10  N7  UNL     1     -13.614  13.440   0.192  1.00  0.00    -0.319 N 
ATOM     11  H7  UNL     1     -13.440  14.288  -0.346  1.00  0.00     0.169 HD
HETATM   12  C9  UNL     1     -12.558  12.676   0.441  1.00  0.00     0.152 A 
ENDROOT
BRANCH   1  13
HETATM   13  N3  UNL     1     -11.842  10.630   1.604  1.00  0.00    -0.318 N 
ATOM     14  H3  UNL     1     -10.874  10.932   1.713  1.00  0.00     0.169 HD
BRANCH  13  15
HETATM   15  C5  UNL     1     -12.249   9.283   1.862  1.00  0.00     0.174 C 
BRANCH  15  16
HETATM   16  C4  UNL     1     -11.966   8.215   0.907  1.00  0.00     0.146 A 
HETATM   17  C3  UNL     1     -12.935   7.328   0.345  1.00  0.00     0.155 A 
HETATM   18  N14 UNL     1     -12.278   6.555  -0.534  1.00  0.00    -0.265 N 
HETATM   19  N13 UNL     1     -10.985   6.912  -0.530  1.00  0.00    -0.239 N 
HETATM   20  C15 UNL     1     -12.825   5.525  -1.442  1.00  0.00     0.181 C 
HETATM   21  N12 UNL     1     -10.810   7.891   0.323  1.00  0.00    -0.279 N 
ATOM     22  H13 UNL     1     -10.254   6.489  -1.101  1.00  0.00     0.208 HD
ATOM     23  H12 UNL     1      -9.915   8.343   0.514  1.00  0.00     0.189 HD
BRANCH  17  24
HETATM   24  N2  UNL     1     -14.116   7.366   0.722  1.00  0.00    -0.331 N 
ATOM     25  H2  UNL     1     -14.646   8.081   0.225  1.00  0.00     0.165 HD
BRANCH  24  26
HETATM   26  C2  UNL     1     -14.906   6.688   1.647  1.00  0.00     0.323 C 
BRANCH  26  27
HETATM   27  N1  UNL     1     -15.303   7.500   2.788  1.00  0.00    -0.385 N 
HETATM   28  C1  UNL     1     -16.257   8.496   2.527  1.00  0.00     0.144 C 
ATOM     29  H1  UNL     1     -14.912   7.354   3.719  1.00  0.00     0.157 HD
ENDBRANCH  26  27
BRANCH  26  30
HETATM   30  O1  UNL     1     -14.170   5.613   2.253  1.00  0.00    -0.360 OA
ATOM     31  H1  UNL     1     -14.518   4.842   1.819  1.00  0.00     0.214 HD
ENDBRANCH  26  30
ENDBRANCH  24  26
ENDBRANCH  17  24
ENDBRANCH  15  16
BRANCH  15  32
HETATM   32  O2  UNL     1     -12.616   8.934   3.130  1.00  0.00    -0.344 OA
ATOM     33  H2  UNL     1     -13.163   9.536   3.621  1.00  0.00     0.219 HD
ENDBRANCH  15  32
ENDBRANCH  13  15
ENDBRANCH   1  13
BRANCH  12  34
HETATM   34  N8  UNL     1     -11.240  12.814   0.037  1.00  0.00    -0.348 N 
ATOM     35  H8  UNL     1     -10.642  13.313   0.695  1.00  0.00     0.167 HD
BRANCH  34  36
HETATM   36  C10 UNL     1     -10.572  12.369  -1.162  1.00  0.00     0.108 C 
HETATM   37  C11 UNL     1     -11.323  11.621  -2.116  1.00  0.00     0.064 A 
HETATM   38  C12 UNL     1     -12.335  12.065  -2.904  1.00  0.00     0.124 A 
HETATM   39  C14 UNL     1     -10.894  10.287  -2.339  1.00  0.00     0.272 A 
HETATM   40  N9  UNL     1     -12.891  11.255  -3.841  1.00  0.00    -0.201 N 
HETATM   41  C13 UNL     1     -12.489  10.002  -4.043  1.00  0.00     0.678 A 
ATOM     42  H9  UNL     1     -13.651  11.623  -4.415  1.00  0.00     0.183 HD
HETATM   43  N11 UNL     1     -11.478   9.538  -3.276  1.00  0.00    -0.156 N 
ATOM     44  H11 UNL     1     -11.150   8.582  -3.417  1.00  0.00     0.187 HD
HETATM   45  O5  UNL     1      -9.963   9.810  -1.660  1.00  0.00    -0.267 OA
BRANCH  41  46
HETATM   46  N10 UNL     1     -13.020   9.228  -4.919  1.00  0.00    -0.234 N 
ATOM     47 2H10 UNL     1     -13.831   9.551  -5.446  1.00  0.00     0.174 HD
ATOM     48 1H10 UNL     1     -12.666   8.294  -5.124  1.00  0.00     0.174 HD
ENDBRANCH  41  46
ENDBRANCH  34  36
ENDBRANCH  12  34
BRANCH   8  49
HETATM   49  O4  UNL     1     -16.232  15.038  -0.274  1.00  0.00    -0.260 OA
ATOM     50  H4  UNL     1     -15.728  15.834  -0.154  1.00  0.00     0.247 HD
ENDBRANCH   8  49
TORSDOF 12
ENDMDL
