MODEL 1
REMARK VINA RESULT: -6.462890984      0.000      0.000
REMARK  2 active torsions:
REMARK  status: ('A' for Active; 'I' for Inactive)
REMARK       I    between atoms: C1_2  and  N1_3 
REMARK    1  A    between atoms: C1_2  and  C6_11 
REMARK    2  A    between atoms: N1_3  and  C2_5 
ROOT
HETATM    1  C6  UNL     1       4.962   8.121  17.987  1.00  0.00     0.042 C 
HETATM    2  C7  UNL     1       3.722   8.741  17.410  1.00  0.00     0.024 C 
HETATM    3  C8  UNL     1       3.727   8.522  15.916  1.00  0.00    -0.013 C 
HETATM    4  C9  UNL     1       4.929   9.194  15.283  1.00  0.00     0.009 C 
HETATM    5  C10 UNL     1       6.173   8.607  15.916  1.00  0.00    -0.013 C 
HETATM    6  C11 UNL     1       6.218   7.149  15.542  1.00  0.00     0.009 C 
HETATM    7  C12 UNL     1       5.022   6.448  16.163  1.00  0.00    -0.013 C 
HETATM    8  C13 UNL     1       3.715   7.033  15.683  1.00  0.00     0.009 C 
HETATM    9  C14 UNL     1       5.106   6.663  17.650  1.00  0.00     0.024 C 
HETATM   10  C15 UNL     1       6.169   8.836  17.401  1.00  0.00     0.024 C 
ENDROOT
BRANCH   1  11
HETATM   11  C1  UNL     1       4.963   8.255  19.489  1.00  0.00     0.231 C 
HETATM   12  O1  UNL     1       4.540   9.317  19.993  1.00  0.00    -0.272 OA
HETATM   13  N1  UNL     1       5.428   7.217  20.306  1.00  0.00    -0.326 N 
ATOM     14  H1  UNL     1       5.754   6.375  19.833  1.00  0.00     0.169 HD
BRANCH  13  15
HETATM   15  C2  UNL     1       5.494   7.214  21.752  1.00  0.00     0.043 A 
HETATM   16  C3  UNL     1       6.633   7.696  22.393  1.00  0.00     0.080 A 
HETATM   17  S1  UNL     1       6.268   7.529  24.038  1.00  0.00    -0.087 SA
HETATM   18  C4  UNL     1       4.714   6.867  23.919  1.00  0.00     0.076 A 
HETATM   19 CL1  UNL     1       3.583   6.377  25.203  1.00  0.00    -0.076 Cl
HETATM   20  C5  UNL     1       4.505   6.787  22.565  1.00  0.00     0.061 A 
ENDBRANCH  13  15
ENDBRANCH   1  11
TORSDOF 2
ENDMDL
MODEL 2
REMARK VINA RESULT: -6.358739178      0.103      1.697
REMARK  2 active torsions:
REMARK  status: ('A' for Active; 'I' for Inactive)
REMARK       I    between atoms: C1_2  and  N1_3 
REMARK    1  A    between atoms: C1_2  and  C6_11 
REMARK    2  A    between atoms: N1_3  and  C2_5 
ROOT
HETATM    1  C6  UNL     1       4.995   8.098  17.999  1.00  0.00     0.042 C 
HETATM    2  C7  UNL     1       6.198   8.792  17.430  1.00  0.00     0.024 C 
HETATM    3  C8  UNL     1       6.142   8.695  15.924  1.00  0.00    -0.013 C 
HETATM    4  C9  UNL     1       6.182   7.245  15.483  1.00  0.00     0.009 C 
HETATM    5  C10 UNL     1       4.999   6.538  16.111  1.00  0.00    -0.013 C 
HETATM    6  C11 UNL     1       3.752   7.156  15.534  1.00  0.00     0.009 C 
HETATM    7  C12 UNL     1       3.686   8.612  15.960  1.00  0.00    -0.013 C 
HETATM    8  C13 UNL     1       4.885   9.395  15.477  1.00  0.00     0.009 C 
HETATM    9  C14 UNL     1       3.695   8.634  17.464  1.00  0.00     0.024 C 
HETATM   10  C15 UNL     1       5.064   6.630  17.609  1.00  0.00     0.024 C 
ENDROOT
BRANCH   1  11
HETATM   11  C1  UNL     1       4.973   8.232  19.499  1.00  0.00     0.231 C 
HETATM   12  O1  UNL     1       4.496   9.275  19.998  1.00  0.00    -0.272 OA
HETATM   13  N1  UNL     1       5.475   7.217  20.324  1.00  0.00    -0.326 N 
ATOM     14  H1  UNL     1       5.844   6.390  19.855  1.00  0.00     0.169 HD
BRANCH  13  15
HETATM   15  C2  UNL     1       5.524   7.217  21.770  1.00  0.00     0.043 A 
HETATM   16  C3  UNL     1       6.649   7.717  22.423  1.00  0.00     0.080 A 
HETATM   17  S1  UNL     1       6.267   7.548  24.064  1.00  0.00    -0.087 SA
HETATM   18  C4  UNL     1       4.725   6.863  23.928  1.00  0.00     0.076 A 
HETATM   19 CL1  UNL     1       3.586   6.359  25.200  1.00  0.00    -0.076 Cl
HETATM   20  C5  UNL     1       4.532   6.777  22.572  1.00  0.00     0.061 A 
ENDBRANCH  13  15
ENDBRANCH   1  11
TORSDOF 2
ENDMDL
MODEL 3
REMARK VINA RESULT: -6.330588910      1.182      1.411
REMARK  2 active torsions:
REMARK  status: ('A' for Active; 'I' for Inactive)
REMARK       I    between atoms: C1_2  and  N1_3 
REMARK    1  A    between atoms: C1_2  and  C6_11 
REMARK    2  A    between atoms: N1_3  and  C2_5 
ROOT
HETATM    1  C6  UNL     1       5.153   8.143  17.821  1.00  0.00     0.042 C 
HETATM    2  C7  UNL     1       3.863   8.758  17.364  1.00  0.00     0.024 C 
HETATM    3  C8  UNL     1       3.715   8.517  15.880  1.00  0.00    -0.013 C 
HETATM    4  C9  UNL     1       4.848   9.176  15.118  1.00  0.00     0.009 C 
HETATM    5  C10 UNL     1       6.149   8.594  15.630  1.00  0.00    -0.013 C 
HETATM    6  C11 UNL     1       6.153   7.130  15.276  1.00  0.00     0.009 C 
HETATM    7  C12 UNL     1       5.025   6.443  16.026  1.00  0.00    -0.013 C 
HETATM    8  C13 UNL     1       3.676   7.026  15.672  1.00  0.00     0.009 C 
HETATM    9  C14 UNL     1       5.260   6.679  17.492  1.00  0.00     0.024 C 
HETATM   10  C15 UNL     1       6.296   8.845  17.104  1.00  0.00     0.024 C 
ENDROOT
BRANCH   1  11
HETATM   11  C1  UNL     1       5.308   8.299  19.312  1.00  0.00     0.231 C 
HETATM   12  O1  UNL     1       5.531   9.440  19.772  1.00  0.00    -0.272 OA
HETATM   13  N1  UNL     1       5.205   7.196  20.169  1.00  0.00    -0.326 N 
ATOM     14  H1  UNL     1       5.016   6.294  19.731  1.00  0.00     0.169 HD
BRANCH  13  15
HETATM   15  C2  UNL     1       5.339   7.200  21.610  1.00  0.00     0.043 A 
HETATM   16  C3  UNL     1       4.215   7.005  22.410  1.00  0.00     0.080 A 
HETATM   17  S1  UNL     1       4.830   7.059  23.986  1.00  0.00    -0.087 SA
HETATM   18  C4  UNL     1       6.468   7.320  23.643  1.00  0.00     0.076 A 
HETATM   19 CL1  UNL     1       7.848   7.504  24.752  1.00  0.00    -0.076 Cl
HETATM   20  C5  UNL     1       6.504   7.362  22.272  1.00  0.00     0.061 A 
ENDBRANCH  13  15
ENDBRANCH   1  11
TORSDOF 2
ENDMDL
MODEL 4
REMARK VINA RESULT: -6.324301842      0.101      1.676
REMARK  2 active torsions:
REMARK  status: ('A' for Active; 'I' for Inactive)
REMARK       I    between atoms: C1_2  and  N1_3 
REMARK    1  A    between atoms: C1_2  and  C6_11 
REMARK    2  A    between atoms: N1_3  and  C2_5 
ROOT
HETATM    1  C6  UNL     1       4.918   8.067  18.003  1.00  0.00     0.042 C 
HETATM    2  C7  UNL     1       4.890   6.614  17.625  1.00  0.00     0.024 C 
HETATM    3  C8  UNL     1       4.946   6.508  16.120  1.00  0.00    -0.013 C 
HETATM    4  C9  UNL     1       3.741   7.182  15.493  1.00  0.00     0.009 C 
HETATM    5  C10 UNL     1       3.744   8.632  15.930  1.00  0.00    -0.013 C 
HETATM    6  C11 UNL     1       4.977   9.272  15.348  1.00  0.00     0.009 C 
HETATM    7  C12 UNL     1       6.203   8.614  15.958  1.00  0.00    -0.013 C 
HETATM    8  C13 UNL     1       6.245   7.130  15.677  1.00  0.00     0.009 C 
HETATM    9  C14 UNL     1       6.109   8.799  17.448  1.00  0.00     0.024 C 
HETATM   10  C15 UNL     1       3.678   8.733  17.428  1.00  0.00     0.024 C 
ENDROOT
BRANCH   1  11
HETATM   11  C1  UNL     1       4.935   8.217  19.503  1.00  0.00     0.231 C 
HETATM   12  O1  UNL     1       4.513   9.284  20.000  1.00  0.00    -0.272 OA
HETATM   13  N1  UNL     1       5.411   7.190  20.327  1.00  0.00    -0.326 N 
ATOM     14  H1  UNL     1       5.736   6.344  19.860  1.00  0.00     0.169 HD
BRANCH  13  15
HETATM   15  C2  UNL     1       5.492   7.203  21.772  1.00  0.00     0.043 A 
HETATM   16  C3  UNL     1       6.635   7.699  22.396  1.00  0.00     0.080 A 
HETATM   17  S1  UNL     1       6.288   7.548  24.046  1.00  0.00    -0.087 SA
HETATM   18  C4  UNL     1       4.737   6.876  23.950  1.00  0.00     0.076 A 
HETATM   19 CL1  UNL     1       3.622   6.393  25.252  1.00  0.00    -0.076 Cl
HETATM   20  C5  UNL     1       4.515   6.779  22.599  1.00  0.00     0.061 A 
ENDBRANCH  13  15
ENDBRANCH   1  11
TORSDOF 2
ENDMDL
MODEL 5
REMARK VINA RESULT: -6.278765513      1.724      2.572
REMARK  2 active torsions:
REMARK  status: ('A' for Active; 'I' for Inactive)
REMARK       I    between atoms: C1_2  and  N1_3 
REMARK    1  A    between atoms: C1_2  and  C6_11 
REMARK    2  A    between atoms: N1_3  and  C2_5 
ROOT
HETATM    1  C6  UNL     1       4.603  10.075  18.939  1.00  0.00     0.042 C 
HETATM    2  C7  UNL     1       3.934   8.997  18.137  1.00  0.00     0.024 C 
HETATM    3  C8  UNL     1       3.930   9.411  16.684  1.00  0.00    -0.013 C 
HETATM    4  C9  UNL     1       3.144  10.694  16.498  1.00  0.00     0.009 C 
HETATM    5  C10 UNL     1       3.789  11.760  17.359  1.00  0.00    -0.013 C 
HETATM    6  C11 UNL     1       5.175  11.993  16.818  1.00  0.00     0.009 C 
HETATM    7  C12 UNL     1       5.987  10.721  16.990  1.00  0.00    -0.013 C 
HETATM    8  C13 UNL     1       5.368   9.554  16.257  1.00  0.00     0.009 C 
HETATM    9  C14 UNL     1       5.992  10.395  18.459  1.00  0.00     0.024 C 
HETATM   10  C15 UNL     1       3.782  11.348  18.804  1.00  0.00     0.024 C 
ENDROOT
BRANCH   1  11
HETATM   11  C1  UNL     1       4.691   9.671  20.388  1.00  0.00     0.231 C 
HETATM   12  O1  UNL     1       4.441  10.528  21.263  1.00  0.00    -0.272 OA
HETATM   13  N1  UNL     1       5.046   8.366  20.754  1.00  0.00    -0.326 N 
ATOM     14  H1  UNL     1       5.231   7.713  19.993  1.00  0.00     0.169 HD
BRANCH  13  15
HETATM   15  C2  UNL     1       5.176   7.846  22.098  1.00  0.00     0.043 A 
HETATM   16  C3  UNL     1       6.398   7.942  22.760  1.00  0.00     0.080 A 
HETATM   17  S1  UNL     1       6.090   7.248  24.274  1.00  0.00    -0.087 SA
HETATM   18  C4  UNL     1       4.457   6.847  24.075  1.00  0.00     0.076 A 
HETATM   19 CL1  UNL     1       3.330   6.064  25.209  1.00  0.00    -0.076 Cl
HETATM   20  C5  UNL     1       4.177   7.272  22.800  1.00  0.00     0.061 A 
ENDBRANCH  13  15
ENDBRANCH   1  11
TORSDOF 2
ENDMDL
