MODEL 1
REMARK VINA RESULT: -8.853491422      0.000      0.000
REMARK  4 active torsions:
REMARK  status: ('A' for Active; 'I' for Inactive)
REMARK    1  A    between atoms: C4_4  and  O1_5 
REMARK    2  A    between atoms: C5_7  and  C7_9 
REMARK    3  A    between atoms: C7_9  and  C8_10 
REMARK    4  A    between atoms: C8_10  and  C9_11 
ROOT
HETATM    1  C1  UNL     1       8.781   9.922  21.170  1.00  0.00     0.015 C 
HETATM    2  C2  UNL     1       7.796   9.289  20.549  1.00  0.00    -0.082 C 
HETATM    3  C3  UNL     1       7.365   9.820  19.224  1.00  0.00     0.066 C 
HETATM    4  C4  UNL     1       6.216   9.032  18.631  1.00  0.00     0.130 C 
HETATM    5  C5  UNL     1       5.130   8.934  19.677  1.00  0.00    -0.013 C 
HETATM    6  C6  UNL     1       4.943  10.482  19.938  1.00  0.00     0.018 C 
HETATM    7  C17 UNL     1       5.586   8.432  20.967  1.00  0.00     0.008 C 
HETATM    8  C18 UNL     1       5.066   7.164  21.546  1.00  0.00    -0.013 C 
HETATM    9  C19 UNL     1       3.721   7.371  22.237  1.00  0.00     0.010 C 
HETATM   10  C20 UNL     1       6.068   6.898  22.687  1.00  0.00     0.005 C 
HETATM   11  C21 UNL     1       7.170   7.921  22.552  1.00  0.00     0.010 C 
HETATM   12  C22 UNL     1       7.096   8.121  21.043  1.00  0.00     0.019 C 
ENDROOT
BRANCH   5  13
HETATM   13  C7  UNL     1       3.801   8.560  19.144  1.00  0.00     0.015 C 
BRANCH  13  14
HETATM   14  C8  UNL     1       3.650   8.218  17.715  1.00  0.00     0.042 C 
BRANCH  14  15
HETATM   15  C9  UNL     1       2.829   6.943  17.499  1.00  0.00     0.093 C 
HETATM   16  C10 UNL     1       3.046   6.379  16.126  1.00  0.00     0.049 C 
HETATM   17  C11 UNL     1       1.415   7.080  17.926  1.00  0.00     0.043 C 
HETATM   18  C12 UNL     1       0.515   6.005  17.396  1.00  0.00     0.043 C 
HETATM   19  C13 UNL     1       0.663   4.672  17.979  1.00  0.00     0.207 C 
HETATM   20  F1  UNL     1      -0.394   4.387  18.855  1.00  0.00    -0.246 F 
HETATM   21  C14 UNL     1       1.926   4.367  18.694  1.00  0.00     0.119 C 
HETATM   22  C15 UNL     1       1.911   4.759  20.158  1.00  0.00     0.052 C 
HETATM   23  C16 UNL     1       2.082   2.837  18.682  1.00  0.00     0.052 C 
HETATM   24  O2  UNL     1       3.059   4.850  18.043  1.00  0.00    -0.227 OA
HETATM   25  O3  UNL     1       3.410   6.031  18.426  1.00  0.00    -0.229 OA
ENDBRANCH  14  15
ENDBRANCH  13  14
ENDBRANCH   5  13
BRANCH   4  26
HETATM   26  O1  UNL     1       6.670   7.908  18.081  1.00  0.00    -0.394 OA
ATOM     27  H1  UNL     1       5.954   7.432  17.676  1.00  0.00     0.210 HD
ENDBRANCH   4  26
TORSDOF 4
ENDMDL
MODEL 2
REMARK VINA RESULT: -8.772046827      1.775      2.815
REMARK  4 active torsions:
REMARK  status: ('A' for Active; 'I' for Inactive)
REMARK    1  A    between atoms: C4_4  and  O1_5 
REMARK    2  A    between atoms: C5_7  and  C7_9 
REMARK    3  A    between atoms: C7_9  and  C8_10 
REMARK    4  A    between atoms: C8_10  and  C9_11 
ROOT
HETATM    1  C1  UNL     1       8.713   9.921  20.953  1.00  0.00     0.015 C 
HETATM    2  C2  UNL     1       7.791   9.344  20.195  1.00  0.00    -0.082 C 
HETATM    3  C3  UNL     1       8.155   8.062  19.525  1.00  0.00     0.066 C 
HETATM    4  C4  UNL     1       7.032   7.520  18.667  1.00  0.00     0.130 C 
HETATM    5  C5  UNL     1       6.572   8.626  17.747  1.00  0.00    -0.013 C 
HETATM    6  C6  UNL     1       7.967   8.941  17.074  1.00  0.00     0.018 C 
HETATM    7  C17 UNL     1       6.244   9.872  18.430  1.00  0.00     0.008 C 
HETATM    8  C18 UNL     1       4.871  10.447  18.401  1.00  0.00    -0.013 C 
HETATM    9  C19 UNL     1       4.614  11.224  17.113  1.00  0.00     0.010 C 
HETATM   10  C20 UNL     1       4.949  11.517  19.507  1.00  0.00     0.005 C 
HETATM   11  C21 UNL     1       6.283  11.343  20.195  1.00  0.00     0.010 C 
HETATM   12  C22 UNL     1       6.454   9.847  19.958  1.00  0.00     0.019 C 
ENDROOT
BRANCH   5  13
HETATM   13  C7  UNL     1       5.778   8.166  16.587  1.00  0.00     0.015 C 
BRANCH  13  14
HETATM   14  C8  UNL     1       5.522   6.723  16.395  1.00  0.00     0.042 C 
BRANCH  14  15
HETATM   15  C9  UNL     1       4.073   6.337  16.709  1.00  0.00     0.093 C 
HETATM   16  C10 UNL     1       3.382   5.779  15.500  1.00  0.00     0.049 C 
HETATM   17  C11 UNL     1       3.335   7.390  17.448  1.00  0.00     0.043 C 
HETATM   18  C12 UNL     1       1.848   7.206  17.442  1.00  0.00     0.043 C 
HETATM   19  C13 UNL     1       1.313   6.120  18.262  1.00  0.00     0.207 C 
HETATM   20  F1  UNL     1       0.712   6.620  19.427  1.00  0.00    -0.246 F 
HETATM   21  C14 UNL     1       2.243   5.041  18.671  1.00  0.00     0.119 C 
HETATM   22  C15 UNL     1       2.997   5.335  19.953  1.00  0.00     0.052 C 
HETATM   23  C16 UNL     1       1.379   3.806  18.980  1.00  0.00     0.052 C 
HETATM   24  O2  UNL     1       3.100   4.635  17.651  1.00  0.00    -0.227 OA
HETATM   25  O3  UNL     1       4.225   5.268  17.639  1.00  0.00    -0.229 OA
ENDBRANCH  14  15
ENDBRANCH  13  14
ENDBRANCH   5  13
BRANCH   4  26
HETATM   26  O1  UNL     1       6.127   6.912  19.431  1.00  0.00    -0.394 OA
ATOM     27  H1  UNL     1       5.878   6.082  19.043  1.00  0.00     0.210 HD
ENDBRANCH   4  26
TORSDOF 4
ENDMDL
MODEL 3
REMARK VINA RESULT: -8.399952430      2.562      4.735
REMARK  4 active torsions:
REMARK  status: ('A' for Active; 'I' for Inactive)
REMARK    1  A    between atoms: C4_4  and  O1_5 
REMARK    2  A    between atoms: C5_7  and  C7_9 
REMARK    3  A    between atoms: C7_9  and  C8_10 
REMARK    4  A    between atoms: C8_10  and  C9_11 
ROOT
HETATM    1  C1  UNL     1       3.924   6.440  23.717  1.00  0.00     0.015 C 
HETATM    2  C2  UNL     1       4.515   6.846  22.603  1.00  0.00    -0.082 C 
HETATM    3  C3  UNL     1       5.675   7.773  22.738  1.00  0.00     0.066 C 
HETATM    4  C4  UNL     1       6.244   8.187  21.397  1.00  0.00     0.130 C 
HETATM    5  C5  UNL     1       5.104   8.692  20.543  1.00  0.00    -0.013 C 
HETATM    6  C6  UNL     1       4.576   9.809  21.529  1.00  0.00     0.018 C 
HETATM    7  C17 UNL     1       3.976   7.773  20.448  1.00  0.00     0.008 C 
HETATM    8  C18 UNL     1       3.551   7.183  19.150  1.00  0.00    -0.013 C 
HETATM    9  C19 UNL     1       2.678   8.147  18.353  1.00  0.00     0.010 C 
HETATM   10  C20 UNL     1       2.597   6.061  19.606  1.00  0.00     0.005 C 
HETATM   11  C21 UNL     1       2.698   5.982  21.111  1.00  0.00     0.010 C 
HETATM   12  C22 UNL     1       4.135   6.469  21.257  1.00  0.00     0.019 C 
ENDROOT
BRANCH   5  13
HETATM   13  C7  UNL     1       5.525   9.499  19.378  1.00  0.00     0.015 C 
BRANCH  13  14
HETATM   14  C8  UNL     1       6.914   9.408  18.881  1.00  0.00     0.042 C 
BRANCH  14  15
HETATM   15  C9  UNL     1       6.997   8.807  17.474  1.00  0.00     0.093 C 
HETATM   16  C10 UNL     1       8.217   9.288  16.746  1.00  0.00     0.049 C 
HETATM   17  C11 UNL     1       5.719   8.895  16.726  1.00  0.00     0.043 C 
HETATM   18  C12 UNL     1       5.863   8.664  15.252  1.00  0.00     0.043 C 
HETATM   19  C13 UNL     1       6.133   7.293  14.821  1.00  0.00     0.207 C 
HETATM   20  F1  UNL     1       4.987   6.708  14.262  1.00  0.00    -0.246 F 
HETATM   21  C14 UNL     1       6.669   6.346  15.828  1.00  0.00     0.119 C 
HETATM   22  C15 UNL     1       5.597   5.640  16.637  1.00  0.00     0.052 C 
HETATM   23  C16 UNL     1       7.389   5.233  15.048  1.00  0.00     0.052 C 
HETATM   24  O2  UNL     1       7.648   6.905  16.646  1.00  0.00    -0.227 OA
HETATM   25  O3  UNL     1       7.180   7.418  17.734  1.00  0.00    -0.229 OA
ENDBRANCH  14  15
ENDBRANCH  13  14
ENDBRANCH   5  13
BRANCH   4  26
HETATM   26  O1  UNL     1       7.019   7.219  20.912  1.00  0.00    -0.394 OA
ATOM     27  H1  UNL     1       7.596   7.569  20.244  1.00  0.00     0.210 HD
ENDBRANCH   4  26
TORSDOF 4
ENDMDL
MODEL 4
REMARK VINA RESULT: -8.348948161      3.570      5.587
REMARK  4 active torsions:
REMARK  status: ('A' for Active; 'I' for Inactive)
REMARK    1  A    between atoms: C4_4  and  O1_5 
REMARK    2  A    between atoms: C5_7  and  C7_9 
REMARK    3  A    between atoms: C7_9  and  C8_10 
REMARK    4  A    between atoms: C8_10  and  C9_11 
ROOT
HETATM    1  C1  UNL     1       6.922   7.412  23.487  1.00  0.00     0.015 C 
HETATM    2  C2  UNL     1       6.264   7.884  22.437  1.00  0.00    -0.082 C 
HETATM    3  C3  UNL     1       4.799   8.115  22.591  1.00  0.00     0.066 C 
HETATM    4  C4  UNL     1       4.158   8.626  21.318  1.00  0.00     0.130 C 
HETATM    5  C5  UNL     1       4.555   7.700  20.192  1.00  0.00    -0.013 C 
HETATM    6  C6  UNL     1       4.030   6.351  20.827  1.00  0.00     0.018 C 
HETATM    7  C17 UNL     1       5.992   7.478  20.081  1.00  0.00     0.008 C 
HETATM    8  C18 UNL     1       6.759   7.881  18.871  1.00  0.00    -0.013 C 
HETATM    9  C19 UNL     1       6.634   6.847  17.756  1.00  0.00     0.010 C 
HETATM   10  C20 UNL     1       8.215   7.768  19.363  1.00  0.00     0.005 C 
HETATM   11  C21 UNL     1       8.158   7.492  20.846  1.00  0.00     0.010 C 
HETATM   12  C22 UNL     1       6.842   8.199  21.147  1.00  0.00     0.019 C 
ENDROOT
BRANCH   5  13
HETATM   13  C7  UNL     1       3.709   7.810  18.984  1.00  0.00     0.015 C 
BRANCH  13  14
HETATM   14  C8  UNL     1       3.105   9.109  18.622  1.00  0.00     0.042 C 
BRANCH  14  15
HETATM   15  C9  UNL     1       3.852   9.807  17.482  1.00  0.00     0.093 C 
HETATM   16  C10 UNL     1       4.293   8.827  16.436  1.00  0.00     0.049 C 
HETATM   17  C11 UNL     1       4.887  10.757  17.957  1.00  0.00     0.043 C 
HETATM   18  C12 UNL     1       5.867  11.166  16.899  1.00  0.00     0.043 C 
HETATM   19  C13 UNL     1       5.378  12.070  15.860  1.00  0.00     0.207 C 
HETATM   20  F1  UNL     1       5.861  13.371  16.059  1.00  0.00    -0.246 F 
HETATM   21  C14 UNL     1       3.911  12.166  15.662  1.00  0.00     0.119 C 
HETATM   22  C15 UNL     1       3.239  13.191  16.554  1.00  0.00     0.052 C 
HETATM   23  C16 UNL     1       3.692  12.669  14.225  1.00  0.00     0.052 C 
HETATM   24  O2  UNL     1       3.265  10.933  15.716  1.00  0.00    -0.227 OA
HETATM   25  O3  UNL     1       2.842  10.624  16.895  1.00  0.00    -0.229 OA
ENDBRANCH  14  15
ENDBRANCH  13  14
ENDBRANCH   5  13
BRANCH   4  26
HETATM   26  O1  UNL     1       4.392   9.929  21.181  1.00  0.00    -0.394 OA
ATOM     27  H1  UNL     1       4.098  10.224  20.327  1.00  0.00     0.210 HD
ENDBRANCH   4  26
TORSDOF 4
ENDMDL
MODEL 5
REMARK VINA RESULT: -8.184626869      3.176      5.968
REMARK  4 active torsions:
REMARK  status: ('A' for Active; 'I' for Inactive)
REMARK    1  A    between atoms: C4_4  and  O1_5 
REMARK    2  A    between atoms: C5_7  and  C7_9 
REMARK    3  A    between atoms: C7_9  and  C8_10 
REMARK    4  A    between atoms: C8_10  and  C9_11 
ROOT
HETATM    1  C1  UNL     1       2.656   6.435  23.890  1.00  0.00     0.015 C 
HETATM    2  C2  UNL     1       3.670   6.519  23.041  1.00  0.00    -0.082 C 
HETATM    3  C3  UNL     1       4.845   7.340  23.452  1.00  0.00     0.066 C 
HETATM    4  C4  UNL     1       5.921   7.382  22.387  1.00  0.00     0.130 C 
HETATM    5  C5  UNL     1       5.272   7.784  21.083  1.00  0.00    -0.013 C 
HETATM    6  C6  UNL     1       4.626   9.140  21.574  1.00  0.00     0.018 C 
HETATM    7  C17 UNL     1       4.113   6.976  20.720  1.00  0.00     0.008 C 
HETATM    8  C18 UNL     1       4.090   6.148  19.484  1.00  0.00    -0.013 C 
HETATM    9  C19 UNL     1       3.744   6.982  18.254  1.00  0.00     0.010 C 
HETATM   10  C20 UNL     1       2.857   5.253  19.723  1.00  0.00     0.005 C 
HETATM   11  C21 UNL     1       2.393   5.511  21.136  1.00  0.00     0.010 C 
HETATM   12  C22 UNL     1       3.742   5.882  21.742  1.00  0.00     0.019 C 
ENDROOT
BRANCH   5  13
HETATM   13  C7  UNL     1       6.218   8.261  20.051  1.00  0.00     0.015 C 
BRANCH  13  14
HETATM   14  C8  UNL     1       6.524   9.702  19.941  1.00  0.00     0.042 C 
BRANCH  14  15
HETATM   15  C9  UNL     1       6.390  10.224  18.507  1.00  0.00     0.093 C 
HETATM   16  C10 UNL     1       7.161   9.373  17.542  1.00  0.00     0.049 C 
HETATM   17  C11 UNL     1       6.607  11.687  18.396  1.00  0.00     0.043 C 
HETATM   18  C12 UNL     1       6.849  12.159  16.994  1.00  0.00     0.043 C 
HETATM   19  C13 UNL     1       5.700  12.162  16.090  1.00  0.00     0.207 C 
HETATM   20  F1  UNL     1       5.230  13.467  15.881  1.00  0.00    -0.246 F 
HETATM   21  C14 UNL     1       4.533  11.323  16.453  1.00  0.00     0.119 C 
HETATM   22  C15 UNL     1       3.536  12.018  17.359  1.00  0.00     0.052 C 
HETATM   23  C16 UNL     1       3.770  11.040  15.148  1.00  0.00     0.052 C 
HETATM   24  O2  UNL     1       4.887  10.068  16.943  1.00  0.00    -0.227 OA
HETATM   25  O3  UNL     1       5.007  10.031  18.228  1.00  0.00    -0.229 OA
ENDBRANCH  14  15
ENDBRANCH  13  14
ENDBRANCH   5  13
BRANCH   4  26
HETATM   26  O1  UNL     1       6.639   6.261  22.420  1.00  0.00    -0.394 OA
ATOM     27  H1  UNL     1       7.075   6.179  23.260  1.00  0.00     0.210 HD
ENDBRANCH   4  26
TORSDOF 4
ENDMDL
