MODEL 1
REMARK VINA RESULT: -7.832066568      0.000      0.000
REMARK  4 active torsions:
REMARK  status: ('A' for Active; 'I' for Inactive)
REMARK    1  A    between atoms: N1_2  and  C1_4 
REMARK    2  A    between atoms: C3_6  and  N2_7 
REMARK    3  A    between atoms: N2_7  and  C4_9 
REMARK    4  A    between atoms: C10_18  and  N4_19 
ROOT
HETATM    1  C1  UNL     1       8.739  15.538  56.045  1.00  0.00     0.107 A 
HETATM    2  C2  UNL     1       8.420  16.743  56.629  1.00  0.00     0.065 A 
HETATM    3  C3  UNL     1       9.419  17.660  56.979  1.00  0.00     0.033 A 
HETATM    4  C9  UNL     1      10.730  17.347  56.733  1.00  0.00     0.065 A 
HETATM    5  C10 UNL     1      11.084  16.126  56.139  1.00  0.00     0.107 A 
HETATM    6  C11 UNL     1      10.067  15.251  55.810  1.00  0.00     0.072 A 
ENDROOT
BRANCH   3   7
HETATM    7  N2  UNL     1       9.095  18.890  57.587  1.00  0.00    -0.385 N 
ATOM      8  H2  UNL     1       8.650  19.619  57.031  1.00  0.00     0.160 HD
BRANCH   7   9
HETATM    9  C4  UNL     1       9.374  19.134  58.956  1.00  0.00     0.085 C 
HETATM   10  C5  UNL     1       8.263  19.979  59.542  1.00  0.00     0.052 C 
HETATM   11  C6  UNL     1       7.419  19.092  60.413  1.00  0.00     0.234 C 
HETATM   12  N3  UNL     1       8.115  18.549  61.545  1.00  0.00    -0.075 N 
HETATM   13  C7  UNL     1       9.453  18.182  61.194  1.00  0.00     0.234 C 
ATOM     14  H32 UNL     1       8.096  19.188  62.341  1.00  0.00     0.277 HD
ATOM     15  H31 UNL     1       7.607  17.769  61.961  1.00  0.00     0.277 HD
HETATM   16  C8  UNL     1       9.481  17.812  59.726  1.00  0.00     0.052 C 
ENDBRANCH   7   9
ENDBRANCH   3   7
BRANCH   1  17
HETATM   17  N1  UNL     1       7.714  14.611  55.693  1.00  0.00    -0.116 N 
HETATM   18  O1  UNL     1       6.626  14.557  56.292  1.00  0.00    -0.532 OA
HETATM   19  O2  UNL     1       7.917  13.738  54.659  1.00  0.00    -0.532 OA
ENDBRANCH   1  17
BRANCH   5  20
HETATM   20  N4  UNL     1      12.451  15.832  55.897  1.00  0.00    -0.116 N 
HETATM   21  O3  UNL     1      12.817  15.472  54.787  1.00  0.00    -0.532 OA
HETATM   22  O4  UNL     1      13.366  15.949  56.907  1.00  0.00    -0.532 OA
ENDBRANCH   5  20
TORSDOF 4
ENDMDL
MODEL 2
REMARK VINA RESULT: -7.829891592      3.056      5.456
REMARK  4 active torsions:
REMARK  status: ('A' for Active; 'I' for Inactive)
REMARK    1  A    between atoms: N1_2  and  C1_4 
REMARK    2  A    between atoms: C3_6  and  N2_7 
REMARK    3  A    between atoms: N2_7  and  C4_9 
REMARK    4  A    between atoms: C10_18  and  N4_19 
ROOT
HETATM    1  C1  UNL     1       8.577  18.481  58.919  1.00  0.00     0.107 A 
HETATM    2  C2  UNL     1       9.910  18.458  58.573  1.00  0.00     0.065 A 
HETATM    3  C3  UNL     1      10.376  17.609  57.561  1.00  0.00     0.033 A 
HETATM    4  C9  UNL     1       9.487  16.793  56.910  1.00  0.00     0.065 A 
HETATM    5  C10 UNL     1       8.124  16.797  57.242  1.00  0.00     0.107 A 
HETATM    6  C11 UNL     1       7.707  17.649  58.247  1.00  0.00     0.072 A 
ENDROOT
BRANCH   3   7
HETATM    7  N2  UNL     1      11.741  17.576  57.213  1.00  0.00    -0.385 N 
ATOM      8  H2  UNL     1      12.327  16.821  57.568  1.00  0.00     0.160 HD
BRANCH   7   9
HETATM    9  C4  UNL     1      12.317  18.569  56.380  1.00  0.00     0.085 C 
HETATM   10  C5  UNL     1      12.010  18.237  54.935  1.00  0.00     0.052 C 
HETATM   11  C6  UNL     1      10.954  19.192  54.456  1.00  0.00     0.234 C 
HETATM   12  N3  UNL     1      11.368  20.567  54.446  1.00  0.00    -0.075 N 
HETATM   13  C7  UNL     1      12.169  20.867  55.594  1.00  0.00     0.234 C 
ATOM     14  H32 UNL     1      11.847  20.810  53.578  1.00  0.00     0.277 HD
ATOM     15  H31 UNL     1      10.572  21.200  54.366  1.00  0.00     0.277 HD
HETATM   16  C8  UNL     1      11.751  19.952  56.725  1.00  0.00     0.052 C 
ENDBRANCH   7   9
ENDBRANCH   3   7
BRANCH   1  17
HETATM   17  N1  UNL     1       8.114  19.349  59.951  1.00  0.00    -0.116 N 
HETATM   18  O1  UNL     1       7.800  20.533  59.740  1.00  0.00    -0.532 OA
HETATM   19  O2  UNL     1       8.005  18.879  61.232  1.00  0.00    -0.532 OA
ENDBRANCH   1  17
BRANCH   5  20
HETATM   20  N4  UNL     1       7.229  15.940  56.550  1.00  0.00    -0.116 N 
HETATM   21  O3  UNL     1       6.656  16.332  55.543  1.00  0.00    -0.532 OA
HETATM   22  O4  UNL     1       7.004  14.671  57.007  1.00  0.00    -0.532 OA
ENDBRANCH   5  20
TORSDOF 4
ENDMDL
MODEL 3
REMARK VINA RESULT: -7.818596683      0.069      3.508
REMARK  4 active torsions:
REMARK  status: ('A' for Active; 'I' for Inactive)
REMARK    1  A    between atoms: N1_2  and  C1_4 
REMARK    2  A    between atoms: C3_6  and  N2_7 
REMARK    3  A    between atoms: N2_7  and  C4_9 
REMARK    4  A    between atoms: C10_18  and  N4_19 
ROOT
HETATM    1  C1  UNL     1      11.126  16.122  56.171  1.00  0.00     0.107 A 
HETATM    2  C2  UNL     1      10.792  17.323  56.756  1.00  0.00     0.065 A 
HETATM    3  C3  UNL     1       9.455  17.647  57.020  1.00  0.00     0.033 A 
HETATM    4  C9  UNL     1       8.471  16.753  56.688  1.00  0.00     0.065 A 
HETATM    5  C10 UNL     1       8.784  15.522  56.091  1.00  0.00     0.107 A 
HETATM    6  C11 UNL     1      10.115  15.242  55.848  1.00  0.00     0.072 A 
ENDROOT
BRANCH   3   7
HETATM    7  N2  UNL     1       9.110  18.881  57.608  1.00  0.00    -0.385 N 
ATOM      8  H2  UNL     1       8.666  19.599  57.037  1.00  0.00     0.160 HD
BRANCH   7   9
HETATM    9  C4  UNL     1       9.368  19.145  58.978  1.00  0.00     0.085 C 
HETATM   10  C5  UNL     1       8.239  19.984  59.538  1.00  0.00     0.052 C 
HETATM   11  C6  UNL     1       7.393  19.099  60.407  1.00  0.00     0.234 C 
HETATM   12  N3  UNL     1       8.078  18.577  61.556  1.00  0.00    -0.075 N 
HETATM   13  C7  UNL     1       9.425  18.220  61.228  1.00  0.00     0.234 C 
ATOM     14  H32 UNL     1       8.041  19.225  62.344  1.00  0.00     0.277 HD
ATOM     15  H31 UNL     1       7.572  17.796  61.974  1.00  0.00     0.277 HD
HETATM   16  C8  UNL     1       9.478  17.833  59.765  1.00  0.00     0.052 C 
ENDBRANCH   7   9
ENDBRANCH   3   7
BRANCH   1  17
HETATM   17  N1  UNL     1      12.490  15.802  55.907  1.00  0.00    -0.116 N 
HETATM   18  O1  UNL     1      12.885  15.420  54.792  1.00  0.00    -0.532 OA
HETATM   19  O2  UNL     1      13.417  15.913  56.908  1.00  0.00    -0.532 OA
ENDBRANCH   1  17
BRANCH   5  20
HETATM   20  N4  UNL     1       7.742  14.617  55.759  1.00  0.00    -0.116 N 
HETATM   21  O3  UNL     1       6.726  14.572  56.438  1.00  0.00    -0.532 OA
HETATM   22  O4  UNL     1       7.871  13.790  54.678  1.00  0.00    -0.532 OA
ENDBRANCH   5  20
TORSDOF 4
ENDMDL
MODEL 4
REMARK VINA RESULT: -7.807794799      3.034      5.013
REMARK  4 active torsions:
REMARK  status: ('A' for Active; 'I' for Inactive)
REMARK    1  A    between atoms: N1_2  and  C1_4 
REMARK    2  A    between atoms: C3_6  and  N2_7 
REMARK    3  A    between atoms: N2_7  and  C4_9 
REMARK    4  A    between atoms: C10_18  and  N4_19 
ROOT
HETATM    1  C1  UNL     1       8.145  16.751  57.210  1.00  0.00     0.107 A 
HETATM    2  C2  UNL     1       9.484  16.738  56.886  1.00  0.00     0.065 A 
HETATM    3  C3  UNL     1      10.396  17.558  57.562  1.00  0.00     0.033 A 
HETATM    4  C9  UNL     1       9.943  18.384  58.558  1.00  0.00     0.065 A 
HETATM    5  C10 UNL     1       8.584  18.417  58.909  1.00  0.00     0.107 A 
HETATM    6  C11 UNL     1       7.719  17.592  58.217  1.00  0.00     0.072 A 
ENDROOT
BRANCH   3   7
HETATM    7  N2  UNL     1      11.764  17.554  57.224  1.00  0.00    -0.385 N 
ATOM      8  H2  UNL     1      12.363  16.811  57.581  1.00  0.00     0.160 HD
BRANCH   7   9
HETATM    9  C4  UNL     1      12.326  18.562  56.399  1.00  0.00     0.085 C 
HETATM   10  C5  UNL     1      11.980  18.265  54.955  1.00  0.00     0.052 C 
HETATM   11  C6  UNL     1      10.919  19.237  54.525  1.00  0.00     0.234 C 
HETATM   12  N3  UNL     1      11.342  20.609  54.535  1.00  0.00    -0.075 N 
HETATM   13  C7  UNL     1      12.174  20.879  55.668  1.00  0.00     0.234 C 
ATOM     14  H32 UNL     1      11.800  20.868  53.661  1.00  0.00     0.277 HD
ATOM     15  H31 UNL     1      10.549  21.249  54.490  1.00  0.00     0.277 HD
HETATM   16  C8  UNL     1      11.779  19.941  56.790  1.00  0.00     0.052 C 
ENDBRANCH   7   9
ENDBRANCH   3   7
BRANCH   1  17
HETATM   17  N1  UNL     1       7.225  15.912  56.515  1.00  0.00    -0.116 N 
HETATM   18  O1  UNL     1       6.639  16.273  55.480  1.00  0.00    -0.532 OA
HETATM   19  O2  UNL     1       6.963  14.656  56.992  1.00  0.00    -0.532 OA
ENDBRANCH   1  17
BRANCH   5  20
HETATM   20  N4  UNL     1       8.147  19.282  59.945  1.00  0.00    -0.116 N 
HETATM   21  O3  UNL     1       8.097  18.884  61.101  1.00  0.00    -0.532 OA
HETATM   22  O4  UNL     1       7.778  20.567  59.656  1.00  0.00    -0.532 OA
ENDBRANCH   5  20
TORSDOF 4
ENDMDL
MODEL 5
REMARK VINA RESULT: -7.397232440      3.324      5.361
REMARK  4 active torsions:
REMARK  status: ('A' for Active; 'I' for Inactive)
REMARK    1  A    between atoms: N1_2  and  C1_4 
REMARK    2  A    between atoms: C3_6  and  N2_7 
REMARK    3  A    between atoms: N2_7  and  C4_9 
REMARK    4  A    between atoms: C10_18  and  N4_19 
ROOT
HETATM    1  C1  UNL     1       9.090  19.219  58.848  1.00  0.00     0.107 A 
HETATM    2  C2  UNL     1       9.282  17.890  58.539  1.00  0.00     0.065 A 
HETATM    3  C3  UNL     1      10.110  17.512  57.476  1.00  0.00     0.033 A 
HETATM    4  C9  UNL     1      10.736  18.482  56.736  1.00  0.00     0.065 A 
HETATM    5  C10 UNL     1      10.558  19.843  57.030  1.00  0.00     0.107 A 
HETATM    6  C11 UNL     1       9.732  20.172  58.087  1.00  0.00     0.072 A 
ENDROOT
BRANCH   3   7
HETATM    7  N2  UNL     1      10.299  16.154  57.151  1.00  0.00    -0.385 N 
ATOM      8  H2  UNL     1      11.045  15.630  57.609  1.00  0.00     0.160 HD
BRANCH   7   9
HETATM    9  C4  UNL     1       9.476  15.499  56.199  1.00  0.00     0.085 C 
HETATM   10  C5  UNL     1       8.259  14.938  56.905  1.00  0.00     0.052 C 
HETATM   11  C6  UNL     1       7.082  15.802  56.552  1.00  0.00     0.234 C 
HETATM   12  N3  UNL     1       6.745  15.792  55.157  1.00  0.00    -0.075 N 
HETATM   13  C7  UNL     1       7.925  15.786  54.346  1.00  0.00     0.234 C 
ATOM     14  H32 UNL     1       6.124  15.016  54.924  1.00  0.00     0.277 HD
ATOM     15  H31 UNL     1       6.125  16.564  54.913  1.00  0.00     0.277 HD
HETATM   16  C8  UNL     1       9.035  16.481  55.106  1.00  0.00     0.052 C 
ENDBRANCH   7   9
ENDBRANCH   3   7
BRANCH   1  17
HETATM   17  N1  UNL     1       8.243  19.592  59.933  1.00  0.00    -0.116 N 
HETATM   18  O1  UNL     1       7.536  20.615  59.910  1.00  0.00    -0.532 OA
HETATM   19  O2  UNL     1       8.194  18.808  61.054  1.00  0.00    -0.532 OA
ENDBRANCH   1  17
BRANCH   5  20
HETATM   20  N4  UNL     1      11.219  20.823  56.246  1.00  0.00    -0.116 N 
HETATM   21  O3  UNL     1      10.572  21.612  55.571  1.00  0.00    -0.532 OA
HETATM   22  O4  UNL     1      12.585  20.890  56.241  1.00  0.00    -0.532 OA
ENDBRANCH   5  20
TORSDOF 4
ENDMDL
