MODEL 1
REMARK VINA RESULT: -6.978595539      0.000      0.000
REMARK  6 active torsions:
REMARK  status: ('A' for Active; 'I' for Inactive)
REMARK    1  A    between atoms: C2_2  and  C3_3 
REMARK    2  A    between atoms: N2_6  and  C4_7 
REMARK    3  A    between atoms: C4_7  and  C5_8 
REMARK    4  A    between atoms: C7_10  and  C8_11 
REMARK    5  A    between atoms: C15_22  and  C16_23 
REMARK    6  A    between atoms: C16_23  and  N5_24 
ROOT
HETATM    1  C3  UNL     1       1.854  24.967  -0.916  1.00  0.00     0.033 A 
HETATM    2  N1  UNL     1       1.309  25.163  -2.068  1.00  0.00    -0.306 N 
ATOM      3  H1  UNL     1       0.689  25.968  -2.154  1.00  0.00     0.186 HD
HETATM    4  N2  UNL     1       1.484  24.385  -3.199  1.00  0.00    -0.319 N 
HETATM    5  C13 UNL     1       2.346  23.250  -3.144  1.00  0.00     0.171 A 
HETATM    6  C14 UNL     1       2.955  23.056  -1.801  1.00  0.00     0.005 A 
HETATM    7  C15 UNL     1       2.755  23.821  -0.754  1.00  0.00    -0.019 A 
ENDROOT
BRANCH   4   8
HETATM    8  C4  UNL     1       0.808  24.700  -4.436  1.00  0.00     0.201 C 
BRANCH   8   9
HETATM    9  C5  UNL     1      -0.110  25.850  -4.350  1.00  0.00     0.047 A 
HETATM   10  C6  UNL     1      -1.410  25.978  -3.928  1.00  0.00     0.055 A 
HETATM   11  C7  UNL     1      -1.839  27.277  -4.056  1.00  0.00     0.032 A 
HETATM   12  N3  UNL     1      -0.788  27.938  -4.559  1.00  0.00    -0.304 N 
HETATM   13  N4  UNL     1       0.246  27.116  -4.741  1.00  0.00    -0.303 N 
ATOM     14  H3  UNL     1      -0.780  28.935  -4.773  1.00  0.00     0.186 HD
ATOM     15  H4  UNL     1       1.157  27.385  -5.111  1.00  0.00     0.186 HD
BRANCH  11  16
HETATM   16  C8  UNL     1      -3.171  27.806  -3.715  1.00  0.00     0.037 C 
HETATM   17  C9  UNL     1      -3.304  29.277  -3.847  1.00  0.00     0.011 C 
HETATM   18  C10 UNL     1      -4.768  29.513  -4.114  1.00  0.00     0.001 C 
HETATM   19  C11 UNL     1      -5.414  28.150  -4.254  1.00  0.00     0.001 C 
HETATM   20  C12 UNL     1      -4.222  27.303  -4.721  1.00  0.00     0.011 C 
ENDBRANCH  11  16
ENDBRANCH   8   9
ENDBRANCH   4   8
BRANCH   1  21
HETATM   21  C2  UNL     1       1.528  25.926   0.169  1.00  0.00     0.055 C 
HETATM   22  C1  UNL     1       1.097  27.246  -0.381  1.00  0.00     0.011 C 
ENDBRANCH   1  21
BRANCH   7  23
HETATM   23  C16 UNL     1       3.407  23.609   0.565  1.00  0.00     0.154 C 
BRANCH  23  24
HETATM   24  N5  UNL     1       2.704  22.779   1.472  1.00  0.00    -0.421 N 
HETATM   25  C17 UNL     1       3.456  21.837   2.226  1.00  0.00     0.140 C 
ATOM     26  H5  UNL     1       1.693  22.853   1.581  1.00  0.00     0.153 HD
ENDBRANCH  23  24
ENDBRANCH   7  23
TORSDOF 6
ENDMDL
MODEL 2
REMARK VINA RESULT: -6.925932471      0.831      2.204
REMARK  6 active torsions:
REMARK  status: ('A' for Active; 'I' for Inactive)
REMARK    1  A    between atoms: C2_2  and  C3_3 
REMARK    2  A    between atoms: N2_6  and  C4_7 
REMARK    3  A    between atoms: C4_7  and  C5_8 
REMARK    4  A    between atoms: C7_10  and  C8_11 
REMARK    5  A    between atoms: C15_22  and  C16_23 
REMARK    6  A    between atoms: C16_23  and  N5_24 
ROOT
HETATM    1  C3  UNL     1       2.636  22.776  -2.086  1.00  0.00     0.033 A 
HETATM    2  N1  UNL     1       2.001  23.180  -3.133  1.00  0.00    -0.306 N 
ATOM      3  H1  UNL     1       1.890  22.509  -3.893  1.00  0.00     0.186 HD
HETATM    4  N2  UNL     1       1.454  24.436  -3.324  1.00  0.00    -0.319 N 
HETATM    5  C13 UNL     1       1.568  25.416  -2.293  1.00  0.00     0.171 A 
HETATM    6  C14 UNL     1       2.306  24.914  -1.104  1.00  0.00     0.005 A 
HETATM    7  C15 UNL     1       2.811  23.710  -0.970  1.00  0.00    -0.019 A 
ENDROOT
BRANCH   4   8
HETATM    8  C4  UNL     1       0.771  24.778  -4.550  1.00  0.00     0.201 C 
BRANCH   8   9
HETATM    9  C5  UNL     1      -0.159  25.915  -4.429  1.00  0.00     0.047 A 
HETATM   10  C6  UNL     1      -1.464  26.014  -4.013  1.00  0.00     0.055 A 
HETATM   11  C7  UNL     1      -1.906  27.312  -4.096  1.00  0.00     0.032 A 
HETATM   12  N3  UNL     1      -0.859  28.002  -4.566  1.00  0.00    -0.304 N 
HETATM   13  N4  UNL     1       0.186  27.198  -4.770  1.00  0.00    -0.303 N 
ATOM     14  H3  UNL     1      -0.859  29.006  -4.744  1.00  0.00     0.186 HD
ATOM     15  H4  UNL     1       1.097  27.490  -5.123  1.00  0.00     0.186 HD
BRANCH  11  16
HETATM   16  C8  UNL     1      -3.246  27.814  -3.747  1.00  0.00     0.037 C 
HETATM   17  C9  UNL     1      -3.402  29.285  -3.856  1.00  0.00     0.011 C 
HETATM   18  C10 UNL     1      -4.870  29.501  -4.119  1.00  0.00     0.001 C 
HETATM   19  C11 UNL     1      -5.495  28.131  -4.280  1.00  0.00     0.001 C 
HETATM   20  C12 UNL     1      -4.290  27.311  -4.760  1.00  0.00     0.011 C 
ENDBRANCH  11  16
ENDBRANCH   8   9
ENDBRANCH   4   8
BRANCH   1  21
HETATM   21  C2  UNL     1       3.144  21.381  -2.089  1.00  0.00     0.055 C 
HETATM   22  C1  UNL     1       2.972  20.740  -3.426  1.00  0.00     0.011 C 
ENDBRANCH   1  21
BRANCH   7  23
HETATM   23  C16 UNL     1       3.519  23.239   0.249  1.00  0.00     0.154 C 
BRANCH  23  24
HETATM   24  N5  UNL     1       2.696  22.954   1.366  1.00  0.00    -0.421 N 
HETATM   25  C17 UNL     1       3.040  21.834   2.172  1.00  0.00     0.140 C 
ATOM     26  H5  UNL     1       1.885  23.532   1.586  1.00  0.00     0.153 HD
ENDBRANCH  23  24
ENDBRANCH   7  23
TORSDOF 6
ENDMDL
MODEL 3
REMARK VINA RESULT: -6.787279808      1.913      3.332
REMARK  6 active torsions:
REMARK  status: ('A' for Active; 'I' for Inactive)
REMARK    1  A    between atoms: C2_2  and  C3_3 
REMARK    2  A    between atoms: N2_6  and  C4_7 
REMARK    3  A    between atoms: C4_7  and  C5_8 
REMARK    4  A    between atoms: C7_10  and  C8_11 
REMARK    5  A    between atoms: C15_22  and  C16_23 
REMARK    6  A    between atoms: C16_23  and  N5_24 
ROOT
HETATM    1  C3  UNL     1       1.045  26.156  -1.596  1.00  0.00     0.033 A 
HETATM    2  N1  UNL     1       0.805  27.349  -2.020  1.00  0.00    -0.306 N 
ATOM      3  H1  UNL     1       0.479  27.440  -2.982  1.00  0.00     0.186 HD
HETATM    4  N2  UNL     1       0.947  28.519  -1.295  1.00  0.00    -0.319 N 
HETATM    5  C13 UNL     1       1.390  28.457   0.059  1.00  0.00     0.171 A 
HETATM    6  C14 UNL     1       1.656  27.065   0.512  1.00  0.00     0.005 A 
HETATM    7  C15 UNL     1       1.510  25.984  -0.216  1.00  0.00    -0.019 A 
ENDROOT
BRANCH   4   8
HETATM    8  C4  UNL     1       0.656  29.805  -1.884  1.00  0.00     0.201 C 
BRANCH   8   9
HETATM    9  C5  UNL     1      -0.491  29.803  -2.811  1.00  0.00     0.047 A 
HETATM   10  C6  UNL     1      -1.554  28.950  -2.979  1.00  0.00     0.055 A 
HETATM   11  C7  UNL     1      -2.365  29.377  -4.002  1.00  0.00     0.032 A 
HETATM   12  N3  UNL     1      -1.787  30.497  -4.454  1.00  0.00    -0.304 N 
HETATM   13  N4  UNL     1      -0.678  30.770  -3.765  1.00  0.00    -0.303 N 
ATOM     14  H3  UNL     1      -2.145  31.065  -5.221  1.00  0.00     0.186 HD
ATOM     15  H4  UNL     1      -0.066  31.570  -3.922  1.00  0.00     0.186 HD
BRANCH  11  16
HETATM   16  C8  UNL     1      -3.595  28.726  -4.486  1.00  0.00     0.037 C 
HETATM   17  C9  UNL     1      -3.863  27.395  -3.890  1.00  0.00     0.011 C 
HETATM   18  C10 UNL     1      -5.359  27.229  -3.968  1.00  0.00     0.001 C 
HETATM   19  C11 UNL     1      -5.919  28.534  -4.494  1.00  0.00     0.001 C 
HETATM   20  C12 UNL     1      -4.835  29.524  -4.046  1.00  0.00     0.011 C 
ENDBRANCH  11  16
ENDBRANCH   8   9
ENDBRANCH   4   8
BRANCH   1  21
HETATM   21  C2  UNL     1       0.827  25.035  -2.544  1.00  0.00     0.055 C 
HETATM   22  C1  UNL     1      -0.628  24.800  -2.788  1.00  0.00     0.011 C 
ENDBRANCH   1  21
BRANCH   7  23
HETATM   23  C16 UNL     1       1.761  24.607   0.284  1.00  0.00     0.154 C 
BRANCH  23  24
HETATM   24  N5  UNL     1       3.096  24.322   0.659  1.00  0.00    -0.421 N 
HETATM   25  C17 UNL     1       4.042  24.100  -0.379  1.00  0.00     0.140 C 
ATOM     26  H5  UNL     1       3.371  24.277   1.640  1.00  0.00     0.153 HD
ENDBRANCH  23  24
ENDBRANCH   7  23
TORSDOF 6
ENDMDL
MODEL 4
REMARK VINA RESULT: -6.784599379      5.899      9.830
REMARK  6 active torsions:
REMARK  status: ('A' for Active; 'I' for Inactive)
REMARK    1  A    between atoms: C2_2  and  C3_3 
REMARK    2  A    between atoms: N2_6  and  C4_7 
REMARK    3  A    between atoms: C4_7  and  C5_8 
REMARK    4  A    between atoms: C7_10  and  C8_11 
REMARK    5  A    between atoms: C15_22  and  C16_23 
REMARK    6  A    between atoms: C16_23  and  N5_24 
ROOT
HETATM    1  C3  UNL     1      -0.191  35.314  -5.381  1.00  0.00     0.033 A 
HETATM    2  N1  UNL     1       0.186  34.101  -5.160  1.00  0.00    -0.306 N 
ATOM      3  H1  UNL     1       0.838  33.954  -4.389  1.00  0.00     0.186 HD
HETATM    4  N2  UNL     1      -0.209  32.980  -5.867  1.00  0.00    -0.319 N 
HETATM    5  C13 UNL     1      -1.126  33.120  -6.950  1.00  0.00     0.171 A 
HETATM    6  C14 UNL     1      -1.537  34.531  -7.175  1.00  0.00     0.005 A 
HETATM    7  C15 UNL     1      -1.130  35.566  -6.478  1.00  0.00    -0.019 A 
ENDROOT
BRANCH   4   8
HETATM    8  C4  UNL     1       0.291  31.668  -5.531  1.00  0.00     0.201 C 
BRANCH   8   9
HETATM    9  C5  UNL     1      -0.617  30.870  -4.686  1.00  0.00     0.047 A 
HETATM   10  C6  UNL     1      -1.734  30.122  -4.963  1.00  0.00     0.055 A 
HETATM   11  C7  UNL     1      -2.248  29.569  -3.815  1.00  0.00     0.032 A 
HETATM   12  N3  UNL     1      -1.434  29.987  -2.838  1.00  0.00    -0.304 N 
HETATM   13  N4  UNL     1      -0.461  30.757  -3.328  1.00  0.00    -0.303 N 
ATOM     14  H3  UNL     1      -1.542  29.749  -1.853  1.00  0.00     0.186 HD
ATOM     15  H4  UNL     1       0.281  31.192  -2.780  1.00  0.00     0.186 HD
BRANCH  11  16
HETATM   16  C8  UNL     1      -3.442  28.712  -3.704  1.00  0.00     0.037 C 
HETATM   17  C9  UNL     1      -4.729  29.417  -3.917  1.00  0.00     0.011 C 
HETATM   18  C10 UNL     1      -5.676  28.355  -4.414  1.00  0.00     0.001 C 
HETATM   19  C11 UNL     1      -4.863  27.090  -4.594  1.00  0.00     0.001 C 
HETATM   20  C12 UNL     1      -3.462  27.670  -4.837  1.00  0.00     0.011 C 
ENDBRANCH  11  16
ENDBRANCH   8   9
ENDBRANCH   4   8
BRANCH   1  21
HETATM   21  C2  UNL     1       0.359  36.374  -4.499  1.00  0.00     0.055 C 
HETATM   22  C1  UNL     1      -0.331  36.395  -3.175  1.00  0.00     0.011 C 
ENDBRANCH   1  21
BRANCH   7  23
HETATM   23  C16 UNL     1      -1.588  36.959  -6.718  1.00  0.00     0.154 C 
BRANCH  23  24
HETATM   24  N5  UNL     1      -2.241  37.188  -7.954  1.00  0.00    -0.421 N 
HETATM   25  C17 UNL     1      -1.431  37.477  -9.086  1.00  0.00     0.140 C 
ATOM     26  H5  UNL     1      -3.257  37.148  -8.029  1.00  0.00     0.153 HD
ENDBRANCH  23  24
ENDBRANCH   7  23
TORSDOF 6
ENDMDL
MODEL 5
REMARK VINA RESULT: -6.766487501      1.804      2.666
REMARK  6 active torsions:
REMARK  status: ('A' for Active; 'I' for Inactive)
REMARK    1  A    between atoms: C2_2  and  C3_3 
REMARK    2  A    between atoms: N2_6  and  C4_7 
REMARK    3  A    between atoms: C4_7  and  C5_8 
REMARK    4  A    between atoms: C7_10  and  C8_11 
REMARK    5  A    between atoms: C15_22  and  C16_23 
REMARK    6  A    between atoms: C16_23  and  N5_24 
ROOT
HETATM    1  C3  UNL     1       2.230  24.290  -2.320  1.00  0.00     0.033 A 
HETATM    2  N1  UNL     1       2.012  25.508  -2.681  1.00  0.00    -0.306 N 
ATOM      3  H1  UNL     1       1.897  26.196  -1.936  1.00  0.00     0.186 HD
HETATM    4  N2  UNL     1       1.920  25.973  -3.980  1.00  0.00    -0.319 N 
HETATM    5  C13 UNL     1       2.081  25.061  -5.065  1.00  0.00     0.171 A 
HETATM    6  C14 UNL     1       2.330  23.667  -4.611  1.00  0.00     0.005 A 
HETATM    7  C15 UNL     1       2.405  23.273  -3.362  1.00  0.00    -0.019 A 
ENDROOT
BRANCH   4   8
HETATM    8  C4  UNL     1       1.662  27.366  -4.261  1.00  0.00     0.201 C 
BRANCH   8   9
HETATM    9  C5  UNL     1       0.243  27.682  -4.508  1.00  0.00     0.047 A 
HETATM   10  C6  UNL     1      -0.902  27.470  -3.779  1.00  0.00     0.055 A 
HETATM   11  C7  UNL     1      -2.003  27.942  -4.452  1.00  0.00     0.032 A 
HETATM   12  N3  UNL     1      -1.518  28.443  -5.595  1.00  0.00    -0.304 N 
HETATM   13  N4  UNL     1      -0.193  28.302  -5.651  1.00  0.00    -0.303 N 
ATOM     14  H3  UNL     1      -2.085  28.875  -6.324  1.00  0.00     0.186 HD
ATOM     15  H4  UNL     1       0.402  28.606  -6.421  1.00  0.00     0.186 HD
BRANCH  11  16
HETATM   16  C8  UNL     1      -3.404  27.891  -3.999  1.00  0.00     0.037 C 
HETATM   17  C9  UNL     1      -4.112  29.194  -4.035  1.00  0.00     0.011 C 
HETATM   18  C10 UNL     1      -5.568  28.840  -4.198  1.00  0.00     0.001 C 
HETATM   19  C11 UNL     1      -5.638  27.338  -4.379  1.00  0.00     0.001 C 
HETATM   20  C12 UNL     1      -4.251  27.045  -4.967  1.00  0.00     0.011 C 
ENDBRANCH  11  16
ENDBRANCH   8   9
ENDBRANCH   4   8
BRANCH   1  21
HETATM   21  C2  UNL     1       2.289  24.005  -0.865  1.00  0.00     0.055 C 
HETATM   22  C1  UNL     1       1.479  24.987  -0.083  1.00  0.00     0.011 C 
ENDBRANCH   1  21
BRANCH   7  23
HETATM   23  C16 UNL     1       2.683  21.872  -2.950  1.00  0.00     0.154 C 
BRANCH  23  24
HETATM   24  N5  UNL     1       1.956  20.872  -3.640  1.00  0.00    -0.421 N 
HETATM   25  C17 UNL     1       2.694  19.918  -4.393  1.00  0.00     0.140 C 
ATOM     26  H5  UNL     1       0.938  20.836  -3.598  1.00  0.00     0.153 HD
ENDBRANCH  23  24
ENDBRANCH   7  23
TORSDOF 6
ENDMDL
