MODEL 1
REMARK VINA RESULT: -6.373712135      0.000      0.000
REMARK  5 active torsions:
REMARK  status: ('A' for Active; 'I' for Inactive)
REMARK    1  A    between atoms: C2_2  and  C4_4 
REMARK    2  A    between atoms: C4_4  and  N1_5 
REMARK    3  A    between atoms: C10_15  and  C11_16 
REMARK    4  A    between atoms: C11_16  and  O1_17 
REMARK    5  A    between atoms: O1_17  and  C12_18 
ROOT
HETATM    1  N1  UNL     1      32.750  97.835  34.891  1.00  0.00    -0.351 N 
HETATM    2  C5  UNL     1      31.973  97.123  33.900  1.00  0.00     0.132 C 
HETATM    3  C6  UNL     1      32.119  97.771  32.517  1.00  0.00     0.079 C 
HETATM    4  C7  UNL     1      31.192  98.915  32.474  1.00  0.00     0.035 A 
HETATM    5  N2  UNL     1      30.281  99.128  31.499  1.00  0.00    -0.354 N 
ATOM      6  H2  UNL     1      30.121  98.537  30.683  1.00  0.00     0.166 HD
HETATM    7  C8  UNL     1      29.627 100.261  31.802  1.00  0.00     0.180 A 
HETATM    8  N3  UNL     1      30.120 100.736  32.935  1.00  0.00    -0.353 N 
ATOM      9  H3  UNL     1      29.804 101.590  33.395  1.00  0.00     0.166 HD
HETATM   10  C9  UNL     1      31.098  99.933  33.394  1.00  0.00     0.048 A 
HETATM   11  C10 UNL     1      31.799 100.256  34.645  1.00  0.00     0.153 C 
HETATM   12  C18 UNL     1      32.795  99.243  35.048  1.00  0.00     0.232 C 
HETATM   13  O2  UNL     1      33.855  99.664  35.623  1.00  0.00    -0.272 OA
ENDROOT
BRANCH  11  14
HETATM   14  C11 UNL     1      32.414 101.625  34.502  1.00  0.00     0.188 C 
BRANCH  14  15
HETATM   15  O1  UNL     1      32.613 102.006  33.200  1.00  0.00    -0.385 OA
BRANCH  15  16
HETATM   16  C12 UNL     1      33.984 101.971  32.947  1.00  0.00     0.121 C 
HETATM   17  C13 UNL     1      34.456 103.321  32.398  1.00  0.00     0.032 C 
HETATM   18  C14 UNL     1      35.070 103.130  31.034  1.00  0.00     0.002 C 
HETATM   19  C15 UNL     1      36.270 102.239  31.192  1.00  0.00     0.000 C 
HETATM   20  C16 UNL     1      35.811 100.902  31.710  1.00  0.00     0.002 C 
HETATM   21  C17 UNL     1      34.338 100.852  31.983  1.00  0.00     0.032 C 
ENDBRANCH  15  16
ENDBRANCH  14  15
ENDBRANCH  11  14
BRANCH   1  22
HETATM   22  C4  UNL     1      33.564  97.102  35.818  1.00  0.00     0.129 C 
BRANCH  22  23
HETATM   23  C2  UNL     1      33.124  95.705  36.072  1.00  0.00    -0.005 C 
HETATM   24  C1  UNL     1      32.572  95.483  37.465  1.00  0.00     0.011 C 
HETATM   25  C3  UNL     1      34.375  94.820  35.977  1.00  0.00     0.011 C 
ENDBRANCH  22  23
ENDBRANCH   1  22
TORSDOF 5
ENDMDL
MODEL 2
REMARK VINA RESULT: -6.348198115      2.697      4.634
REMARK  5 active torsions:
REMARK  status: ('A' for Active; 'I' for Inactive)
REMARK    1  A    between atoms: C2_2  and  C4_4 
REMARK    2  A    between atoms: C4_4  and  N1_5 
REMARK    3  A    between atoms: C10_15  and  C11_16 
REMARK    4  A    between atoms: C11_16  and  O1_17 
REMARK    5  A    between atoms: O1_17  and  C12_18 
ROOT
HETATM    1  N1  UNL     1      34.302  95.192  35.991  1.00  0.00    -0.351 N 
HETATM    2  C5  UNL     1      34.004  95.297  37.401  1.00  0.00     0.132 C 
HETATM    3  C6  UNL     1      32.515  95.589  37.628  1.00  0.00     0.079 C 
HETATM    4  C7  UNL     1      32.325  97.038  37.444  1.00  0.00     0.035 A 
HETATM    5  N2  UNL     1      31.710  97.851  38.331  1.00  0.00    -0.354 N 
ATOM      6  H2  UNL     1      31.306  97.573  39.226  1.00  0.00     0.166 HD
HETATM    7  C8  UNL     1      31.729  99.092  37.819  1.00  0.00     0.180 A 
HETATM    8  N3  UNL     1      32.339  99.049  36.644  1.00  0.00    -0.353 N 
ATOM      9  H3  UNL     1      32.492  99.854  36.037  1.00  0.00     0.166 HD
HETATM   10  C9  UNL     1      32.729  97.790  36.365  1.00  0.00     0.048 A 
HETATM   11  C10 UNL     1      33.432  97.492  35.109  1.00  0.00     0.153 C 
HETATM   12  C18 UNL     1      33.854  96.083  34.983  1.00  0.00     0.232 C 
HETATM   13  O2  UNL     1      33.821  95.566  33.815  1.00  0.00    -0.272 OA
ENDROOT
BRANCH  11  14
HETATM   14  C11 UNL     1      32.553  97.922  33.962  1.00  0.00     0.188 C 
BRANCH  14  15
HETATM   15  O1  UNL     1      33.186  98.736  33.059  1.00  0.00    -0.385 OA
BRANCH  15  16
HETATM   16  C12 UNL     1      32.246  99.639  32.563  1.00  0.00     0.121 C 
HETATM   17  C13 UNL     1      32.312 100.954  33.346  1.00  0.00     0.032 C 
HETATM   18  C14 UNL     1      30.974 101.235  33.982  1.00  0.00     0.002 C 
HETATM   19  C15 UNL     1      29.965 101.392  32.880  1.00  0.00     0.000 C 
HETATM   20  C16 UNL     1      29.879 100.095  32.120  1.00  0.00     0.002 C 
HETATM   21  C17 UNL     1      30.844  99.059  32.613  1.00  0.00     0.032 C 
ENDBRANCH  15  16
ENDBRANCH  14  15
ENDBRANCH  11  14
BRANCH   1  22
HETATM   22  C4  UNL     1      35.118  94.111  35.514  1.00  0.00     0.129 C 
BRANCH  22  23
HETATM   23  C2  UNL     1      35.736  93.276  36.576  1.00  0.00    -0.005 C 
HETATM   24  C1  UNL     1      37.243  93.162  36.464  1.00  0.00     0.011 C 
HETATM   25  C3  UNL     1      35.200  91.849  36.391  1.00  0.00     0.011 C 
ENDBRANCH  22  23
ENDBRANCH   1  22
TORSDOF 5
ENDMDL
MODEL 3
REMARK VINA RESULT: -6.244949239      2.740      4.658
REMARK  5 active torsions:
REMARK  status: ('A' for Active; 'I' for Inactive)
REMARK    1  A    between atoms: C2_2  and  C4_4 
REMARK    2  A    between atoms: C4_4  and  N1_5 
REMARK    3  A    between atoms: C10_15  and  C11_16 
REMARK    4  A    between atoms: C11_16  and  O1_17 
REMARK    5  A    between atoms: O1_17  and  C12_18 
ROOT
HETATM    1  N1  UNL     1      34.192  95.205  35.571  1.00  0.00    -0.351 N 
HETATM    2  C5  UNL     1      34.024  95.276  37.005  1.00  0.00     0.132 C 
HETATM    3  C6  UNL     1      32.566  95.583  37.373  1.00  0.00     0.079 C 
HETATM    4  C7  UNL     1      32.383  97.039  37.244  1.00  0.00     0.035 A 
HETATM    5  N2  UNL     1      31.864  97.835  38.205  1.00  0.00    -0.354 N 
ATOM      6  H2  UNL     1      31.539  97.538  39.125  1.00  0.00     0.166 HD
HETATM    7  C8  UNL     1      31.857  99.089  37.724  1.00  0.00     0.180 A 
HETATM    8  N3  UNL     1      32.357  99.069  36.498  1.00  0.00    -0.353 N 
ATOM      9  H3  UNL     1      32.467  99.889  35.901  1.00  0.00     0.166 HD
HETATM   10  C9  UNL     1      32.701  97.814  36.153  1.00  0.00     0.048 A 
HETATM   11  C10 UNL     1      33.282  97.541  34.832  1.00  0.00     0.153 C 
HETATM   12  C18 UNL     1      33.668  96.129  34.632  1.00  0.00     0.232 C 
HETATM   13  O2  UNL     1      33.523  95.645  33.458  1.00  0.00    -0.272 OA
ENDROOT
BRANCH  11  14
HETATM   14  C11 UNL     1      32.310  98.013  33.780  1.00  0.00     0.188 C 
BRANCH  14  15
HETATM   15  O1  UNL     1      32.897  98.726  32.768  1.00  0.00    -0.385 OA
BRANCH  15  16
HETATM   16  C12 UNL     1      31.984  99.686  32.332  1.00  0.00     0.121 C 
HETATM   17  C13 UNL     1      32.102 100.954  33.184  1.00  0.00     0.032 C 
HETATM   18  C14 UNL     1      30.781 101.244  33.849  1.00  0.00     0.002 C 
HETATM   19  C15 UNL     1      29.766 101.494  32.769  1.00  0.00     0.000 C 
HETATM   20  C16 UNL     1      29.629 100.243  31.942  1.00  0.00     0.002 C 
HETATM   21  C17 UNL     1      30.564  99.151  32.367  1.00  0.00     0.032 C 
ENDBRANCH  15  16
ENDBRANCH  14  15
ENDBRANCH  11  14
BRANCH   1  22
HETATM   22  C4  UNL     1      34.945  94.127  34.995  1.00  0.00     0.129 C 
BRANCH  22  23
HETATM   23  C2  UNL     1      36.400  94.387  34.846  1.00  0.00    -0.005 C 
HETATM   24  C1  UNL     1      36.866  94.444  33.405  1.00  0.00     0.011 C 
HETATM   25  C3  UNL     1      37.133  93.191  35.470  1.00  0.00     0.011 C 
ENDBRANCH  22  23
ENDBRANCH   1  22
TORSDOF 5
ENDMDL
MODEL 4
REMARK VINA RESULT: -6.233417514      2.780      4.491
REMARK  5 active torsions:
REMARK  status: ('A' for Active; 'I' for Inactive)
REMARK    1  A    between atoms: C2_2  and  C4_4 
REMARK    2  A    between atoms: C4_4  and  N1_5 
REMARK    3  A    between atoms: C10_15  and  C11_16 
REMARK    4  A    between atoms: C11_16  and  O1_17 
REMARK    5  A    between atoms: O1_17  and  C12_18 
ROOT
HETATM    1  N1  UNL     1      32.708  96.291  37.457  1.00  0.00    -0.351 N 
HETATM    2  C5  UNL     1      32.850  97.160  38.605  1.00  0.00     0.132 C 
HETATM    3  C6  UNL     1      31.839  98.313  38.549  1.00  0.00     0.079 C 
HETATM    4  C7  UNL     1      32.403  99.341  37.657  1.00  0.00     0.035 A 
HETATM    5  N2  UNL     1      32.536 100.647  37.978  1.00  0.00    -0.354 N 
ATOM      6  H2  UNL     1      32.269 101.082  38.861  1.00  0.00     0.166 HD
HETATM    7  C8  UNL     1      33.083 101.266  36.920  1.00  0.00     0.180 A 
HETATM    8  N3  UNL     1      33.284 100.366  35.968  1.00  0.00    -0.353 N 
ATOM      9  H3  UNL     1      33.690 100.567  35.054  1.00  0.00     0.166 HD
HETATM   10  C9  UNL     1      32.876  99.151  36.380  1.00  0.00     0.048 A 
HETATM   11  C10 UNL     1      33.000  97.987  35.491  1.00  0.00     0.153 C 
HETATM   12  C18 UNL     1      32.573  96.716  36.112  1.00  0.00     0.232 C 
HETATM   13  O2  UNL     1      32.002  95.860  35.355  1.00  0.00    -0.272 OA
ENDROOT
BRANCH  11  14
HETATM   14  C11 UNL     1      32.238  98.277  34.223  1.00  0.00     0.188 C 
BRANCH  14  15
HETATM   15  O1  UNL     1      32.910  99.094  33.351  1.00  0.00    -0.385 OA
BRANCH  15  16
HETATM   16  C12 UNL     1      31.966  99.768  32.578  1.00  0.00     0.121 C 
HETATM   17  C13 UNL     1      31.761 101.189  33.113  1.00  0.00     0.032 C 
HETATM   18  C14 UNL     1      30.318 101.384  33.501  1.00  0.00     0.002 C 
HETATM   19  C15 UNL     1      29.483 101.222  32.263  1.00  0.00     0.000 C 
HETATM   20  C16 UNL     1      29.661  99.819  31.745  1.00  0.00     0.002 C 
HETATM   21  C17 UNL     1      30.646  99.018  32.542  1.00  0.00     0.032 C 
ENDBRANCH  15  16
ENDBRANCH  14  15
ENDBRANCH  11  14
BRANCH   1  22
HETATM   22  C4  UNL     1      32.695  94.867  37.640  1.00  0.00     0.129 C 
BRANCH  22  23
HETATM   23  C2  UNL     1      34.006  94.270  38.003  1.00  0.00    -0.005 C 
HETATM   24  C1  UNL     1      34.820  93.812  36.810  1.00  0.00     0.011 C 
HETATM   25  C3  UNL     1      33.708  92.999  38.812  1.00  0.00     0.011 C 
ENDBRANCH  22  23
ENDBRANCH   1  22
TORSDOF 5
ENDMDL
MODEL 5
REMARK VINA RESULT: -6.059498791      2.109      5.301
REMARK  5 active torsions:
REMARK  status: ('A' for Active; 'I' for Inactive)
REMARK    1  A    between atoms: C2_2  and  C4_4 
REMARK    2  A    between atoms: C4_4  and  N1_5 
REMARK    3  A    between atoms: C10_15  and  C11_16 
REMARK    4  A    between atoms: C11_16  and  O1_17 
REMARK    5  A    between atoms: O1_17  and  C12_18 
ROOT
HETATM    1  N1  UNL     1      33.180 101.224  33.888  1.00  0.00    -0.351 N 
HETATM    2  C5  UNL     1      32.016 102.017  33.563  1.00  0.00     0.132 C 
HETATM    3  C6  UNL     1      30.725 101.222  33.798  1.00  0.00     0.079 C 
HETATM    4  C7  UNL     1      30.519 100.369  32.615  1.00  0.00     0.035 A 
HETATM    5  N2  UNL     1      29.374 100.313  31.899  1.00  0.00    -0.354 N 
ATOM      6  H2  UNL     1      28.521 100.842  32.082  1.00  0.00     0.166 HD
HETATM    7  C8  UNL     1      29.566  99.432  30.904  1.00  0.00     0.180 A 
HETATM    8  N3  UNL     1      30.798  98.955  31.001  1.00  0.00    -0.353 N 
ATOM      9  H3  UNL     1      31.207  98.266  30.370  1.00  0.00     0.166 HD
HETATM   10  C9  UNL     1      31.432  99.509  32.052  1.00  0.00     0.048 A 
HETATM   11  C10 UNL     1      32.819  99.133  32.363  1.00  0.00     0.153 C 
HETATM   12  C18 UNL     1      33.396  99.878  33.500  1.00  0.00     0.232 C 
HETATM   13  O2  UNL     1      34.208  99.247  34.259  1.00  0.00    -0.272 OA
ENDROOT
BRANCH  11  14
HETATM   14  C11 UNL     1      32.868  97.643  32.582  1.00  0.00     0.188 C 
BRANCH  14  15
HETATM   15  O1  UNL     1      31.878  97.175  33.406  1.00  0.00    -0.385 OA
BRANCH  15  16
HETATM   16  C12 UNL     1      32.402  96.119  34.152  1.00  0.00     0.121 C 
HETATM   17  C13 UNL     1      32.217  96.387  35.649  1.00  0.00     0.032 C 
HETATM   18  C14 UNL     1      33.561  96.404  36.332  1.00  0.00     0.002 C 
HETATM   19  C15 UNL     1      34.178  95.044  36.168  1.00  0.00     0.000 C 
HETATM   20  C16 UNL     1      34.383  94.784  34.699  1.00  0.00     0.002 C 
HETATM   21  C17 UNL     1      33.867  95.890  33.828  1.00  0.00     0.032 C 
ENDBRANCH  15  16
ENDBRANCH  14  15
ENDBRANCH  11  14
BRANCH   1  22
HETATM   22  C4  UNL     1      34.238 101.799  34.669  1.00  0.00     0.129 C 
BRANCH  22  23
HETATM   23  C2  UNL     1      33.794 102.538  35.880  1.00  0.00    -0.005 C 
HETATM   24  C1  UNL     1      34.860 103.438  36.471  1.00  0.00     0.011 C 
HETATM   25  C3  UNL     1      33.495 101.488  36.959  1.00  0.00     0.011 C 
ENDBRANCH  22  23
ENDBRANCH   1  22
TORSDOF 5
ENDMDL
