MODEL 1
REMARK VINA RESULT: -5.750712668      0.000      0.000
REMARK  8 active torsions:
REMARK  status: ('A' for Active; 'I' for Inactive)
REMARK    1  A    between atoms: C2_2  and  C3_3 
REMARK    2  A    between atoms: C6_8  and  C7_9 
REMARK    3  A    between atoms: C7_9  and  N2_10 
REMARK    4  A    between atoms: C10_13  and  O1_14 
REMARK    5  A    between atoms: O1_14  and  C11_15 
REMARK    6  A    between atoms: C11_15  and  C12_16 
REMARK    7  A    between atoms: C12_16  and  N3_18 
REMARK    8  A    between atoms: C15_23  and  O2_24 
ROOT
HETATM    1  N2  UNL     1      -8.569  12.985  28.705  1.00  0.00    -0.360 N 
HETATM    2  C8  UNL     1      -8.200  14.335  29.154  1.00  0.00     0.127 C 
HETATM    3  C9  UNL     1      -8.406  15.334  28.068  1.00  0.00     0.052 C 
HETATM    4  C10 UNL     1      -7.699  14.971  26.834  1.00  0.00     0.130 C 
HETATM    5  C14 UNL     1      -8.134  13.489  26.380  1.00  0.00     0.115 C 
HETATM    6  C15 UNL     1      -7.802  12.659  27.613  1.00  0.00     0.116 C 
ENDROOT
BRANCH   1   7
HETATM    7  C7  UNL     1      -9.968  12.775  28.852  1.00  0.00     0.182 C 
BRANCH   7   8
HETATM    8  C6  UNL     1     -10.131  11.577  29.760  1.00  0.00     0.034 A 
HETATM    9  N1  UNL     1      -9.498  10.432  29.776  1.00  0.00    -0.361 N 
HETATM   10  C4  UNL     1      -9.928   9.645  30.800  1.00  0.00     0.012 A 
ATOM     11  H1  UNL     1      -8.776  10.164  29.108  1.00  0.00     0.165 HD
HETATM   12  C3  UNL     1     -10.901  10.316  31.460  1.00  0.00    -0.028 A 
HETATM   13  C5  UNL     1      -9.337   8.324  31.149  1.00  0.00     0.068 C 
HETATM   14  C16 UNL     1     -11.038  11.524  30.819  1.00  0.00    -0.030 A 
HETATM   15  C17 UNL     1     -11.857  12.717  31.165  1.00  0.00     0.051 C 
BRANCH  12  16
HETATM   16  C2  UNL     1     -11.621   9.946  32.700  1.00  0.00     0.036 C 
HETATM   17  C1  UNL     1     -12.993   9.395  32.418  1.00  0.00     0.010 C 
ENDBRANCH  12  16
ENDBRANCH   7   8
ENDBRANCH   1   7
BRANCH   6  18
HETATM   18  O2  UNL     1      -7.575  11.357  27.285  1.00  0.00    -0.349 OA
ATOM     19  H2  UNL     1      -8.249  10.700  27.415  1.00  0.00     0.219 HD
ENDBRANCH   6  18
BRANCH   4  20
HETATM   20  O1  UNL     1      -8.052  15.711  25.751  1.00  0.00    -0.383 OA
BRANCH  20  21
HETATM   21  C11 UNL     1      -8.126  14.963  24.608  1.00  0.00     0.200 C 
BRANCH  21  22
HETATM   22  C12 UNL     1      -8.893  15.664  23.526  1.00  0.00     0.203 C 
HETATM   23  C13 UNL     1      -8.587  17.180  23.744  1.00  0.00     0.042 C 
BRANCH  22  24
HETATM   24  N3  UNL     1      -8.256  15.345  22.233  1.00  0.00    -0.073 N 
ATOM     25  H33 UNL     1      -7.981  16.178  21.714  1.00  0.00     0.274 HD
ATOM     26  H32 UNL     1      -7.328  14.937  22.341  1.00  0.00     0.274 HD
ATOM     27  H31 UNL     1      -8.891  14.745  21.706  1.00  0.00     0.274 HD
ENDBRANCH  22  24
ENDBRANCH  21  22
ENDBRANCH  20  21
ENDBRANCH   4  20
TORSDOF 8
ENDMDL
MODEL 2
REMARK VINA RESULT: -5.655245658      2.294      7.370
REMARK  8 active torsions:
REMARK  status: ('A' for Active; 'I' for Inactive)
REMARK    1  A    between atoms: C2_2  and  C3_3 
REMARK    2  A    between atoms: C6_8  and  C7_9 
REMARK    3  A    between atoms: C7_9  and  N2_10 
REMARK    4  A    between atoms: C10_13  and  O1_14 
REMARK    5  A    between atoms: O1_14  and  C11_15 
REMARK    6  A    between atoms: C11_15  and  C12_16 
REMARK    7  A    between atoms: C12_16  and  N3_18 
REMARK    8  A    between atoms: C15_23  and  O2_24 
ROOT
HETATM    1  N2  UNL     1      -9.132  13.173  28.958  1.00  0.00    -0.360 N 
HETATM    2  C8  UNL     1      -9.419  12.979  30.386  1.00  0.00     0.127 C 
HETATM    3  C9  UNL     1      -8.887  11.672  30.865  1.00  0.00     0.052 C 
HETATM    4  C10 UNL     1      -9.378  10.543  30.065  1.00  0.00     0.130 C 
HETATM    5  C14 UNL     1      -9.040  10.797  28.512  1.00  0.00     0.115 C 
HETATM    6  C15 UNL     1      -9.703  12.143  28.250  1.00  0.00     0.116 C 
ENDROOT
BRANCH   1   7
HETATM    7  C7  UNL     1      -7.823  13.701  28.779  1.00  0.00     0.182 C 
BRANCH   7   8
HETATM    8  C6  UNL     1      -7.825  14.413  27.446  1.00  0.00     0.034 A 
HETATM    9  N1  UNL     1      -7.665  13.947  26.234  1.00  0.00    -0.361 N 
HETATM   10  C4  UNL     1      -7.786  14.934  25.305  1.00  0.00     0.012 A 
ATOM     11  H1  UNL     1      -7.473  12.970  26.014  1.00  0.00     0.165 HD
HETATM   12  C3  UNL     1      -8.018  16.096  25.960  1.00  0.00    -0.028 A 
HETATM   13  C5  UNL     1      -7.756  14.711  23.833  1.00  0.00     0.068 C 
HETATM   14  C16 UNL     1      -8.043  15.784  27.299  1.00  0.00    -0.030 A 
HETATM   15  C17 UNL     1      -8.376  16.621  28.483  1.00  0.00     0.051 C 
BRANCH  12  16
HETATM   16  C2  UNL     1      -8.322  17.438  25.413  1.00  0.00     0.036 C 
HETATM   17  C1  UNL     1      -8.636  17.393  23.942  1.00  0.00     0.010 C 
ENDBRANCH  12  16
ENDBRANCH   7   8
ENDBRANCH   1   7
BRANCH   6  18
HETATM   18  O2  UNL     1     -10.014  12.292  26.932  1.00  0.00    -0.349 OA
ATOM     19  H2  UNL     1      -9.612  12.980  26.414  1.00  0.00     0.219 HD
ENDBRANCH   6  18
BRANCH   4  20
HETATM   20  O1  UNL     1      -8.735   9.371  30.303  1.00  0.00    -0.383 OA
BRANCH  20  21
HETATM   21  C11 UNL     1      -8.300   8.770  29.154  1.00  0.00     0.200 C 
BRANCH  21  22
HETATM   22  C12 UNL     1      -8.230   7.277  29.291  1.00  0.00     0.203 C 
HETATM   23  C13 UNL     1      -9.546   6.888  30.037  1.00  0.00     0.042 C 
BRANCH  22  24
HETATM   24  N3  UNL     1      -8.384   6.686  27.947  1.00  0.00    -0.073 N 
ATOM     25  H33 UNL     1      -8.548   7.387  27.224  1.00  0.00     0.274 HD
ATOM     26  H32 UNL     1      -7.509   6.312  27.579  1.00  0.00     0.274 HD
ATOM     27  H31 UNL     1      -9.124   5.985  27.992  1.00  0.00     0.274 HD
ENDBRANCH  22  24
ENDBRANCH  21  22
ENDBRANCH  20  21
ENDBRANCH   4  20
TORSDOF 8
ENDMDL
MODEL 3
REMARK VINA RESULT: -5.607778427      1.250      1.491
REMARK  8 active torsions:
REMARK  status: ('A' for Active; 'I' for Inactive)
REMARK    1  A    between atoms: C2_2  and  C3_3 
REMARK    2  A    between atoms: C6_8  and  C7_9 
REMARK    3  A    between atoms: C7_9  and  N2_10 
REMARK    4  A    between atoms: C10_13  and  O1_14 
REMARK    5  A    between atoms: O1_14  and  C11_15 
REMARK    6  A    between atoms: C11_15  and  C12_16 
REMARK    7  A    between atoms: C12_16  and  N3_18 
REMARK    8  A    between atoms: C15_23  and  O2_24 
ROOT
HETATM    1  N2  UNL     1      -8.238  13.510  28.586  1.00  0.00    -0.360 N 
HETATM    2  C8  UNL     1      -8.592  14.914  28.840  1.00  0.00     0.127 C 
HETATM    3  C9  UNL     1      -8.644  15.690  27.570  1.00  0.00     0.052 C 
HETATM    4  C10 UNL     1      -7.398  15.586  26.801  1.00  0.00     0.130 C 
HETATM    5  C14 UNL     1      -7.051  14.036  26.545  1.00  0.00     0.115 C 
HETATM    6  C15 UNL     1      -7.015  13.471  27.959  1.00  0.00     0.116 C 
ENDROOT
BRANCH   1   7
HETATM    7  C7  UNL     1      -9.394  12.759  28.238  1.00  0.00     0.182 C 
BRANCH   7   8
HETATM    8  C6  UNL     1      -9.203  11.378  28.823  1.00  0.00     0.034 A 
HETATM    9  N1  UNL     1      -8.562  10.339  28.354  1.00  0.00    -0.361 N 
HETATM   10  C4  UNL     1      -8.598   9.299  29.231  1.00  0.00     0.012 A 
ATOM     11  H1  UNL     1      -8.095  10.311  27.447  1.00  0.00     0.165 HD
HETATM   12  C3  UNL     1      -9.317   9.689  30.309  1.00  0.00    -0.028 A 
HETATM   13  C5  UNL     1      -7.878   8.009  29.036  1.00  0.00     0.068 C 
HETATM   14  C16 UNL     1      -9.702  10.987  30.066  1.00  0.00    -0.030 A 
HETATM   15  C17 UNL     1     -10.399  11.970  30.937  1.00  0.00     0.051 C 
BRANCH  12  16
HETATM   16  C2  UNL     1      -9.568   8.972  31.580  1.00  0.00     0.036 C 
HETATM   17  C1  UNL     1     -10.755   8.052  31.488  1.00  0.00     0.010 C 
ENDBRANCH  12  16
ENDBRANCH   7   8
ENDBRANCH   1   7
BRANCH   6  18
HETATM   18  O2  UNL     1      -6.233  12.358  28.027  1.00  0.00    -0.349 OA
ATOM     19  H2  UNL     1      -5.407  12.374  28.495  1.00  0.00     0.219 HD
ENDBRANCH   6  18
BRANCH   4  20
HETATM   20  O1  UNL     1      -7.484  16.067  25.534  1.00  0.00    -0.383 OA
BRANCH  20  21
HETATM   21  C11 UNL     1      -7.851  15.105  24.633  1.00  0.00     0.200 C 
BRANCH  21  22
HETATM   22  C12 UNL     1      -8.799  15.635  23.598  1.00  0.00     0.203 C 
HETATM   23  C13 UNL     1      -8.664  17.189  23.699  1.00  0.00     0.042 C 
BRANCH  22  24
HETATM   24  N3  UNL     1      -8.254  15.308  22.266  1.00  0.00    -0.073 N 
ATOM     25  H33 UNL     1      -8.102  14.308  22.137  1.00  0.00     0.274 HD
ATOM     26  H32 UNL     1      -8.934  15.442  21.518  1.00  0.00     0.274 HD
ATOM     27  H31 UNL     1      -7.404  15.856  22.128  1.00  0.00     0.274 HD
ENDBRANCH  22  24
ENDBRANCH  21  22
ENDBRANCH  20  21
ENDBRANCH   4  20
TORSDOF 8
ENDMDL
MODEL 4
REMARK VINA RESULT: -5.538518456      4.575      6.276
REMARK  8 active torsions:
REMARK  status: ('A' for Active; 'I' for Inactive)
REMARK    1  A    between atoms: C2_2  and  C3_3 
REMARK    2  A    between atoms: C6_8  and  C7_9 
REMARK    3  A    between atoms: C7_9  and  N2_10 
REMARK    4  A    between atoms: C10_13  and  O1_14 
REMARK    5  A    between atoms: O1_14  and  C11_15 
REMARK    6  A    between atoms: C11_15  and  C12_16 
REMARK    7  A    between atoms: C12_16  and  N3_18 
REMARK    8  A    between atoms: C15_23  and  O2_24 
ROOT
HETATM    1  N2  UNL     1      -7.442  15.581  26.155  1.00  0.00    -0.360 N 
HETATM    2  C8  UNL     1      -7.875  14.443  25.330  1.00  0.00     0.127 C 
HETATM    3  C9  UNL     1      -8.041  14.849  23.906  1.00  0.00     0.052 C 
HETATM    4  C10 UNL     1      -8.947  15.993  23.754  1.00  0.00     0.130 C 
HETATM    5  C14 UNL     1      -8.434  17.213  24.671  1.00  0.00     0.115 C 
HETATM    6  C15 UNL     1      -8.380  16.580  26.055  1.00  0.00     0.116 C 
ENDROOT
BRANCH   1   7
HETATM    7  C7  UNL     1      -6.029  15.734  26.090  1.00  0.00     0.182 C 
BRANCH   7   8
HETATM    8  C6  UNL     1      -5.444  14.764  27.091  1.00  0.00     0.034 A 
HETATM    9  N1  UNL     1      -6.028  13.870  27.847  1.00  0.00    -0.361 N 
HETATM   10  C4  UNL     1      -5.117  13.170  28.576  1.00  0.00     0.012 A 
ATOM     11  H1  UNL     1      -7.036  13.718  27.885  1.00  0.00     0.165 HD
HETATM   12  C3  UNL     1      -3.888  13.656  28.284  1.00  0.00    -0.028 A 
HETATM   13  C5  UNL     1      -5.453  12.017  29.457  1.00  0.00     0.068 C 
HETATM   14  C16 UNL     1      -4.079  14.654  27.358  1.00  0.00    -0.030 A 
HETATM   15  C17 UNL     1      -3.096  15.457  26.582  1.00  0.00     0.051 C 
BRANCH  12  16
HETATM   16  C2  UNL     1      -2.559  13.177  28.728  1.00  0.00     0.036 C 
HETATM   17  C1  UNL     1      -2.018  12.094  27.834  1.00  0.00     0.010 C 
ENDBRANCH  12  16
ENDBRANCH   7   8
ENDBRANCH   1   7
BRANCH   6  18
HETATM   18  O2  UNL     1      -8.502  17.520  27.033  1.00  0.00    -0.349 OA
ATOM     19  H2  UNL     1      -8.738  18.415  26.818  1.00  0.00     0.219 HD
ENDBRANCH   6  18
BRANCH   4  20
HETATM   20  O1  UNL     1      -8.938  16.550  22.515  1.00  0.00    -0.383 OA
BRANCH  20  21
HETATM   21  C11 UNL     1      -8.552  15.665  21.546  1.00  0.00     0.200 C 
BRANCH  21  22
HETATM   22  C12 UNL     1      -9.277  15.894  20.253  1.00  0.00     0.203 C 
HETATM   23  C13 UNL     1      -8.436  16.987  19.518  1.00  0.00     0.042 C 
BRANCH  22  24
HETATM   24  N3  UNL     1      -9.117  14.688  19.417  1.00  0.00    -0.073 N 
ATOM     25  H33 UNL     1      -8.726  14.894  18.499  1.00  0.00     0.274 HD
ATOM     26  H32 UNL     1      -8.372  14.075  19.749  1.00  0.00     0.274 HD
ATOM     27  H31 UNL     1     -10.020  14.217  19.364  1.00  0.00     0.274 HD
ENDBRANCH  22  24
ENDBRANCH  21  22
ENDBRANCH  20  21
ENDBRANCH   4  20
TORSDOF 8
ENDMDL
MODEL 5
REMARK VINA RESULT: -5.495196203      2.030      7.813
REMARK  8 active torsions:
REMARK  status: ('A' for Active; 'I' for Inactive)
REMARK    1  A    between atoms: C2_2  and  C3_3 
REMARK    2  A    between atoms: C6_8  and  C7_9 
REMARK    3  A    between atoms: C7_9  and  N2_10 
REMARK    4  A    between atoms: C10_13  and  O1_14 
REMARK    5  A    between atoms: O1_14  and  C11_15 
REMARK    6  A    between atoms: C11_15  and  C12_16 
REMARK    7  A    between atoms: C12_16  and  N3_18 
REMARK    8  A    between atoms: C15_23  and  O2_24 
ROOT
HETATM    1  N2  UNL     1      -9.003  12.184  28.211  1.00  0.00    -0.360 N 
HETATM    2  C8  UNL     1     -10.457  12.251  28.418  1.00  0.00     0.127 C 
HETATM    3  C9  UNL     1     -10.809  11.953  29.835  1.00  0.00     0.052 C 
HETATM    4  C10 UNL     1     -10.265  10.667  30.286  1.00  0.00     0.130 C 
HETATM    5  C14 UNL     1      -8.675  10.639  30.043  1.00  0.00     0.115 C 
HETATM    6  C15 UNL     1      -8.568  10.926  28.551  1.00  0.00     0.116 C 
ENDROOT
BRANCH   1   7
HETATM    7  C7  UNL     1      -8.392  13.419  28.567  1.00  0.00     0.182 C 
BRANCH   7   8
HETATM    8  C6  UNL     1      -8.209  14.194  27.282  1.00  0.00     0.034 A 
HETATM    9  N1  UNL     1      -7.996  13.775  26.061  1.00  0.00    -0.361 N 
HETATM   10  C4  UNL     1      -7.938  14.816  25.185  1.00  0.00     0.012 A 
ATOM     11  H1  UNL     1      -7.886  12.796  25.799  1.00  0.00     0.165 HD
HETATM   12  C3  UNL     1      -8.105  15.961  25.888  1.00  0.00    -0.028 A 
HETATM   13  C5  UNL     1      -7.807  14.666  23.709  1.00  0.00     0.068 C 
HETATM   14  C16 UNL     1      -8.274  15.586  27.200  1.00  0.00    -0.030 A 
HETATM   15  C17 UNL     1      -8.619  16.392  28.401  1.00  0.00     0.051 C 
BRANCH  12  16
HETATM   16  C2  UNL     1      -8.224  17.353  25.399  1.00  0.00     0.036 C 
HETATM   17  C1  UNL     1      -8.635  17.413  23.952  1.00  0.00     0.010 C 
ENDBRANCH  12  16
ENDBRANCH   7   8
ENDBRANCH   1   7
BRANCH   6  18
HETATM   18  O2  UNL     1      -7.411  10.427  28.034  1.00  0.00    -0.349 OA
ATOM     19  H2  UNL     1      -6.600  10.918  28.098  1.00  0.00     0.219 HD
ENDBRANCH   6  18
BRANCH   4  20
HETATM   20  O1  UNL     1     -10.347  10.467  31.627  1.00  0.00    -0.383 OA
BRANCH  20  21
HETATM   21  C11 UNL     1     -11.557  10.849  32.140  1.00  0.00     0.200 C 
BRANCH  21  22
HETATM   22  C12 UNL     1     -12.491   9.687  32.305  1.00  0.00     0.203 C 
HETATM   23  C13 UNL     1     -11.621   8.574  32.971  1.00  0.00     0.042 C 
BRANCH  22  24
HETATM   24  N3  UNL     1     -13.485  10.041  33.338  1.00  0.00    -0.073 N 
ATOM     25  H33 UNL     1     -13.061  10.216  34.249  1.00  0.00     0.274 HD
ATOM     26  H32 UNL     1     -13.889  10.967  33.195  1.00  0.00     0.274 HD
ATOM     27  H31 UNL     1     -14.189   9.304  33.366  1.00  0.00     0.274 HD
ENDBRANCH  22  24
ENDBRANCH  21  22
ENDBRANCH  20  21
ENDBRANCH   4  20
TORSDOF 8
ENDMDL
