MODEL 1
REMARK VINA RESULT: -6.331392627      0.000      0.000
REMARK  17 active torsions:
REMARK  status: ('A' for Active; 'I' for Inactive)
REMARK    1  A    between atoms: N5_12  and  C4_13 
REMARK    2  A    between atoms: C5_14  and  N6_15 
REMARK    3  A    between atoms: C7_20  and  N7_21 
REMARK    4  A    between atoms: C8_25  and  O1_26 
REMARK    5  A    between atoms: C9_28  and  O2_29 
REMARK    6  A    between atoms: O2_29  and  C10_30 
REMARK    7  A    between atoms: C11_31  and  O3_32 
REMARK    8  A    between atoms: C12_34  and  N8_35 
REMARK    9  A    between atoms: C14_40  and  N9_41 
REMARK   10  A    between atoms: C15_45  and  O4_46 
REMARK   11  A    between atoms: O4_46  and  C16_47 
REMARK   12  A    between atoms: C16_47  and  C17_48 
REMARK   13  A    between atoms: C17_48  and  N10_49 
REMARK   14  A    between atoms: C17_48  and  C18_53 
REMARK   15  A    between atoms: C18_53  and  O5_54 
REMARK   16  A    between atoms: C18_53  and  O6_56 
REMARK   17  A    between atoms: N11_59  and  O7_60 
ROOT
HETATM    1  C4  UNL     1      31.536  27.301  25.326  1.00  0.00     0.173 C 
HETATM    2  C5  UNL     1      31.475  25.995  24.623  1.00  0.00     0.212 C 
HETATM    3  C6  UNL     1      32.018  26.051  23.181  1.00  0.00     0.070 C 
HETATM    4  C7  UNL     1      31.005  27.027  22.558  1.00  0.00     0.216 C 
HETATM    5  C8  UNL     1      31.299  28.334  23.202  1.00  0.00     0.179 C 
HETATM    6  C9  UNL     1      30.877  28.493  24.647  1.00  0.00     0.179 C 
ENDROOT
BRANCH   6   7
HETATM    7  O2  UNL     1      31.427  29.596  25.204  1.00  0.00    -0.370 OA
BRANCH   7   8
HETATM    8  C10 UNL     1      31.112  30.841  25.231  1.00  0.00     0.183 C 
HETATM    9  C11 UNL     1      32.158  31.921  25.012  1.00  0.00     0.180 C 
HETATM   10  C12 UNL     1      31.419  33.223  24.688  1.00  0.00     0.216 C 
HETATM   11  C13 UNL     1      30.353  33.604  25.623  1.00  0.00     0.071 C 
HETATM   12  C14 UNL     1      29.454  32.512  26.076  1.00  0.00     0.217 C 
HETATM   13  C15 UNL     1      30.420  31.363  26.510  1.00  0.00     0.183 C 
BRANCH   9  14
HETATM   14  O3  UNL     1      32.965  31.767  23.925  1.00  0.00    -0.391 OA
ATOM     15  H3  UNL     1      32.557  31.895  23.077  1.00  0.00     0.210 HD
ENDBRANCH   9  14
BRANCH  10  16
HETATM   16  N8  UNL     1      30.981  33.204  23.289  1.00  0.00    -0.072 N 
ATOM     17  H83 UNL     1      30.903  32.255  22.923  1.00  0.00     0.274 HD
ATOM     18  H82 UNL     1      30.005  33.482  23.188  1.00  0.00     0.274 HD
ATOM     19  H81 UNL     1      31.606  33.783  22.727  1.00  0.00     0.274 HD
ENDBRANCH  10  16
BRANCH  12  20
HETATM   20  N9  UNL     1      28.472  32.092  25.158  1.00  0.00    -0.072 N 
ATOM     21  H93 UNL     1      27.812  32.851  24.988  1.00  0.00     0.274 HD
ATOM     22  H92 UNL     1      28.887  31.995  24.231  1.00  0.00     0.274 HD
ATOM     23  H91 UNL     1      27.963  31.241  25.399  1.00  0.00     0.274 HD
ENDBRANCH  12  20
BRANCH  13  24
HETATM   24  O4  UNL     1      31.318  32.019  27.250  1.00  0.00    -0.379 OA
BRANCH  24  25
HETATM   25  C16 UNL     1      31.699  31.793  28.486  1.00  0.00     0.206 C 
BRANCH  25  26
HETATM   26  C17 UNL     1      33.188  31.755  28.667  1.00  0.00     0.261 C 
BRANCH  26  27
HETATM   27  N10 UNL     1      33.827  32.914  28.120  1.00  0.00    -0.068 N 
ATOM     28 3H10 UNL     1      34.817  32.742  27.945  1.00  0.00     0.275 HD
ATOM     29 2H10 UNL     1      33.522  33.086  27.162  1.00  0.00     0.275 HD
ATOM     30 1H10 UNL     1      33.692  33.739  28.704  1.00  0.00     0.275 HD
ENDBRANCH  26  27
BRANCH  26  31
HETATM   31  C18 UNL     1      33.809  30.547  27.987  1.00  0.00     0.286 C 
BRANCH  31  32
HETATM   32  O5  UNL     1      32.831  29.559  27.932  1.00  0.00    -0.369 OA
ATOM     33  H5  UNL     1      32.965  29.077  27.125  1.00  0.00     0.212 HD
ENDBRANCH  31  32
BRANCH  31  34
HETATM   34  O6  UNL     1      34.950  30.122  28.671  1.00  0.00    -0.369 OA
ATOM     35  H6  UNL     1      35.588  29.754  28.071  1.00  0.00     0.212 HD
ENDBRANCH  31  34
ENDBRANCH  26  31
ENDBRANCH  25  26
ENDBRANCH  24  25
ENDBRANCH  13  24
ENDBRANCH   7   8
ENDBRANCH   6   7
BRANCH   1  36
HETATM   36  N5  UNL     1      31.267  27.094  26.693  1.00  0.00    -0.252 N 
HETATM   37  N4  UNL     1      30.098  27.496  27.249  1.00  0.00    -0.237 N 
HETATM   38  N3  UNL     1      30.046  27.219  28.508  1.00  0.00    -0.267 N 
ATOM     39  H4  UNL     1      29.351  27.962  26.735  1.00  0.00     0.208 HD
HETATM   40  C3  UNL     1      31.210  26.605  28.849  1.00  0.00     0.178 A 
ATOM     41  H3  UNL     1      29.269  27.424  29.137  1.00  0.00     0.190 HD
HETATM   42  N2  UNL     1      31.721  26.099  30.069  1.00  0.00    -0.284 N 
HETATM   43  C19 UNL     1      31.960  26.538  27.689  1.00  0.00     0.174 A 
HETATM   44  N1  UNL     1      32.859  25.583  30.156  1.00  0.00    -0.314 N 
ATOM     45  H2  UNL     1      31.142  26.157  30.907  1.00  0.00     0.188 HD
HETATM   46  C2  UNL     1      33.705  25.479  29.025  1.00  0.00     0.202 A 
ATOM     47  H1  UNL     1      33.182  25.230  31.056  1.00  0.00     0.182 HD
HETATM   48  C1  UNL     1      34.380  24.109  28.934  1.00  0.00     0.053 C 
HETATM   49  N11 UNL     1      33.223  25.919  27.753  1.00  0.00    -0.119 NA
BRANCH  49  50
HETATM   50  O7  UNL     1      34.212  26.768  27.283  1.00  0.00    -0.305 OA
ATOM     51  H7  UNL     1      34.073  26.797  26.343  1.00  0.00     0.237 HD
ENDBRANCH  49  50
ENDBRANCH   1  36
BRANCH   5  52
HETATM   52  O1  UNL     1      30.843  29.291  22.337  1.00  0.00    -0.391 OA
ATOM     53  H1  UNL     1      31.369  30.064  22.502  1.00  0.00     0.210 HD
ENDBRANCH   5  52
BRANCH   2  54
HETATM   54  N6  UNL     1      32.393  25.105  25.326  1.00  0.00    -0.073 N 
ATOM     55  H63 UNL     1      32.905  24.479  24.704  1.00  0.00     0.274 HD
ATOM     56  H62 UNL     1      33.203  25.587  25.717  1.00  0.00     0.274 HD
ATOM     57  H61 UNL     1      31.839  24.613  26.026  1.00  0.00     0.274 HD
ENDBRANCH   2  54
BRANCH   4  58
HETATM   58  N7  UNL     1      29.698  26.551  22.854  1.00  0.00    -0.072 N 
ATOM     59  H73 UNL     1      29.655  25.535  22.930  1.00  0.00     0.274 HD
ATOM     60  H72 UNL     1      29.404  26.772  23.805  1.00  0.00     0.274 HD
ATOM     61  H71 UNL     1      29.061  26.921  22.147  1.00  0.00     0.274 HD
ENDBRANCH   4  58
TORSDOF 17
ENDMDL
MODEL 2
REMARK VINA RESULT: -6.327934556      1.679      1.887
REMARK  17 active torsions:
REMARK  status: ('A' for Active; 'I' for Inactive)
REMARK    1  A    between atoms: N5_12  and  C4_13 
REMARK    2  A    between atoms: C5_14  and  N6_15 
REMARK    3  A    between atoms: C7_20  and  N7_21 
REMARK    4  A    between atoms: C8_25  and  O1_26 
REMARK    5  A    between atoms: C9_28  and  O2_29 
REMARK    6  A    between atoms: O2_29  and  C10_30 
REMARK    7  A    between atoms: C11_31  and  O3_32 
REMARK    8  A    between atoms: C12_34  and  N8_35 
REMARK    9  A    between atoms: C14_40  and  N9_41 
REMARK   10  A    between atoms: C15_45  and  O4_46 
REMARK   11  A    between atoms: O4_46  and  C16_47 
REMARK   12  A    between atoms: C16_47  and  C17_48 
REMARK   13  A    between atoms: C17_48  and  N10_49 
REMARK   14  A    between atoms: C17_48  and  C18_53 
REMARK   15  A    between atoms: C18_53  and  O5_54 
REMARK   16  A    between atoms: C18_53  and  O6_56 
REMARK   17  A    between atoms: N11_59  and  O7_60 
ROOT
HETATM    1  C4  UNL     1      29.935  27.762  25.820  1.00  0.00     0.173 C 
HETATM    2  C5  UNL     1      28.881  26.785  25.444  1.00  0.00     0.212 C 
HETATM    3  C6  UNL     1      28.389  26.945  23.992  1.00  0.00     0.070 C 
HETATM    4  C7  UNL     1      27.787  28.359  24.073  1.00  0.00     0.216 C 
HETATM    5  C8  UNL     1      28.958  29.255  24.255  1.00  0.00     0.179 C 
HETATM    6  C9  UNL     1      29.628  29.238  25.612  1.00  0.00     0.179 C 
ENDROOT
BRANCH   6   7
HETATM    7  O2  UNL     1      30.823  29.871  25.582  1.00  0.00    -0.370 OA
BRANCH   7   8
HETATM    8  C10 UNL     1      31.209  31.044  25.232  1.00  0.00     0.183 C 
HETATM    9  C11 UNL     1      32.676  31.343  24.969  1.00  0.00     0.180 C 
HETATM   10  C12 UNL     1      32.747  32.658  24.185  1.00  0.00     0.216 C 
HETATM   11  C13 UNL     1      32.000  33.786  24.756  1.00  0.00     0.071 C 
HETATM   12  C14 UNL     1      30.642  33.480  25.274  1.00  0.00     0.217 C 
HETATM   13  C15 UNL     1      30.838  32.215  26.169  1.00  0.00     0.183 C 
BRANCH   9  14
HETATM   14  O3  UNL     1      33.329  30.478  24.144  1.00  0.00    -0.391 OA
ATOM     15  H3  UNL     1      34.278  30.526  24.151  1.00  0.00     0.210 HD
ENDBRANCH   9  14
BRANCH  10  16
HETATM   16  N8  UNL     1      32.428  32.408  22.776  1.00  0.00    -0.072 N 
ATOM     17  H83 UNL     1      33.250  32.480  22.177  1.00  0.00     0.274 HD
ATOM     18  H82 UNL     1      32.204  31.428  22.600  1.00  0.00     0.274 HD
ATOM     19  H81 UNL     1      31.678  33.033  22.479  1.00  0.00     0.274 HD
ENDBRANCH  10  16
BRANCH  12  20
HETATM   20  N9  UNL     1      29.628  33.322  24.310  1.00  0.00    -0.072 N 
ATOM     21  H93 UNL     1      29.308  34.237  23.993  1.00  0.00     0.274 HD
ATOM     22  H92 UNL     1      30.029  32.957  23.446  1.00  0.00     0.274 HD
ATOM     23  H91 UNL     1      28.827  32.754  24.585  1.00  0.00     0.274 HD
ENDBRANCH  12  20
BRANCH  13  24
HETATM   24  O4  UNL     1      31.913  32.549  26.890  1.00  0.00    -0.379 OA
BRANCH  24  25
HETATM   25  C16 UNL     1      31.996  32.852  28.165  1.00  0.00     0.206 C 
BRANCH  25  26
HETATM   26  C17 UNL     1      33.133  32.180  28.878  1.00  0.00     0.261 C 
BRANCH  26  27
HETATM   27  N10 UNL     1      34.264  33.046  29.022  1.00  0.00    -0.068 N 
ATOM     28 3H10 UNL     1      34.613  33.353  28.114  1.00  0.00     0.275 HD
ATOM     29 2H10 UNL     1      33.991  33.951  29.405  1.00  0.00     0.275 HD
ATOM     30 1H10 UNL     1      35.006  32.619  29.577  1.00  0.00     0.275 HD
ENDBRANCH  26  27
BRANCH  26  31
HETATM   31  C18 UNL     1      33.615  30.946  28.136  1.00  0.00     0.286 C 
BRANCH  31  32
HETATM   32  O5  UNL     1      32.576  30.020  28.161  1.00  0.00    -0.369 OA
ATOM     33  H5  UNL     1      32.808  29.322  27.560  1.00  0.00     0.212 HD
ENDBRANCH  31  32
BRANCH  31  34
HETATM   34  O6  UNL     1      34.784  30.443  28.712  1.00  0.00    -0.369 OA
ATOM     35  H6  UNL     1      34.831  29.499  28.613  1.00  0.00     0.212 HD
ENDBRANCH  31  34
ENDBRANCH  26  31
ENDBRANCH  25  26
ENDBRANCH  24  25
ENDBRANCH  13  24
ENDBRANCH   7   8
ENDBRANCH   6   7
BRANCH   1  36
HETATM   36  N5  UNL     1      30.493  27.374  27.053  1.00  0.00    -0.252 N 
HETATM   37  N4  UNL     1      29.752  27.362  28.188  1.00  0.00    -0.237 N 
HETATM   38  N3  UNL     1      30.444  26.982  29.208  1.00  0.00    -0.267 N 
ATOM     39  H4  UNL     1      28.767  27.622  28.230  1.00  0.00     0.208 HD
HETATM   40  C3  UNL     1      31.707  26.721  28.782  1.00  0.00     0.178 A 
ATOM     41  H3  UNL     1      30.103  26.894  30.166  1.00  0.00     0.190 HD
HETATM   42  N2  UNL     1      32.887  26.296  29.440  1.00  0.00    -0.284 N 
HETATM   43  C19 UNL     1      31.712  26.975  27.423  1.00  0.00     0.174 A 
HETATM   44  N1  UNL     1      33.973  26.140  28.835  1.00  0.00    -0.314 N 
ATOM     45  H2  UNL     1      32.852  26.111  30.443  1.00  0.00     0.188 HD
HETATM   46  C2  UNL     1      34.079  26.385  27.445  1.00  0.00     0.202 A 
ATOM     47  H1  UNL     1      34.795  25.829  29.353  1.00  0.00     0.182 HD
HETATM   48  C1  UNL     1      34.873  25.292  26.725  1.00  0.00     0.053 C 
HETATM   49  N11 UNL     1      32.909  26.760  26.713  1.00  0.00    -0.119 NA
BRANCH  49  50
HETATM   50  O7  UNL     1      33.284  27.902  26.022  1.00  0.00    -0.305 OA
ATOM     51  H7  UNL     1      32.485  28.198  25.602  1.00  0.00     0.237 HD
ENDBRANCH  49  50
ENDBRANCH   1  36
BRANCH   5  52
HETATM   52  O1  UNL     1      28.566  30.484  23.798  1.00  0.00    -0.391 OA
ATOM     53  H1  UNL     1      29.360  30.999  23.718  1.00  0.00     0.210 HD
ENDBRANCH   5  52
BRANCH   2  54
HETATM   54  N6  UNL     1      29.508  25.469  25.476  1.00  0.00    -0.073 N 
ATOM     55  H63 UNL     1      29.899  25.186  24.577  1.00  0.00     0.274 HD
ATOM     56  H62 UNL     1      30.379  25.448  26.006  1.00  0.00     0.274 HD
ATOM     57  H61 UNL     1      28.804  24.822  25.831  1.00  0.00     0.274 HD
ENDBRANCH   2  54
BRANCH   4  58
HETATM   58  N7  UNL     1      26.894  28.393  25.181  1.00  0.00    -0.072 N 
ATOM     59  H73 UNL     1      25.941  28.134  24.927  1.00  0.00     0.274 HD
ATOM     60  H72 UNL     1      27.066  27.641  25.849  1.00  0.00     0.274 HD
ATOM     61  H71 UNL     1      26.952  29.319  25.604  1.00  0.00     0.274 HD
ENDBRANCH   4  58
TORSDOF 17
ENDMDL
MODEL 3
REMARK VINA RESULT: -6.220520702      2.180      2.997
REMARK  17 active torsions:
REMARK  status: ('A' for Active; 'I' for Inactive)
REMARK    1  A    between atoms: N5_12  and  C4_13 
REMARK    2  A    between atoms: C5_14  and  N6_15 
REMARK    3  A    between atoms: C7_20  and  N7_21 
REMARK    4  A    between atoms: C8_25  and  O1_26 
REMARK    5  A    between atoms: C9_28  and  O2_29 
REMARK    6  A    between atoms: O2_29  and  C10_30 
REMARK    7  A    between atoms: C11_31  and  O3_32 
REMARK    8  A    between atoms: C12_34  and  N8_35 
REMARK    9  A    between atoms: C14_40  and  N9_41 
REMARK   10  A    between atoms: C15_45  and  O4_46 
REMARK   11  A    between atoms: O4_46  and  C16_47 
REMARK   12  A    between atoms: C16_47  and  C17_48 
REMARK   13  A    between atoms: C17_48  and  N10_49 
REMARK   14  A    between atoms: C17_48  and  C18_53 
REMARK   15  A    between atoms: C18_53  and  O5_54 
REMARK   16  A    between atoms: C18_53  and  O6_56 
REMARK   17  A    between atoms: N11_59  and  O7_60 
ROOT
HETATM    1  C4  UNL     1      30.589  26.124  26.949  1.00  0.00     0.173 C 
HETATM    2  C5  UNL     1      29.660  24.996  26.686  1.00  0.00     0.212 C 
HETATM    3  C6  UNL     1      28.918  25.115  25.340  1.00  0.00     0.070 C 
HETATM    4  C7  UNL     1      28.117  26.404  25.596  1.00  0.00     0.216 C 
HETATM    5  C8  UNL     1      29.142  27.479  25.644  1.00  0.00     0.179 C 
HETATM    6  C9  UNL     1      30.018  27.532  26.877  1.00  0.00     0.179 C 
ENDROOT
BRANCH   6   7
HETATM    7  O2  UNL     1      31.074  28.359  26.696  1.00  0.00    -0.370 OA
BRANCH   7   8
HETATM    8  C10 UNL     1      31.601  28.933  25.676  1.00  0.00     0.183 C 
HETATM    9  C11 UNL     1      33.076  28.760  25.352  1.00  0.00     0.180 C 
HETATM   10  C12 UNL     1      33.285  29.198  23.898  1.00  0.00     0.216 C 
HETATM   11  C13 UNL     1      32.746  30.518  23.544  1.00  0.00     0.071 C 
HETATM   12  C14 UNL     1      31.394  30.838  24.069  1.00  0.00     0.217 C 
HETATM   13  C15 UNL     1      31.464  30.469  25.586  1.00  0.00     0.183 C 
BRANCH   9  14
HETATM   14  O3  UNL     1      33.544  27.480  25.338  1.00  0.00    -0.391 OA
ATOM     15  H3  UNL     1      32.889  26.793  25.369  1.00  0.00     0.210 HD
ENDBRANCH   9  14
BRANCH  10  16
HETATM   16  N8  UNL     1      32.843  28.132  22.995  1.00  0.00    -0.072 N 
ATOM     17  H83 UNL     1      32.046  28.416  22.426  1.00  0.00     0.274 HD
ATOM     18  H82 UNL     1      33.510  27.966  22.241  1.00  0.00     0.274 HD
ATOM     19  H81 UNL     1      32.651  27.286  23.532  1.00  0.00     0.274 HD
ENDBRANCH  10  16
BRANCH  12  20
HETATM   20  N9  UNL     1      30.308  30.237  23.404  1.00  0.00    -0.072 N 
ATOM     21  H93 UNL     1      30.517  29.256  23.219  1.00  0.00     0.274 HD
ATOM     22  H92 UNL     1      29.522  30.141  24.046  1.00  0.00     0.274 HD
ATOM     23  H91 UNL     1      29.998  30.690  22.544  1.00  0.00     0.274 HD
ENDBRANCH  12  20
BRANCH  13  24
HETATM   24  O4  UNL     1      32.619  31.029  25.955  1.00  0.00    -0.379 OA
BRANCH  24  25
HETATM   25  C16 UNL     1      32.827  32.069  26.730  1.00  0.00     0.206 C 
BRANCH  25  26
HETATM   26  C17 UNL     1      32.524  31.819  28.178  1.00  0.00     0.261 C 
BRANCH  26  27
HETATM   27  N10 UNL     1      31.938  32.962  28.810  1.00  0.00    -0.068 N 
ATOM     28 3H10 UNL     1      31.990  32.890  29.827  1.00  0.00     0.275 HD
ATOM     29 2H10 UNL     1      32.514  33.794  28.678  1.00  0.00     0.275 HD
ATOM     30 1H10 UNL     1      30.980  33.124  28.500  1.00  0.00     0.275 HD
ENDBRANCH  26  27
BRANCH  26  31
HETATM   31  C18 UNL     1      33.776  31.474  28.966  1.00  0.00     0.286 C 
BRANCH  31  32
HETATM   32  O5  UNL     1      34.505  32.649  29.115  1.00  0.00    -0.369 OA
ATOM     33  H5  UNL     1      35.390  32.401  29.353  1.00  0.00     0.212 HD
ENDBRANCH  31  32
BRANCH  31  34
HETATM   34  O6  UNL     1      34.510  30.476  28.320  1.00  0.00    -0.369 OA
ATOM     35  H6  UNL     1      35.429  30.712  28.268  1.00  0.00     0.212 HD
ENDBRANCH  31  34
ENDBRANCH  26  31
ENDBRANCH  25  26
ENDBRANCH  24  25
ENDBRANCH  13  24
ENDBRANCH   7   8
ENDBRANCH   6   7
BRANCH   1  36
HETATM   36  N5  UNL     1      31.396  25.799  28.056  1.00  0.00    -0.252 N 
HETATM   37  N4  UNL     1      31.147  26.316  29.284  1.00  0.00    -0.237 N 
HETATM   38  N3  UNL     1      31.998  25.900  30.160  1.00  0.00    -0.267 N 
ATOM     39  H4  UNL     1      30.381  26.955  29.490  1.00  0.00     0.208 HD
HETATM   40  C3  UNL     1      32.871  25.068  29.533  1.00  0.00     0.178 A 
ATOM     41  H3  UNL     1      32.013  26.151  31.149  1.00  0.00     0.190 HD
HETATM   42  N2  UNL     1      34.006  24.342  29.969  1.00  0.00    -0.284 N 
HETATM   43  C19 UNL     1      32.470  25.022  28.211  1.00  0.00     0.174 A 
HETATM   44  N1  UNL     1      34.692  23.641  29.190  1.00  0.00    -0.314 N 
ATOM     45  H2  UNL     1      34.275  24.392  30.952  1.00  0.00     0.188 HD
HETATM   46  C2  UNL     1      34.368  23.539  27.816  1.00  0.00     0.202 A 
ATOM     47  H1  UNL     1      35.500  23.134  29.553  1.00  0.00     0.182 HD
HETATM   48  C1  UNL     1      34.458  22.098  27.308  1.00  0.00     0.053 C 
HETATM   49  N11 UNL     1      33.199  24.202  27.327  1.00  0.00    -0.119 NA
BRANCH  49  50
HETATM   50  O7  UNL     1      33.645  24.930  26.235  1.00  0.00    -0.305 OA
ATOM     51  H7  UNL     1      33.739  25.817  26.563  1.00  0.00     0.237 HD
ENDBRANCH  49  50
ENDBRANCH   1  36
BRANCH   5  52
HETATM   52  O1  UNL     1      28.487  28.637  25.325  1.00  0.00    -0.391 OA
ATOM     53  H1  UNL     1      28.837  28.912  24.486  1.00  0.00     0.210 HD
ENDBRANCH   5  52
BRANCH   2  54
HETATM   54  N6  UNL     1      30.487  23.803  26.545  1.00  0.00    -0.073 N 
ATOM     55  H63 UNL     1      31.169  23.872  25.789  1.00  0.00     0.274 HD
ATOM     56  H62 UNL     1      31.154  23.681  27.307  1.00  0.00     0.274 HD
ATOM     57  H61 UNL     1      29.846  23.017  26.440  1.00  0.00     0.274 HD
ENDBRANCH   2  54
BRANCH   4  58
HETATM   58  N7  UNL     1      27.423  26.252  26.829  1.00  0.00    -0.072 N 
ATOM     59  H73 UNL     1      26.611  26.865  26.902  1.00  0.00     0.274 HD
ATOM     60  H72 UNL     1      26.930  25.362  26.897  1.00  0.00     0.274 HD
ATOM     61  H71 UNL     1      28.093  26.392  27.586  1.00  0.00     0.274 HD
ENDBRANCH   4  58
TORSDOF 17
ENDMDL
MODEL 4
REMARK VINA RESULT: -6.180309895      1.774      5.890
REMARK  17 active torsions:
REMARK  status: ('A' for Active; 'I' for Inactive)
REMARK    1  A    between atoms: N5_12  and  C4_13 
REMARK    2  A    between atoms: C5_14  and  N6_15 
REMARK    3  A    between atoms: C7_20  and  N7_21 
REMARK    4  A    between atoms: C8_25  and  O1_26 
REMARK    5  A    between atoms: C9_28  and  O2_29 
REMARK    6  A    between atoms: O2_29  and  C10_30 
REMARK    7  A    between atoms: C11_31  and  O3_32 
REMARK    8  A    between atoms: C12_34  and  N8_35 
REMARK    9  A    between atoms: C14_40  and  N9_41 
REMARK   10  A    between atoms: C15_45  and  O4_46 
REMARK   11  A    between atoms: O4_46  and  C16_47 
REMARK   12  A    between atoms: C16_47  and  C17_48 
REMARK   13  A    between atoms: C17_48  and  N10_49 
REMARK   14  A    between atoms: C17_48  and  C18_53 
REMARK   15  A    between atoms: C18_53  and  O5_54 
REMARK   16  A    between atoms: C18_53  and  O6_56 
REMARK   17  A    between atoms: N11_59  and  O7_60 
ROOT
HETATM    1  C4  UNL     1      30.222  29.203  23.981  1.00  0.00     0.173 C 
HETATM    2  C5  UNL     1      30.070  29.199  22.504  1.00  0.00     0.212 C 
HETATM    3  C6  UNL     1      30.184  27.794  21.881  1.00  0.00     0.070 C 
HETATM    4  C7  UNL     1      31.638  27.458  22.258  1.00  0.00     0.216 C 
HETATM    5  C8  UNL     1      31.615  27.297  23.735  1.00  0.00     0.179 C 
HETATM    6  C9  UNL     1      31.475  28.560  24.557  1.00  0.00     0.179 C 
ENDROOT
BRANCH   6   7
HETATM    7  O2  UNL     1      31.195  28.279  25.851  1.00  0.00    -0.370 OA
BRANCH   7   8
HETATM    8  C10 UNL     1      31.860  27.772  26.824  1.00  0.00     0.183 C 
HETATM    9  C11 UNL     1      31.272  27.697  28.224  1.00  0.00     0.180 C 
HETATM   10  C12 UNL     1      32.107  26.692  29.024  1.00  0.00     0.216 C 
HETATM   11  C13 UNL     1      33.560  26.901  28.997  1.00  0.00     0.071 C 
HETATM   12  C14 UNL     1      34.151  27.241  27.677  1.00  0.00     0.217 C 
HETATM   13  C15 UNL     1      33.245  28.388  27.125  1.00  0.00     0.183 C 
BRANCH   9  14
HETATM   14  O3  UNL     1      30.018  27.176  28.323  1.00  0.00    -0.391 OA
ATOM     15  H3  UNL     1      29.717  26.967  29.199  1.00  0.00     0.210 HD
ENDBRANCH   9  14
BRANCH  10  16
HETATM   16  N8  UNL     1      31.713  25.327  28.661  1.00  0.00    -0.072 N 
ATOM     17  H83 UNL     1      31.459  24.771  29.478  1.00  0.00     0.274 HD
ATOM     18  H82 UNL     1      30.814  25.302  28.180  1.00  0.00     0.274 HD
ATOM     19  H81 UNL     1      32.455  24.891  28.114  1.00  0.00     0.274 HD
ENDBRANCH  10  16
BRANCH  12  20
HETATM   20  N9  UNL     1      34.307  26.176  26.770  1.00  0.00    -0.072 N 
ATOM     21  H93 UNL     1      34.392  25.297  27.282  1.00  0.00     0.274 HD
ATOM     22  H92 UNL     1      33.431  26.016  26.273  1.00  0.00     0.274 HD
ATOM     23  H91 UNL     1      35.073  26.260  26.102  1.00  0.00     0.274 HD
ENDBRANCH  12  20
BRANCH  13  24
HETATM   24  O4  UNL     1      33.139  29.194  28.186  1.00  0.00    -0.379 OA
BRANCH  24  25
HETATM   25  C16 UNL     1      33.690  30.367  28.396  1.00  0.00     0.206 C 
BRANCH  25  26
HETATM   26  C17 UNL     1      33.046  31.488  27.635  1.00  0.00     0.261 C 
BRANCH  26  27
HETATM   27  N10 UNL     1      33.810  32.697  27.708  1.00  0.00    -0.068 N 
ATOM     28 3H10 UNL     1      33.319  33.413  28.243  1.00  0.00     0.275 HD
ATOM     29 2H10 UNL     1      34.629  32.581  28.305  1.00  0.00     0.275 HD
ATOM     30 1H10 UNL     1      34.072  33.041  26.784  1.00  0.00     0.275 HD
ENDBRANCH  26  27
BRANCH  26  31
HETATM   31  C18 UNL     1      31.661  31.809  28.168  1.00  0.00     0.286 C 
BRANCH  31  32
HETATM   32  O5  UNL     1      30.791  30.851  27.656  1.00  0.00    -0.369 OA
ATOM     33  H5  UNL     1      30.354  30.446  28.396  1.00  0.00     0.212 HD
ENDBRANCH  31  32
BRANCH  31  34
HETATM   34  O6  UNL     1      31.281  33.107  27.816  1.00  0.00    -0.369 OA
ATOM     35  H6  UNL     1      30.795  33.108  27.000  1.00  0.00     0.212 HD
ENDBRANCH  31  34
ENDBRANCH  26  31
ENDBRANCH  25  26
ENDBRANCH  24  25
ENDBRANCH  13  24
ENDBRANCH   7   8
ENDBRANCH   6   7
BRANCH   1  36
HETATM   36  N5  UNL     1      29.850  30.470  24.472  1.00  0.00    -0.252 N 
HETATM   37  N4  UNL     1      28.664  30.659  25.101  1.00  0.00    -0.237 N 
HETATM   38  N3  UNL     1      28.509  31.885  25.471  1.00  0.00    -0.267 N 
ATOM     39  H4  UNL     1      27.978  29.923  25.261  1.00  0.00     0.208 HD
HETATM   40  C3  UNL     1      29.615  32.579  25.094  1.00  0.00     0.178 A 
ATOM     41  H3  UNL     1      27.699  32.267  25.961  1.00  0.00     0.190 HD
HETATM   42  N2  UNL     1      29.997  33.938  25.211  1.00  0.00    -0.284 N 
HETATM   43  C19 UNL     1      30.442  31.665  24.468  1.00  0.00     0.174 A 
HETATM   44  N1  UNL     1      31.081  34.369  24.756  1.00  0.00    -0.314 N 
ATOM     45  H2  UNL     1      29.368  34.587  25.683  1.00  0.00     0.188 HD
HETATM   46  C2  UNL     1      31.990  33.513  24.089  1.00  0.00     0.202 A 
ATOM     47  H1  UNL     1      31.314  35.356  24.868  1.00  0.00     0.182 HD
HETATM   48  C1  UNL     1      33.436  33.750  24.533  1.00  0.00     0.053 C 
HETATM   49  N11 UNL     1      31.687  32.119  23.990  1.00  0.00    -0.119 NA
BRANCH  49  50
HETATM   50  O7  UNL     1      31.834  31.828  22.643  1.00  0.00    -0.305 OA
ATOM     51  H7  UNL     1      31.381  32.533  22.197  1.00  0.00     0.237 HD
ENDBRANCH  49  50
ENDBRANCH   1  36
BRANCH   5  52
HETATM   52  O1  UNL     1      32.682  26.498  24.043  1.00  0.00    -0.391 OA
ATOM     53  H1  UNL     1      33.424  26.859  23.571  1.00  0.00     0.210 HD
ENDBRANCH   5  52
BRANCH   2  54
HETATM   54  N6  UNL     1      28.698  29.612  22.229  1.00  0.00    -0.073 N 
ATOM     55  H63 UNL     1      28.285  30.166  22.980  1.00  0.00     0.274 HD
ATOM     56  H62 UNL     1      28.627  30.318  21.496  1.00  0.00     0.274 HD
ATOM     57  H61 UNL     1      28.177  28.760  22.022  1.00  0.00     0.274 HD
ENDBRANCH   2  54
BRANCH   4  58
HETATM   58  N7  UNL     1      32.462  28.539  21.837  1.00  0.00    -0.072 N 
ATOM     59  H73 UNL     1      33.341  28.587  22.350  1.00  0.00     0.274 HD
ATOM     60  H72 UNL     1      32.854  28.396  20.906  1.00  0.00     0.274 HD
ATOM     61  H71 UNL     1      31.915  29.398  21.908  1.00  0.00     0.274 HD
ENDBRANCH   4  58
TORSDOF 17
ENDMDL
MODEL 5
REMARK VINA RESULT: -6.163749060      1.625      2.154
REMARK  17 active torsions:
REMARK  status: ('A' for Active; 'I' for Inactive)
REMARK    1  A    between atoms: N5_12  and  C4_13 
REMARK    2  A    between atoms: C5_14  and  N6_15 
REMARK    3  A    between atoms: C7_20  and  N7_21 
REMARK    4  A    between atoms: C8_25  and  O1_26 
REMARK    5  A    between atoms: C9_28  and  O2_29 
REMARK    6  A    between atoms: O2_29  and  C10_30 
REMARK    7  A    between atoms: C11_31  and  O3_32 
REMARK    8  A    between atoms: C12_34  and  N8_35 
REMARK    9  A    between atoms: C14_40  and  N9_41 
REMARK   10  A    between atoms: C15_45  and  O4_46 
REMARK   11  A    between atoms: O4_46  and  C16_47 
REMARK   12  A    between atoms: C16_47  and  C17_48 
REMARK   13  A    between atoms: C17_48  and  N10_49 
REMARK   14  A    between atoms: C17_48  and  C18_53 
REMARK   15  A    between atoms: C18_53  and  O5_54 
REMARK   16  A    between atoms: C18_53  and  O6_56 
REMARK   17  A    between atoms: N11_59  and  O7_60 
ROOT
HETATM    1  C4  UNL     1      31.608  28.360  23.620  1.00  0.00     0.173 C 
HETATM    2  C5  UNL     1      31.723  27.136  22.787  1.00  0.00     0.212 C 
HETATM    3  C6  UNL     1      32.753  27.266  21.647  1.00  0.00     0.070 C 
HETATM    4  C7  UNL     1      32.098  28.394  20.831  1.00  0.00     0.216 C 
HETATM    5  C8  UNL     1      32.222  29.600  21.691  1.00  0.00     0.179 C 
HETATM    6  C9  UNL     1      31.316  29.670  22.902  1.00  0.00     0.179 C 
ENDROOT
BRANCH   6   7
HETATM    7  O2  UNL     1      31.697  30.656  23.747  1.00  0.00    -0.370 OA
BRANCH   7   8
HETATM    8  C10 UNL     1      31.149  31.736  24.172  1.00  0.00     0.183 C 
HETATM    9  C11 UNL     1      31.551  33.093  23.616  1.00  0.00     0.180 C 
HETATM   10  C12 UNL     1      30.456  34.093  23.999  1.00  0.00     0.216 C 
HETATM   11  C13 UNL     1      30.078  34.117  25.418  1.00  0.00     0.071 C 
HETATM   12  C14 UNL     1      29.929  32.797  26.081  1.00  0.00     0.217 C 
HETATM   13  C15 UNL     1      31.223  32.012  25.690  1.00  0.00     0.183 C 
BRANCH   9  14
HETATM   14  O3  UNL     1      31.582  33.202  22.258  1.00  0.00    -0.391 OA
ATOM     15  H3  UNL     1      31.227  34.004  21.893  1.00  0.00     0.210 HD
ENDBRANCH   9  14
BRANCH  10  16
HETATM   16  N8  UNL     1      29.310  33.937  23.099  1.00  0.00    -0.072 N 
ATOM     17  H83 UNL     1      29.551  33.414  22.256  1.00  0.00     0.274 HD
ATOM     18  H82 UNL     1      28.611  33.295  23.474  1.00  0.00     0.274 HD
ATOM     19  H81 UNL     1      28.916  34.853  22.884  1.00  0.00     0.274 HD
ENDBRANCH  10  16
BRANCH  12  20
HETATM   20  N9  UNL     1      28.747  32.087  25.798  1.00  0.00    -0.072 N 
ATOM     21  H93 UNL     1      28.706  31.243  26.369  1.00  0.00     0.274 HD
ATOM     22  H92 UNL     1      27.943  32.597  26.165  1.00  0.00     0.274 HD
ATOM     23  H91 UNL     1      28.586  31.847  24.819  1.00  0.00     0.274 HD
ENDBRANCH  12  20
BRANCH  13  24
HETATM   24  O4  UNL     1      32.177  32.919  25.919  1.00  0.00    -0.379 OA
BRANCH  24  25
HETATM   25  C16 UNL     1      33.321  32.780  26.548  1.00  0.00     0.206 C 
BRANCH  25  26
HETATM   26  C17 UNL     1      33.224  32.959  28.035  1.00  0.00     0.261 C 
BRANCH  26  27
HETATM   27  N10 UNL     1      34.342  33.679  28.565  1.00  0.00    -0.068 N 
ATOM     28 3H10 UNL     1      35.157  33.597  27.956  1.00  0.00     0.275 HD
ATOM     29 2H10 UNL     1      34.196  34.686  28.504  1.00  0.00     0.275 HD
ATOM     30 1H10 UNL     1      34.564  33.395  29.519  1.00  0.00     0.275 HD
ENDBRANCH  26  27
BRANCH  26  31
HETATM   31  C18 UNL     1      33.173  31.626  28.761  1.00  0.00     0.286 C 
BRANCH  31  32
HETATM   32  O5  UNL     1      34.334  30.934  28.433  1.00  0.00    -0.369 OA
ATOM     33  H5  UNL     1      34.089  30.027  28.290  1.00  0.00     0.212 HD
ENDBRANCH  31  32
BRANCH  31  34
HETATM   34  O6  UNL     1      32.020  30.916  28.418  1.00  0.00    -0.369 OA
ATOM     35  H6  UNL     1      32.149  29.983  28.540  1.00  0.00     0.212 HD
ENDBRANCH  31  34
ENDBRANCH  26  31
ENDBRANCH  25  26
ENDBRANCH  24  25
ENDBRANCH  13  24
ENDBRANCH   7   8
ENDBRANCH   6   7
BRANCH   1  36
HETATM   36  N5  UNL     1      30.850  28.058  24.768  1.00  0.00    -0.252 N 
HETATM   37  N4  UNL     1      29.498  27.984  24.719  1.00  0.00    -0.237 N 
HETATM   38  N3  UNL     1      28.991  27.700  25.871  1.00  0.00    -0.267 N 
ATOM     39  H4  UNL     1      28.947  28.133  23.874  1.00  0.00     0.208 HD
HETATM   40  C3  UNL     1      30.014  27.572  26.756  1.00  0.00     0.178 A 
ATOM     41  H3  UNL     1      27.999  27.591  26.080  1.00  0.00     0.190 HD
HETATM   42  N2  UNL     1      30.070  27.292  28.144  1.00  0.00    -0.284 N 
HETATM   43  C19 UNL     1      31.172  27.802  26.037  1.00  0.00     0.174 A 
HETATM   44  N1  UNL     1      31.151  27.246  28.775  1.00  0.00    -0.314 N 
ATOM     45  H2  UNL     1      29.199  27.121  28.647  1.00  0.00     0.188 HD
HETATM   46  C2  UNL     1      32.388  27.479  28.128  1.00  0.00     0.202 A 
ATOM     47  H1  UNL     1      31.139  27.037  29.773  1.00  0.00     0.182 HD
HETATM   48  C1  UNL     1      33.457  26.467  28.549  1.00  0.00     0.053 C 
HETATM   49  N11 UNL     1      32.403  27.709  26.717  1.00  0.00    -0.119 NA
BRANCH  49  50
HETATM   50  O7  UNL     1      33.139  28.873  26.564  1.00  0.00    -0.305 OA
ATOM     51  H7  UNL     1      32.753  29.301  25.808  1.00  0.00     0.237 HD
ENDBRANCH  49  50
ENDBRANCH   1  36
BRANCH   5  52
HETATM   52  O1  UNL     1      32.171  30.674  20.844  1.00  0.00    -0.391 OA
ATOM     53  H1  UNL     1      31.627  31.321  21.276  1.00  0.00     0.210 HD
ENDBRANCH   5  52
BRANCH   2  54
HETATM   54  N6  UNL     1      32.265  26.096  23.654  1.00  0.00    -0.073 N 
ATOM     55  H63 UNL     1      31.658  25.870  24.442  1.00  0.00     0.274 HD
ATOM     56  H62 UNL     1      32.265  25.171  23.224  1.00  0.00     0.274 HD
ATOM     57  H61 UNL     1      33.193  26.410  23.936  1.00  0.00     0.274 HD
ENDBRANCH   2  54
BRANCH   4  58
HETATM   58  N7  UNL     1      30.744  28.032  20.586  1.00  0.00    -0.072 N 
ATOM     59  H73 UNL     1      30.116  28.327  21.334  1.00  0.00     0.274 HD
ATOM     60  H72 UNL     1      30.322  28.572  19.831  1.00  0.00     0.274 HD
ATOM     61  H71 UNL     1      30.713  27.026  20.418  1.00  0.00     0.274 HD
ENDBRANCH   4  58
TORSDOF 17
ENDMDL
