MODEL 1
REMARK VINA RESULT: -6.979660181      0.000      0.000
REMARK  17 active torsions:
REMARK  status: ('A' for Active; 'I' for Inactive)
REMARK    1  A    between atoms: C2_2  and  O1_3 
REMARK    2  A    between atoms: C3_5  and  O2_6 
REMARK    3  A    between atoms: C4_8  and  S1_9 
REMARK    4  A    between atoms: S1_9  and  C5_10 
REMARK    5  A    between atoms: C7_12  and  N1_13 
REMARK    6  A    between atoms: C8_18  and  N3_19 
REMARK    7  A    between atoms: C9_24  and  O3_25 
REMARK    8  A    between atoms: C11_29  and  O4_30 
REMARK    9  A    between atoms: C12_32  and  N6_33 
REMARK   10  A    between atoms: N6_33  and  C13_36 
REMARK   11  A    between atoms: C13_36  and  O5_37 
REMARK   12  A    between atoms: C13_36  and  C14_39 
REMARK   13  A    between atoms: C14_39  and  O6_40 
REMARK   14  A    between atoms: C14_39  and  C15_42 
REMARK   15  A    between atoms: C15_42  and  O7_43 
REMARK   16  A    between atoms: C15_42  and  C16_45 
REMARK   17  A    between atoms: C16_45  and  N7_46 
ROOT
HETATM    1  C1  UNL     1      34.405  27.163  27.130  1.00  0.00     0.051 C 
HETATM    2  C2  UNL     1      33.229  27.702  26.294  1.00  0.00     0.112 C 
HETATM    3  C3  UNL     1      32.476  26.583  25.674  1.00  0.00     0.172 C 
HETATM    4  C4  UNL     1      31.049  26.436  25.955  1.00  0.00     0.137 C 
HETATM    5  C9  UNL     1      30.302  27.534  26.617  1.00  0.00     0.189 C 
HETATM    6  C10 UNL     1      29.151  27.972  25.765  1.00  0.00     0.102 C 
HETATM    7  N5  UNL     1      28.274  28.315  25.084  1.00  0.00    -0.194 NA
HETATM    8  C11 UNL     1      31.025  28.752  26.998  1.00  0.00     0.202 C 
HETATM    9  C12 UNL     1      32.499  28.712  27.068  1.00  0.00     0.257 C 
ENDROOT
BRANCH   5  10
HETATM   10  O3  UNL     1      29.636  27.041  27.776  1.00  0.00    -0.372 OA
ATOM     11  H3  UNL     1      29.505  27.746  28.401  1.00  0.00     0.212 HD
ENDBRANCH   5  10
BRANCH   4  12
HETATM   12  S1  UNL     1      30.632  24.897  26.839  1.00  0.00    -0.100 SA
BRANCH  12  13
HETATM   13  C5  UNL     1      31.786  24.474  28.117  1.00  0.00     0.090 A 
HETATM   14  C6  UNL     1      32.442  23.277  28.239  1.00  0.00     0.086 A 
HETATM   15  C7  UNL     1      33.331  23.060  29.260  1.00  0.00     0.117 A 
HETATM   16  N2  UNL     1      33.592  24.022  30.185  1.00  0.00    -0.177 N 
HETATM   17  C8  UNL     1      32.934  25.172  30.035  1.00  0.00     0.678 A 
ATOM     18  H2  UNL     1      34.252  23.873  30.949  1.00  0.00     0.185 HD
HETATM   19  N4  UNL     1      32.061  25.430  29.058  1.00  0.00    -0.186 N 
ATOM     20  H4  UNL     1      31.599  26.339  29.013  1.00  0.00     0.185 HD
BRANCH  15  21
HETATM   21  N1  UNL     1      33.949  21.932  29.372  1.00  0.00    -0.385 N 
ATOM     22  H12 UNL     1      34.552  21.640  28.603  1.00  0.00     0.157 HD
ATOM     23  H11 UNL     1      33.834  21.353  30.204  1.00  0.00     0.157 HD
ENDBRANCH  15  21
BRANCH  17  24
HETATM   24  N3  UNL     1      33.162  26.116  30.907  1.00  0.00    -0.234 N 
ATOM     25  H32 UNL     1      33.690  25.868  31.744  1.00  0.00     0.174 HD
ATOM     26  H31 UNL     1      32.797  27.046  30.701  1.00  0.00     0.174 HD
ENDBRANCH  17  24
ENDBRANCH  12  13
ENDBRANCH   4  12
BRANCH   8  27
HETATM   27  O4  UNL     1      30.550  29.145  28.279  1.00  0.00    -0.389 OA
ATOM     28  H4  UNL     1      30.288  30.056  28.219  1.00  0.00     0.210 HD
ENDBRANCH   8  27
BRANCH   3  29
HETATM   29  O2  UNL     1      32.705  26.541  24.289  1.00  0.00    -0.391 OA
ATOM     30  H2  UNL     1      32.052  26.002  23.859  1.00  0.00     0.210 HD
ENDBRANCH   3  29
BRANCH   9  31
HETATM   31  N6  UNL     1      32.945  30.091  26.847  1.00  0.00    -0.037 N 
ATOM     32  H62 UNL     1      33.774  30.113  26.253  1.00  0.00     0.281 HD
ATOM     33  H61 UNL     1      32.292  30.591  26.244  1.00  0.00     0.281 HD
BRANCH  31  34
HETATM   34  C13 UNL     1      33.174  30.824  28.076  1.00  0.00     0.350 C 
BRANCH  34  35
HETATM   35  O5  UNL     1      34.491  30.758  28.445  1.00  0.00    -0.368 OA
ATOM     36  H5  UNL     1      34.599  30.216  29.219  1.00  0.00     0.212 HD
ENDBRANCH  34  35
BRANCH  34  37
HETATM   37  C14 UNL     1      32.806  32.287  27.746  1.00  0.00     0.204 C 
BRANCH  37  38
HETATM   38  O6  UNL     1      34.074  32.996  27.855  1.00  0.00    -0.389 OA
ATOM     39  H6  UNL     1      33.827  33.851  28.190  1.00  0.00     0.210 HD
ENDBRANCH  37  38
BRANCH  37  40
HETATM   40  C15 UNL     1      32.401  32.348  26.300  1.00  0.00     0.171 C 
BRANCH  40  41
HETATM   41  O7  UNL     1      33.426  33.049  25.574  1.00  0.00    -0.391 OA
ATOM     42  H7  UNL     1      33.333  33.978  25.750  1.00  0.00     0.210 HD
ENDBRANCH  40  41
BRANCH  40  43
HETATM   43  C16 UNL     1      31.130  33.132  26.118  1.00  0.00     0.184 C 
BRANCH  43  44
HETATM   44  N7  UNL     1      30.138  32.487  25.297  1.00  0.00    -0.284 N 
HETATM   45  C17 UNL     1      30.249  31.986  24.037  1.00  0.00     0.154 A 
HETATM   46  C18 UNL     1      29.001  31.497  23.737  1.00  0.00     0.146 A 
HETATM   47  C19 UNL     1      28.574  30.858  22.512  1.00  0.00     0.120 C 
HETATM   48  N9  UNL     1      28.190  31.708  24.797  1.00  0.00    -0.275 N 
HETATM   49  N8  UNL     1      28.205  30.329  21.524  1.00  0.00    -0.190 NA
HETATM   50  N10 UNL     1      28.893  32.299  25.716  1.00  0.00    -0.240 N 
ATOM     51  H9  UNL     1      27.206  31.450  24.863  1.00  0.00     0.189 HD
ATOM     52  H10 UNL     1      28.538  32.579  26.631  1.00  0.00     0.208 HD
ENDBRANCH  43  44
ENDBRANCH  40  43
ENDBRANCH  37  40
ENDBRANCH  34  37
ENDBRANCH  31  34
ENDBRANCH   9  31
BRANCH   2  53
HETATM   53  O1  UNL     1      33.910  28.385  25.251  1.00  0.00    -0.385 OA
ATOM     54  H1  UNL     1      33.189  28.805  24.796  1.00  0.00     0.210 HD
ENDBRANCH   2  53
TORSDOF 17
ENDMDL
MODEL 2
REMARK VINA RESULT: -6.706566272      0.537      1.312
REMARK  17 active torsions:
REMARK  status: ('A' for Active; 'I' for Inactive)
REMARK    1  A    between atoms: C2_2  and  O1_3 
REMARK    2  A    between atoms: C3_5  and  O2_6 
REMARK    3  A    between atoms: C4_8  and  S1_9 
REMARK    4  A    between atoms: S1_9  and  C5_10 
REMARK    5  A    between atoms: C7_12  and  N1_13 
REMARK    6  A    between atoms: C8_18  and  N3_19 
REMARK    7  A    between atoms: C9_24  and  O3_25 
REMARK    8  A    between atoms: C11_29  and  O4_30 
REMARK    9  A    between atoms: C12_32  and  N6_33 
REMARK   10  A    between atoms: N6_33  and  C13_36 
REMARK   11  A    between atoms: C13_36  and  O5_37 
REMARK   12  A    between atoms: C13_36  and  C14_39 
REMARK   13  A    between atoms: C14_39  and  O6_40 
REMARK   14  A    between atoms: C14_39  and  C15_42 
REMARK   15  A    between atoms: C15_42  and  O7_43 
REMARK   16  A    between atoms: C15_42  and  C16_45 
REMARK   17  A    between atoms: C16_45  and  N7_46 
ROOT
HETATM    1  C1  UNL     1      34.369  27.147  27.073  1.00  0.00     0.051 C 
HETATM    2  C2  UNL     1      33.206  27.714  26.237  1.00  0.00     0.112 C 
HETATM    3  C3  UNL     1      32.444  26.615  25.595  1.00  0.00     0.172 C 
HETATM    4  C4  UNL     1      31.012  26.484  25.863  1.00  0.00     0.137 C 
HETATM    5  C9  UNL     1      30.275  27.582  26.535  1.00  0.00     0.189 C 
HETATM    6  C10 UNL     1      29.137  28.049  25.682  1.00  0.00     0.102 C 
HETATM    7  N5  UNL     1      28.270  28.415  25.000  1.00  0.00    -0.194 NA
HETATM    8  C11 UNL     1      31.012  28.785  26.940  1.00  0.00     0.202 C 
HETATM    9  C12 UNL     1      32.485  28.723  27.020  1.00  0.00     0.257 C 
ENDROOT
BRANCH   5  10
HETATM   10  O3  UNL     1      29.593  27.082  27.682  1.00  0.00    -0.372 OA
ATOM     11  H3  UNL     1      29.900  27.528  28.463  1.00  0.00     0.212 HD
ENDBRANCH   5  10
BRANCH   4  12
HETATM   12  S1  UNL     1      30.567  24.938  26.721  1.00  0.00    -0.100 SA
BRANCH  12  13
HETATM   13  C5  UNL     1      31.739  24.446  27.957  1.00  0.00     0.090 A 
HETATM   14  C6  UNL     1      32.178  25.222  28.998  1.00  0.00     0.086 A 
HETATM   15  C7  UNL     1      33.076  24.735  29.912  1.00  0.00     0.117 A 
HETATM   16  N2  UNL     1      33.564  23.469  29.817  1.00  0.00    -0.177 N 
HETATM   17  C8  UNL     1      33.116  22.746  28.790  1.00  0.00     0.678 A 
ATOM     18  H2  UNL     1      34.232  23.095  30.491  1.00  0.00     0.185 HD
HETATM   19  N4  UNL     1      32.242  23.175  27.878  1.00  0.00    -0.186 N 
ATOM     20  H4  UNL     1      31.948  22.556  27.121  1.00  0.00     0.185 HD
BRANCH  15  21
HETATM   21  N1  UNL     1      33.486  25.468  30.893  1.00  0.00    -0.385 N 
ATOM     22  H12 UNL     1      34.333  26.020  30.755  1.00  0.00     0.157 HD
ATOM     23  H11 UNL     1      32.977  25.491  31.777  1.00  0.00     0.157 HD
ENDBRANCH  15  21
BRANCH  17  24
HETATM   24  N3  UNL     1      33.564  21.525  28.671  1.00  0.00    -0.234 N 
ATOM     25  H32 UNL     1      33.492  21.083  27.754  1.00  0.00     0.174 HD
ATOM     26  H31 UNL     1      33.959  21.085  29.502  1.00  0.00     0.174 HD
ENDBRANCH  17  24
ENDBRANCH  12  13
ENDBRANCH   4  12
BRANCH   8  27
HETATM   27  O4  UNL     1      30.533  29.165  28.223  1.00  0.00    -0.389 OA
ATOM     28  H4  UNL     1      31.209  28.952  28.854  1.00  0.00     0.210 HD
ENDBRANCH   8  27
BRANCH   3  29
HETATM   29  O2  UNL     1      32.682  26.591  24.211  1.00  0.00    -0.391 OA
ATOM     30  H2  UNL     1      33.602  26.741  24.028  1.00  0.00     0.210 HD
ENDBRANCH   3  29
BRANCH   9  31
HETATM   31  N6  UNL     1      32.952  30.099  26.824  1.00  0.00    -0.037 N 
ATOM     32  H62 UNL     1      33.787  30.118  26.239  1.00  0.00     0.281 HD
ATOM     33  H61 UNL     1      32.313  30.616  26.221  1.00  0.00     0.281 HD
BRANCH  31  34
HETATM   34  C13 UNL     1      33.177  30.812  28.064  1.00  0.00     0.350 C 
BRANCH  34  35
HETATM   35  O5  UNL     1      34.494  30.743  28.434  1.00  0.00    -0.368 OA
ATOM     36  H5  UNL     1      34.819  29.852  28.367  1.00  0.00     0.212 HD
ENDBRANCH  34  35
BRANCH  34  37
HETATM   37  C14 UNL     1      32.806  32.278  27.759  1.00  0.00     0.204 C 
BRANCH  37  38
HETATM   38  O6  UNL     1      34.070  32.991  27.885  1.00  0.00    -0.389 OA
ATOM     39  H6  UNL     1      33.917  33.807  27.423  1.00  0.00     0.210 HD
ENDBRANCH  37  38
BRANCH  37  40
HETATM   40  C15 UNL     1      32.405  32.363  26.313  1.00  0.00     0.171 C 
BRANCH  40  41
HETATM   41  O7  UNL     1      33.445  33.053  25.597  1.00  0.00    -0.391 OA
ATOM     42  H7  UNL     1      34.246  32.546  25.673  1.00  0.00     0.210 HD
ENDBRANCH  40  41
BRANCH  40  43
HETATM   43  C16 UNL     1      31.150  33.174  26.137  1.00  0.00     0.184 C 
BRANCH  43  44
HETATM   44  N7  UNL     1      30.147  32.555  25.307  1.00  0.00    -0.284 N 
HETATM   45  C17 UNL     1      30.231  32.131  24.017  1.00  0.00     0.154 A 
HETATM   46  C18 UNL     1      28.985  31.632  23.724  1.00  0.00     0.146 A 
HETATM   47  C19 UNL     1      28.535  31.056  22.477  1.00  0.00     0.120 C 
HETATM   48  N9  UNL     1      28.202  31.763  24.818  1.00  0.00    -0.275 N 
HETATM   49  N8  UNL     1      28.148  30.578  21.471  1.00  0.00    -0.190 NA
HETATM   50  N10 UNL     1      28.919  32.315  25.750  1.00  0.00    -0.240 N 
ATOM     51  H9  UNL     1      27.226  31.480  24.897  1.00  0.00     0.189 HD
ATOM     52  H10 UNL     1      28.586  32.533  26.689  1.00  0.00     0.208 HD
ENDBRANCH  43  44
ENDBRANCH  40  43
ENDBRANCH  37  40
ENDBRANCH  34  37
ENDBRANCH  31  34
ENDBRANCH   9  31
BRANCH   2  53
HETATM   53  O1  UNL     1      33.905  28.403  25.209  1.00  0.00    -0.385 OA
ATOM     54  H1  UNL     1      33.661  27.899  24.442  1.00  0.00     0.210 HD
ENDBRANCH   2  53
TORSDOF 17
ENDMDL
MODEL 3
REMARK VINA RESULT: -6.691367023      1.251      1.278
REMARK  17 active torsions:
REMARK  status: ('A' for Active; 'I' for Inactive)
REMARK    1  A    between atoms: C2_2  and  O1_3 
REMARK    2  A    between atoms: C3_5  and  O2_6 
REMARK    3  A    between atoms: C4_8  and  S1_9 
REMARK    4  A    between atoms: S1_9  and  C5_10 
REMARK    5  A    between atoms: C7_12  and  N1_13 
REMARK    6  A    between atoms: C8_18  and  N3_19 
REMARK    7  A    between atoms: C9_24  and  O3_25 
REMARK    8  A    between atoms: C11_29  and  O4_30 
REMARK    9  A    between atoms: C12_32  and  N6_33 
REMARK   10  A    between atoms: N6_33  and  C13_36 
REMARK   11  A    between atoms: C13_36  and  O5_37 
REMARK   12  A    between atoms: C13_36  and  C14_39 
REMARK   13  A    between atoms: C14_39  and  O6_40 
REMARK   14  A    between atoms: C14_39  and  C15_42 
REMARK   15  A    between atoms: C15_42  and  O7_43 
REMARK   16  A    between atoms: C15_42  and  C16_45 
REMARK   17  A    between atoms: C16_45  and  N7_46 
ROOT
HETATM    1  C1  UNL     1      34.427  26.820  27.063  1.00  0.00     0.051 C 
HETATM    2  C2  UNL     1      33.222  27.409  26.304  1.00  0.00     0.112 C 
HETATM    3  C3  UNL     1      32.507  26.343  25.559  1.00  0.00     0.172 C 
HETATM    4  C4  UNL     1      31.089  26.109  25.827  1.00  0.00     0.137 C 
HETATM    5  C9  UNL     1      30.307  27.090  26.619  1.00  0.00     0.189 C 
HETATM    6  C10 UNL     1      29.132  27.582  25.832  1.00  0.00     0.102 C 
HETATM    7  N5  UNL     1      28.236  27.970  25.202  1.00  0.00    -0.194 NA
HETATM    8  C11 UNL     1      30.987  28.281  27.140  1.00  0.00     0.202 C 
HETATM    9  C12 UNL     1      32.462  28.290  27.197  1.00  0.00     0.257 C 
ENDROOT
BRANCH   5  10
HETATM   10  O3  UNL     1      29.671  26.437  27.715  1.00  0.00    -0.372 OA
ATOM     11  H3  UNL     1      28.728  26.468  27.609  1.00  0.00     0.212 HD
ENDBRANCH   5  10
BRANCH   4  12
HETATM   12  S1  UNL     1      30.739  24.461  26.523  1.00  0.00    -0.100 SA
BRANCH  12  13
HETATM   13  C5  UNL     1      31.932  23.924  27.721  1.00  0.00     0.090 A 
HETATM   14  C6  UNL     1      32.616  22.738  27.693  1.00  0.00     0.086 A 
HETATM   15  C7  UNL     1      33.534  22.428  28.664  1.00  0.00     0.117 A 
HETATM   16  N2  UNL     1      33.795  23.286  29.686  1.00  0.00    -0.177 N 
HETATM   17  C8  UNL     1      33.109  24.429  29.680  1.00  0.00     0.678 A 
ATOM     18  H2  UNL     1      34.476  23.069  30.414  1.00  0.00     0.185 HD
HETATM   19  N4  UNL     1      32.208  24.775  28.758  1.00  0.00    -0.186 N 
ATOM     20  H4  UNL     1      31.726  25.671  28.826  1.00  0.00     0.185 HD
BRANCH  15  21
HETATM   21  N1  UNL     1      34.178  21.310  28.634  1.00  0.00    -0.385 N 
ATOM     22  H12 UNL     1      34.734  21.058  29.452  1.00  0.00     0.157 HD
ATOM     23  H11 UNL     1      34.131  20.701  27.817  1.00  0.00     0.157 HD
ENDBRANCH  15  21
BRANCH  17  24
HETATM   24  N3  UNL     1      33.337  25.275  30.649  1.00  0.00    -0.234 N 
ATOM     25  H32 UNL     1      34.297  25.594  30.781  1.00  0.00     0.174 HD
ATOM     26  H31 UNL     1      32.542  25.565  31.218  1.00  0.00     0.174 HD
ENDBRANCH  17  24
ENDBRANCH  12  13
ENDBRANCH   4  12
BRANCH   8  27
HETATM   27  O4  UNL     1      30.510  28.500  28.461  1.00  0.00    -0.389 OA
ATOM     28  H4  UNL     1      30.732  29.392  28.700  1.00  0.00     0.210 HD
ENDBRANCH   8  27
BRANCH   3  29
HETATM   29  O2  UNL     1      32.723  26.476  24.177  1.00  0.00    -0.391 OA
ATOM     30  H2  UNL     1      32.219  25.831  23.697  1.00  0.00     0.210 HD
ENDBRANCH   3  29
BRANCH   9  31
HETATM   31  N6  UNL     1      32.854  29.702  27.141  1.00  0.00    -0.037 N 
ATOM     32  H62 UNL     1      33.423  29.887  26.315  1.00  0.00     0.281 HD
ATOM     33  H61 UNL     1      32.051  30.292  26.927  1.00  0.00     0.281 HD
BRANCH  31  34
HETATM   34  C13 UNL     1      33.524  30.161  28.341  1.00  0.00     0.350 C 
BRANCH  34  35
HETATM   35  O5  UNL     1      34.884  30.101  28.193  1.00  0.00    -0.368 OA
ATOM     36  H5  UNL     1      35.220  29.261  28.483  1.00  0.00     0.212 HD
ENDBRANCH  34  35
BRANCH  34  37
HETATM   37  C14 UNL     1      33.089  31.632  28.506  1.00  0.00     0.204 C 
BRANCH  37  38
HETATM   38  O6  UNL     1      34.283  32.292  29.017  1.00  0.00    -0.389 OA
ATOM     39  H6  UNL     1      34.182  32.245  29.960  1.00  0.00     0.210 HD
ENDBRANCH  37  38
BRANCH  37  40
HETATM   40  C15 UNL     1      32.835  32.198  27.137  1.00  0.00     0.171 C 
BRANCH  40  41
HETATM   41  O7  UNL     1      33.879  33.143  26.840  1.00  0.00    -0.391 OA
ATOM     42  H7  UNL     1      34.034  33.129  25.903  1.00  0.00     0.210 HD
ENDBRANCH  40  41
BRANCH  40  43
HETATM   43  C16 UNL     1      31.538  32.958  27.088  1.00  0.00     0.184 C 
BRANCH  43  44
HETATM   44  N7  UNL     1      30.998  33.140  25.765  1.00  0.00    -0.284 N 
HETATM   45  C17 UNL     1      31.576  32.917  24.554  1.00  0.00     0.154 A 
HETATM   46  C18 UNL     1      30.620  33.265  23.632  1.00  0.00     0.146 A 
HETATM   47  C19 UNL     1      30.725  33.219  22.191  1.00  0.00     0.120 C 
HETATM   48  N9  UNL     1      29.516  33.677  24.293  1.00  0.00    -0.275 N 
HETATM   49  N8  UNL     1      30.786  33.184  21.014  1.00  0.00    -0.190 NA
HETATM   50  N10 UNL     1      29.766  33.592  25.566  1.00  0.00    -0.240 N 
ATOM     51  H9  UNL     1      28.645  33.997  23.870  1.00  0.00     0.189 HD
ATOM     52  H10 UNL     1      29.108  33.837  26.306  1.00  0.00     0.208 HD
ENDBRANCH  43  44
ENDBRANCH  40  43
ENDBRANCH  37  40
ENDBRANCH  34  37
ENDBRANCH  31  34
ENDBRANCH   9  31
BRANCH   2  53
HETATM   53  O1  UNL     1      33.867  28.237  25.347  1.00  0.00    -0.385 OA
ATOM     54  H1  UNL     1      33.130  28.537  24.827  1.00  0.00     0.210 HD
ENDBRANCH   2  53
TORSDOF 17
ENDMDL
MODEL 4
REMARK VINA RESULT: -6.521549895      1.432      1.724
REMARK  17 active torsions:
REMARK  status: ('A' for Active; 'I' for Inactive)
REMARK    1  A    between atoms: C2_2  and  O1_3 
REMARK    2  A    between atoms: C3_5  and  O2_6 
REMARK    3  A    between atoms: C4_8  and  S1_9 
REMARK    4  A    between atoms: S1_9  and  C5_10 
REMARK    5  A    between atoms: C7_12  and  N1_13 
REMARK    6  A    between atoms: C8_18  and  N3_19 
REMARK    7  A    between atoms: C9_24  and  O3_25 
REMARK    8  A    between atoms: C11_29  and  O4_30 
REMARK    9  A    between atoms: C12_32  and  N6_33 
REMARK   10  A    between atoms: N6_33  and  C13_36 
REMARK   11  A    between atoms: C13_36  and  O5_37 
REMARK   12  A    between atoms: C13_36  and  C14_39 
REMARK   13  A    between atoms: C14_39  and  O6_40 
REMARK   14  A    between atoms: C14_39  and  C15_42 
REMARK   15  A    between atoms: C15_42  and  O7_43 
REMARK   16  A    between atoms: C15_42  and  C16_45 
REMARK   17  A    between atoms: C16_45  and  N7_46 
ROOT
HETATM    1  C1  UNL     1      34.191  27.902  29.370  1.00  0.00     0.051 C 
HETATM    2  C2  UNL     1      33.802  27.905  27.879  1.00  0.00     0.112 C 
HETATM    3  C3  UNL     1      33.600  26.518  27.392  1.00  0.00     0.172 C 
HETATM    4  C4  UNL     1      32.313  26.142  26.811  1.00  0.00     0.137 C 
HETATM    5  C9  UNL     1      31.320  27.187  26.456  1.00  0.00     0.189 C 
HETATM    6  C10 UNL     1      30.961  27.097  25.005  1.00  0.00     0.102 C 
HETATM    7  N5  UNL     1      30.707  27.029  23.873  1.00  0.00    -0.194 NA
HETATM    8  C11 UNL     1      31.649  28.592  26.717  1.00  0.00     0.202 C 
HETATM    9  C12 UNL     1      32.753  28.904  27.648  1.00  0.00     0.257 C 
ENDROOT
BRANCH   5  10
HETATM   10  O3  UNL     1      30.072  26.907  27.084  1.00  0.00    -0.372 OA
ATOM     11  H3  UNL     1      29.507  27.670  27.039  1.00  0.00     0.212 HD
ENDBRANCH   5  10
BRANCH   4  12
HETATM   12  S1  UNL     1      31.426  24.864  27.762  1.00  0.00    -0.100 SA
BRANCH  12  13
HETATM   13  C5  UNL     1      32.496  23.675  28.529  1.00  0.00     0.090 A 
HETATM   14  C6  UNL     1      32.099  22.657  29.356  1.00  0.00     0.086 A 
HETATM   15  C7  UNL     1      33.010  21.780  29.884  1.00  0.00     0.117 A 
HETATM   16  N2  UNL     1      34.337  21.889  29.606  1.00  0.00    -0.177 N 
HETATM   17  C8  UNL     1      34.685  22.892  28.800  1.00  0.00     0.678 A 
ATOM     18  H2  UNL     1      35.025  21.242  29.991  1.00  0.00     0.185 HD
HETATM   19  N4  UNL     1      33.836  23.770  28.261  1.00  0.00    -0.186 N 
ATOM     20  H4  UNL     1      34.184  24.510  27.651  1.00  0.00     0.185 HD
BRANCH  15  21
HETATM   21  N1  UNL     1      32.633  20.821  30.661  1.00  0.00    -0.385 N 
ATOM     22  H12 UNL     1      31.765  20.336  30.434  1.00  0.00     0.157 HD
ATOM     23  H11 UNL     1      33.188  20.559  31.477  1.00  0.00     0.157 HD
ENDBRANCH  15  21
BRANCH  17  24
HETATM   24  N3  UNL     1      35.952  23.024  28.513  1.00  0.00    -0.234 N 
ATOM     25  H32 UNL     1      36.565  22.231  28.708  1.00  0.00     0.174 HD
ATOM     26  H31 UNL     1      36.255  23.912  28.114  1.00  0.00     0.174 HD
ENDBRANCH  17  24
ENDBRANCH  12  13
ENDBRANCH   4  12
BRANCH   8  27
HETATM   27  O4  UNL     1      30.477  29.216  27.226  1.00  0.00    -0.389 OA
ATOM     28  H4  UNL     1      30.124  29.764  26.535  1.00  0.00     0.210 HD
ENDBRANCH   8  27
BRANCH   3  29
HETATM   29  O2  UNL     1      34.648  26.138  26.537  1.00  0.00    -0.391 OA
ATOM     30  H2  UNL     1      34.583  25.215  26.319  1.00  0.00     0.210 HD
ENDBRANCH   3  29
BRANCH   9  31
HETATM   31  N6  UNL     1      33.245  30.227  27.252  1.00  0.00    -0.037 N 
ATOM     32  H62 UNL     1      34.153  30.154  26.794  1.00  0.00     0.281 HD
ATOM     33  H61 UNL     1      32.695  30.601  26.479  1.00  0.00     0.281 HD
BRANCH  31  34
HETATM   34  C13 UNL     1      33.298  31.172  28.349  1.00  0.00     0.350 C 
BRANCH  34  35
HETATM   35  O5  UNL     1      34.571  31.275  28.842  1.00  0.00    -0.368 OA
ATOM     36  H5  UNL     1      35.082  30.505  28.624  1.00  0.00     0.212 HD
ENDBRANCH  34  35
BRANCH  34  37
HETATM   37  C14 UNL     1      32.872  32.523  27.737  1.00  0.00     0.204 C 
BRANCH  37  38
HETATM   38  O6  UNL     1      34.120  33.269  27.640  1.00  0.00    -0.389 OA
ATOM     39  H6  UNL     1      33.937  33.932  26.985  1.00  0.00     0.210 HD
ENDBRANCH  37  38
BRANCH  37  40
HETATM   40  C15 UNL     1      32.410  32.270  26.330  1.00  0.00     0.171 C 
BRANCH  40  41
HETATM   41  O7  UNL     1      33.428  32.742  25.430  1.00  0.00    -0.391 OA
ATOM     42  H7  UNL     1      33.046  32.819  24.563  1.00  0.00     0.210 HD
ENDBRANCH  40  41
BRANCH  40  43
HETATM   43  C16 UNL     1      31.160  33.046  26.013  1.00  0.00     0.184 C 
BRANCH  43  44
HETATM   44  N7  UNL     1      30.127  32.280  25.364  1.00  0.00    -0.284 N 
HETATM   45  C17 UNL     1      30.235  31.267  24.463  1.00  0.00     0.154 A 
HETATM   46  C18 UNL     1      28.941  30.911  24.169  1.00  0.00     0.146 A 
HETATM   47  C19 UNL     1      28.494  29.881  23.259  1.00  0.00     0.120 C 
HETATM   48  N9  UNL     1      28.107  31.698  24.883  1.00  0.00    -0.275 N 
HETATM   49  N8  UNL     1      28.106  29.042  22.527  1.00  0.00    -0.190 NA
HETATM   50  N10 UNL     1      28.839  32.507  25.590  1.00  0.00    -0.240 N 
ATOM     51  H9  UNL     1      27.088  31.664  24.870  1.00  0.00     0.189 HD
ATOM     52  H10 UNL     1      28.475  33.214  26.229  1.00  0.00     0.208 HD
ENDBRANCH  43  44
ENDBRANCH  40  43
ENDBRANCH  37  40
ENDBRANCH  34  37
ENDBRANCH  31  34
ENDBRANCH   9  31
BRANCH   2  53
HETATM   53  O1  UNL     1      34.990  28.399  27.276  1.00  0.00    -0.385 OA
ATOM     54  H1  UNL     1      35.505  27.605  27.193  1.00  0.00     0.210 HD
ENDBRANCH   2  53
TORSDOF 17
ENDMDL
MODEL 5
REMARK VINA RESULT: -6.392807828      1.185      1.436
REMARK  17 active torsions:
REMARK  status: ('A' for Active; 'I' for Inactive)
REMARK    1  A    between atoms: C2_2  and  O1_3 
REMARK    2  A    between atoms: C3_5  and  O2_6 
REMARK    3  A    between atoms: C4_8  and  S1_9 
REMARK    4  A    between atoms: S1_9  and  C5_10 
REMARK    5  A    between atoms: C7_12  and  N1_13 
REMARK    6  A    between atoms: C8_18  and  N3_19 
REMARK    7  A    between atoms: C9_24  and  O3_25 
REMARK    8  A    between atoms: C11_29  and  O4_30 
REMARK    9  A    between atoms: C12_32  and  N6_33 
REMARK   10  A    between atoms: N6_33  and  C13_36 
REMARK   11  A    between atoms: C13_36  and  O5_37 
REMARK   12  A    between atoms: C13_36  and  C14_39 
REMARK   13  A    between atoms: C14_39  and  O6_40 
REMARK   14  A    between atoms: C14_39  and  C15_42 
REMARK   15  A    between atoms: C15_42  and  O7_43 
REMARK   16  A    between atoms: C15_42  and  C16_45 
REMARK   17  A    between atoms: C16_45  and  N7_46 
ROOT
HETATM    1  C1  UNL     1      34.637  27.915  27.421  1.00  0.00     0.051 C 
HETATM    2  C2  UNL     1      33.478  28.489  26.584  1.00  0.00     0.112 C 
HETATM    3  C3  UNL     1      32.892  27.436  25.718  1.00  0.00     0.172 C 
HETATM    4  C4  UNL     1      31.470  27.118  25.837  1.00  0.00     0.137 C 
HETATM    5  C9  UNL     1      30.568  28.013  26.604  1.00  0.00     0.189 C 
HETATM    6  C10 UNL     1      29.446  28.493  25.736  1.00  0.00     0.102 C 
HETATM    7  N5  UNL     1      28.592  28.874  25.046  1.00  0.00    -0.194 NA
HETATM    8  C11 UNL     1      31.132  29.202  27.250  1.00  0.00     0.202 C 
HETATM    9  C12 UNL     1      32.594  29.279  27.447  1.00  0.00     0.257 C 
ENDROOT
BRANCH   5  10
HETATM   10  O3  UNL     1      29.870  27.267  27.597  1.00  0.00    -0.372 OA
ATOM     11  H3  UNL     1      30.430  27.123  28.351  1.00  0.00     0.212 HD
ENDBRANCH   5  10
BRANCH   4  12
HETATM   12  S1  UNL     1      31.146  25.417  26.406  1.00  0.00    -0.100 SA
BRANCH  12  13
HETATM   13  C5  UNL     1      32.254  24.867  27.677  1.00  0.00     0.090 A 
HETATM   14  C6  UNL     1      33.077  23.774  27.603  1.00  0.00     0.086 A 
HETATM   15  C7  UNL     1      33.911  23.446  28.641  1.00  0.00     0.117 A 
HETATM   16  N2  UNL     1      33.950  24.192  29.777  1.00  0.00    -0.177 N 
HETATM   17  C8  UNL     1      33.135  25.247  29.812  1.00  0.00     0.678 A 
ATOM     18  H2  UNL     1      34.567  23.960  30.556  1.00  0.00     0.185 HD
HETATM   19  N4  UNL     1      32.307  25.606  28.829  1.00  0.00    -0.186 N 
ATOM     20  H4  UNL     1      31.714  26.429  28.935  1.00  0.00     0.185 HD
BRANCH  15  21
HETATM   21  N1  UNL     1      34.686  22.417  28.567  1.00  0.00    -0.385 N 
ATOM     22  H12 UNL     1      35.262  22.311  27.732  1.00  0.00     0.157 HD
ATOM     23  H11 UNL     1      34.720  21.732  29.324  1.00  0.00     0.157 HD
ENDBRANCH  15  21
BRANCH  17  24
HETATM   24  N3  UNL     1      33.149  25.984  30.890  1.00  0.00    -0.234 N 
ATOM     25  H32 UNL     1      32.378  26.640  31.023  1.00  0.00     0.174 HD
ATOM     26  H31 UNL     1      33.930  25.861  31.534  1.00  0.00     0.174 HD
ENDBRANCH  17  24
ENDBRANCH  12  13
ENDBRANCH   4  12
BRANCH   8  27
HETATM   27  O4  UNL     1      30.525  29.320  28.530  1.00  0.00    -0.389 OA
ATOM     28  H4  UNL     1      31.009  28.762  29.127  1.00  0.00     0.210 HD
ENDBRANCH   8  27
BRANCH   3  29
HETATM   29  O2  UNL     1      33.227  27.661  24.372  1.00  0.00    -0.391 OA
ATOM     30  H2  UNL     1      33.542  28.548  24.250  1.00  0.00     0.210 HD
ENDBRANCH   3  29
BRANCH   9  31
HETATM   31  N6  UNL     1      32.913  30.709  27.505  1.00  0.00    -0.037 N 
ATOM     32  H62 UNL     1      33.424  30.931  28.360  1.00  0.00     0.281 HD
ATOM     33  H61 UNL     1      33.625  30.949  26.816  1.00  0.00     0.281 HD
BRANCH  31  34
HETATM   34  C13 UNL     1      31.752  31.563  27.363  1.00  0.00     0.350 C 
BRANCH  34  35
HETATM   35  O5  UNL     1      31.621  32.392  28.445  1.00  0.00    -0.368 OA
ATOM     36  H5  UNL     1      31.201  33.208  28.197  1.00  0.00     0.212 HD
ENDBRANCH  34  35
BRANCH  34  37
HETATM   37  C14 UNL     1      32.025  32.406  26.099  1.00  0.00     0.204 C 
BRANCH  37  38
HETATM   38  O6  UNL     1      33.476  32.372  25.967  1.00  0.00    -0.389 OA
ATOM     39  H6  UNL     1      33.631  31.657  25.361  1.00  0.00     0.210 HD
ENDBRANCH  37  38
BRANCH  37  40
HETATM   40  C15 UNL     1      31.467  31.664  24.918  1.00  0.00     0.171 C 
BRANCH  40  41
HETATM   41  O7  UNL     1      32.568  31.152  24.146  1.00  0.00    -0.391 OA
ATOM     42  H7  UNL     1      32.544  30.203  24.187  1.00  0.00     0.210 HD
ENDBRANCH  40  41
BRANCH  40  43
HETATM   43  C16 UNL     1      30.693  32.581  24.009  1.00  0.00     0.184 C 
BRANCH  43  44
HETATM   44  N7  UNL     1      29.342  32.160  23.741  1.00  0.00    -0.284 N 
HETATM   45  C17 UNL     1      28.737  31.888  22.553  1.00  0.00     0.154 A 
HETATM   46  C18 UNL     1      27.448  31.543  22.879  1.00  0.00     0.146 A 
HETATM   47  C19 UNL     1      26.382  31.165  21.979  1.00  0.00     0.120 C 
HETATM   48  N9  UNL     1      27.312  31.611  24.221  1.00  0.00    -0.275 N 
HETATM   49  N8  UNL     1      25.498  30.849  21.265  1.00  0.00    -0.190 NA
HETATM   50  N10 UNL     1      28.456  31.980  24.714  1.00  0.00    -0.240 N 
ATOM     51  H9  UNL     1      26.465  31.410  24.751  1.00  0.00     0.189 HD
ATOM     52  H10 UNL     1      28.648  32.112  25.707  1.00  0.00     0.208 HD
ENDBRANCH  43  44
ENDBRANCH  40  43
ENDBRANCH  37  40
ENDBRANCH  34  37
ENDBRANCH  31  34
ENDBRANCH   9  31
BRANCH   2  53
HETATM   53  O1  UNL     1      34.163  29.402  25.738  1.00  0.00    -0.385 OA
ATOM     54  H1  UNL     1      34.234  28.901  24.934  1.00  0.00     0.210 HD
ENDBRANCH   2  53
TORSDOF 17
ENDMDL
