MODEL 1
REMARK VINA RESULT: -5.635575291      0.000      0.000
REMARK  9 active torsions:
REMARK  status: ('A' for Active; 'I' for Inactive)
REMARK       I    between atoms: C1_2  and  N2_4 
REMARK    1  A    between atoms: N2_4  and  C2_6 
REMARK    2  A    between atoms: C2_6  and  C3_7 
REMARK    3  A    between atoms: C3_7  and  C4_8 
REMARK    4  A    between atoms: C3_7  and  C6_13 
REMARK    5  A    between atoms: C4_8  and  N3_9 
REMARK    6  A    between atoms: N3_9  and  C5_11 
REMARK    7  A    between atoms: C6_13  and  N4_14 
REMARK    8  A    between atoms: N4_14  and  C7_17 
REMARK    9  A    between atoms: C7_17  and  C8_19 
ROOT
HETATM    1  C3  UNL     1      81.209 188.371 134.208  1.00  0.00     0.047 C 
ENDROOT
BRANCH   1   2
HETATM    2  C2  UNL     1      81.959 189.130 135.239  1.00  0.00     0.132 C 
BRANCH   2   3
HETATM    3  N2  UNL     1      82.383 188.342 136.362  1.00  0.00    -0.345 N 
HETATM    4  C1  UNL     1      83.637 188.534 136.954  1.00  0.00     0.328 C 
HETATM    5  N1  UNL     1      84.124 187.810 138.048  1.00  0.00    -0.040 NA
HETATM    6  O1  UNL     1      84.395 189.435 136.460  1.00  0.00    -0.251 OA
ATOM      7  H2  UNL     1      81.759 187.628 136.737  1.00  0.00     0.163 HD
ENDBRANCH   2   3
ENDBRANCH   1   2
BRANCH   1   8
HETATM    8  C4  UNL     1      80.451 189.269 133.272  1.00  0.00     0.130 C 
BRANCH   8   9
HETATM    9  N3  UNL     1      80.400 190.602 133.818  1.00  0.00    -0.368 N 
ATOM     10  H3  UNL     1      81.273 191.027 134.130  1.00  0.00     0.161 HD
BRANCH   9  11
HETATM   11  C5  UNL     1      79.214 191.353 133.946  1.00  0.00     0.348 C 
HETATM   12  O2  UNL     1      78.969 192.291 133.168  1.00  0.00    -0.284 OA
ENDBRANCH   9  11
ENDBRANCH   8   9
ENDBRANCH   1   8
BRANCH   1  13
HETATM   13  C6  UNL     1      80.382 187.214 134.741  1.00  0.00     0.243 C 
BRANCH  13  14
HETATM   14  N4  UNL     1      79.154 187.068 134.017  1.00  0.00    -0.038 N 
ATOM     15  H42 UNL     1      78.368 187.424 134.561  1.00  0.00     0.280 HD
ATOM     16  H41 UNL     1      79.118 187.713 133.229  1.00  0.00     0.280 HD
BRANCH  14  17
HETATM   17  C7  UNL     1      78.912 185.729 133.591  1.00  0.00     0.431 C 
HETATM   18  F1  UNL     1      79.357 184.810 134.545  1.00  0.00    -0.213 F 
BRANCH  17  19
HETATM   19  C8  UNL     1      79.495 185.339 132.266  1.00  0.00     0.414 C 
HETATM   20  F2  UNL     1      79.667 186.478 131.491  1.00  0.00    -0.209 F 
HETATM   21  F3  UNL     1      80.565 184.514 132.292  1.00  0.00    -0.209 F 
ENDBRANCH  17  19
ENDBRANCH  14  17
ENDBRANCH  13  14
ENDBRANCH   1  13
TORSDOF 9
ENDMDL
MODEL 2
REMARK VINA RESULT: -5.618821741      0.944      1.331
REMARK  9 active torsions:
REMARK  status: ('A' for Active; 'I' for Inactive)
REMARK       I    between atoms: C1_2  and  N2_4 
REMARK    1  A    between atoms: N2_4  and  C2_6 
REMARK    2  A    between atoms: C2_6  and  C3_7 
REMARK    3  A    between atoms: C3_7  and  C4_8 
REMARK    4  A    between atoms: C3_7  and  C6_13 
REMARK    5  A    between atoms: C4_8  and  N3_9 
REMARK    6  A    between atoms: N3_9  and  C5_11 
REMARK    7  A    between atoms: C6_13  and  N4_14 
REMARK    8  A    between atoms: N4_14  and  C7_17 
REMARK    9  A    between atoms: C7_17  and  C8_19 
ROOT
HETATM    1  C3  UNL     1      81.187 188.615 134.095  1.00  0.00     0.047 C 
ENDROOT
BRANCH   1   2
HETATM    2  C2  UNL     1      82.072 189.269 135.090  1.00  0.00     0.132 C 
BRANCH   2   3
HETATM    3  N2  UNL     1      82.394 188.450 136.226  1.00  0.00    -0.345 N 
HETATM    4  C1  UNL     1      83.612 188.585 136.899  1.00  0.00     0.328 C 
HETATM    5  N1  UNL     1      84.000 187.828 138.011  1.00  0.00    -0.040 NA
HETATM    6  O1  UNL     1      84.434 189.462 136.470  1.00  0.00    -0.251 OA
ATOM      7  H2  UNL     1      81.719 187.755 136.548  1.00  0.00     0.163 HD
ENDBRANCH   2   3
ENDBRANCH   1   2
BRANCH   1   8
HETATM    8  C4  UNL     1      80.544 189.602 133.163  1.00  0.00     0.130 C 
BRANCH   8   9
HETATM    9  N3  UNL     1      80.251 190.820 133.877  1.00  0.00    -0.368 N 
ATOM     10  H3  UNL     1      81.034 191.397 134.184  1.00  0.00     0.161 HD
BRANCH   9  11
HETATM   11  C5  UNL     1      78.945 191.260 134.175  1.00  0.00     0.348 C 
HETATM   12  O2  UNL     1      78.163 190.540 134.818  1.00  0.00    -0.284 OA
ENDBRANCH   9  11
ENDBRANCH   8   9
ENDBRANCH   1   8
BRANCH   1  13
HETATM   13  C6  UNL     1      80.213 187.604 134.673  1.00  0.00     0.243 C 
BRANCH  13  14
HETATM   14  N4  UNL     1      78.970 187.603 133.960  1.00  0.00    -0.038 N 
ATOM     15  H42 UNL     1      78.230 188.026 134.521  1.00  0.00     0.280 HD
ATOM     16  H41 UNL     1      78.995 188.267 133.186  1.00  0.00     0.280 HD
BRANCH  14  17
HETATM   17  C7  UNL     1      78.586 186.307 133.507  1.00  0.00     0.431 C 
HETATM   18  F1  UNL     1      77.410 185.884 134.133  1.00  0.00    -0.213 F 
BRANCH  17  19
HETATM   19  C8  UNL     1      79.607 185.220 133.659  1.00  0.00     0.414 C 
HETATM   20  F2  UNL     1      79.195 184.344 134.654  1.00  0.00    -0.209 F 
HETATM   21  F3  UNL     1      80.030 184.620 132.525  1.00  0.00    -0.209 F 
ENDBRANCH  17  19
ENDBRANCH  14  17
ENDBRANCH  13  14
ENDBRANCH   1  13
TORSDOF 9
ENDMDL
MODEL 3
REMARK VINA RESULT: -5.616750793      1.467      1.755
REMARK  9 active torsions:
REMARK  status: ('A' for Active; 'I' for Inactive)
REMARK       I    between atoms: C1_2  and  N2_4 
REMARK    1  A    between atoms: N2_4  and  C2_6 
REMARK    2  A    between atoms: C2_6  and  C3_7 
REMARK    3  A    between atoms: C3_7  and  C4_8 
REMARK    4  A    between atoms: C3_7  and  C6_13 
REMARK    5  A    between atoms: C4_8  and  N3_9 
REMARK    6  A    between atoms: N3_9  and  C5_11 
REMARK    7  A    between atoms: C6_13  and  N4_14 
REMARK    8  A    between atoms: N4_14  and  C7_17 
REMARK    9  A    between atoms: C7_17  and  C8_19 
ROOT
HETATM    1  C3  UNL     1      82.151 189.037 134.932  1.00  0.00     0.047 C 
ENDROOT
BRANCH   1   2
HETATM    2  C2  UNL     1      83.004 189.357 136.104  1.00  0.00     0.132 C 
BRANCH   2   3
HETATM    3  N2  UNL     1      83.945 188.327 136.449  1.00  0.00    -0.345 N 
HETATM    4  C1  UNL     1      84.721 188.411 137.610  1.00  0.00     0.328 C 
HETATM    5  N1  UNL     1      85.658 187.453 138.016  1.00  0.00    -0.040 NA
HETATM    6  O1  UNL     1      84.568 189.435 138.355  1.00  0.00    -0.251 OA
ATOM      7  H2  UNL     1      84.049 187.519 135.835  1.00  0.00     0.163 HD
ENDBRANCH   2   3
ENDBRANCH   1   2
BRANCH   1   8
HETATM    8  C4  UNL     1      81.684 190.269 134.210  1.00  0.00     0.130 C 
BRANCH   8   9
HETATM    9  N3  UNL     1      80.243 190.280 134.156  1.00  0.00    -0.368 N 
ATOM     10  H3  UNL     1      79.729 190.200 135.034  1.00  0.00     0.161 HD
BRANCH   9  11
HETATM   11  C5  UNL     1      79.502 190.394 132.962  1.00  0.00     0.348 C 
HETATM   12  O2  UNL     1      80.077 190.488 131.864  1.00  0.00    -0.284 OA
ENDBRANCH   9  11
ENDBRANCH   8   9
ENDBRANCH   1   8
BRANCH   1  13
HETATM   13  C6  UNL     1      81.041 188.036 135.203  1.00  0.00     0.243 C 
BRANCH  13  14
HETATM   14  N4  UNL     1      81.058 186.962 134.255  1.00  0.00    -0.038 N 
ATOM     15  H42 UNL     1      81.730 187.146 133.510  1.00  0.00     0.280 HD
ATOM     16  H41 UNL     1      81.482 186.127 134.660  1.00  0.00     0.280 HD
BRANCH  14  17
HETATM   17  C7  UNL     1      79.771 186.669 133.718  1.00  0.00     0.431 C 
HETATM   18  F1  UNL     1      78.761 187.257 134.484  1.00  0.00    -0.213 F 
BRANCH  17  19
HETATM   19  C8  UNL     1      79.437 185.217 133.550  1.00  0.00     0.414 C 
HETATM   20  F2  UNL     1      80.258 184.672 132.572  1.00  0.00    -0.209 F 
HETATM   21  F3  UNL     1      79.345 184.480 134.679  1.00  0.00    -0.209 F 
ENDBRANCH  17  19
ENDBRANCH  14  17
ENDBRANCH  13  14
ENDBRANCH   1  13
TORSDOF 9
ENDMDL
MODEL 4
REMARK VINA RESULT: -5.606980694      1.465      1.659
REMARK  9 active torsions:
REMARK  status: ('A' for Active; 'I' for Inactive)
REMARK       I    between atoms: C1_2  and  N2_4 
REMARK    1  A    between atoms: N2_4  and  C2_6 
REMARK    2  A    between atoms: C2_6  and  C3_7 
REMARK    3  A    between atoms: C3_7  and  C4_8 
REMARK    4  A    between atoms: C3_7  and  C6_13 
REMARK    5  A    between atoms: C4_8  and  N3_9 
REMARK    6  A    between atoms: N3_9  and  C5_11 
REMARK    7  A    between atoms: C6_13  and  N4_14 
REMARK    8  A    between atoms: N4_14  and  C7_17 
REMARK    9  A    between atoms: C7_17  and  C8_19 
ROOT
HETATM    1  C3  UNL     1      81.301 188.877 134.328  1.00  0.00     0.047 C 
ENDROOT
BRANCH   1   2
HETATM    2  C2  UNL     1      82.324 189.333 135.300  1.00  0.00     0.132 C 
BRANCH   2   3
HETATM    3  N2  UNL     1      82.607 188.390 136.347  1.00  0.00    -0.345 N 
HETATM    4  C1  UNL     1      83.727 188.535 137.173  1.00  0.00     0.328 C 
HETATM    5  N1  UNL     1      84.073 187.663 138.212  1.00  0.00    -0.040 NA
HETATM    6  O1  UNL     1      84.494 189.534 136.965  1.00  0.00    -0.251 OA
ATOM      7  H2  UNL     1      81.979 187.600 136.492  1.00  0.00     0.163 HD
ENDBRANCH   2   3
ENDBRANCH   1   2
BRANCH   1   8
HETATM    8  C4  UNL     1      80.377 189.983 133.905  1.00  0.00     0.130 C 
BRANCH   8   9
HETATM    9  N3  UNL     1      80.498 190.197 132.484  1.00  0.00    -0.368 N 
ATOM     10  H3  UNL     1      81.222 190.835 132.154  1.00  0.00     0.161 HD
BRANCH   9  11
HETATM   11  C5  UNL     1      79.676 189.574 131.523  1.00  0.00     0.348 C 
HETATM   12  O2  UNL     1      79.864 188.390 131.197  1.00  0.00    -0.284 OA
ENDBRANCH   9  11
ENDBRANCH   8   9
ENDBRANCH   1   8
BRANCH   1  13
HETATM   13  C6  UNL     1      80.578 187.598 134.712  1.00  0.00     0.243 C 
BRANCH  13  14
HETATM   14  N4  UNL     1      80.525 186.674 133.619  1.00  0.00    -0.038 N 
ATOM     15  H42 UNL     1      80.486 187.168 132.727  1.00  0.00     0.280 HD
ATOM     16  H41 UNL     1      81.418 186.194 133.505  1.00  0.00     0.280 HD
BRANCH  14  17
HETATM   17  C7  UNL     1      79.456 185.737 133.728  1.00  0.00     0.431 C 
HETATM   18  F1  UNL     1      79.666 184.857 134.793  1.00  0.00    -0.213 F 
BRANCH  17  19
HETATM   19  C8  UNL     1      79.161 184.921 132.506  1.00  0.00     0.414 C 
HETATM   20  F2  UNL     1      80.355 184.478 131.955  1.00  0.00    -0.209 F 
HETATM   21  F3  UNL     1      78.212 183.966 132.627  1.00  0.00    -0.209 F 
ENDBRANCH  17  19
ENDBRANCH  14  17
ENDBRANCH  13  14
ENDBRANCH   1  13
TORSDOF 9
ENDMDL
MODEL 5
REMARK VINA RESULT: -5.574066671      1.626      4.702
REMARK  9 active torsions:
REMARK  status: ('A' for Active; 'I' for Inactive)
REMARK       I    between atoms: C1_2  and  N2_4 
REMARK    1  A    between atoms: N2_4  and  C2_6 
REMARK    2  A    between atoms: C2_6  and  C3_7 
REMARK    3  A    between atoms: C3_7  and  C4_8 
REMARK    4  A    between atoms: C3_7  and  C6_13 
REMARK    5  A    between atoms: C4_8  and  N3_9 
REMARK    6  A    between atoms: N3_9  and  C5_11 
REMARK    7  A    between atoms: C6_13  and  N4_14 
REMARK    8  A    between atoms: N4_14  and  C7_17 
REMARK    9  A    between atoms: C7_17  and  C8_19 
ROOT
HETATM    1  C3  UNL     1      81.697 189.337 135.189  1.00  0.00     0.047 C 
ENDROOT
BRANCH   1   2
HETATM    2  C2  UNL     1      81.479 190.058 133.910  1.00  0.00     0.132 C 
BRANCH   2   3
HETATM    3  N2  UNL     1      80.210 190.726 133.817  1.00  0.00    -0.345 N 
HETATM    4  C1  UNL     1      79.333 190.478 132.755  1.00  0.00     0.328 C 
HETATM    5  N1  UNL     1      78.083 191.085 132.592  1.00  0.00    -0.040 NA
HETATM    6  O1  UNL     1      79.699 189.636 131.867  1.00  0.00    -0.251 OA
ATOM      7  H2  UNL     1      79.942 191.394 134.540  1.00  0.00     0.163 HD
ENDBRANCH   2   3
ENDBRANCH   1   2
BRANCH   1   8
HETATM    8  C4  UNL     1      83.099 189.498 135.706  1.00  0.00     0.130 C 
BRANCH   8   9
HETATM    9  N3  UNL     1      83.481 188.317 136.439  1.00  0.00    -0.368 N 
ATOM     10  H3  UNL     1      83.180 187.411 136.080  1.00  0.00     0.161 HD
BRANCH   9  11
HETATM   11  C5  UNL     1      84.248 188.340 137.621  1.00  0.00     0.348 C 
HETATM   12  O2  UNL     1      85.212 187.569 137.769  1.00  0.00    -0.284 OA
ENDBRANCH   9  11
ENDBRANCH   8   9
ENDBRANCH   1   8
BRANCH   1  13
HETATM   13  C6  UNL     1      81.207 187.900 135.206  1.00  0.00     0.243 C 
BRANCH  13  14
HETATM   14  N4  UNL     1      81.008 187.396 133.880  1.00  0.00    -0.038 N 
ATOM     15  H42 UNL     1      81.186 188.122 133.185  1.00  0.00     0.280 HD
ATOM     16  H41 UNL     1      81.746 186.739 133.627  1.00  0.00     0.280 HD
BRANCH  14  17
HETATM   17  C7  UNL     1      79.721 186.814 133.689  1.00  0.00     0.431 C 
HETATM   18  F1  UNL     1      78.800 187.319 134.610  1.00  0.00    -0.213 F 
BRANCH  17  19
HETATM   19  C8  UNL     1      79.655 185.317 133.743  1.00  0.00     0.414 C 
HETATM   20  F2  UNL     1      80.551 184.789 132.824  1.00  0.00    -0.209 F 
HETATM   21  F3  UNL     1      79.710 184.751 134.968  1.00  0.00    -0.209 F 
ENDBRANCH  17  19
ENDBRANCH  14  17
ENDBRANCH  13  14
ENDBRANCH   1  13
TORSDOF 9
ENDMDL
