MODEL 1
REMARK VINA RESULT: -7.039961821      0.000      0.000
REMARK  5 active torsions:
REMARK  status: ('A' for Active; 'I' for Inactive)
REMARK    1  A    between atoms: C2_2  and  N1_3 
REMARK       I    between atoms: N1_3  and  C3_5 
REMARK       I    between atoms: C3_5  and  N2_7 
REMARK    2  A    between atoms: N2_7  and  C4_9 
REMARK    3  A    between atoms: C5_10  and  S1_11 
REMARK    4  A    between atoms: S1_11  and  C6_12 
REMARK    5  A    between atoms: C10_16  and  S2_17 
ROOT
HETATM    1  C4  UNL     1     -15.161 -40.031 -12.666  1.00  0.00     0.152 A 
HETATM    2  C5  UNL     1     -15.517 -39.935 -14.052  1.00  0.00     0.117 A 
HETATM    3  N3  UNL     1     -15.965 -41.123 -14.416  1.00  0.00    -0.328 N 
ATOM      4  H3  UNL     1     -16.299 -41.382 -15.344  1.00  0.00     0.168 HD
HETATM    5  C17 UNL     1     -15.899 -41.929 -13.344  1.00  0.00     0.159 A 
HETATM    6  S3  UNL     1     -16.205 -43.535 -12.876  1.00  0.00    -0.044 SA
HETATM    7  C18 UNL     1     -15.697 -43.411 -11.272  1.00  0.00     0.077 A 
HETATM    8 BR1  UNL     1     -15.667 -44.764  -9.890  1.00  0.00    -0.041 Br
HETATM    9  C19 UNL     1     -15.303 -42.090 -11.176  1.00  0.00     0.041 A 
HETATM   10  C20 UNL     1     -14.681 -41.692  -9.843  1.00  0.00     0.071 C 
HETATM   11  N4  UNL     1     -15.415 -41.324 -12.249  1.00  0.00    -0.277 N 
ENDROOT
BRANCH   2  12
HETATM   12  S1  UNL     1     -15.393 -38.456 -15.078  1.00  0.00    -0.103 SA
BRANCH  12  13
HETATM   13  C6  UNL     1     -17.004 -37.954 -15.555  1.00  0.00     0.063 C 
HETATM   14  C7  UNL     1     -18.094 -37.751 -14.582  1.00  0.00     0.008 C 
HETATM   15  C8  UNL     1     -17.772 -37.371 -13.208  1.00  0.00     0.008 C 
HETATM   16  C14 UNL     1     -18.609 -36.683 -15.517  1.00  0.00    -0.038 C 
HETATM   17  C9  UNL     1     -16.659 -36.459 -12.942  1.00  0.00     0.020 C 
HETATM   18  C10 UNL     1     -16.462 -35.322 -13.865  1.00  0.00     0.108 C 
HETATM   19  C12 UNL     1     -16.264 -35.641 -15.287  1.00  0.00     0.026 C 
HETATM   20  C13 UNL     1     -17.198 -36.507 -15.975  1.00  0.00     0.009 C 
HETATM   21  C15 UNL     1     -19.414 -37.352 -16.641  1.00  0.00     0.015 C 
HETATM   22  C16 UNL     1     -19.340 -35.531 -14.981  1.00  0.00     0.015 C 
BRANCH  18  23
HETATM   23  S2  UNL     1     -14.940 -34.489 -13.350  1.00  0.00     0.144 S 
HETATM   24  C11 UNL     1     -15.006 -32.864 -14.071  1.00  0.00     0.161 C 
HETATM   25  O2  UNL     1     -14.978 -34.446 -11.862  1.00  0.00    -0.228 OA
HETATM   26  O3  UNL     1     -13.760 -35.270 -13.863  1.00  0.00    -0.228 OA
ENDBRANCH  18  23
ENDBRANCH  12  13
ENDBRANCH   2  12
BRANCH   1  27
HETATM   27  N2  UNL     1     -14.608 -38.883 -12.091  1.00  0.00    -0.292 N 
HETATM   28  C3  UNL     1     -13.341 -38.425 -11.756  1.00  0.00     0.321 C 
HETATM   29  N1  UNL     1     -13.242 -37.071 -11.242  1.00  0.00    -0.343 N 
HETATM   30  O1  UNL     1     -12.271 -39.013 -11.835  1.00  0.00    -0.247 OA
ATOM     31  H1  UNL     1     -14.083 -36.503 -11.141  1.00  0.00     0.164 HD
ATOM     32  H2  UNL     1     -15.327 -38.199 -11.854  1.00  0.00     0.172 HD
BRANCH  29  33
HETATM   33  C2  UNL     1     -11.960 -36.527 -10.873  1.00  0.00     0.120 C 
HETATM   34  C1  UNL     1     -12.091 -35.261 -10.083  1.00  0.00     0.026 C 
ENDBRANCH  29  33
ENDBRANCH   1  27
TORSDOF 5
ENDMDL
MODEL 2
REMARK VINA RESULT: -6.945282209      3.417      6.481
REMARK  5 active torsions:
REMARK  status: ('A' for Active; 'I' for Inactive)
REMARK    1  A    between atoms: C2_2  and  N1_3 
REMARK       I    between atoms: N1_3  and  C3_5 
REMARK       I    between atoms: C3_5  and  N2_7 
REMARK    2  A    between atoms: N2_7  and  C4_9 
REMARK    3  A    between atoms: C5_10  and  S1_11 
REMARK    4  A    between atoms: S1_11  and  C6_12 
REMARK    5  A    between atoms: C10_16  and  S2_17 
ROOT
HETATM    1  C4  UNL     1     -16.554 -39.148 -12.336  1.00  0.00     0.152 A 
HETATM    2  C5  UNL     1     -15.371 -38.533 -12.866  1.00  0.00     0.117 A 
HETATM    3  N3  UNL     1     -15.757 -37.745 -13.853  1.00  0.00    -0.328 N 
ATOM      4  H3  UNL     1     -15.151 -37.165 -14.433  1.00  0.00     0.168 HD
HETATM    5  C17 UNL     1     -17.092 -37.846 -13.957  1.00  0.00     0.159 A 
HETATM    6  S3  UNL     1     -18.394 -37.274 -14.889  1.00  0.00    -0.044 SA
HETATM    7  C18 UNL     1     -19.626 -38.133 -14.122  1.00  0.00     0.077 A 
HETATM    8 BR1  UNL     1     -21.526 -38.136 -14.487  1.00  0.00    -0.041 Br
HETATM    9  C19 UNL     1     -18.947 -38.843 -13.151  1.00  0.00     0.041 A 
HETATM   10  C20 UNL     1     -19.796 -39.817 -12.343  1.00  0.00     0.071 C 
HETATM   11  N4  UNL     1     -17.636 -38.688 -13.064  1.00  0.00    -0.277 N 
ENDROOT
BRANCH   2  12
HETATM   12  S1  UNL     1     -13.688 -38.782 -12.264  1.00  0.00    -0.103 SA
BRANCH  12  13
HETATM   13  C6  UNL     1     -13.134 -37.311 -11.488  1.00  0.00     0.063 C 
HETATM   14  C7  UNL     1     -11.965 -37.279 -10.588  1.00  0.00     0.008 C 
HETATM   15  C8  UNL     1     -10.896 -38.260 -10.760  1.00  0.00     0.008 C 
HETATM   16  C14 UNL     1     -11.733 -35.873 -11.085  1.00  0.00    -0.038 C 
HETATM   17  C9  UNL     1     -10.507 -38.692 -12.103  1.00  0.00     0.020 C 
HETATM   18  C10 UNL     1     -10.466 -37.672 -13.171  1.00  0.00     0.108 C 
HETATM   19  C12 UNL     1     -11.708 -36.929 -13.435  1.00  0.00     0.026 C 
HETATM   20  C13 UNL     1     -12.416 -36.285 -12.349  1.00  0.00     0.009 C 
HETATM   21  C15 UNL     1     -12.654 -34.915 -10.316  1.00  0.00     0.015 C 
HETATM   22  C16 UNL     1     -10.371 -35.334 -11.147  1.00  0.00     0.015 C 
BRANCH  18  23
HETATM   23  S2  UNL     1     -10.100 -38.545 -14.714  1.00  0.00     0.144 S 
HETATM   24  C11 UNL     1      -8.331 -38.721 -14.767  1.00  0.00     0.161 C 
HETATM   25  O2  UNL     1     -10.794 -39.859 -14.616  1.00  0.00    -0.228 OA
HETATM   26  O3  UNL     1     -10.605 -37.724 -15.869  1.00  0.00    -0.228 OA
ENDBRANCH  18  23
ENDBRANCH  12  13
ENDBRANCH   2  12
BRANCH   1  27
HETATM   27  N2  UNL     1     -16.360 -40.071 -11.304  1.00  0.00    -0.292 N 
HETATM   28  C3  UNL     1     -16.451 -41.447 -11.144  1.00  0.00     0.321 C 
HETATM   29  N1  UNL     1     -16.048 -41.991  -9.860  1.00  0.00    -0.343 N 
HETATM   30  O1  UNL     1     -16.830 -42.287 -11.949  1.00  0.00    -0.247 OA
ATOM     31  H1  UNL     1     -15.717 -41.365  -9.125  1.00  0.00     0.164 HD
ATOM     32  H2  UNL     1     -16.077 -39.612 -10.439  1.00  0.00     0.172 HD
BRANCH  29  33
HETATM   33  C2  UNL     1     -16.114 -43.409  -9.619  1.00  0.00     0.120 C 
HETATM   34  C1  UNL     1     -15.355 -43.809  -8.391  1.00  0.00     0.026 C 
ENDBRANCH  29  33
ENDBRANCH   1  27
TORSDOF 5
ENDMDL
MODEL 3
REMARK VINA RESULT: -6.902428345      4.161      5.498
REMARK  5 active torsions:
REMARK  status: ('A' for Active; 'I' for Inactive)
REMARK    1  A    between atoms: C2_2  and  N1_3 
REMARK       I    between atoms: N1_3  and  C3_5 
REMARK       I    between atoms: C3_5  and  N2_7 
REMARK    2  A    between atoms: N2_7  and  C4_9 
REMARK    3  A    between atoms: C5_10  and  S1_11 
REMARK    4  A    between atoms: S1_11  and  C6_12 
REMARK    5  A    between atoms: C10_16  and  S2_17 
ROOT
HETATM    1  C4  UNL     1     -11.527 -36.743 -12.920  1.00  0.00     0.152 A 
HETATM    2  C5  UNL     1     -12.712 -37.106 -13.642  1.00  0.00     0.117 A 
HETATM    3  N3  UNL     1     -12.329 -37.862 -14.655  1.00  0.00    -0.328 N 
ATOM      4  H3  UNL     1     -12.938 -38.282 -15.357  1.00  0.00     0.168 HD
HETATM    5  C17 UNL     1     -10.992 -37.976 -14.594  1.00  0.00     0.159 A 
HETATM    6  S3  UNL     1      -9.685 -38.677 -15.426  1.00  0.00    -0.044 SA
HETATM    7  C18 UNL     1      -8.445 -38.104 -14.438  1.00  0.00     0.077 A 
HETATM    8 BR1  UNL     1      -6.536 -38.387 -14.582  1.00  0.00    -0.041 Br
HETATM    9  C19 UNL     1      -9.126 -37.374 -13.483  1.00  0.00     0.041 A 
HETATM   10  C20 UNL     1      -8.247 -36.627 -12.487  1.00  0.00     0.071 C 
HETATM   11  N4  UNL     1     -10.445 -37.315 -13.562  1.00  0.00    -0.277 N 
ENDROOT
BRANCH   2  12
HETATM   12  S1  UNL     1     -14.400 -36.631 -13.214  1.00  0.00    -0.103 SA
BRANCH  12  13
HETATM   13  C6  UNL     1     -14.877 -35.264 -14.203  1.00  0.00     0.063 C 
HETATM   14  C7  UNL     1     -15.199 -35.394 -15.637  1.00  0.00     0.008 C 
HETATM   15  C8  UNL     1     -15.712 -36.663 -16.148  1.00  0.00     0.008 C 
HETATM   16  C14 UNL     1     -16.173 -34.259 -15.430  1.00  0.00    -0.038 C 
HETATM   17  C9  UNL     1     -16.628 -37.463 -15.334  1.00  0.00     0.020 C 
HETATM   18  C10 UNL     1     -17.660 -36.751 -14.553  1.00  0.00     0.108 C 
HETATM   19  C12 UNL     1     -17.192 -35.744 -13.589  1.00  0.00     0.026 C 
HETATM   20  C13 UNL     1     -16.276 -34.705 -14.008  1.00  0.00     0.009 C 
HETATM   21  C15 UNL     1     -15.404 -32.930 -15.477  1.00  0.00     0.015 C 
HETATM   22  C16 UNL     1     -17.386 -34.178 -16.249  1.00  0.00     0.015 C 
BRANCH  18  23
HETATM   23  S2  UNL     1     -18.516 -37.998 -13.558  1.00  0.00     0.144 S 
HETATM   24  C11 UNL     1     -19.932 -37.177 -12.862  1.00  0.00     0.161 C 
HETATM   25  O2  UNL     1     -18.902 -39.083 -14.503  1.00  0.00    -0.228 OA
HETATM   26  O3  UNL     1     -17.583 -38.489 -12.485  1.00  0.00    -0.228 OA
ENDBRANCH  18  23
ENDBRANCH  12  13
ENDBRANCH   2  12
BRANCH   1  27
HETATM   27  N2  UNL     1     -11.707 -35.891 -11.827  1.00  0.00    -0.292 N 
HETATM   28  C3  UNL     1     -11.309 -35.848 -10.498  1.00  0.00     0.321 C 
HETATM   29  N1  UNL     1     -11.678 -34.668  -9.735  1.00  0.00    -0.343 N 
HETATM   30  O1  UNL     1     -10.677 -36.680  -9.862  1.00  0.00    -0.247 OA
ATOM     31  H1  UNL     1     -12.207 -33.919 -10.182  1.00  0.00     0.164 HD
ATOM     32  H2  UNL     1     -12.285 -35.086 -12.070  1.00  0.00     0.172 HD
BRANCH  29  33
HETATM   33  C2  UNL     1     -11.300 -34.553  -8.350  1.00  0.00     0.120 C 
HETATM   34  C1  UNL     1     -12.319 -33.802  -7.548  1.00  0.00     0.026 C 
ENDBRANCH  29  33
ENDBRANCH   1  27
TORSDOF 5
ENDMDL
MODEL 4
REMARK VINA RESULT: -6.834161008      4.020      6.012
REMARK  5 active torsions:
REMARK  status: ('A' for Active; 'I' for Inactive)
REMARK    1  A    between atoms: C2_2  and  N1_3 
REMARK       I    between atoms: N1_3  and  C3_5 
REMARK       I    between atoms: C3_5  and  N2_7 
REMARK    2  A    between atoms: N2_7  and  C4_9 
REMARK    3  A    between atoms: C5_10  and  S1_11 
REMARK    4  A    between atoms: S1_11  and  C6_12 
REMARK    5  A    between atoms: C10_16  and  S2_17 
ROOT
HETATM    1  C4  UNL     1     -10.625 -36.608 -12.590  1.00  0.00     0.152 A 
HETATM    2  C5  UNL     1     -11.829 -37.186 -13.114  1.00  0.00     0.117 A 
HETATM    3  N3  UNL     1     -11.473 -37.978 -14.109  1.00  0.00    -0.328 N 
ATOM      4  H3  UNL     1     -12.100 -38.537 -14.688  1.00  0.00     0.168 HD
HETATM    5  C17 UNL     1     -10.137 -37.914 -14.224  1.00  0.00     0.159 A 
HETATM    6  S3  UNL     1      -8.859 -38.517 -15.170  1.00  0.00    -0.044 SA
HETATM    7  C18 UNL     1      -7.597 -37.699 -14.407  1.00  0.00     0.077 A 
HETATM    8 BR1  UNL     1      -5.701 -37.747 -14.788  1.00  0.00    -0.041 Br
HETATM    9  C19 UNL     1      -8.248 -36.976 -13.426  1.00  0.00     0.041 A 
HETATM   10  C20 UNL     1      -7.365 -36.032 -12.619  1.00  0.00     0.071 C 
HETATM   11  N4  UNL     1      -9.562 -37.094 -13.329  1.00  0.00    -0.277 N 
ENDROOT
BRANCH   2  12
HETATM   12  S1  UNL     1     -13.499 -36.893 -12.498  1.00  0.00    -0.103 SA
BRANCH  12  13
HETATM   13  C6  UNL     1     -14.149 -35.458 -13.266  1.00  0.00     0.063 C 
HETATM   14  C7  UNL     1     -14.312 -35.343 -14.728  1.00  0.00     0.008 C 
HETATM   15  C8  UNL     1     -14.519 -36.550 -15.527  1.00  0.00     0.008 C 
HETATM   16  C14 UNL     1     -15.505 -34.466 -14.437  1.00  0.00    -0.038 C 
HETATM   17  C9  UNL     1     -15.326 -37.650 -14.997  1.00  0.00     0.020 C 
HETATM   18  C10 UNL     1     -16.542 -37.307 -14.232  1.00  0.00     0.108 C 
HETATM   19  C12 UNL     1     -16.368 -36.455 -13.046  1.00  0.00     0.026 C 
HETATM   20  C13 UNL     1     -15.643 -35.207 -13.146  1.00  0.00     0.009 C 
HETATM   21  C15 UNL     1     -15.014 -33.042 -14.139  1.00  0.00     0.015 C 
HETATM   22  C16 UNL     1     -16.635 -34.432 -15.370  1.00  0.00     0.015 C 
BRANCH  18  23
HETATM   23  S2  UNL     1     -17.218 -38.863 -13.601  1.00  0.00     0.144 S 
HETATM   24  C11 UNL     1     -15.843 -39.986 -13.497  1.00  0.00     0.161 C 
HETATM   25  O2  UNL     1     -17.791 -38.550 -12.262  1.00  0.00    -0.228 OA
HETATM   26  O3  UNL     1     -18.265 -39.364 -14.560  1.00  0.00    -0.228 OA
ENDBRANCH  18  23
ENDBRANCH  12  13
ENDBRANCH   2  12
BRANCH   1  27
HETATM   27  N2  UNL     1     -10.784 -35.687 -11.551  1.00  0.00    -0.292 N 
HETATM   28  C3  UNL     1     -11.027 -35.732 -10.185  1.00  0.00     0.321 C 
HETATM   29  N1  UNL     1     -11.019 -34.467  -9.471  1.00  0.00    -0.343 N 
HETATM   30  O1  UNL     1     -11.250 -36.706  -9.480  1.00  0.00    -0.247 OA
ATOM     31  H1  UNL     1     -10.841 -33.599  -9.977  1.00  0.00     0.164 HD
ATOM     32  H2  UNL     1     -10.700 -34.727 -11.885  1.00  0.00     0.172 HD
BRANCH  29  33
HETATM   33  C2  UNL     1     -11.264 -34.434  -8.052  1.00  0.00     0.120 C 
HETATM   34  C1  UNL     1     -12.563 -33.767  -7.719  1.00  0.00     0.026 C 
ENDBRANCH  29  33
ENDBRANCH   1  27
TORSDOF 5
ENDMDL
MODEL 5
REMARK VINA RESULT: -6.768927396      3.280      5.843
REMARK  5 active torsions:
REMARK  status: ('A' for Active; 'I' for Inactive)
REMARK    1  A    between atoms: C2_2  and  N1_3 
REMARK       I    between atoms: N1_3  and  C3_5 
REMARK       I    between atoms: C3_5  and  N2_7 
REMARK    2  A    between atoms: N2_7  and  C4_9 
REMARK    3  A    between atoms: C5_10  and  S1_11 
REMARK    4  A    between atoms: S1_11  and  C6_12 
REMARK    5  A    between atoms: C10_16  and  S2_17 
ROOT
HETATM    1  C4  UNL     1     -13.453 -36.173 -12.344  1.00  0.00     0.152 A 
HETATM    2  C5  UNL     1     -14.747 -35.726 -12.774  1.00  0.00     0.117 A 
HETATM    3  N3  UNL     1     -15.148 -34.818 -11.902  1.00  0.00    -0.328 N 
ATOM      4  H3  UNL     1     -16.030 -34.307 -11.928  1.00  0.00     0.168 HD
HETATM    5  C17 UNL     1     -14.185 -34.691 -10.974  1.00  0.00     0.159 A 
HETATM    6  S3  UNL     1     -13.833 -33.848  -9.541  1.00  0.00    -0.044 SA
HETATM    7  C18 UNL     1     -12.330 -34.543  -9.224  1.00  0.00     0.077 A 
HETATM    8 BR1  UNL     1     -11.111 -34.208  -7.760  1.00  0.00    -0.041 Br
HETATM    9  C19 UNL     1     -12.170 -35.422 -10.278  1.00  0.00     0.041 A 
HETATM   10  C20 UNL     1     -10.924 -36.296 -10.213  1.00  0.00     0.071 C 
HETATM   11  N4  UNL     1     -13.129 -35.491 -11.186  1.00  0.00    -0.277 N 
ENDROOT
BRANCH   2  12
HETATM   12  S1  UNL     1     -15.629 -36.290 -14.243  1.00  0.00    -0.103 SA
BRANCH  12  13
HETATM   13  C6  UNL     1     -17.266 -36.728 -13.795  1.00  0.00     0.063 C 
HETATM   14  C7  UNL     1     -18.142 -37.533 -14.669  1.00  0.00     0.008 C 
HETATM   15  C8  UNL     1     -17.547 -38.477 -15.612  1.00  0.00     0.008 C 
HETATM   16  C14 UNL     1     -18.756 -38.078 -13.402  1.00  0.00    -0.038 C 
HETATM   17  C9  UNL     1     -16.350 -39.231 -15.236  1.00  0.00     0.020 C 
HETATM   18  C10 UNL     1     -16.259 -39.738 -13.851  1.00  0.00     0.108 C 
HETATM   19  C12 UNL     1     -16.350 -38.747 -12.769  1.00  0.00     0.026 C 
HETATM   20  C13 UNL     1     -17.446 -37.803 -12.736  1.00  0.00     0.009 C 
HETATM   21  C15 UNL     1     -19.795 -37.074 -12.881  1.00  0.00     0.015 C 
HETATM   22  C16 UNL     1     -19.302 -39.438 -13.379  1.00  0.00     0.015 C 
BRANCH  18  23
HETATM   23  S2  UNL     1     -14.620 -40.484 -13.674  1.00  0.00     0.144 S 
HETATM   24  C11 UNL     1     -14.902 -42.212 -13.360  1.00  0.00     0.161 C 
HETATM   25  O2  UNL     1     -13.922 -40.254 -14.970  1.00  0.00    -0.228 OA
HETATM   26  O3  UNL     1     -13.907 -39.826 -12.524  1.00  0.00    -0.228 OA
ENDBRANCH  18  23
ENDBRANCH  12  13
ENDBRANCH   2  12
BRANCH   1  27
HETATM   27  N2  UNL     1     -12.866 -37.185 -13.109  1.00  0.00    -0.292 N 
HETATM   28  C3  UNL     1     -11.623 -37.438 -13.674  1.00  0.00     0.321 C 
HETATM   29  N1  UNL     1     -11.445 -38.720 -14.332  1.00  0.00    -0.343 N 
HETATM   30  O1  UNL     1     -10.634 -36.718 -13.697  1.00  0.00    -0.247 OA
ATOM     31  H1  UNL     1     -12.216 -39.387 -14.363  1.00  0.00     0.164 HD
ATOM     32  H2  UNL     1     -13.525 -37.939 -13.304  1.00  0.00     0.172 HD
BRANCH  29  33
HETATM   33  C2  UNL     1     -10.183 -39.053 -14.941  1.00  0.00     0.120 C 
HETATM   34  C1  UNL     1     -10.228 -38.933 -16.434  1.00  0.00     0.026 C 
ENDBRANCH  29  33
ENDBRANCH   1  27
TORSDOF 5
ENDMDL
