MODEL 1
REMARK VINA RESULT: -7.327557588      0.000      0.000
REMARK  12 active torsions:
REMARK  status: ('A' for Active; 'I' for Inactive)
REMARK    1  A    between atoms: C1_2  and  C2_3 
REMARK    2  A    between atoms: C1_2  and  O3_28 
REMARK    3  A    between atoms: C2_3  and  N1_4 
REMARK    4  A    between atoms: N1_4  and  C3_5 
REMARK    5  A    between atoms: N1_4  and  C12_22 
REMARK    6  A    between atoms: C3_5  and  C4_6 
REMARK    7  A    between atoms: C4_6  and  O2_7 
REMARK    8  A    between atoms: C4_6  and  C5_9 
REMARK    9  A    between atoms: C4_6  and  C8_17 
REMARK   10  A    between atoms: C5_9  and  N2_10 
REMARK   11  A    between atoms: O3_28  and  C18_29 
REMARK   12  A    between atoms: C21_32  and  N5_33 
ROOT
HETATM    1  N1  UNL     1      11.068  33.225  64.430  1.00  0.00    -0.348 N 
ENDROOT
BRANCH   1   2
HETATM    2  C2  UNL     1       9.946  32.553  63.692  1.00  0.00     0.239 C 
BRANCH   2   3
HETATM    3  C1  UNL     1      10.325  31.270  63.128  1.00  0.00     0.282 C 
HETATM    4  O1  UNL     1      10.395  31.096  61.894  1.00  0.00    -0.263 OA
BRANCH   3   5
HETATM    5  O3  UNL     1      10.621  30.204  63.955  1.00  0.00    -0.278 OA
BRANCH   5   6
HETATM    6  C18 UNL     1       9.714  29.442  64.647  1.00  0.00     0.079 A 
HETATM    7  C19 UNL     1       9.669  29.425  66.012  1.00  0.00     0.040 A 
HETATM    8  C20 UNL     1       8.752  28.652  66.727  1.00  0.00     0.039 A 
HETATM    9  C21 UNL     1       7.849  27.866  66.043  1.00  0.00     0.103 A 
HETATM   10  C22 UNL     1       7.883  27.872  64.659  1.00  0.00     0.039 A 
HETATM   11  C23 UNL     1       8.811  28.657  63.967  1.00  0.00     0.040 A 
BRANCH   9  12
HETATM   12  N5  UNL     1       6.904  27.061  66.756  1.00  0.00    -0.116 N 
HETATM   13  O4  UNL     1       7.222  26.609  67.864  1.00  0.00    -0.532 OA
HETATM   14  O5  UNL     1       5.678  26.812  66.187  1.00  0.00    -0.532 OA
ENDBRANCH   9  12
ENDBRANCH   5   6
ENDBRANCH   3   5
ENDBRANCH   2   3
ENDBRANCH   1   2
BRANCH   1  15
HETATM   15  C3  UNL     1      11.875  34.073  63.678  1.00  0.00     0.110 C 
BRANCH  15  16
HETATM   16  C4  UNL     1      12.139  35.489  63.865  1.00  0.00     0.141 C 
BRANCH  16  17
HETATM   17  O2  UNL     1      12.537  35.932  62.515  1.00  0.00    -0.377 OA
ATOM     18  H2  UNL     1      12.264  35.207  61.965  1.00  0.00     0.211 HD
ENDBRANCH  16  17
BRANCH  16  19
HETATM   19  C5  UNL     1      11.061  36.417  64.236  1.00  0.00     0.199 C 
BRANCH  19  20
HETATM   20  N2  UNL     1      10.367  36.874  63.019  1.00  0.00    -0.283 N 
HETATM   21  C6  UNL     1       9.381  36.338  62.322  1.00  0.00     0.201 A 
HETATM   22  N3  UNL     1       9.101  37.168  61.299  1.00  0.00    -0.346 N 
HETATM   23  C7  UNL     1       9.913  38.237  61.344  1.00  0.00     0.198 A 
ATOM     24  H3  UNL     1       8.379  37.009  60.595  1.00  0.00     0.167 HD
HETATM   25  N4  UNL     1      10.686  38.031  62.417  1.00  0.00    -0.293 N 
ATOM     26  H4  UNL     1      11.418  38.667  62.734  1.00  0.00     0.188 HD
ENDBRANCH  19  20
ENDBRANCH  16  19
BRANCH  16  27
HETATM   27  C8  UNL     1      13.382  35.828  64.670  1.00  0.00     0.023 A 
HETATM   28  C9  UNL     1      14.249  34.965  65.300  1.00  0.00     0.018 A 
HETATM   29  C10 UNL     1      15.286  35.500  65.970  1.00  0.00     0.008 A 
HETATM   30  C11 UNL     1      15.404  36.859  65.976  1.00  0.00     0.050 A 
HETATM   31  S1  UNL     1      14.066  37.334  65.048  1.00  0.00    -0.103 SA
ENDBRANCH  16  27
ENDBRANCH  15  16
ENDBRANCH   1  15
BRANCH   1  32
HETATM   32  C12 UNL     1      11.038  32.939  65.801  1.00  0.00     0.034 A 
HETATM   33  C13 UNL     1       9.876  33.277  66.505  1.00  0.00     0.029 A 
HETATM   34  C14 UNL     1       9.726  32.984  67.834  1.00  0.00     0.002 A 
HETATM   35  C15 UNL     1      10.723  32.338  68.544  1.00  0.00     0.000 A 
HETATM   36  C16 UNL     1      11.870  31.997  67.871  1.00  0.00     0.002 A 
HETATM   37  C17 UNL     1      12.006  32.299  66.530  1.00  0.00     0.029 A 
ENDBRANCH   1  32
TORSDOF 12
ENDMDL
MODEL 2
REMARK VINA RESULT: -7.299274823      3.050      5.061
REMARK  12 active torsions:
REMARK  status: ('A' for Active; 'I' for Inactive)
REMARK    1  A    between atoms: C1_2  and  C2_3 
REMARK    2  A    between atoms: C1_2  and  O3_28 
REMARK    3  A    between atoms: C2_3  and  N1_4 
REMARK    4  A    between atoms: N1_4  and  C3_5 
REMARK    5  A    between atoms: N1_4  and  C12_22 
REMARK    6  A    between atoms: C3_5  and  C4_6 
REMARK    7  A    between atoms: C4_6  and  O2_7 
REMARK    8  A    between atoms: C4_6  and  C5_9 
REMARK    9  A    between atoms: C4_6  and  C8_17 
REMARK   10  A    between atoms: C5_9  and  N2_10 
REMARK   11  A    between atoms: O3_28  and  C18_29 
REMARK   12  A    between atoms: C21_32  and  N5_33 
ROOT
HETATM    1  N1  UNL     1       9.542  30.171  65.691  1.00  0.00    -0.348 N 
ENDROOT
BRANCH   1   2
HETATM    2  C2  UNL     1       9.121  30.812  64.400  1.00  0.00     0.239 C 
BRANCH   2   3
HETATM    3  C1  UNL     1      10.169  30.805  63.395  1.00  0.00     0.282 C 
HETATM    4  O1  UNL     1      10.353  31.781  62.640  1.00  0.00    -0.263 OA
BRANCH   3   5
HETATM    5  O3  UNL     1      10.993  29.705  63.253  1.00  0.00    -0.278 OA
BRANCH   5   6
HETATM    6  C18 UNL     1      10.695  28.555  62.565  1.00  0.00     0.079 A 
HETATM    7  C19 UNL     1      10.196  27.445  63.184  1.00  0.00     0.040 A 
HETATM    8  C20 UNL     1       9.892  26.270  62.495  1.00  0.00     0.039 A 
HETATM    9  C21 UNL     1      10.097  26.210  61.133  1.00  0.00     0.103 A 
HETATM   10  C22 UNL     1      10.603  27.327  60.492  1.00  0.00     0.039 A 
HETATM   11  C23 UNL     1      10.899  28.493  61.205  1.00  0.00     0.040 A 
BRANCH   9  12
HETATM   12  N5  UNL     1       9.798  25.013  60.408  1.00  0.00    -0.116 N 
HETATM   13  O4  UNL     1       9.818  23.930  61.009  1.00  0.00    -0.532 OA
HETATM   14  O5  UNL     1       9.503  25.102  59.068  1.00  0.00    -0.532 OA
ENDBRANCH   9  12
ENDBRANCH   5   6
ENDBRANCH   3   5
ENDBRANCH   2   3
ENDBRANCH   1   2
BRANCH   1  15
HETATM   15  C3  UNL     1      10.620  30.761  66.345  1.00  0.00     0.110 C 
BRANCH  15  16
HETATM   16  C4  UNL     1      10.827  32.156  66.693  1.00  0.00     0.141 C 
BRANCH  16  17
HETATM   17  O2  UNL     1      12.040  32.509  65.931  1.00  0.00    -0.377 OA
ATOM     18  H2  UNL     1      12.657  31.834  66.188  1.00  0.00     0.211 HD
ENDBRANCH  16  17
BRANCH  16  19
HETATM   19  C5  UNL     1       9.854  33.186  66.303  1.00  0.00     0.199 C 
BRANCH  19  20
HETATM   20  N2  UNL     1      10.553  34.284  65.613  1.00  0.00    -0.283 N 
HETATM   21  C6  UNL     1      11.132  35.378  66.073  1.00  0.00     0.201 A 
HETATM   22  N3  UNL     1      11.641  36.049  65.022  1.00  0.00    -0.346 N 
HETATM   23  C7  UNL     1      11.383  35.379  63.886  1.00  0.00     0.198 A 
ATOM     24  H3  UNL     1      12.147  36.933  65.080  1.00  0.00     0.167 HD
HETATM   25  N4  UNL     1      10.709  34.292  64.278  1.00  0.00    -0.293 N 
ATOM     26  H4  UNL     1      10.362  33.568  63.650  1.00  0.00     0.188 HD
ENDBRANCH  19  20
ENDBRANCH  16  19
BRANCH  16  27
HETATM   27  C8  UNL     1      11.283  32.420  68.118  1.00  0.00     0.023 A 
HETATM   28  C9  UNL     1      10.507  32.661  69.229  1.00  0.00     0.018 A 
HETATM   29  C10 UNL     1      11.138  32.881  70.396  1.00  0.00     0.008 A 
HETATM   30  C11 UNL     1      12.502  32.850  70.396  1.00  0.00     0.050 A 
HETATM   31  S1  UNL     1      12.847  32.514  68.769  1.00  0.00    -0.103 SA
ENDBRANCH  16  27
ENDBRANCH  15  16
ENDBRANCH   1  15
BRANCH   1  32
HETATM   32  C12 UNL     1       8.688  29.124  66.059  1.00  0.00     0.034 A 
HETATM   33  C13 UNL     1       7.653  28.795  65.175  1.00  0.00     0.029 A 
HETATM   34  C14 UNL     1       6.803  27.749  65.415  1.00  0.00     0.002 A 
HETATM   35  C15 UNL     1       6.931  26.966  66.549  1.00  0.00     0.000 A 
HETATM   36  C16 UNL     1       7.940  27.272  67.428  1.00  0.00     0.002 A 
HETATM   37  C17 UNL     1       8.790  28.330  67.171  1.00  0.00     0.029 A 
ENDBRANCH   1  32
TORSDOF 12
ENDMDL
MODEL 3
REMARK VINA RESULT: -7.255055717      3.516      5.656
REMARK  12 active torsions:
REMARK  status: ('A' for Active; 'I' for Inactive)
REMARK    1  A    between atoms: C1_2  and  C2_3 
REMARK    2  A    between atoms: C1_2  and  O3_28 
REMARK    3  A    between atoms: C2_3  and  N1_4 
REMARK    4  A    between atoms: N1_4  and  C3_5 
REMARK    5  A    between atoms: N1_4  and  C12_22 
REMARK    6  A    between atoms: C3_5  and  C4_6 
REMARK    7  A    between atoms: C4_6  and  O2_7 
REMARK    8  A    between atoms: C4_6  and  C5_9 
REMARK    9  A    between atoms: C4_6  and  C8_17 
REMARK   10  A    between atoms: C5_9  and  N2_10 
REMARK   11  A    between atoms: O3_28  and  C18_29 
REMARK   12  A    between atoms: C21_32  and  N5_33 
ROOT
HETATM    1  N1  UNL     1       9.517  30.298  65.491  1.00  0.00    -0.348 N 
ENDROOT
BRANCH   1   2
HETATM    2  C2  UNL     1       9.100  30.792  64.135  1.00  0.00     0.239 C 
BRANCH   2   3
HETATM    3  C1  UNL     1      10.178  30.758  63.164  1.00  0.00     0.282 C 
HETATM    4  O1  UNL     1      10.389  31.716  62.393  1.00  0.00    -0.263 OA
BRANCH   3   5
HETATM    5  O3  UNL     1      11.001  29.652  63.071  1.00  0.00    -0.278 OA
BRANCH   5   6
HETATM    6  C18 UNL     1      10.721  28.491  62.394  1.00  0.00     0.079 A 
HETATM    7  C19 UNL     1      10.936  28.362  61.051  1.00  0.00     0.040 A 
HETATM    8  C20 UNL     1      10.653  27.188  60.352  1.00  0.00     0.039 A 
HETATM    9  C21 UNL     1      10.135  26.104  61.028  1.00  0.00     0.103 A 
HETATM   10  C22 UNL     1       9.911  26.220  62.389  1.00  0.00     0.039 A 
HETATM   11  C23 UNL     1      10.204  27.408  63.067  1.00  0.00     0.040 A 
BRANCH   9  12
HETATM   12  N5  UNL     1       9.832  24.892  60.330  1.00  0.00    -0.116 N 
HETATM   13  O4  UNL     1       9.795  23.830  60.967  1.00  0.00    -0.532 OA
HETATM   14  O5  UNL     1       9.595  24.944  58.977  1.00  0.00    -0.532 OA
ENDBRANCH   9  12
ENDBRANCH   5   6
ENDBRANCH   3   5
ENDBRANCH   2   3
ENDBRANCH   1   2
BRANCH   1  15
HETATM   15  C3  UNL     1      10.537  31.009  66.116  1.00  0.00     0.110 C 
BRANCH  15  16
HETATM   16  C4  UNL     1      10.474  32.288  66.802  1.00  0.00     0.141 C 
BRANCH  16  17
HETATM   17  O2  UNL     1       9.024  32.507  66.957  1.00  0.00    -0.377 OA
ATOM     18  H2  UNL     1       8.935  32.690  67.885  1.00  0.00     0.211 HD
ENDBRANCH  16  17
BRANCH  16  19
HETATM   19  C5  UNL     1      11.001  32.442  68.165  1.00  0.00     0.199 C 
BRANCH  19  20
HETATM   20  N2  UNL     1      12.473  32.489  68.119  1.00  0.00    -0.283 N 
HETATM   21  C6  UNL     1      13.370  31.554  67.864  1.00  0.00     0.201 A 
HETATM   22  N3  UNL     1      14.590  32.121  67.934  1.00  0.00    -0.346 N 
HETATM   23  C7  UNL     1      14.468  33.425  68.237  1.00  0.00     0.198 A 
ATOM     24  H3  UNL     1      15.473  31.635  67.780  1.00  0.00     0.167 HD
HETATM   25  N4  UNL     1      13.150  33.627  68.346  1.00  0.00    -0.293 N 
ATOM     26  H4  UNL     1      12.718  34.523  68.571  1.00  0.00     0.188 HD
ENDBRANCH  19  20
ENDBRANCH  16  19
BRANCH  16  27
HETATM   27  C8  UNL     1      10.873  33.499  65.977  1.00  0.00     0.023 A 
HETATM   28  C9  UNL     1      11.792  33.567  64.955  1.00  0.00     0.018 A 
HETATM   29  C10 UNL     1      11.990  34.763  64.371  1.00  0.00     0.008 A 
HETATM   30  C11 UNL     1      11.267  35.823  64.835  1.00  0.00     0.050 A 
HETATM   31  S1  UNL     1      10.340  35.108  66.063  1.00  0.00    -0.103 SA
ENDBRANCH  16  27
ENDBRANCH  15  16
ENDBRANCH   1  15
BRANCH   1  32
HETATM   32  C12 UNL     1       8.715  29.237  65.932  1.00  0.00     0.034 A 
HETATM   33  C13 UNL     1       7.643  28.857  65.114  1.00  0.00     0.029 A 
HETATM   34  C14 UNL     1       6.837  27.795  65.427  1.00  0.00     0.002 A 
HETATM   35  C15 UNL     1       7.049  27.046  66.572  1.00  0.00     0.000 A 
HETATM   36  C16 UNL     1       8.095  27.403  67.386  1.00  0.00     0.002 A 
HETATM   37  C17 UNL     1       8.899  28.477  67.057  1.00  0.00     0.029 A 
ENDBRANCH   1  32
TORSDOF 12
ENDMDL
MODEL 4
REMARK VINA RESULT: -7.250156391      3.057      5.185
REMARK  12 active torsions:
REMARK  status: ('A' for Active; 'I' for Inactive)
REMARK    1  A    between atoms: C1_2  and  C2_3 
REMARK    2  A    between atoms: C1_2  and  O3_28 
REMARK    3  A    between atoms: C2_3  and  N1_4 
REMARK    4  A    between atoms: N1_4  and  C3_5 
REMARK    5  A    between atoms: N1_4  and  C12_22 
REMARK    6  A    between atoms: C3_5  and  C4_6 
REMARK    7  A    between atoms: C4_6  and  O2_7 
REMARK    8  A    between atoms: C4_6  and  C5_9 
REMARK    9  A    between atoms: C4_6  and  C8_17 
REMARK   10  A    between atoms: C5_9  and  N2_10 
REMARK   11  A    between atoms: O3_28  and  C18_29 
REMARK   12  A    between atoms: C21_32  and  N5_33 
ROOT
HETATM    1  N1  UNL     1       9.468  30.161  65.738  1.00  0.00    -0.348 N 
ENDROOT
BRANCH   1   2
HETATM    2  C2  UNL     1       9.153  30.893  64.465  1.00  0.00     0.239 C 
BRANCH   2   3
HETATM    3  C1  UNL     1      10.200  30.775  63.467  1.00  0.00     0.282 C 
HETATM    4  O1  UNL     1      10.437  31.696  62.661  1.00  0.00    -0.263 OA
BRANCH   3   5
HETATM    5  O3  UNL     1      10.964  29.626  63.390  1.00  0.00    -0.278 OA
BRANCH   5   6
HETATM    6  C18 UNL     1      10.676  28.513  62.641  1.00  0.00     0.079 A 
HETATM    7  C19 UNL     1      10.836  28.487  61.284  1.00  0.00     0.040 A 
HETATM    8  C20 UNL     1      10.544  27.362  60.512  1.00  0.00     0.039 A 
HETATM    9  C21 UNL     1      10.073  26.221  61.127  1.00  0.00     0.103 A 
HETATM   10  C22 UNL     1       9.905  26.232  62.501  1.00  0.00     0.039 A 
HETATM   11  C23 UNL     1      10.207  27.373  63.252  1.00  0.00     0.040 A 
BRANCH   9  12
HETATM   12  N5  UNL     1       9.762  25.058  60.353  1.00  0.00    -0.116 N 
HETATM   13  O4  UNL     1       9.761  25.146  59.118  1.00  0.00    -0.532 OA
HETATM   14  O5  UNL     1       9.470  23.883  61.005  1.00  0.00    -0.532 OA
ENDBRANCH   9  12
ENDBRANCH   5   6
ENDBRANCH   3   5
ENDBRANCH   2   3
ENDBRANCH   1   2
BRANCH   1  15
HETATM   15  C3  UNL     1      10.473  30.710  66.528  1.00  0.00     0.110 C 
BRANCH  15  16
HETATM   16  C4  UNL     1      10.755  32.107  66.809  1.00  0.00     0.141 C 
BRANCH  16  17
HETATM   17  O2  UNL     1      11.971  32.366  66.014  1.00  0.00    -0.377 OA
ATOM     18  H2  UNL     1      11.943  33.306  65.882  1.00  0.00     0.211 HD
ENDBRANCH  16  17
BRANCH  16  19
HETATM   19  C5  UNL     1       9.828  33.167  66.388  1.00  0.00     0.199 C 
BRANCH  19  20
HETATM   20  N2  UNL     1      10.577  34.225  65.689  1.00  0.00    -0.283 N 
HETATM   21  C6  UNL     1      11.197  35.300  66.140  1.00  0.00     0.201 A 
HETATM   22  N3  UNL     1      11.743  35.935  65.085  1.00  0.00    -0.346 N 
HETATM   23  C7  UNL     1      11.466  35.261  63.956  1.00  0.00     0.198 A 
ATOM     24  H3  UNL     1      12.285  36.798  65.135  1.00  0.00     0.167 HD
HETATM   25  N4  UNL     1      10.745  34.208  64.356  1.00  0.00    -0.293 N 
ATOM     26  H4  UNL     1      10.373  33.490  63.735  1.00  0.00     0.188 HD
ENDBRANCH  19  20
ENDBRANCH  16  19
BRANCH  16  27
HETATM   27  C8  UNL     1      11.247  32.411  68.215  1.00  0.00     0.023 A 
HETATM   28  C9  UNL     1      10.500  32.664  69.342  1.00  0.00     0.018 A 
HETATM   29  C10 UNL     1      11.161  32.921  70.485  1.00  0.00     0.008 A 
HETATM   30  C11 UNL     1      12.524  32.913  70.445  1.00  0.00     0.050 A 
HETATM   31  S1  UNL     1      12.828  32.547  68.817  1.00  0.00    -0.103 SA
ENDBRANCH  16  27
ENDBRANCH  15  16
ENDBRANCH   1  15
BRANCH   1  32
HETATM   32  C12 UNL     1       8.604  29.079  65.948  1.00  0.00     0.034 A 
HETATM   33  C13 UNL     1       8.791  28.321  67.110  1.00  0.00     0.029 A 
HETATM   34  C14 UNL     1       7.962  27.281  67.437  1.00  0.00     0.002 A 
HETATM   35  C15 UNL     1       6.895  26.933  66.627  1.00  0.00     0.000 A 
HETATM   36  C16 UNL     1       6.694  27.665  65.483  1.00  0.00     0.002 A 
HETATM   37  C17 UNL     1       7.540  28.711  65.168  1.00  0.00     0.029 A 
ENDBRANCH   1  32
TORSDOF 12
ENDMDL
MODEL 5
REMARK VINA RESULT: -7.176914033      0.485      1.027
REMARK  12 active torsions:
REMARK  status: ('A' for Active; 'I' for Inactive)
REMARK    1  A    between atoms: C1_2  and  C2_3 
REMARK    2  A    between atoms: C1_2  and  O3_28 
REMARK    3  A    between atoms: C2_3  and  N1_4 
REMARK    4  A    between atoms: N1_4  and  C3_5 
REMARK    5  A    between atoms: N1_4  and  C12_22 
REMARK    6  A    between atoms: C3_5  and  C4_6 
REMARK    7  A    between atoms: C4_6  and  O2_7 
REMARK    8  A    between atoms: C4_6  and  C5_9 
REMARK    9  A    between atoms: C4_6  and  C8_17 
REMARK   10  A    between atoms: C5_9  and  N2_10 
REMARK   11  A    between atoms: O3_28  and  C18_29 
REMARK   12  A    between atoms: C21_32  and  N5_33 
ROOT
HETATM    1  N1  UNL     1      10.988  33.118  64.574  1.00  0.00    -0.348 N 
ENDROOT
BRANCH   1   2
HETATM    2  C2  UNL     1       9.905  32.397  63.825  1.00  0.00     0.239 C 
BRANCH   2   3
HETATM    3  C1  UNL     1      10.344  31.128  63.274  1.00  0.00     0.282 C 
HETATM    4  O1  UNL     1      10.499  30.971  62.046  1.00  0.00    -0.263 OA
BRANCH   3   5
HETATM    5  O3  UNL     1      10.604  30.057  64.107  1.00  0.00    -0.278 OA
BRANCH   5   6
HETATM    6  C18 UNL     1       9.669  29.316  64.786  1.00  0.00     0.079 A 
HETATM    7  C19 UNL     1       9.648  29.243  66.149  1.00  0.00     0.040 A 
HETATM    8  C20 UNL     1       8.704  28.490  66.849  1.00  0.00     0.039 A 
HETATM    9  C21 UNL     1       7.747  27.784  66.152  1.00  0.00     0.103 A 
HETATM   10  C22 UNL     1       7.756  27.848  64.769  1.00  0.00     0.039 A 
HETATM   11  C23 UNL     1       8.713  28.611  64.091  1.00  0.00     0.040 A 
BRANCH   9  12
HETATM   12  N5  UNL     1       6.773  27.001  66.850  1.00  0.00    -0.116 N 
HETATM   13  O4  UNL     1       7.063  26.544  67.964  1.00  0.00    -0.532 OA
HETATM   14  O5  UNL     1       5.552  26.777  66.260  1.00  0.00    -0.532 OA
ENDBRANCH   9  12
ENDBRANCH   5   6
ENDBRANCH   3   5
ENDBRANCH   2   3
ENDBRANCH   1   2
BRANCH   1  15
HETATM   15  C3  UNL     1      11.807  33.951  63.818  1.00  0.00     0.110 C 
BRANCH  15  16
HETATM   16  C4  UNL     1      12.034  35.379  63.952  1.00  0.00     0.141 C 
BRANCH  16  17
HETATM   17  O2  UNL     1      12.365  35.792  62.575  1.00  0.00    -0.377 OA
ATOM     18  H2  UNL     1      12.684  36.679  62.689  1.00  0.00     0.211 HD
ENDBRANCH  16  17
BRANCH  16  19
HETATM   19  C5  UNL     1      10.943  36.286  64.337  1.00  0.00     0.199 C 
BRANCH  19  20
HETATM   20  N2  UNL     1      10.425  36.968  63.138  1.00  0.00    -0.283 N 
HETATM   21  C6  UNL     1      10.594  38.199  62.691  1.00  0.00     0.201 A 
HETATM   22  N3  UNL     1       9.915  38.316  61.534  1.00  0.00    -0.346 N 
HETATM   23  C7  UNL     1       9.308  37.152  61.244  1.00  0.00     0.198 A 
ATOM     24  H3  UNL     1       9.868  39.160  60.964  1.00  0.00     0.167 HD
HETATM   25  N4  UNL     1       9.639  36.336  62.251  1.00  0.00    -0.293 N 
ATOM     26  H4  UNL     1       9.337  35.365  62.333  1.00  0.00     0.188 HD
ENDBRANCH  19  20
ENDBRANCH  16  19
BRANCH  16  27
HETATM   27  C8  UNL     1      13.296  35.780  64.696  1.00  0.00     0.023 A 
HETATM   28  C9  UNL     1      14.224  34.963  65.299  1.00  0.00     0.018 A 
HETATM   29  C10 UNL     1      15.267  35.549  65.915  1.00  0.00     0.008 A 
HETATM   30  C11 UNL     1      15.329  36.912  65.898  1.00  0.00     0.050 A 
HETATM   31  S1  UNL     1      13.933  37.319  65.024  1.00  0.00    -0.103 SA
ENDBRANCH  16  27
ENDBRANCH  15  16
ENDBRANCH   1  15
BRANCH   1  32
HETATM   32  C12 UNL     1      10.915  32.886  65.954  1.00  0.00     0.034 A 
HETATM   33  C13 UNL     1      11.996  32.230  66.555  1.00  0.00     0.029 A 
HETATM   34  C14 UNL     1      12.047  32.011  67.906  1.00  0.00     0.002 A 
HETATM   35  C15 UNL     1      11.026  32.430  68.741  1.00  0.00     0.000 A 
HETATM   36  C16 UNL     1       9.957  33.076  68.170  1.00  0.00     0.002 A 
HETATM   37  C17 UNL     1       9.920  33.290  66.806  1.00  0.00     0.029 A 
ENDBRANCH   1  32
TORSDOF 12
ENDMDL
