MODEL 1
REMARK VINA RESULT: -7.174923080      0.000      0.000
REMARK  4 active torsions:
REMARK  status: ('A' for Active; 'I' for Inactive)
REMARK    1  A    between atoms: C2_2  and  C3_3 
REMARK    2  A    between atoms: C4_6  and  C5_7 
REMARK    3  A    between atoms: C7_9  and  C8_10 
REMARK    4  A    between atoms: C9_13  and  C10_14 
ROOT
HETATM    1  C3  UNL     1      14.772   5.238  13.371  1.00  0.00     0.124 A 
HETATM    2  N1  UNL     1      14.920   4.642  14.538  1.00  0.00    -0.338 N 
ATOM      3  H1  UNL     1      14.578   5.012  15.424  1.00  0.00     0.168 HD
HETATM    4  C4  UNL     1      15.606   3.441  14.397  1.00  0.00     0.079 A 
HETATM    5  C9  UNL     1      15.850   3.365  13.074  1.00  0.00     0.188 A 
HETATM    6  O3  UNL     1      15.333   4.466  12.489  1.00  0.00    -0.290 OA
ENDROOT
BRANCH   4   7
HETATM    7  C5  UNL     1      15.860   2.647  15.561  1.00  0.00    -0.026 C 
HETATM    8  C6  UNL     1      17.327   2.382  15.924  1.00  0.00     0.050 C 
HETATM    9  C7  UNL     1      15.063   2.083  16.409  1.00  0.00     0.093 C 
BRANCH   9  10
HETATM   10  C8  UNL     1      15.356   1.292  17.572  1.00  0.00     0.199 C 
HETATM   11  O1  UNL     1      15.668   1.744  18.672  1.00  0.00    -0.644 OA
HETATM   12  O2  UNL     1      15.291  -0.105  17.481  1.00  0.00    -0.644 OA
ENDBRANCH   9  10
ENDBRANCH   4   7
BRANCH   5  13
HETATM   13  C10 UNL     1      16.546   2.287  12.358  1.00  0.00     0.441 C 
HETATM   14  F1  UNL     1      16.525   1.059  12.955  1.00  0.00    -0.164 F 
HETATM   15  F2  UNL     1      17.740   2.652  11.778  1.00  0.00    -0.164 F 
HETATM   16  F3  UNL     1      15.737   2.053  11.199  1.00  0.00    -0.164 F 
ENDBRANCH   5  13
BRANCH   1  17
HETATM   17  C2  UNL     1      14.097   6.538  13.091  1.00  0.00     0.080 C 
HETATM   18  C1  UNL     1      14.480   7.076  11.745  1.00  0.00     0.013 C 
ENDBRANCH   1  17
TORSDOF 4
ENDMDL
MODEL 2
REMARK VINA RESULT: -6.917946139      2.306      2.981
REMARK  4 active torsions:
REMARK  status: ('A' for Active; 'I' for Inactive)
REMARK    1  A    between atoms: C2_2  and  C3_3 
REMARK    2  A    between atoms: C4_6  and  C5_7 
REMARK    3  A    between atoms: C7_9  and  C8_10 
REMARK    4  A    between atoms: C9_13  and  C10_14 
ROOT
HETATM    1  C3  UNL     1      16.763   4.507  10.523  1.00  0.00     0.124 A 
HETATM    2  N1  UNL     1      16.712   4.273  11.820  1.00  0.00    -0.338 N 
ATOM      3  H1  UNL     1      16.650   4.996  12.536  1.00  0.00     0.168 HD
HETATM    4  C4  UNL     1      16.755   2.908  12.079  1.00  0.00     0.079 A 
HETATM    5  C9  UNL     1      16.830   2.352  10.854  1.00  0.00     0.188 A 
HETATM    6  O3  UNL     1      16.834   3.347   9.942  1.00  0.00    -0.290 OA
ENDROOT
BRANCH   4   7
HETATM    7  C5  UNL     1      16.706   2.459  13.437  1.00  0.00    -0.026 C 
HETATM    8  C6  UNL     1      15.906   3.312  14.431  1.00  0.00     0.050 C 
HETATM    9  C7  UNL     1      17.224   1.429  14.023  1.00  0.00     0.093 C 
BRANCH   9  10
HETATM   10  C8  UNL     1      17.152   1.008  15.394  1.00  0.00     0.199 C 
HETATM   11  O1  UNL     1      17.950   1.326  16.273  1.00  0.00    -0.644 OA
HETATM   12  O2  UNL     1      16.104   0.168  15.796  1.00  0.00    -0.644 OA
ENDBRANCH   9  10
ENDBRANCH   4   7
BRANCH   5  13
HETATM   13  C10 UNL     1      16.894   0.921  10.529  1.00  0.00     0.441 C 
HETATM   14  F1  UNL     1      16.885   0.606   9.200  1.00  0.00    -0.164 F 
HETATM   15  F2  UNL     1      16.142   0.106  11.344  1.00  0.00    -0.164 F 
HETATM   16  F3  UNL     1      18.223   0.533  10.902  1.00  0.00    -0.164 F 
ENDBRANCH   5  13
BRANCH   1  17
HETATM   17  C2  UNL     1      16.743   5.830   9.835  1.00  0.00     0.080 C 
HETATM   18  C1  UNL     1      15.420   6.517  10.005  1.00  0.00     0.013 C 
ENDBRANCH   1  17
TORSDOF 4
ENDMDL
MODEL 3
REMARK VINA RESULT: -6.886400781      2.999      4.009
REMARK  4 active torsions:
REMARK  status: ('A' for Active; 'I' for Inactive)
REMARK    1  A    between atoms: C2_2  and  C3_3 
REMARK    2  A    between atoms: C4_6  and  C5_7 
REMARK    3  A    between atoms: C7_9  and  C8_10 
REMARK    4  A    between atoms: C9_13  and  C10_14 
ROOT
HETATM    1  C3  UNL     1      17.881   1.700  12.139  1.00  0.00     0.124 A 
HETATM    2  N1  UNL     1      17.080   1.390  13.141  1.00  0.00    -0.338 N 
ATOM      3  H1  UNL     1      16.553   0.520  13.212  1.00  0.00     0.168 HD
HETATM    4  C4  UNL     1      17.052   2.408  14.085  1.00  0.00     0.079 A 
HETATM    5  C9  UNL     1      17.887   3.337  13.580  1.00  0.00     0.188 A 
HETATM    6  O3  UNL     1      18.367   2.875  12.407  1.00  0.00    -0.290 OA
ENDROOT
BRANCH   4   7
HETATM    7  C5  UNL     1      16.236   2.249  15.251  1.00  0.00    -0.026 C 
HETATM    8  C6  UNL     1      15.204   3.347  15.542  1.00  0.00     0.050 C 
HETATM    9  C7  UNL     1      16.192   1.322  16.151  1.00  0.00     0.093 C 
BRANCH   9  10
HETATM   10  C8  UNL     1      15.355   1.195  17.311  1.00  0.00     0.199 C 
HETATM   11  O1  UNL     1      15.691   1.481  18.459  1.00  0.00    -0.644 OA
HETATM   12  O2  UNL     1      14.049   0.709  17.161  1.00  0.00    -0.644 OA
ENDBRANCH   9  10
ENDBRANCH   4   7
BRANCH   5  13
HETATM   13  C10 UNL     1      18.242   4.632  14.176  1.00  0.00     0.441 C 
HETATM   14  F1  UNL     1      17.207   5.495  14.397  1.00  0.00    -0.164 F 
HETATM   15  F2  UNL     1      19.401   5.196  13.693  1.00  0.00    -0.164 F 
HETATM   16  F3  UNL     1      18.632   4.309  15.517  1.00  0.00    -0.164 F 
ENDBRANCH   5  13
BRANCH   1  17
HETATM   17  C2  UNL     1      18.186   0.882  10.930  1.00  0.00     0.080 C 
HETATM   18  C1  UNL     1      17.865  -0.566  11.152  1.00  0.00     0.013 C 
ENDBRANCH   1  17
TORSDOF 4
ENDMDL
MODEL 4
REMARK VINA RESULT: -6.880069295      1.673      2.002
REMARK  4 active torsions:
REMARK  status: ('A' for Active; 'I' for Inactive)
REMARK    1  A    between atoms: C2_2  and  C3_3 
REMARK    2  A    between atoms: C4_6  and  C5_7 
REMARK    3  A    between atoms: C7_9  and  C8_10 
REMARK    4  A    between atoms: C9_13  and  C10_14 
ROOT
HETATM    1  C3  UNL     1      14.673   6.005  12.522  1.00  0.00     0.124 A 
HETATM    2  N1  UNL     1      14.839   5.233  13.579  1.00  0.00    -0.338 N 
ATOM      3  H1  UNL     1      14.408   5.397  14.488  1.00  0.00     0.168 HD
HETATM    4  C4  UNL     1      15.681   4.167  13.285  1.00  0.00     0.079 A 
HETATM    5  C9  UNL     1      15.997   4.357  11.989  1.00  0.00     0.188 A 
HETATM    6  O3  UNL     1      15.372   5.475  11.564  1.00  0.00    -0.290 OA
ENDROOT
BRANCH   4   7
HETATM    7  C5  UNL     1      15.977   3.215  14.312  1.00  0.00    -0.026 C 
HETATM    8  C6  UNL     1      15.273   3.398  15.663  1.00  0.00     0.050 C 
HETATM    9  C7  UNL     1      16.756   2.183  14.331  1.00  0.00     0.093 C 
BRANCH   9  10
HETATM   10  C8  UNL     1      17.028   1.246  15.385  1.00  0.00     0.199 C 
HETATM   11  O1  UNL     1      17.961   1.330  16.180  1.00  0.00    -0.644 OA
HETATM   12  O2  UNL     1      16.185   0.137  15.547  1.00  0.00    -0.644 OA
ENDBRANCH   9  10
ENDBRANCH   4   7
BRANCH   5  13
HETATM   13  C10 UNL     1      16.862   3.514  11.152  1.00  0.00     0.441 C 
HETATM   14  F1  UNL     1      16.292   2.378  10.652  1.00  0.00    -0.164 F 
HETATM   15  F2  UNL     1      18.158   3.388  11.598  1.00  0.00    -0.164 F 
HETATM   16  F3  UNL     1      17.055   4.283   9.958  1.00  0.00    -0.164 F 
ENDBRANCH   5  13
BRANCH   1  17
HETATM   17  C2  UNL     1      13.850   7.245  12.421  1.00  0.00     0.080 C 
HETATM   18  C1  UNL     1      14.216   8.048  11.208  1.00  0.00     0.013 C 
ENDBRANCH   1  17
TORSDOF 4
ENDMDL
MODEL 5
REMARK VINA RESULT: -6.849590751      3.112      3.661
REMARK  4 active torsions:
REMARK  status: ('A' for Active; 'I' for Inactive)
REMARK    1  A    between atoms: C2_2  and  C3_3 
REMARK    2  A    between atoms: C4_6  and  C5_7 
REMARK    3  A    between atoms: C7_9  and  C8_10 
REMARK    4  A    between atoms: C9_13  and  C10_14 
ROOT
HETATM    1  C3  UNL     1      18.692   5.009  14.016  1.00  0.00     0.124 A 
HETATM    2  N1  UNL     1      18.402   3.871  14.617  1.00  0.00    -0.338 N 
ATOM      3  H1  UNL     1      19.079   3.136  14.822  1.00  0.00     0.168 HD
HETATM    4  C4  UNL     1      17.050   3.809  14.932  1.00  0.00     0.079 A 
HETATM    5  C9  UNL     1      16.562   4.981  14.483  1.00  0.00     0.188 A 
HETATM    6  O3  UNL     1      17.581   5.677  13.936  1.00  0.00    -0.290 OA
ENDROOT
BRANCH   4   7
HETATM    7  C5  UNL     1      16.547   2.644  15.595  1.00  0.00    -0.026 C 
HETATM    8  C6  UNL     1      16.996   1.279  15.056  1.00  0.00     0.050 C 
HETATM    9  C7  UNL     1      15.752   2.504  16.605  1.00  0.00     0.093 C 
BRANCH   9  10
HETATM   10  C8  UNL     1      15.268   1.314  17.246  1.00  0.00     0.199 C 
HETATM   11  O1  UNL     1      15.828   0.735  18.175  1.00  0.00    -0.644 OA
HETATM   12  O2  UNL     1      14.068   0.739  16.804  1.00  0.00    -0.644 OA
ENDBRANCH   9  10
ENDBRANCH   4   7
BRANCH   5  13
HETATM   13  C10 UNL     1      15.174   5.456  14.561  1.00  0.00     0.441 C 
HETATM   14  F1  UNL     1      14.822   6.432  13.674  1.00  0.00    -0.164 F 
HETATM   15  F2  UNL     1      14.680   5.599  15.838  1.00  0.00    -0.164 F 
HETATM   16  F3  UNL     1      14.396   4.349  14.087  1.00  0.00    -0.164 F 
ENDBRANCH   5  13
BRANCH   1  17
HETATM   17  C2  UNL     1      20.023   5.463  13.519  1.00  0.00     0.080 C 
HETATM   18  C1  UNL     1      20.385   4.790  12.228  1.00  0.00     0.013 C 
ENDBRANCH   1  17
TORSDOF 4
ENDMDL
