MODEL 1
REMARK VINA RESULT: -8.722979469      0.000      0.000
REMARK  15 active torsions:
REMARK  status: ('A' for Active; 'I' for Inactive)
REMARK    1  A    between atoms: C2_2  and  C3_3 
REMARK    2  A    between atoms: C3_3  and  C5_6 
REMARK    3  A    between atoms: C5_6  and  C6_7 
REMARK    4  A    between atoms: C6_7  and  C7_8 
REMARK    5  A    between atoms: C8_9  and  O1_10 
REMARK    6  A    between atoms: C14_18  and  O3_19 
REMARK    7  A    between atoms: C24_30  and  C25_31 
REMARK    8  A    between atoms: C25_31  and  S1_33 
REMARK    9  A    between atoms: S1_33  and  C26_34 
REMARK   10  A    between atoms: C26_34  and  C27_35 
REMARK   11  A    between atoms: C27_35  and  C28_36 
REMARK   12  A    between atoms: C28_36  and  C29_37 
REMARK   13  A    between atoms: C29_37  and  C30_38 
REMARK   14  A    between atoms: C30_38  and  O5_39 
REMARK   15  A    between atoms: C30_38  and  O6_41 
ROOT
HETATM    1  C3  UNL     1      40.674  26.930   7.007  1.00  0.00     0.043 C 
HETATM    2  C4  UNL     1      41.150  27.123   8.371  1.00  0.00     0.099 C 
HETATM    3  N1  UNL     1      41.517  27.275   9.458  1.00  0.00    -0.191 NA
ENDROOT
BRANCH   1   4
HETATM    4  C2  UNL     1      41.696  26.973   5.974  1.00  0.00     0.012 C 
HETATM    5  C1  UNL     1      42.867  26.358   6.185  1.00  0.00     0.013 C 
ENDBRANCH   1   4
BRANCH   1   6
HETATM    6  C5  UNL     1      39.385  26.739   6.831  1.00  0.00     0.019 C 
BRANCH   6   7
HETATM    7  C6  UNL     1      38.716  25.498   6.935  1.00  0.00    -0.012 C 
BRANCH   7   8
HETATM    8  C7  UNL     1      37.977  24.676   5.959  1.00  0.00     0.016 C 
HETATM    9  C8  UNL     1      38.868  23.519   5.677  1.00  0.00     0.132 C 
HETATM   10  C9  UNL     1      40.024  23.814   4.779  1.00  0.00     0.043 C 
HETATM   11  C10 UNL     1      39.527  24.324   3.461  1.00  0.00     0.035 C 
HETATM   12  C11 UNL     1      40.616  24.786   2.562  1.00  0.00     0.013 A 
HETATM   13  C17 UNL     1      38.498  25.386   3.528  1.00  0.00    -0.031 C 
HETATM   14  C12 UNL     1      40.210  25.437   1.421  1.00  0.00    -0.024 A 
HETATM   15  C14 UNL     1      41.981  24.750   2.534  1.00  0.00     0.190 A 
HETATM   16  C13 UNL     1      41.355  25.771   0.745  1.00  0.00     0.152 A 
HETATM   17  C15 UNL     1      38.808  25.689   1.064  1.00  0.00     0.042 C 
HETATM   18  O2  UNL     1      42.382  25.347   1.439  1.00  0.00    -0.299 OA
HETATM   19  C16 UNL     1      37.815  25.307   2.141  1.00  0.00     0.015 C 
HETATM   20  C18 UNL     1      39.003  26.809   3.457  1.00  0.00     0.016 C 
HETATM   21  C19 UNL     1      37.495  25.184   4.651  1.00  0.00     0.010 C 
HETATM   22  C20 UNL     1      36.521  24.208   4.015  1.00  0.00     0.007 C 
HETATM   23  C21 UNL     1      35.490  23.577   4.833  1.00  0.00     0.011 C 
HETATM   24  C22 UNL     1      35.700  23.454   6.298  1.00  0.00    -0.025 C 
HETATM   25  C23 UNL     1      35.834  22.028   6.772  1.00  0.00     0.017 C 
HETATM   26  C24 UNL     1      34.365  23.857   6.935  1.00  0.00     0.076 C 
HETATM   27  C36 UNL     1      36.711  24.429   6.770  1.00  0.00    -0.022 C 
HETATM   28  C33 UNL     1      34.415  23.667   8.431  1.00  0.00     0.014 C 
HETATM   29  C34 UNL     1      35.775  23.610   9.005  1.00  0.00     0.002 C 
HETATM   30  C35 UNL     1      36.930  24.093   8.202  1.00  0.00     0.011 C 
HETATM   31  C37 UNL     1      35.954  25.779   6.643  1.00  0.00     0.017 C 
BRANCH   9  32
HETATM   32  O1  UNL     1      38.365  22.375   5.127  1.00  0.00    -0.394 OA
ATOM     33  H1  UNL     1      38.228  21.603   5.663  1.00  0.00     0.210 HD
ENDBRANCH   9  32
BRANCH  15  34
HETATM   34  O3  UNL     1      42.779  24.162   3.537  1.00  0.00    -0.340 OA
ATOM     35  H3  UNL     1      43.667  23.855   3.401  1.00  0.00     0.220 HD
ENDBRANCH  15  34
BRANCH  26  36
HETATM   36  C25 UNL     1      33.254  22.943   6.467  1.00  0.00     0.191 C 
HETATM   37  O4  UNL     1      32.793  22.917   5.359  1.00  0.00    -0.285 OA
BRANCH  36  38
HETATM   38  S1  UNL     1      32.514  21.778   7.599  1.00  0.00    -0.092 SA
BRANCH  38  39
HETATM   39  C26 UNL     1      31.259  22.569   8.612  1.00  0.00     0.082 C 
BRANCH  39  40
HETATM   40  C27 UNL     1      31.468  22.164  10.055  1.00  0.00     0.011 C 
BRANCH  40  41
HETATM   41  C28 UNL     1      31.122  23.240  11.017  1.00  0.00     0.006 C 
BRANCH  41  42
HETATM   42  C29 UNL     1      30.502  22.858  12.300  1.00  0.00     0.061 C 
BRANCH  42  43
HETATM   43  C30 UNL     1      29.553  23.798  12.950  1.00  0.00     0.258 C 
BRANCH  43  44
HETATM   44  O5  UNL     1      30.366  24.903  13.384  1.00  0.00    -0.366 OA
HETATM   45  C31 UNL     1      31.039  24.565  14.551  1.00  0.00     0.204 C 
ENDBRANCH  43  44
BRANCH  43  46
HETATM   46  O6  UNL     1      28.982  23.325  14.119  1.00  0.00    -0.366 OA
HETATM   47  C32 UNL     1      27.832  22.588  13.786  1.00  0.00     0.204 C 
ENDBRANCH  43  46
ENDBRANCH  42  43
ENDBRANCH  41  42
ENDBRANCH  40  41
ENDBRANCH  39  40
ENDBRANCH  38  39
ENDBRANCH  36  38
ENDBRANCH  26  36
ENDBRANCH   7   8
ENDBRANCH   6   7
ENDBRANCH   1   6
TORSDOF 15
ENDMDL
MODEL 2
REMARK VINA RESULT: -8.688837882      1.257      1.717
REMARK  15 active torsions:
REMARK  status: ('A' for Active; 'I' for Inactive)
REMARK    1  A    between atoms: C2_2  and  C3_3 
REMARK    2  A    between atoms: C3_3  and  C5_6 
REMARK    3  A    between atoms: C5_6  and  C6_7 
REMARK    4  A    between atoms: C6_7  and  C7_8 
REMARK    5  A    between atoms: C8_9  and  O1_10 
REMARK    6  A    between atoms: C14_18  and  O3_19 
REMARK    7  A    between atoms: C24_30  and  C25_31 
REMARK    8  A    between atoms: C25_31  and  S1_33 
REMARK    9  A    between atoms: S1_33  and  C26_34 
REMARK   10  A    between atoms: C26_34  and  C27_35 
REMARK   11  A    between atoms: C27_35  and  C28_36 
REMARK   12  A    between atoms: C28_36  and  C29_37 
REMARK   13  A    between atoms: C29_37  and  C30_38 
REMARK   14  A    between atoms: C30_38  and  O5_39 
REMARK   15  A    between atoms: C30_38  and  O6_41 
ROOT
HETATM    1  C3  UNL     1      39.829  26.856   7.130  1.00  0.00     0.043 C 
HETATM    2  C4  UNL     1      40.802  26.385   6.152  1.00  0.00     0.099 C 
HETATM    3  N1  UNL     1      41.566  26.005   5.371  1.00  0.00    -0.191 NA
ENDROOT
BRANCH   1   4
HETATM    4  C2  UNL     1      40.359  27.707   8.182  1.00  0.00     0.012 C 
HETATM    5  C1  UNL     1      40.963  27.144   9.238  1.00  0.00     0.013 C 
ENDBRANCH   1   4
BRANCH   1   6
HETATM    6  C5  UNL     1      38.579  26.478   6.979  1.00  0.00     0.019 C 
BRANCH   6   7
HETATM    7  C6  UNL     1      38.103  25.150   7.082  1.00  0.00    -0.012 C 
BRANCH   7   8
HETATM    8  C7  UNL     1      37.239  24.328   6.214  1.00  0.00     0.016 C 
HETATM    9  C8  UNL     1      38.067  23.145   5.858  1.00  0.00     0.132 C 
HETATM   10  C9  UNL     1      39.119  23.395   4.828  1.00  0.00     0.043 C 
HETATM   11  C10 UNL     1      38.486  23.892   3.565  1.00  0.00     0.035 C 
HETATM   12  C11 UNL     1      39.475  24.310   2.537  1.00  0.00     0.013 A 
HETATM   13  C17 UNL     1      37.495  24.978   3.725  1.00  0.00    -0.031 C 
HETATM   14  C12 UNL     1      38.955  24.948   1.436  1.00  0.00    -0.024 A 
HETATM   15  C14 UNL     1      40.826  24.240   2.355  1.00  0.00     0.190 A 
HETATM   16  C13 UNL     1      40.022  25.241   0.627  1.00  0.00     0.152 A 
HETATM   17  C15 UNL     1      37.527  25.226   1.236  1.00  0.00     0.042 C 
HETATM   18  O2  UNL     1      41.112  24.806   1.208  1.00  0.00    -0.299 OA
HETATM   19  C16 UNL     1      36.655  24.890   2.427  1.00  0.00     0.015 C 
HETATM   20  C18 UNL     1      38.018  26.388   3.566  1.00  0.00     0.016 C 
HETATM   21  C19 UNL     1      36.622  24.822   4.959  1.00  0.00     0.010 C 
HETATM   22  C20 UNL     1      35.561  23.858   4.460  1.00  0.00     0.007 C 
HETATM   23  C21 UNL     1      34.617  23.268   5.403  1.00  0.00     0.011 C 
HETATM   24  C22 UNL     1      34.990  23.168   6.838  1.00  0.00    -0.025 C 
HETATM   25  C23 UNL     1      35.147  21.749   7.324  1.00  0.00     0.017 C 
HETATM   26  C24 UNL     1      33.746  23.615   7.614  1.00  0.00     0.076 C 
HETATM   27  C36 UNL     1      36.070  24.127   7.170  1.00  0.00    -0.022 C 
HETATM   28  C33 UNL     1      33.963  23.453   9.098  1.00  0.00     0.014 C 
HETATM   29  C34 UNL     1      35.378  23.374   9.514  1.00  0.00     0.002 C 
HETATM   30  C35 UNL     1      36.444  23.813   8.574  1.00  0.00     0.011 C 
HETATM   31  C37 UNL     1      35.333  25.492   7.100  1.00  0.00     0.017 C 
BRANCH   9  32
HETATM   32  O1  UNL     1      37.480  22.003   5.394  1.00  0.00    -0.394 OA
ATOM     33  H1  UNL     1      37.877  21.510   4.685  1.00  0.00     0.210 HD
ENDBRANCH   9  32
BRANCH  15  34
HETATM   34  O3  UNL     1      41.721  23.653   3.273  1.00  0.00    -0.340 OA
ATOM     35  H3  UNL     1      42.252  22.888   3.086  1.00  0.00     0.220 HD
ENDBRANCH  15  34
BRANCH  26  36
HETATM   36  C25 UNL     1      32.569  22.719   7.295  1.00  0.00     0.191 C 
HETATM   37  O4  UNL     1      32.411  22.114   6.270  1.00  0.00    -0.285 OA
BRANCH  36  38
HETATM   38  S1  UNL     1      31.264  22.494   8.491  1.00  0.00    -0.092 SA
BRANCH  38  39
HETATM   39  C26 UNL     1      31.669  21.184   9.651  1.00  0.00     0.082 C 
BRANCH  39  40
HETATM   40  C27 UNL     1      31.336  21.651  11.052  1.00  0.00     0.011 C 
BRANCH  40  41
HETATM   41  C28 UNL     1      31.009  23.096  11.122  1.00  0.00     0.006 C 
BRANCH  41  42
HETATM   42  C29 UNL     1      30.353  23.607  12.341  1.00  0.00     0.061 C 
BRANCH  42  43
HETATM   43  C30 UNL     1      30.065  22.665  13.453  1.00  0.00     0.258 C 
BRANCH  43  44
HETATM   44  O5  UNL     1      28.669  22.342  13.312  1.00  0.00    -0.366 OA
HETATM   45  C31 UNL     1      28.238  21.617  14.416  1.00  0.00     0.204 C 
ENDBRANCH  43  44
BRANCH  43  46
HETATM   46  O6  UNL     1      30.152  23.221  14.718  1.00  0.00    -0.366 OA
HETATM   47  C32 UNL     1      31.454  23.722  14.895  1.00  0.00     0.204 C 
ENDBRANCH  43  46
ENDBRANCH  42  43
ENDBRANCH  41  42
ENDBRANCH  40  41
ENDBRANCH  39  40
ENDBRANCH  38  39
ENDBRANCH  36  38
ENDBRANCH  26  36
ENDBRANCH   7   8
ENDBRANCH   6   7
ENDBRANCH   1   6
TORSDOF 15
ENDMDL
MODEL 3
REMARK VINA RESULT: -8.489870191      2.742      4.520
REMARK  15 active torsions:
REMARK  status: ('A' for Active; 'I' for Inactive)
REMARK    1  A    between atoms: C2_2  and  C3_3 
REMARK    2  A    between atoms: C3_3  and  C5_6 
REMARK    3  A    between atoms: C5_6  and  C6_7 
REMARK    4  A    between atoms: C6_7  and  C7_8 
REMARK    5  A    between atoms: C8_9  and  O1_10 
REMARK    6  A    between atoms: C14_18  and  O3_19 
REMARK    7  A    between atoms: C24_30  and  C25_31 
REMARK    8  A    between atoms: C25_31  and  S1_33 
REMARK    9  A    between atoms: S1_33  and  C26_34 
REMARK   10  A    between atoms: C26_34  and  C27_35 
REMARK   11  A    between atoms: C27_35  and  C28_36 
REMARK   12  A    between atoms: C28_36  and  C29_37 
REMARK   13  A    between atoms: C29_37  and  C30_38 
REMARK   14  A    between atoms: C30_38  and  O5_39 
REMARK   15  A    between atoms: C30_38  and  O6_41 
ROOT
HETATM    1  C3  UNL     1      39.526  23.870   3.583  1.00  0.00     0.043 C 
HETATM    2  C4  UNL     1      39.046  22.666   2.916  1.00  0.00     0.099 C 
HETATM    3  N1  UNL     1      38.655  21.716   2.384  1.00  0.00    -0.191 NA
ENDROOT
BRANCH   1   4
HETATM    4  C2  UNL     1      40.910  23.833   4.025  1.00  0.00     0.012 C 
HETATM    5  C1  UNL     1      41.891  23.932   3.117  1.00  0.00     0.013 C 
ENDBRANCH   1   4
BRANCH   1   6
HETATM    6  C5  UNL     1      38.681  24.867   3.726  1.00  0.00     0.019 C 
BRANCH   6   7
HETATM    7  C6  UNL     1      37.435  24.800   4.391  1.00  0.00    -0.012 C 
BRANCH   7   8
HETATM    8  C7  UNL     1      37.031  25.059   5.786  1.00  0.00     0.016 C 
HETATM    9  C8  UNL     1      36.364  26.388   5.752  1.00  0.00     0.132 C 
HETATM   10  C9  UNL     1      37.286  27.557   5.645  1.00  0.00     0.043 C 
HETATM   11  C10 UNL     1      38.235  27.565   6.803  1.00  0.00     0.035 C 
HETATM   12  C11 UNL     1      39.286  28.609   6.694  1.00  0.00     0.013 A 
HETATM   13  C17 UNL     1      38.892  26.274   7.106  1.00  0.00    -0.031 C 
HETATM   14  C12 UNL     1      40.292  28.541   7.628  1.00  0.00    -0.024 A 
HETATM   15  C14 UNL     1      39.561  29.680   5.892  1.00  0.00     0.190 A 
HETATM   16  C13 UNL     1      41.142  29.581   7.351  1.00  0.00     0.152 A 
HETATM   17  C15 UNL     1      40.375  27.525   8.686  1.00  0.00     0.042 C 
HETATM   18  O2  UNL     1      40.673  30.230   6.315  1.00  0.00    -0.299 OA
HETATM   19  C16 UNL     1      39.329  26.435   8.583  1.00  0.00     0.015 C 
HETATM   20  C18 UNL     1      40.253  26.056   6.485  1.00  0.00     0.016 C 
HETATM   21  C19 UNL     1      37.977  25.075   6.929  1.00  0.00     0.010 C 
HETATM   22  C20 UNL     1      37.230  25.064   8.251  1.00  0.00     0.007 C 
HETATM   23  C21 UNL     1      36.085  24.178   8.429  1.00  0.00     0.011 C 
HETATM   24  C22 UNL     1      35.337  23.709   7.235  1.00  0.00    -0.025 C 
HETATM   25  C23 UNL     1      33.922  24.228   7.167  1.00  0.00     0.017 C 
HETATM   26  C24 UNL     1      35.096  22.214   7.467  1.00  0.00     0.076 C 
HETATM   27  C36 UNL     1      36.167  23.825   6.013  1.00  0.00    -0.022 C 
HETATM   28  C33 UNL     1      34.242  21.638   6.365  1.00  0.00     0.014 C 
HETATM   29  C34 UNL     1      34.215  22.434   5.120  1.00  0.00     0.002 C 
HETATM   30  C35 UNL     1      35.253  23.474   4.893  1.00  0.00     0.011 C 
HETATM   31  C37 UNL     1      37.220  22.703   6.222  1.00  0.00     0.017 C 
BRANCH   9  32
HETATM   32  O1  UNL     1      35.534  26.772   6.766  1.00  0.00    -0.394 OA
ATOM     33  H1  UNL     1      35.673  27.596   7.217  1.00  0.00     0.210 HD
ENDBRANCH   9  32
BRANCH  15  34
HETATM   34  O3  UNL     1      38.758  30.083   4.805  1.00  0.00    -0.340 OA
ATOM     35  H3  UNL     1      38.264  30.893   4.779  1.00  0.00     0.220 HD
ENDBRANCH  15  34
BRANCH  26  36
HETATM   36  C25 UNL     1      34.295  21.993   8.732  1.00  0.00     0.191 C 
HETATM   37  O4  UNL     1      34.715  22.099   9.851  1.00  0.00    -0.285 OA
BRANCH  36  38
HETATM   38  S1  UNL     1      32.574  21.531   8.633  1.00  0.00    -0.092 SA
BRANCH  38  39
HETATM   39  C26 UNL     1      31.784  21.632  10.243  1.00  0.00     0.082 C 
BRANCH  39  40
HETATM   40  C27 UNL     1      31.346  23.061  10.485  1.00  0.00     0.011 C 
BRANCH  40  41
HETATM   41  C28 UNL     1      30.604  23.234  11.759  1.00  0.00     0.006 C 
BRANCH  41  42
HETATM   42  C29 UNL     1      31.147  24.169  12.762  1.00  0.00     0.061 C 
BRANCH  42  43
HETATM   43  C30 UNL     1      31.014  23.838  14.204  1.00  0.00     0.258 C 
BRANCH  43  44
HETATM   44  O5  UNL     1      30.781  25.101  14.854  1.00  0.00    -0.366 OA
HETATM   45  C31 UNL     1      29.505  25.560  14.548  1.00  0.00     0.204 C 
ENDBRANCH  43  44
BRANCH  43  46
HETATM   46  O6  UNL     1      32.172  23.366  14.797  1.00  0.00    -0.366 OA
HETATM   47  C32 UNL     1      32.078  23.570  16.184  1.00  0.00     0.204 C 
ENDBRANCH  43  46
ENDBRANCH  42  43
ENDBRANCH  41  42
ENDBRANCH  40  41
ENDBRANCH  39  40
ENDBRANCH  38  39
ENDBRANCH  36  38
ENDBRANCH  26  36
ENDBRANCH   7   8
ENDBRANCH   6   7
ENDBRANCH   1   6
TORSDOF 15
ENDMDL
MODEL 4
REMARK VINA RESULT: -8.459625876      2.524      4.561
REMARK  15 active torsions:
REMARK  status: ('A' for Active; 'I' for Inactive)
REMARK    1  A    between atoms: C2_2  and  C3_3 
REMARK    2  A    between atoms: C3_3  and  C5_6 
REMARK    3  A    between atoms: C5_6  and  C6_7 
REMARK    4  A    between atoms: C6_7  and  C7_8 
REMARK    5  A    between atoms: C8_9  and  O1_10 
REMARK    6  A    between atoms: C14_18  and  O3_19 
REMARK    7  A    between atoms: C24_30  and  C25_31 
REMARK    8  A    between atoms: C25_31  and  S1_33 
REMARK    9  A    between atoms: S1_33  and  C26_34 
REMARK   10  A    between atoms: C26_34  and  C27_35 
REMARK   11  A    between atoms: C27_35  and  C28_36 
REMARK   12  A    between atoms: C28_36  and  C29_37 
REMARK   13  A    between atoms: C29_37  and  C30_38 
REMARK   14  A    between atoms: C30_38  and  O5_39 
REMARK   15  A    between atoms: C30_38  and  O6_41 
ROOT
HETATM    1  C3  UNL     1      39.342  24.452   3.207  1.00  0.00     0.043 C 
HETATM    2  C4  UNL     1      40.785  24.404   3.403  1.00  0.00     0.099 C 
HETATM    3  N1  UNL     1      41.930  24.374   3.565  1.00  0.00    -0.191 NA
ENDROOT
BRANCH   1   4
HETATM    4  C2  UNL     1      38.787  23.404   2.367  1.00  0.00     0.012 C 
HETATM    5  C1  UNL     1      39.131  22.130   2.595  1.00  0.00     0.013 C 
ENDBRANCH   1   4
BRANCH   1   6
HETATM    6  C5  UNL     1      38.678  25.423   3.796  1.00  0.00     0.019 C 
BRANCH   6   7
HETATM    7  C6  UNL     1      37.437  25.286   4.459  1.00  0.00    -0.012 C 
BRANCH   7   8
HETATM    8  C7  UNL     1      37.057  25.309   5.884  1.00  0.00     0.016 C 
HETATM    9  C8  UNL     1      36.359  26.609   6.074  1.00  0.00     0.132 C 
HETATM   10  C9  UNL     1      37.251  27.804   6.139  1.00  0.00     0.043 C 
HETATM   11  C10 UNL     1      38.225  27.652   7.267  1.00  0.00     0.035 C 
HETATM   12  C11 UNL     1      39.249  28.727   7.308  1.00  0.00     0.013 A 
HETATM   13  C17 UNL     1      38.917  26.347   7.349  1.00  0.00    -0.031 C 
HETATM   14  C12 UNL     1      40.276  28.537   8.202  1.00  0.00    -0.024 A 
HETATM   15  C14 UNL     1      39.483  29.919   6.682  1.00  0.00     0.190 A 
HETATM   16  C13 UNL     1      41.095  29.630   8.080  1.00  0.00     0.152 A 
HETATM   17  C15 UNL     1      40.404  27.368   9.082  1.00  0.00     0.042 C 
HETATM   18  O2  UNL     1      40.590  30.423   7.169  1.00  0.00    -0.299 OA
HETATM   19  C16 UNL     1      39.382  26.282   8.824  1.00  0.00     0.015 C 
HETATM   20  C18 UNL     1      40.270  26.266   6.677  1.00  0.00     0.016 C 
HETATM   21  C19 UNL     1      38.026  25.168   6.998  1.00  0.00     0.010 C 
HETATM   22  C20 UNL     1      37.309  24.927   8.314  1.00  0.00     0.007 C 
HETATM   23  C21 UNL     1      36.188  23.995   8.369  1.00  0.00     0.011 C 
HETATM   24  C22 UNL     1      35.425  23.703   7.128  1.00  0.00    -0.025 C 
HETATM   25  C23 UNL     1      33.998  24.189   7.168  1.00  0.00     0.017 C 
HETATM   26  C24 UNL     1      35.224  22.183   7.122  1.00  0.00     0.076 C 
HETATM   27  C36 UNL     1      36.227  24.033   5.926  1.00  0.00    -0.022 C 
HETATM   28  C33 UNL     1      34.360  21.768   5.957  1.00  0.00     0.014 C 
HETATM   29  C34 UNL     1      34.289  22.751   4.857  1.00  0.00     0.002 C 
HETATM   30  C35 UNL     1      35.298  23.841   4.780  1.00  0.00     0.011 C 
HETATM   31  C37 UNL     1      37.310  22.920   5.934  1.00  0.00     0.017 C 
BRANCH   9  32
HETATM   32  O1  UNL     1      35.542  26.805   7.151  1.00  0.00    -0.394 OA
ATOM     33  H1  UNL     1      34.792  27.384   7.088  1.00  0.00     0.210 HD
ENDBRANCH   9  32
BRANCH  15  34
HETATM   34  O3  UNL     1      38.647  30.469   5.689  1.00  0.00    -0.340 OA
ATOM     35  H3  UNL     1      38.687  30.235   4.769  1.00  0.00     0.220 HD
ENDBRANCH  15  34
BRANCH  26  36
HETATM   36  C25 UNL     1      34.455  21.743   8.349  1.00  0.00     0.191 C 
HETATM   37  O4  UNL     1      34.818  21.879   9.485  1.00  0.00    -0.285 OA
BRANCH  36  38
HETATM   38  S1  UNL     1      32.868  20.946   8.174  1.00  0.00    -0.092 SA
BRANCH  38  39
HETATM   39  C26 UNL     1      31.829  21.252   9.606  1.00  0.00     0.082 C 
BRANCH  39  40
HETATM   40  C27 UNL     1      31.332  22.681   9.555  1.00  0.00     0.011 C 
BRANCH  40  41
HETATM   41  C28 UNL     1      31.666  23.457  10.775  1.00  0.00     0.006 C 
BRANCH  41  42
HETATM   42  C29 UNL     1      30.727  23.412  11.911  1.00  0.00     0.061 C 
BRANCH  42  43
HETATM   43  C30 UNL     1      30.955  24.309  13.073  1.00  0.00     0.258 C 
BRANCH  43  44
HETATM   44  O5  UNL     1      31.476  23.452  14.106  1.00  0.00    -0.366 OA
HETATM   45  C31 UNL     1      31.918  24.219  15.177  1.00  0.00     0.204 C 
ENDBRANCH  43  44
BRANCH  43  46
HETATM   46  O6  UNL     1      29.804  24.840  13.628  1.00  0.00    -0.366 OA
HETATM   47  C32 UNL     1      28.724  24.002  13.301  1.00  0.00     0.204 C 
ENDBRANCH  43  46
ENDBRANCH  42  43
ENDBRANCH  41  42
ENDBRANCH  40  41
ENDBRANCH  39  40
ENDBRANCH  38  39
ENDBRANCH  36  38
ENDBRANCH  26  36
ENDBRANCH   7   8
ENDBRANCH   6   7
ENDBRANCH   1   6
TORSDOF 15
ENDMDL
MODEL 5
REMARK VINA RESULT: -8.367359462      2.298      2.756
REMARK  15 active torsions:
REMARK  status: ('A' for Active; 'I' for Inactive)
REMARK    1  A    between atoms: C2_2  and  C3_3 
REMARK    2  A    between atoms: C3_3  and  C5_6 
REMARK    3  A    between atoms: C5_6  and  C6_7 
REMARK    4  A    between atoms: C6_7  and  C7_8 
REMARK    5  A    between atoms: C8_9  and  O1_10 
REMARK    6  A    between atoms: C14_18  and  O3_19 
REMARK    7  A    between atoms: C24_30  and  C25_31 
REMARK    8  A    between atoms: C25_31  and  S1_33 
REMARK    9  A    between atoms: S1_33  and  C26_34 
REMARK   10  A    between atoms: C26_34  and  C27_35 
REMARK   11  A    between atoms: C27_35  and  C28_36 
REMARK   12  A    between atoms: C28_36  and  C29_37 
REMARK   13  A    between atoms: C29_37  and  C30_38 
REMARK   14  A    between atoms: C30_38  and  O5_39 
REMARK   15  A    between atoms: C30_38  and  O6_41 
ROOT
HETATM    1  C3  UNL     1      39.540  26.983   6.539  1.00  0.00     0.043 C 
HETATM    2  C4  UNL     1      39.593  28.409   6.244  1.00  0.00     0.099 C 
HETATM    3  N1  UNL     1      39.625  29.543   6.015  1.00  0.00    -0.191 NA
ENDROOT
BRANCH   1   4
HETATM    4  C2  UNL     1      40.742  26.230   6.217  1.00  0.00     0.012 C 
HETATM    5  C1  UNL     1      41.459  26.571   5.137  1.00  0.00     0.013 C 
ENDBRANCH   1   4
BRANCH   1   6
HETATM    6  C5  UNL     1      38.431  26.508   7.060  1.00  0.00     0.019 C 
BRANCH   6   7
HETATM    7  C6  UNL     1      38.051  25.146   7.086  1.00  0.00    -0.012 C 
BRANCH   7   8
HETATM    8  C7  UNL     1      37.153  24.342   6.236  1.00  0.00     0.016 C 
HETATM    9  C8  UNL     1      37.960  23.158   5.837  1.00  0.00     0.132 C 
HETATM   10  C9  UNL     1      38.979  23.414   4.776  1.00  0.00     0.043 C 
HETATM   11  C10 UNL     1      38.308  23.933   3.542  1.00  0.00     0.035 C 
HETATM   12  C11 UNL     1      39.266  24.358   2.488  1.00  0.00     0.013 A 
HETATM   13  C17 UNL     1      37.331  25.024   3.750  1.00  0.00    -0.031 C 
HETATM   14  C12 UNL     1      38.715  25.015   1.413  1.00  0.00    -0.024 A 
HETATM   15  C14 UNL     1      40.610  24.281   2.260  1.00  0.00     0.190 A 
HETATM   16  C13 UNL     1      39.757  25.311   0.573  1.00  0.00     0.152 A 
HETATM   17  C15 UNL     1      37.283  25.307   1.264  1.00  0.00     0.042 C 
HETATM   18  O2  UNL     1      40.862  24.860   1.112  1.00  0.00    -0.299 OA
HETATM   19  C16 UNL     1      36.449  24.960   2.479  1.00  0.00     0.015 C 
HETATM   20  C18 UNL     1      37.860  26.432   3.592  1.00  0.00     0.016 C 
HETATM   21  C19 UNL     1      36.499  24.858   5.009  1.00  0.00     0.010 C 
HETATM   22  C20 UNL     1      35.414  23.909   4.532  1.00  0.00     0.007 C 
HETATM   23  C21 UNL     1      34.497  23.312   5.498  1.00  0.00     0.011 C 
HETATM   24  C22 UNL     1      34.917  23.190   6.918  1.00  0.00    -0.025 C 
HETATM   25  C23 UNL     1      35.078  21.763   7.380  1.00  0.00     0.017 C 
HETATM   26  C24 UNL     1      33.703  23.635   7.741  1.00  0.00     0.076 C 
HETATM   27  C36 UNL     1      36.014  24.137   7.227  1.00  0.00    -0.022 C 
HETATM   28  C33 UNL     1      33.966  23.452   9.215  1.00  0.00     0.014 C 
HETATM   29  C34 UNL     1      35.394  23.356   9.583  1.00  0.00     0.002 C 
HETATM   30  C35 UNL     1      36.432  23.801   8.615  1.00  0.00     0.011 C 
HETATM   31  C37 UNL     1      35.286  25.508   7.201  1.00  0.00     0.017 C 
BRANCH   9  32
HETATM   32  O1  UNL     1      37.348  22.026   5.378  1.00  0.00    -0.394 OA
ATOM     33  H1  UNL     1      37.853  21.238   5.217  1.00  0.00     0.210 HD
ENDBRANCH   9  32
BRANCH  15  34
HETATM   34  O3  UNL     1      41.529  23.674   3.140  1.00  0.00    -0.340 OA
ATOM     35  H3  UNL     1      42.375  24.042   3.366  1.00  0.00     0.220 HD
ENDBRANCH  15  34
BRANCH  26  36
HETATM   36  C25 UNL     1      32.509  22.753   7.449  1.00  0.00     0.191 C 
HETATM   37  O4  UNL     1      32.258  22.247   6.390  1.00  0.00    -0.285 OA
BRANCH  36  38
HETATM   38  S1  UNL     1      31.328  22.389   8.737  1.00  0.00    -0.092 SA
BRANCH  38  39
HETATM   39  C26 UNL     1      31.715  20.835   9.549  1.00  0.00     0.082 C 
BRANCH  39  40
HETATM   40  C27 UNL     1      31.484  20.989  11.037  1.00  0.00     0.011 C 
BRANCH  40  41
HETATM   41  C28 UNL     1      31.627  19.714  11.783  1.00  0.00     0.006 C 
BRANCH  41  42
HETATM   42  C29 UNL     1      30.532  19.305  12.684  1.00  0.00     0.061 C 
BRANCH  42  43
HETATM   43  C30 UNL     1      29.666  18.163  12.294  1.00  0.00     0.258 C 
BRANCH  43  44
HETATM   44  O5  UNL     1      29.081  17.705  13.527  1.00  0.00    -0.366 OA
HETATM   45  C31 UNL     1      27.992  18.502  13.857  1.00  0.00     0.204 C 
ENDBRANCH  43  44
BRANCH  43  46
HETATM   46  O6  UNL     1      30.349  17.057  11.817  1.00  0.00    -0.366 OA
HETATM   47  C32 UNL     1      29.859  16.749  10.537  1.00  0.00     0.204 C 
ENDBRANCH  43  46
ENDBRANCH  42  43
ENDBRANCH  41  42
ENDBRANCH  40  41
ENDBRANCH  39  40
ENDBRANCH  38  39
ENDBRANCH  36  38
ENDBRANCH  26  36
ENDBRANCH   7   8
ENDBRANCH   6   7
ENDBRANCH   1   6
TORSDOF 15
ENDMDL
