MODEL 1
REMARK VINA RESULT: -7.782058765      0.000      0.000
REMARK  7 active torsions:
REMARK  status: ('A' for Active; 'I' for Inactive)
REMARK    1  A    between atoms: C2_2  and  C4_4 
REMARK    2  A    between atoms: C4_4  and  C5_5 
REMARK    3  A    between atoms: C5_5  and  N1_6 
REMARK    4  A    between atoms: N1_6  and  C6_8 
REMARK    5  A    between atoms: C6_8  and  C7_12 
REMARK    6  A    between atoms: C19_30  and  C20_31 
REMARK    7  A    between atoms: C20_31  and  O2_32 
ROOT
HETATM    1  C7  UNL     1      -4.554   4.812  13.214  1.00  0.00     0.256 C 
HETATM    2  C8  UNL     1      -3.550   3.685  13.186  1.00  0.00     0.083 C 
HETATM    3  C9  UNL     1      -2.389   4.027  12.307  1.00  0.00    -0.001 A 
HETATM    4  C10 UNL     1      -2.406   3.503  11.022  1.00  0.00     0.174 A 
HETATM    5  F1  UNL     1      -3.448   2.727  10.619  1.00  0.00    -0.201 F 
HETATM    6  C11 UNL     1      -1.404   3.730  10.112  1.00  0.00     0.189 A 
HETATM    7  N3  UNL     1      -0.364   4.498  10.498  1.00  0.00    -0.282 N 
HETATM    8  C12 UNL     1      -0.342   5.002  11.723  1.00  0.00     0.257 A 
HETATM    9  O1  UNL     1       0.679   5.720  12.013  1.00  0.00    -0.267 OA
HETATM   10  C13 UNL     1      -1.336   4.796  12.676  1.00  0.00     0.020 A 
HETATM   11  C14 UNL     1      -1.128   5.441  13.975  1.00  0.00     0.045 C 
HETATM   12  C15 UNL     1      -1.619   6.810  14.175  1.00  0.00     0.010 C 
HETATM   13  C16 UNL     1      -2.284   7.460  12.981  1.00  0.00     0.007 C 
HETATM   14  C17 UNL     1      -2.220   8.977  13.074  1.00  0.00     0.011 C 
HETATM   15  C18 UNL     1      -3.747   7.077  13.030  1.00  0.00     0.237 C 
HETATM   16  N4  UNL     1      -3.945   5.935  13.903  1.00  0.00    -0.063 N 
ATOM     17  H41 UNL     1      -3.072   5.661  14.353  1.00  0.00     0.278 HD
ATOM     18  H42 UNL     1      -4.482   6.194  14.731  1.00  0.00     0.278 HD
HETATM   19  C19 UNL     1       0.585   4.602   9.374  1.00  0.00     0.153 C 
HETATM   20  C21 UNL     1      -0.269   4.224   8.213  1.00  0.00     0.085 C 
HETATM   21  C22 UNL     1       0.504   3.647   7.077  1.00  0.00     0.048 C 
HETATM   22  C23 UNL     1      -1.027   5.439   7.660  1.00  0.00     0.048 C 
HETATM   23  O3  UNL     1      -1.196   3.328   8.801  1.00  0.00    -0.320 OA
ENDROOT
BRANCH   1  24
HETATM   24  C6  UNL     1      -5.781   4.481  13.980  1.00  0.00     0.102 C 
HETATM   25  N2  UNL     1      -6.732   5.336  14.018  1.00  0.00    -0.387 N 
ATOM     26  H22 UNL     1      -7.576   5.109  14.544  1.00  0.00     0.157 HD
ATOM     27  H21 UNL     1      -6.654   6.231  13.535  1.00  0.00     0.157 HD
BRANCH  24  28
HETATM   28  N1  UNL     1      -5.891   3.215  14.663  1.00  0.00    -0.378 N 
ATOM     29  H1  UNL     1      -5.839   2.337  14.146  1.00  0.00     0.160 HD
BRANCH  28  30
HETATM   30  C5  UNL     1      -6.078   3.217  16.089  1.00  0.00     0.121 C 
BRANCH  30  31
HETATM   31  C4  UNL     1      -5.226   2.120  16.717  1.00  0.00     0.023 C 
BRANCH  31  32
HETATM   32  C2  UNL     1      -6.038   1.445  17.800  1.00  0.00    -0.021 C 
HETATM   33  C1  UNL     1      -7.388   1.054  17.205  1.00  0.00     0.009 C 
HETATM   34  C3  UNL     1      -6.245   2.351  18.975  1.00  0.00     0.009 C 
ENDBRANCH  31  32
ENDBRANCH  30  31
ENDBRANCH  28  30
ENDBRANCH  24  28
ENDBRANCH   1  24
BRANCH  19  35
HETATM   35  C20 UNL     1       1.693   3.633   9.683  1.00  0.00     0.193 C 
BRANCH  35  36
HETATM   36  O2  UNL     1       2.756   4.209  10.351  1.00  0.00    -0.399 OA
ATOM     37  H2  UNL     1       2.876   5.129  10.146  1.00  0.00     0.209 HD
ENDBRANCH  35  36
ENDBRANCH  19  35
TORSDOF 7
ENDMDL
MODEL 2
REMARK VINA RESULT: -7.481347139      2.459      3.127
REMARK  7 active torsions:
REMARK  status: ('A' for Active; 'I' for Inactive)
REMARK    1  A    between atoms: C2_2  and  C4_4 
REMARK    2  A    between atoms: C4_4  and  C5_5 
REMARK    3  A    between atoms: C5_5  and  N1_6 
REMARK    4  A    between atoms: N1_6  and  C6_8 
REMARK    5  A    between atoms: C6_8  and  C7_12 
REMARK    6  A    between atoms: C19_30  and  C20_31 
REMARK    7  A    between atoms: C20_31  and  O2_32 
ROOT
HETATM    1  C7  UNL     1      -3.876   2.446  13.712  1.00  0.00     0.256 C 
HETATM    2  C8  UNL     1      -2.913   2.288  12.561  1.00  0.00     0.083 C 
HETATM    3  C9  UNL     1      -2.818   3.552  11.767  1.00  0.00    -0.001 A 
HETATM    4  C10 UNL     1      -3.568   3.614  10.601  1.00  0.00     0.174 A 
HETATM    5  F1  UNL     1      -4.344   2.557  10.238  1.00  0.00    -0.201 F 
HETATM    6  C11 UNL     1      -3.571   4.709   9.775  1.00  0.00     0.189 A 
HETATM    7  N3  UNL     1      -2.807   5.764  10.124  1.00  0.00    -0.282 N 
HETATM    8  C12 UNL     1      -2.087   5.712  11.235  1.00  0.00     0.257 A 
HETATM    9  O1  UNL     1      -1.388   6.753  11.497  1.00  0.00    -0.267 OA
HETATM   10  C13 UNL     1      -2.056   4.622  12.101  1.00  0.00     0.020 A 
HETATM   11  C14 UNL     1      -1.198   4.760  13.280  1.00  0.00     0.045 C 
HETATM   12  C15 UNL     1      -1.760   5.350  14.502  1.00  0.00     0.010 C 
HETATM   13  C16 UNL     1      -3.202   5.802  14.421  1.00  0.00     0.007 C 
HETATM   14  C17 UNL     1      -3.499   6.878  15.455  1.00  0.00     0.011 C 
HETATM   15  C18 UNL     1      -4.059   4.606  14.770  1.00  0.00     0.237 C 
HETATM   16  N4  UNL     1      -3.291   3.379  14.658  1.00  0.00    -0.063 N 
ATOM     17  H41 UNL     1      -2.317   3.575  14.427  1.00  0.00     0.278 HD
ATOM     18  H42 UNL     1      -3.158   2.943  15.570  1.00  0.00     0.278 HD
HETATM   19  C19 UNL     1      -2.959   6.814   9.099  1.00  0.00     0.153 C 
HETATM   20  C21 UNL     1      -4.232   6.413   8.435  1.00  0.00     0.085 C 
HETATM   21  C22 UNL     1      -4.331   6.878   7.023  1.00  0.00     0.048 C 
HETATM   22  C23 UNL     1      -5.449   6.986   9.174  1.00  0.00     0.048 C 
HETATM   23  O3  UNL     1      -4.220   5.005   8.585  1.00  0.00    -0.320 OA
ENDROOT
BRANCH   1  24
HETATM   24  C6  UNL     1      -4.096   1.188  14.466  1.00  0.00     0.102 C 
HETATM   25  N2  UNL     1      -4.412   0.129  13.818  1.00  0.00    -0.387 N 
ATOM     26  H22 UNL     1      -4.563  -0.736  14.336  1.00  0.00     0.157 HD
ATOM     27  H21 UNL     1      -4.514   0.145  12.804  1.00  0.00     0.157 HD
BRANCH  24  28
HETATM   28  N1  UNL     1      -3.953   1.165  15.901  1.00  0.00    -0.378 N 
ATOM     29  H1  UNL     1      -3.067   1.415  16.340  1.00  0.00     0.160 HD
BRANCH  28  30
HETATM   30  C5  UNL     1      -5.086   0.782  16.700  1.00  0.00     0.121 C 
BRANCH  30  31
HETATM   31  C4  UNL     1      -5.328   1.831  17.779  1.00  0.00     0.023 C 
BRANCH  31  32
HETATM   32  C2  UNL     1      -6.762   2.302  17.674  1.00  0.00    -0.021 C 
HETATM   33  C1  UNL     1      -7.599   1.151  17.123  1.00  0.00     0.009 C 
HETATM   34  C3  UNL     1      -6.884   3.493  16.775  1.00  0.00     0.009 C 
ENDBRANCH  31  32
ENDBRANCH  30  31
ENDBRANCH  28  30
ENDBRANCH  24  28
ENDBRANCH   1  24
BRANCH  19  35
HETATM   35  C20 UNL     1      -1.737   6.715   8.227  1.00  0.00     0.193 C 
BRANCH  35  36
HETATM   36  O2  UNL     1      -0.699   7.525   8.644  1.00  0.00    -0.399 OA
ATOM     37  H2  UNL     1      -0.944   8.439   8.727  1.00  0.00     0.209 HD
ENDBRANCH  35  36
ENDBRANCH  19  35
TORSDOF 7
ENDMDL
MODEL 3
REMARK VINA RESULT: -7.477691813      3.266      5.099
REMARK  7 active torsions:
REMARK  status: ('A' for Active; 'I' for Inactive)
REMARK    1  A    between atoms: C2_2  and  C4_4 
REMARK    2  A    between atoms: C4_4  and  C5_5 
REMARK    3  A    between atoms: C5_5  and  N1_6 
REMARK    4  A    between atoms: N1_6  and  C6_8 
REMARK    5  A    between atoms: C6_8  and  C7_12 
REMARK    6  A    between atoms: C19_30  and  C20_31 
REMARK    7  A    between atoms: C20_31  and  O2_32 
ROOT
HETATM    1  C7  UNL     1      -2.936   4.353  13.898  1.00  0.00     0.256 C 
HETATM    2  C8  UNL     1      -4.314   4.096  13.338  1.00  0.00     0.083 C 
HETATM    3  C9  UNL     1      -4.521   4.851  12.063  1.00  0.00    -0.001 A 
HETATM    4  C10 UNL     1      -5.222   6.045  12.152  1.00  0.00     0.174 A 
HETATM    5  F1  UNL     1      -5.676   6.476  13.360  1.00  0.00    -0.201 F 
HETATM    6  C11 UNL     1      -5.489   6.835  11.062  1.00  0.00     0.189 A 
HETATM    7  N3  UNL     1      -5.044   6.420   9.858  1.00  0.00    -0.282 N 
HETATM    8  C12 UNL     1      -4.374   5.280   9.765  1.00  0.00     0.257 A 
HETATM    9  O1  UNL     1      -3.986   4.955   8.589  1.00  0.00    -0.267 OA
HETATM   10  C13 UNL     1      -4.082   4.450  10.844  1.00  0.00     0.020 A 
HETATM   11  C14 UNL     1      -3.328   3.232  10.536  1.00  0.00     0.045 C 
HETATM   12  C15 UNL     1      -1.860   3.284  10.546  1.00  0.00     0.010 C 
HETATM   13  C16 UNL     1      -1.243   4.632  10.852  1.00  0.00     0.007 C 
HETATM   14  C17 UNL     1       0.164   4.734  10.283  1.00  0.00     0.011 C 
HETATM   15  C18 UNL     1      -1.120   4.728  12.356  1.00  0.00     0.237 C 
HETATM   16  N4  UNL     1      -1.970   3.745  13.001  1.00  0.00    -0.063 N 
ATOM     17  H41 UNL     1      -2.430   3.150  12.313  1.00  0.00     0.278 HD
ATOM     18  H42 UNL     1      -1.415   3.038  13.484  1.00  0.00     0.278 HD
HETATM   19  C19 UNL     1      -5.445   7.411   8.842  1.00  0.00     0.153 C 
HETATM   20  C21 UNL     1      -5.718   8.614   9.677  1.00  0.00     0.085 C 
HETATM   21  C22 UNL     1      -6.699   9.550   9.057  1.00  0.00     0.048 C 
HETATM   22  C23 UNL     1      -4.437   9.420   9.929  1.00  0.00     0.048 C 
HETATM   23  O3  UNL     1      -6.153   8.042  10.898  1.00  0.00    -0.320 OA
ENDROOT
BRANCH   1  24
HETATM   24  C6  UNL     1      -2.717   3.721  15.222  1.00  0.00     0.102 C 
HETATM   25  N2  UNL     1      -1.545   3.755  15.735  1.00  0.00    -0.387 N 
ATOM     26  H22 UNL     1      -1.395   3.321  16.645  1.00  0.00     0.157 HD
ATOM     27  H21 UNL     1      -0.771   4.206  15.247  1.00  0.00     0.157 HD
BRANCH  24  28
HETATM   28  N1  UNL     1      -3.812   3.083  15.912  1.00  0.00    -0.378 N 
ATOM     29  H1  UNL     1      -4.596   3.632  16.264  1.00  0.00     0.160 HD
BRANCH  28  30
HETATM   30  C5  UNL     1      -3.774   1.657  16.094  1.00  0.00     0.121 C 
BRANCH  30  31
HETATM   31  C4  UNL     1      -5.138   1.165  16.563  1.00  0.00     0.023 C 
BRANCH  31  32
HETATM   32  C2  UNL     1      -5.824   2.292  17.304  1.00  0.00    -0.021 C 
HETATM   33  C1  UNL     1      -5.997   1.865  18.759  1.00  0.00     0.009 C 
HETATM   34  C3  UNL     1      -7.160   2.608  16.706  1.00  0.00     0.009 C 
ENDBRANCH  31  32
ENDBRANCH  30  31
ENDBRANCH  28  30
ENDBRANCH  24  28
ENDBRANCH   1  24
BRANCH  19  35
HETATM   35  C20 UNL     1      -6.653   6.830   8.159  1.00  0.00     0.193 C 
BRANCH  35  36
HETATM   36  O2  UNL     1      -6.357   6.193   6.970  1.00  0.00    -0.399 OA
ATOM     37  H2  UNL     1      -5.779   6.694   6.407  1.00  0.00     0.209 HD
ENDBRANCH  35  36
ENDBRANCH  19  35
TORSDOF 7
ENDMDL
MODEL 4
REMARK VINA RESULT: -7.461657094      3.300      6.830
REMARK  7 active torsions:
REMARK  status: ('A' for Active; 'I' for Inactive)
REMARK    1  A    between atoms: C2_2  and  C4_4 
REMARK    2  A    between atoms: C4_4  and  C5_5 
REMARK    3  A    between atoms: C5_5  and  N1_6 
REMARK    4  A    between atoms: N1_6  and  C6_8 
REMARK    5  A    between atoms: C6_8  and  C7_12 
REMARK    6  A    between atoms: C19_30  and  C20_31 
REMARK    7  A    between atoms: C20_31  and  O2_32 
ROOT
HETATM    1  C7  UNL     1      -2.177   7.773  11.919  1.00  0.00     0.256 C 
HETATM    2  C8  UNL     1      -1.487   6.439  11.763  1.00  0.00     0.083 C 
HETATM    3  C9  UNL     1      -2.416   5.315  12.099  1.00  0.00    -0.001 A 
HETATM    4  C10 UNL     1      -2.300   4.770  13.370  1.00  0.00     0.174 A 
HETATM    5  F1  UNL     1      -1.378   5.266  14.239  1.00  0.00    -0.201 F 
HETATM    6  C11 UNL     1      -3.083   3.733  13.809  1.00  0.00     0.189 A 
HETATM    7  N3  UNL     1      -4.002   3.232  12.959  1.00  0.00    -0.282 N 
HETATM    8  C12 UNL     1      -4.118   3.747  11.744  1.00  0.00     0.257 A 
HETATM    9  O1  UNL     1      -5.012   3.217  10.995  1.00  0.00    -0.267 OA
HETATM   10  C13 UNL     1      -3.345   4.798  11.259  1.00  0.00     0.020 A 
HETATM   11  C14 UNL     1      -3.628   5.227   9.886  1.00  0.00     0.045 C 
HETATM   12  C15 UNL     1      -4.653   6.255   9.661  1.00  0.00     0.010 C 
HETATM   13  C16 UNL     1      -5.364   6.768  10.894  1.00  0.00     0.007 C 
HETATM   14  C17 UNL     1      -6.730   7.337  10.543  1.00  0.00     0.011 C 
HETATM   15  C18 UNL     1      -4.535   7.911  11.437  1.00  0.00     0.237 C 
HETATM   16  N4  UNL     1      -3.193   7.872  10.888  1.00  0.00    -0.063 N 
ATOM     17  H41 UNL     1      -3.097   7.122  10.203  1.00  0.00     0.278 HD
ATOM     18  H42 UNL     1      -3.021   8.672  10.278  1.00  0.00     0.278 HD
HETATM   19  C19 UNL     1      -4.717   2.133  13.634  1.00  0.00     0.153 C 
HETATM   20  C21 UNL     1      -4.429   2.413  15.068  1.00  0.00     0.085 C 
HETATM   21  C22 UNL     1      -4.476   1.196  15.927  1.00  0.00     0.048 C 
HETATM   22  C23 UNL     1      -5.441   3.406  15.656  1.00  0.00     0.048 C 
HETATM   23  O3  UNL     1      -3.156   3.032  15.005  1.00  0.00    -0.320 OA
ENDROOT
BRANCH   1  24
HETATM   24  C6  UNL     1      -1.269   8.926  11.709  1.00  0.00     0.102 C 
HETATM   25  N2  UNL     1      -0.128   8.722  11.165  1.00  0.00    -0.387 N 
ATOM     26  H22 UNL     1       0.496   9.515  11.021  1.00  0.00     0.157 HD
ATOM     27  H21 UNL     1       0.157   7.785  10.880  1.00  0.00     0.157 HD
BRANCH  24  28
HETATM   28  N1  UNL     1      -1.673  10.252  12.112  1.00  0.00    -0.378 N 
ATOM     29  H1  UNL     1      -2.431  10.735  11.630  1.00  0.00     0.160 HD
BRANCH  28  30
HETATM   30  C5  UNL     1      -0.983  10.878  13.207  1.00  0.00     0.121 C 
BRANCH  30  31
HETATM   31  C4  UNL     1      -1.772  10.667  14.495  1.00  0.00     0.023 C 
BRANCH  31  32
HETATM   32  C2  UNL     1      -0.939   9.820  15.432  1.00  0.00    -0.021 C 
HETATM   33  C1  UNL     1       0.496   9.810  14.913  1.00  0.00     0.009 C 
HETATM   34  C3  UNL     1      -1.460   8.418  15.512  1.00  0.00     0.009 C 
ENDBRANCH  31  32
ENDBRANCH  30  31
ENDBRANCH  28  30
ENDBRANCH  24  28
ENDBRANCH   1  24
BRANCH  19  35
HETATM   35  C20 UNL     1      -4.108   0.863  13.106  1.00  0.00     0.193 C 
BRANCH  35  36
HETATM   36  O2  UNL     1      -4.829   0.296  12.072  1.00  0.00    -0.399 OA
ATOM     37  H2  UNL     1      -4.919  -0.646  12.149  1.00  0.00     0.209 HD
ENDBRANCH  35  36
ENDBRANCH  19  35
TORSDOF 7
ENDMDL
MODEL 5
REMARK VINA RESULT: -7.404236869      2.718      6.907
REMARK  7 active torsions:
REMARK  status: ('A' for Active; 'I' for Inactive)
REMARK    1  A    between atoms: C2_2  and  C4_4 
REMARK    2  A    between atoms: C4_4  and  C5_5 
REMARK    3  A    between atoms: C5_5  and  N1_6 
REMARK    4  A    between atoms: N1_6  and  C6_8 
REMARK    5  A    between atoms: C6_8  and  C7_12 
REMARK    6  A    between atoms: C19_30  and  C20_31 
REMARK    7  A    between atoms: C20_31  and  O2_32 
ROOT
HETATM    1  C7  UNL     1      -0.085   6.452  11.627  1.00  0.00     0.256 C 
HETATM    2  C8  UNL     1       0.143   5.264  12.531  1.00  0.00     0.083 C 
HETATM    3  C9  UNL     1      -1.118   4.480  12.710  1.00  0.00    -0.001 A 
HETATM    4  C10 UNL     1      -1.837   4.714  13.874  1.00  0.00     0.174 A 
HETATM    5  F1  UNL     1      -1.386   5.624  14.778  1.00  0.00    -0.201 F 
HETATM    6  C11 UNL     1      -3.007   4.061  14.169  1.00  0.00     0.189 A 
HETATM    7  N3  UNL     1      -3.467   3.156  13.280  1.00  0.00    -0.282 N 
HETATM    8  C12 UNL     1      -2.785   2.928  12.167  1.00  0.00     0.257 A 
HETATM    9  O1  UNL     1      -3.286   2.055  11.375  1.00  0.00    -0.267 OA
HETATM   10  C13 UNL     1      -1.596   3.567  11.829  1.00  0.00     0.020 A 
HETATM   11  C14 UNL     1      -0.995   3.176  10.551  1.00  0.00     0.045 C 
HETATM   12  C15 UNL     1      -1.392   3.892   9.332  1.00  0.00     0.010 C 
HETATM   13  C16 UNL     1      -2.436   4.974   9.504  1.00  0.00     0.007 C 
HETATM   14  C17 UNL     1      -3.184   5.229   8.205  1.00  0.00     0.011 C 
HETATM   15  C18 UNL     1      -1.696   6.249   9.845  1.00  0.00     0.237 C 
HETATM   16  N4  UNL     1      -0.348   5.952  10.291  1.00  0.00    -0.063 N 
ATOM     17  H41 UNL     1      -0.151   4.953  10.226  1.00  0.00     0.278 HD
ATOM     18  H42 UNL     1       0.345   6.297   9.626  1.00  0.00     0.278 HD
HETATM   19  C19 UNL     1      -4.721   2.581  13.801  1.00  0.00     0.153 C 
HETATM   20  C21 UNL     1      -5.134   3.602  14.806  1.00  0.00     0.085 C 
HETATM   21  C22 UNL     1      -5.979   3.044  15.899  1.00  0.00     0.048 C 
HETATM   22  C23 UNL     1      -5.944   4.730  14.153  1.00  0.00     0.048 C 
HETATM   23  O3  UNL     1      -3.888   4.119  15.239  1.00  0.00    -0.320 OA
ENDROOT
BRANCH   1  24
HETATM   24  C6  UNL     1       1.105   7.329  11.507  1.00  0.00     0.102 C 
HETATM   25  N2  UNL     1       1.876   7.187  10.496  1.00  0.00    -0.387 N 
ATOM     26  H22 UNL     1       2.694   7.790  10.413  1.00  0.00     0.157 HD
ATOM     27  H21 UNL     1       1.683   6.483   9.783  1.00  0.00     0.157 HD
BRANCH  24  28
HETATM   28  N1  UNL     1       1.379   8.325  12.515  1.00  0.00    -0.378 N 
ATOM     29  H1  UNL     1       2.300   8.390  12.947  1.00  0.00     0.160 HD
BRANCH  28  30
HETATM   30  C5  UNL     1       0.323   9.224  12.898  1.00  0.00     0.121 C 
BRANCH  30  31
HETATM   31  C4  UNL     1      -0.005   9.027  14.374  1.00  0.00     0.023 C 
BRANCH  31  32
HETATM   32  C2  UNL     1      -1.491   9.233  14.565  1.00  0.00    -0.021 C 
HETATM   33  C1  UNL     1      -1.879   8.655  15.923  1.00  0.00     0.009 C 
HETATM   34  C3  UNL     1      -2.281   8.562  13.483  1.00  0.00     0.009 C 
ENDBRANCH  31  32
ENDBRANCH  30  31
ENDBRANCH  28  30
ENDBRANCH  24  28
ENDBRANCH   1  24
BRANCH  19  35
HETATM   35  C20 UNL     1      -4.349   1.244  14.379  1.00  0.00     0.193 C 
BRANCH  35  36
HETATM   36  O2  UNL     1      -4.514   0.198  13.492  1.00  0.00    -0.399 OA
ATOM     37  H2  UNL     1      -4.006  -0.573  13.720  1.00  0.00     0.209 HD
ENDBRANCH  35  36
ENDBRANCH  19  35
TORSDOF 7
ENDMDL
