MODEL 1
REMARK VINA RESULT: -5.618578258      0.000      0.000
REMARK  4 active torsions:
REMARK  status: ('A' for Active; 'I' for Inactive)
REMARK    1  A    between atoms: N1_2  and  C3_4 
REMARK    2  A    between atoms: C5_8  and  C6_9 
REMARK    3  A    between atoms: C6_9  and  N2_10 
REMARK    4  A    between atoms: N2_10  and  C7_13 
ROOT
HETATM    1  C3  UNL     1     -24.013  -8.303  74.770  1.00  0.00     0.328 C 
HETATM    2  C4  UNL     1     -24.703  -9.203  75.694  1.00  0.00     0.294 C 
HETATM    3  O1  UNL     1     -25.075 -10.396  75.577  1.00  0.00    -0.263 OA
HETATM    4  O2  UNL     1     -24.913  -8.461  76.859  1.00  0.00    -0.306 OA
HETATM    5  C5  UNL     1     -24.708  -7.084  76.614  1.00  0.00     0.105 C 
HETATM    6  C10 UNL     1     -25.791  -6.317  77.297  1.00  0.00     0.089 C 
HETATM    7  C11 UNL     1     -27.057  -7.077  77.096  1.00  0.00     0.008 C 
HETATM    8  C12 UNL     1     -27.950  -7.338  78.012  1.00  0.00     0.202 C 
HETATM    9  F1  UNL     1     -29.059  -8.040  77.696  1.00  0.00    -0.218 F 
HETATM   10  S1  UNL     1     -27.312  -7.650  75.420  1.00  0.00    -0.132 SA
HETATM   11  C13 UNL     1     -25.987  -6.785  74.477  1.00  0.00     0.089 C 
HETATM   12  C14 UNL     1     -24.651  -6.977  75.127  1.00  0.00     0.076 C 
ENDROOT
BRANCH   5  13
HETATM   13  C6  UNL     1     -23.381  -6.696  77.265  1.00  0.00     0.272 C 
BRANCH  13  14
HETATM   14  N2  UNL     1     -23.591  -5.799  78.374  1.00  0.00    -0.068 N 
ATOM     15  H22 UNL     1     -24.565  -5.508  78.454  1.00  0.00     0.277 HD
ATOM     16  H21 UNL     1     -23.506  -6.273  79.274  1.00  0.00     0.277 HD
BRANCH  14  17
HETATM   17  C7  UNL     1     -22.699  -4.680  78.264  1.00  0.00     0.186 A 
HETATM   18  C8  UNL     1     -23.113  -3.299  78.622  1.00  0.00     0.035 A 
HETATM   19  C9  UNL     1     -22.210  -4.059  79.544  1.00  0.00     0.035 A 
ENDBRANCH  14  17
ENDBRANCH  13  14
ENDBRANCH   5  13
BRANCH   1  20
HETATM   20  N1  UNL     1     -24.184  -8.659  73.390  1.00  0.00     0.094 N 
HETATM   21  C1  UNL     1     -23.624  -7.621  72.545  1.00  0.00     0.310 C 
HETATM   22  C2  UNL     1     -23.404  -9.858  73.151  1.00  0.00     0.310 C 
ENDBRANCH   1  20
TORSDOF 4
ENDMDL
MODEL 2
REMARK VINA RESULT: -5.058216732      1.483      1.704
REMARK  4 active torsions:
REMARK  status: ('A' for Active; 'I' for Inactive)
REMARK    1  A    between atoms: N1_2  and  C3_4 
REMARK    2  A    between atoms: C5_8  and  C6_9 
REMARK    3  A    between atoms: C6_9  and  N2_10 
REMARK    4  A    between atoms: N2_10  and  C7_13 
ROOT
HETATM    1  C3  UNL     1     -23.152  -8.804  73.503  1.00  0.00     0.328 C 
HETATM    2  C4  UNL     1     -23.989  -9.635  74.368  1.00  0.00     0.294 C 
HETATM    3  O1  UNL     1     -24.506 -10.765  74.195  1.00  0.00    -0.263 OA
HETATM    4  O2  UNL     1     -24.150  -8.906  75.550  1.00  0.00    -0.306 OA
HETATM    5  C5  UNL     1     -23.760  -7.561  75.361  1.00  0.00     0.105 C 
HETATM    6  C10 UNL     1     -24.763  -6.680  76.029  1.00  0.00     0.089 C 
HETATM    7  C11 UNL     1     -26.106  -7.263  75.754  1.00  0.00     0.008 C 
HETATM    8  C12 UNL     1     -27.063  -7.434  76.627  1.00  0.00     0.202 C 
HETATM    9  F1  UNL     1     -28.239  -7.976  76.245  1.00  0.00    -0.218 F 
HETATM   10  S1  UNL     1     -26.363  -7.748  74.051  1.00  0.00    -0.132 SA
HETATM   11  C13 UNL     1     -24.900  -7.035  73.189  1.00  0.00     0.089 C 
HETATM   12  C14 UNL     1     -23.628  -7.418  73.881  1.00  0.00     0.076 C 
ENDROOT
BRANCH   5  13
HETATM   13  C6  UNL     1     -22.422  -7.368  76.074  1.00  0.00     0.272 C 
BRANCH  13  14
HETATM   14  N2  UNL     1     -22.229  -5.988  76.446  1.00  0.00    -0.068 N 
ATOM     15  H22 UNL     1     -21.598  -5.502  75.809  1.00  0.00     0.277 HD
ATOM     16  H21 UNL     1     -23.064  -5.425  76.283  1.00  0.00     0.277 HD
BRANCH  14  17
HETATM   17  C7  UNL     1     -21.785  -5.915  77.809  1.00  0.00     0.186 A 
HETATM   18  C8  UNL     1     -21.392  -4.632  78.446  1.00  0.00     0.035 A 
HETATM   19  C9  UNL     1     -22.706  -5.257  78.801  1.00  0.00     0.035 A 
ENDBRANCH  14  17
ENDBRANCH  13  14
ENDBRANCH   5  13
BRANCH   1  20
HETATM   20  N1  UNL     1     -23.309  -9.094  72.106  1.00  0.00     0.094 N 
HETATM   21  C1  UNL     1     -22.533  -8.151  71.321  1.00  0.00     0.310 C 
HETATM   22  C2  UNL     1     -22.739 -10.406  71.866  1.00  0.00     0.310 C 
ENDBRANCH   1  20
TORSDOF 4
ENDMDL
MODEL 3
REMARK VINA RESULT: -5.046715304      1.423      1.670
REMARK  4 active torsions:
REMARK  status: ('A' for Active; 'I' for Inactive)
REMARK    1  A    between atoms: N1_2  and  C3_4 
REMARK    2  A    between atoms: C5_8  and  C6_9 
REMARK    3  A    between atoms: C6_9  and  N2_10 
REMARK    4  A    between atoms: N2_10  and  C7_13 
ROOT
HETATM    1  C3  UNL     1     -24.328  -9.291  73.594  1.00  0.00     0.328 C 
HETATM    2  C4  UNL     1     -24.912  -9.920  74.778  1.00  0.00     0.294 C 
HETATM    3  O1  UNL     1     -25.504 -11.015  74.935  1.00  0.00    -0.263 OA
HETATM    4  O2  UNL     1     -24.694  -9.024  75.828  1.00  0.00    -0.306 OA
HETATM    5  C5  UNL     1     -24.320  -7.756  75.330  1.00  0.00     0.105 C 
HETATM    6  C10 UNL     1     -25.049  -6.710  76.105  1.00  0.00     0.089 C 
HETATM    7  C11 UNL     1     -26.437  -7.209  76.312  1.00  0.00     0.008 C 
HETATM    8  C12 UNL     1     -27.107  -7.176  77.433  1.00  0.00     0.202 C 
HETATM    9  F1  UNL     1     -28.364  -7.664  77.486  1.00  0.00    -0.218 F 
HETATM   10  S1  UNL     1     -27.195  -7.900  74.847  1.00  0.00    -0.132 SA
HETATM   11  C13 UNL     1     -26.017  -7.440  73.509  1.00  0.00     0.089 C 
HETATM   12  C14 UNL     1     -24.615  -7.830  73.869  1.00  0.00     0.076 C 
ENDROOT
BRANCH   5  13
HETATM   13  C6  UNL     1     -22.826  -7.580  75.600  1.00  0.00     0.272 C 
BRANCH  13  14
HETATM   14  N2  UNL     1     -22.550  -6.276  76.149  1.00  0.00    -0.068 N 
ATOM     15  H22 UNL     1     -22.155  -5.642  75.455  1.00  0.00     0.277 HD
ATOM     16  H21 UNL     1     -23.403  -5.756  76.354  1.00  0.00     0.277 HD
BRANCH  14  17
HETATM   17  C7  UNL     1     -21.706  -6.408  77.303  1.00  0.00     0.186 A 
HETATM   18  C8  UNL     1     -21.401  -5.261  78.196  1.00  0.00     0.035 A 
HETATM   19  C9  UNL     1     -22.364  -6.314  78.653  1.00  0.00     0.035 A 
ENDBRANCH  14  17
ENDBRANCH  13  14
ENDBRANCH   5  13
BRANCH   1  20
HETATM   20  N1  UNL     1     -24.895  -9.756  72.360  1.00  0.00     0.094 N 
HETATM   21  C1  UNL     1     -24.380  -8.965  71.257  1.00  0.00     0.310 C 
HETATM   22  C2  UNL     1     -24.430 -11.114  72.152  1.00  0.00     0.310 C 
ENDBRANCH   1  20
TORSDOF 4
ENDMDL
MODEL 4
REMARK VINA RESULT: -4.976622884      3.005      4.488
REMARK  4 active torsions:
REMARK  status: ('A' for Active; 'I' for Inactive)
REMARK    1  A    between atoms: N1_2  and  C3_4 
REMARK    2  A    between atoms: C5_8  and  C6_9 
REMARK    3  A    between atoms: C6_9  and  N2_10 
REMARK    4  A    between atoms: N2_10  and  C7_13 
ROOT
HETATM    1  C3  UNL     1     -25.477  -7.027  75.177  1.00  0.00     0.328 C 
HETATM    2  C4  UNL     1     -25.191  -6.986  73.743  1.00  0.00     0.294 C 
HETATM    3  O1  UNL     1     -25.940  -6.840  72.746  1.00  0.00    -0.263 OA
HETATM    4  O2  UNL     1     -23.809  -7.153  73.628  1.00  0.00    -0.306 OA
HETATM    5  C5  UNL     1     -23.263  -7.623  74.844  1.00  0.00     0.105 C 
HETATM    6  C10 UNL     1     -22.265  -8.689  74.533  1.00  0.00     0.089 C 
HETATM    7  C11 UNL     1     -22.842  -9.519  73.439  1.00  0.00     0.008 C 
HETATM    8  C12 UNL     1     -22.212  -9.923  72.369  1.00  0.00     0.202 C 
HETATM    9  F1  UNL     1     -22.853 -10.675  71.448  1.00  0.00    -0.218 F 
HETATM   10  S1  UNL     1     -24.556  -9.967  73.682  1.00  0.00    -0.132 SA
HETATM   11  C13 UNL     1     -24.882  -9.451  75.419  1.00  0.00     0.089 C 
HETATM   12  C14 UNL     1     -24.450  -8.034  75.649  1.00  0.00     0.076 C 
ENDROOT
BRANCH   5  13
HETATM   13  C6  UNL     1     -22.514  -6.457  75.490  1.00  0.00     0.272 C 
BRANCH  13  14
HETATM   14  N2  UNL     1     -21.669  -6.918  76.564  1.00  0.00    -0.068 N 
ATOM     15  H22 UNL     1     -21.857  -7.888  76.813  1.00  0.00     0.277 HD
ATOM     16  H21 UNL     1     -20.698  -7.028  76.270  1.00  0.00     0.277 HD
BRANCH  14  17
HETATM   17  C7  UNL     1     -21.796  -6.036  77.689  1.00  0.00     0.186 A 
HETATM   18  C8  UNL     1     -23.116  -5.549  78.168  1.00  0.00     0.035 A 
HETATM   19  C9  UNL     1     -22.394  -6.604  78.948  1.00  0.00     0.035 A 
ENDBRANCH  14  17
ENDBRANCH  13  14
ENDBRANCH   5  13
BRANCH   1  20
HETATM   20  N1  UNL     1     -26.826  -7.412  75.481  1.00  0.00     0.094 N 
HETATM   21  C1  UNL     1     -27.042  -7.348  76.915  1.00  0.00     0.310 C 
HETATM   22  C2  UNL     1     -27.705  -6.425  74.882  1.00  0.00     0.310 C 
ENDBRANCH   1  20
TORSDOF 4
ENDMDL
MODEL 5
REMARK VINA RESULT: -4.966866076      4.076      5.253
REMARK  4 active torsions:
REMARK  status: ('A' for Active; 'I' for Inactive)
REMARK    1  A    between atoms: N1_2  and  C3_4 
REMARK    2  A    between atoms: C5_8  and  C6_9 
REMARK    3  A    between atoms: C6_9  and  N2_10 
REMARK    4  A    between atoms: N2_10  and  C7_13 
ROOT
HETATM    1  C3  UNL     1     -24.572  -7.641  72.457  1.00  0.00     0.328 C 
HETATM    2  C4  UNL     1     -23.335  -7.114  71.882  1.00  0.00     0.294 C 
HETATM    3  O1  UNL     1     -23.051  -6.729  70.721  1.00  0.00    -0.263 OA
HETATM    4  O2  UNL     1     -22.408  -7.102  72.927  1.00  0.00    -0.306 OA
HETATM    5  C5  UNL     1     -22.870  -7.881  74.011  1.00  0.00     0.105 C 
HETATM    6  C10 UNL     1     -21.729  -8.690  74.532  1.00  0.00     0.089 C 
HETATM    7  C11 UNL     1     -20.965  -9.177  73.350  1.00  0.00     0.008 C 
HETATM    8  C12 UNL     1     -19.666  -9.154  73.213  1.00  0.00     0.202 C 
HETATM    9  F1  UNL     1     -19.095  -9.629  72.085  1.00  0.00    -0.218 F 
HETATM   10  S1  UNL     1     -21.983  -9.843  72.039  1.00  0.00    -0.132 SA
HETATM   11  C13 UNL     1     -23.650  -9.945  72.815  1.00  0.00     0.089 C 
HETATM   12  C14 UNL     1     -24.027  -8.642  73.453  1.00  0.00     0.076 C 
ENDROOT
BRANCH   5  13
HETATM   13  C6  UNL     1     -23.303  -6.918  75.116  1.00  0.00     0.272 C 
BRANCH  13  14
HETATM   14  N2  UNL     1     -22.191  -6.575  75.967  1.00  0.00    -0.068 N 
ATOM     15  H22 UNL     1     -21.567  -7.366  76.123  1.00  0.00     0.277 HD
ATOM     16  H21 UNL     1     -21.527  -5.955  75.502  1.00  0.00     0.277 HD
BRANCH  14  17
HETATM   17  C7  UNL     1     -22.679  -6.021  77.198  1.00  0.00     0.186 A 
HETATM   18  C8  UNL     1     -22.294  -6.572  78.522  1.00  0.00     0.035 A 
HETATM   19  C9  UNL     1     -21.694  -5.279  78.060  1.00  0.00     0.035 A 
ENDBRANCH  14  17
ENDBRANCH  13  14
ENDBRANCH   5  13
BRANCH   1  20
HETATM   20  N1  UNL     1     -25.449  -8.231  71.486  1.00  0.00     0.094 N 
HETATM   21  C1  UNL     1     -26.582  -8.842  72.157  1.00  0.00     0.310 C 
HETATM   22  C2  UNL     1     -25.979  -7.156  70.668  1.00  0.00     0.310 C 
ENDBRANCH   1  20
TORSDOF 4
ENDMDL
