MODEL 1
REMARK VINA RESULT: -6.730774499      0.000      0.000
REMARK  3 active torsions:
REMARK  status: ('A' for Active; 'I' for Inactive)
REMARK       I    between atoms: C1_2  and  N1_3 
REMARK    1  A    between atoms: C1_2  and  C7_11 
REMARK    2  A    between atoms: N1_3  and  C2_5 
REMARK    3  A    between atoms: C9_15  and  N3_16 
ROOT
HETATM    1  C7  UNL     1     -24.538  -6.326  77.446  1.00  0.00     0.091 A 
HETATM    2  C8  UNL     1     -25.388  -5.919  78.442  1.00  0.00     0.115 A 
HETATM    3  N2  UNL     1     -24.965  -5.046  79.290  1.00  0.00    -0.345 N 
ATOM      4  H2  UNL     1     -25.579  -4.727  80.040  1.00  0.00     0.167 HD
HETATM    5  C9  UNL     1     -23.737  -4.561  79.192  1.00  0.00     0.147 A 
HETATM    6  S1  UNL     1     -23.142  -5.386  77.820  1.00  0.00    -0.047 SA
ENDROOT
BRANCH   1   7
HETATM    7  C1  UNL     1     -24.768  -7.292  76.373  1.00  0.00     0.260 C 
HETATM    8  O1  UNL     1     -25.044  -8.484  76.671  1.00  0.00    -0.267 OA
HETATM    9  N1  UNL     1     -24.673  -6.850  75.041  1.00  0.00    -0.352 N 
ATOM     10  H1  UNL     1     -24.450  -5.878  74.828  1.00  0.00     0.163 HD
BRANCH   9  11
HETATM   11  C2  UNL     1     -24.903  -7.818  73.969  1.00  0.00     0.087 C 
HETATM   12  C3  UNL     1     -24.072  -7.426  72.786  1.00  0.00     0.028 C 
HETATM   13  C4  UNL     1     -25.027  -7.227  71.640  1.00  0.00     0.039 C 
HETATM   14  C5  UNL     1     -26.289  -6.771  72.381  1.00  0.00     0.172 C 
HETATM   15  F1  UNL     1     -26.199  -5.480  72.814  1.00  0.00    -0.249 F 
HETATM   16  C6  UNL     1     -26.361  -7.754  73.507  1.00  0.00     0.062 C 
ENDBRANCH   9  11
ENDBRANCH   1   7
BRANCH   5  17
HETATM   17  N3  UNL     1     -23.092  -3.609  80.011  1.00  0.00    -0.357 N 
HETATM   18  C10 UNL     1     -23.795  -3.021  81.119  1.00  0.00     0.151 C 
HETATM   19  C11 UNL     1     -22.793  -2.985  82.274  1.00  0.00     0.187 C 
HETATM   20  O2  UNL     1     -21.729  -2.170  82.001  1.00  0.00    -0.388 OA
HETATM   21  C12 UNL     1     -21.394  -2.011  80.686  1.00  0.00     0.187 C 
HETATM   22  C13 UNL     1     -21.735  -3.183  79.794  1.00  0.00     0.151 C 
ENDBRANCH   5  17
TORSDOF 3
ENDMDL
MODEL 2
REMARK VINA RESULT: -6.661777387      0.483      1.165
REMARK  3 active torsions:
REMARK  status: ('A' for Active; 'I' for Inactive)
REMARK       I    between atoms: C1_2  and  N1_3 
REMARK    1  A    between atoms: C1_2  and  C7_11 
REMARK    2  A    between atoms: N1_3  and  C2_5 
REMARK    3  A    between atoms: C9_15  and  N3_16 
ROOT
HETATM    1  C7  UNL     1     -24.564  -6.396  77.326  1.00  0.00     0.091 A 
HETATM    2  C8  UNL     1     -25.528  -6.037  78.232  1.00  0.00     0.115 A 
HETATM    3  N2  UNL     1     -25.223  -5.182  79.147  1.00  0.00    -0.345 N 
ATOM      4  H2  UNL     1     -25.924  -4.899  79.832  1.00  0.00     0.167 HD
HETATM    5  C9  UNL     1     -24.004  -4.669  79.199  1.00  0.00     0.147 A 
HETATM    6  S1  UNL     1     -23.241  -5.439  77.879  1.00  0.00    -0.047 SA
ENDROOT
BRANCH   1   7
HETATM    7  C1  UNL     1     -24.650  -7.333  76.207  1.00  0.00     0.260 C 
HETATM    8  O1  UNL     1     -24.838  -8.555  76.445  1.00  0.00    -0.267 OA
HETATM    9  N1  UNL     1     -24.520  -6.830  74.900  1.00  0.00    -0.352 N 
ATOM     10  H1  UNL     1     -24.369  -5.836  74.735  1.00  0.00     0.163 HD
BRANCH   9  11
HETATM   11  C2  UNL     1     -24.606  -7.770  73.783  1.00  0.00     0.087 C 
HETATM   12  C3  UNL     1     -23.775  -7.244  72.652  1.00  0.00     0.028 C 
HETATM   13  C4  UNL     1     -24.701  -7.095  71.475  1.00  0.00     0.039 C 
HETATM   14  C5  UNL     1     -26.032  -6.803  72.178  1.00  0.00     0.172 C 
HETATM   15  F1  UNL     1     -26.092  -5.530  72.665  1.00  0.00    -0.249 F 
HETATM   16  C6  UNL     1     -26.043  -7.837  73.261  1.00  0.00     0.062 C 
ENDBRANCH   9  11
ENDBRANCH   1   7
BRANCH   5  17
HETATM   17  N3  UNL     1     -23.477  -3.729  80.111  1.00  0.00    -0.357 N 
HETATM   18  C10 UNL     1     -22.088  -3.364  80.044  1.00  0.00     0.151 C 
HETATM   19  C11 UNL     1     -22.046  -1.848  80.242  1.00  0.00     0.187 C 
HETATM   20  O2  UNL     1     -22.492  -1.484  81.482  1.00  0.00    -0.388 OA
HETATM   21  C12 UNL     1     -23.396  -2.314  82.083  1.00  0.00     0.187 C 
HETATM   22  C13 UNL     1     -24.272  -3.099  81.132  1.00  0.00     0.151 C 
ENDBRANCH   5  17
TORSDOF 3
ENDMDL
MODEL 3
REMARK VINA RESULT: -6.522387487      1.236      1.616
REMARK  3 active torsions:
REMARK  status: ('A' for Active; 'I' for Inactive)
REMARK       I    between atoms: C1_2  and  N1_3 
REMARK    1  A    between atoms: C1_2  and  C7_11 
REMARK    2  A    between atoms: N1_3  and  C2_5 
REMARK    3  A    between atoms: C9_15  and  N3_16 
ROOT
HETATM    1  C7  UNL     1     -24.594  -6.432  77.405  1.00  0.00     0.091 A 
HETATM    2  C8  UNL     1     -25.463  -5.932  78.340  1.00  0.00     0.115 A 
HETATM    3  N2  UNL     1     -25.031  -5.042  79.165  1.00  0.00    -0.345 N 
ATOM      4  H2  UNL     1     -25.659  -4.655  79.870  1.00  0.00     0.167 HD
HETATM    5  C9  UNL     1     -23.776  -4.627  79.102  1.00  0.00     0.147 A 
HETATM    6  S1  UNL     1     -23.166  -5.549  77.799  1.00  0.00    -0.047 SA
ENDROOT
BRANCH   1   7
HETATM    7  C1  UNL     1     -24.828  -7.436  76.369  1.00  0.00     0.260 C 
HETATM    8  O1  UNL     1     -25.480  -8.474  76.658  1.00  0.00    -0.267 OA
HETATM    9  N1  UNL     1     -24.315  -7.203  75.080  1.00  0.00    -0.352 N 
ATOM     10  H1  UNL     1     -23.791  -6.354  74.873  1.00  0.00     0.163 HD
BRANCH   9  11
HETATM   11  C2  UNL     1     -24.551  -8.209  74.046  1.00  0.00     0.087 C 
HETATM   12  C3  UNL     1     -23.474  -9.247  74.136  1.00  0.00     0.028 C 
HETATM   13  C4  UNL     1     -22.793  -9.275  72.793  1.00  0.00     0.039 C 
HETATM   14  C5  UNL     1     -22.979  -7.822  72.337  1.00  0.00     0.172 C 
HETATM   15  F1  UNL     1     -22.142  -6.964  72.987  1.00  0.00    -0.249 F 
HETATM   16  C6  UNL     1     -24.420  -7.578  72.658  1.00  0.00     0.062 C 
ENDBRANCH   9  11
ENDBRANCH   1   7
BRANCH   5  17
HETATM   17  N3  UNL     1     -23.116  -3.671  79.904  1.00  0.00    -0.357 N 
HETATM   18  C10 UNL     1     -23.818  -3.034  80.985  1.00  0.00     0.151 C 
HETATM   19  C11 UNL     1     -22.832  -2.993  82.154  1.00  0.00     0.187 C 
HETATM   20  O2  UNL     1     -21.743  -2.215  81.875  1.00  0.00    -0.388 OA
HETATM   21  C12 UNL     1     -21.385  -2.101  80.562  1.00  0.00     0.187 C 
HETATM   22  C13 UNL     1     -21.745  -3.288  79.696  1.00  0.00     0.151 C 
ENDBRANCH   5  17
TORSDOF 3
ENDMDL
MODEL 4
REMARK VINA RESULT: -6.502625804      2.353      2.811
REMARK  3 active torsions:
REMARK  status: ('A' for Active; 'I' for Inactive)
REMARK       I    between atoms: C1_2  and  N1_3 
REMARK    1  A    between atoms: C1_2  and  C7_11 
REMARK    2  A    between atoms: N1_3  and  C2_5 
REMARK    3  A    between atoms: C9_15  and  N3_16 
ROOT
HETATM    1  C7  UNL     1     -23.387  -7.032  76.400  1.00  0.00     0.091 A 
HETATM    2  C8  UNL     1     -24.538  -6.702  77.067  1.00  0.00     0.115 A 
HETATM    3  N2  UNL     1     -24.493  -5.748  77.933  1.00  0.00    -0.345 N 
ATOM      4  H2  UNL     1     -25.336  -5.484  78.442  1.00  0.00     0.167 HD
HETATM    5  C9  UNL     1     -23.356  -5.110  78.163  1.00  0.00     0.147 A 
HETATM    6  S1  UNL     1     -22.285  -5.903  77.094  1.00  0.00    -0.047 SA
ENDROOT
BRANCH   1   7
HETATM    7  C1  UNL     1     -23.171  -8.061  75.383  1.00  0.00     0.260 C 
HETATM    8  O1  UNL     1     -23.985  -9.019  75.300  1.00  0.00    -0.267 OA
HETATM    9  N1  UNL     1     -22.058  -7.941  74.533  1.00  0.00    -0.352 N 
ATOM     10  H1  UNL     1     -21.415  -7.155  74.622  1.00  0.00     0.163 HD
BRANCH   9  11
HETATM   11  C2  UNL     1     -21.844  -8.972  73.518  1.00  0.00     0.087 C 
HETATM   12  C3  UNL     1     -20.378  -9.047  73.216  1.00  0.00     0.028 C 
HETATM   13  C4  UNL     1     -20.232  -8.783  71.741  1.00  0.00     0.039 C 
HETATM   14  C5  UNL     1     -21.430  -7.861  71.485  1.00  0.00     0.172 C 
HETATM   15  F1  UNL     1     -21.222  -6.597  71.953  1.00  0.00    -0.249 F 
HETATM   16  C6  UNL     1     -22.530  -8.572  72.209  1.00  0.00     0.062 C 
ENDBRANCH   9  11
ENDBRANCH   1   7
BRANCH   5  17
HETATM   17  N3  UNL     1     -23.101  -4.051  79.060  1.00  0.00    -0.357 N 
HETATM   18  C10 UNL     1     -24.195  -3.319  79.637  1.00  0.00     0.151 C 
HETATM   19  C11 UNL     1     -23.830  -3.117  81.108  1.00  0.00     0.187 C 
HETATM   20  O2  UNL     1     -22.714  -2.342  81.255  1.00  0.00    -0.388 OA
HETATM   21  C12 UNL     1     -21.807  -2.364  80.233  1.00  0.00     0.187 C 
HETATM   22  C13 UNL     1     -21.771  -3.651  79.439  1.00  0.00     0.151 C 
ENDBRANCH   5  17
TORSDOF 3
ENDMDL
MODEL 5
REMARK VINA RESULT: -6.362771189      2.008      2.413
REMARK  3 active torsions:
REMARK  status: ('A' for Active; 'I' for Inactive)
REMARK       I    between atoms: C1_2  and  N1_3 
REMARK    1  A    between atoms: C1_2  and  C7_11 
REMARK    2  A    between atoms: N1_3  and  C2_5 
REMARK    3  A    between atoms: C9_15  and  N3_16 
ROOT
HETATM    1  C7  UNL     1     -24.366  -6.433  77.370  1.00  0.00     0.091 A 
HETATM    2  C8  UNL     1     -23.047  -6.100  77.203  1.00  0.00     0.115 A 
HETATM    3  N2  UNL     1     -22.547  -5.179  77.953  1.00  0.00    -0.345 N 
ATOM      4  H2  UNL     1     -21.568  -4.913  77.847  1.00  0.00     0.167 HD
HETATM    5  C9  UNL     1     -23.300  -4.577  78.860  1.00  0.00     0.147 A 
HETATM    6  S1  UNL     1     -24.805  -5.356  78.643  1.00  0.00    -0.047 SA
ENDROOT
BRANCH   1   7
HETATM    7  C1  UNL     1     -25.165  -7.429  76.657  1.00  0.00     0.260 C 
HETATM    8  O1  UNL     1     -26.355  -7.631  77.018  1.00  0.00    -0.267 OA
HETATM    9  N1  UNL     1     -24.571  -8.127  75.590  1.00  0.00    -0.352 N 
ATOM     10  H1  UNL     1     -23.606  -7.943  75.319  1.00  0.00     0.163 HD
BRANCH   9  11
HETATM   11  C2  UNL     1     -25.372  -9.123  74.880  1.00  0.00     0.087 C 
HETATM   12  C3  UNL     1     -24.962 -10.486  75.347  1.00  0.00     0.028 C 
HETATM   13  C4  UNL     1     -24.510 -11.238  74.124  1.00  0.00     0.039 C 
HETATM   14  C5  UNL     1     -23.978 -10.094  73.251  1.00  0.00     0.172 C 
HETATM   15  F1  UNL     1     -22.769  -9.633  73.682  1.00  0.00    -0.249 F 
HETATM   16  C6  UNL     1     -25.065  -9.074  73.382  1.00  0.00     0.062 C 
ENDBRANCH   9  11
ENDBRANCH   1   7
BRANCH   5  17
HETATM   17  N3  UNL     1     -22.946  -3.556  79.769  1.00  0.00    -0.357 N 
HETATM   18  C10 UNL     1     -23.904  -3.092  80.736  1.00  0.00     0.151 C 
HETATM   19  C11 UNL     1     -23.128  -2.932  82.045  1.00  0.00     0.187 C 
HETATM   20  O2  UNL     1     -22.162  -1.970  81.951  1.00  0.00    -0.388 OA
HETATM   21  C12 UNL     1     -21.634  -1.743  80.711  1.00  0.00     0.187 C 
HETATM   22  C13 UNL     1     -21.647  -2.938  79.783  1.00  0.00     0.151 C 
ENDBRANCH   5  17
TORSDOF 3
ENDMDL
