MODEL 1
REMARK VINA RESULT: -5.140886424      0.000      0.000
REMARK  4 active torsions:
REMARK  status: ('A' for Active; 'I' for Inactive)
REMARK    1  A    between atoms: C2_2  and  O1_3 
REMARK    2  A    between atoms: O1_3  and  C3_4 
REMARK    3  A    between atoms: C3_4  and  C4_5 
REMARK    4  A    between atoms: C4_5  and  O2_6 
ROOT
HETATM    1  C4  UNL     1     -22.446  -4.262  79.264  1.00  0.00     0.151 C 
HETATM    2  C5  UNL     1     -22.410  -2.760  79.171  1.00  0.00     0.196 C 
HETATM    3  O3  UNL     1     -23.493  -2.888  78.266  1.00  0.00    -0.351 OA
HETATM    4  C6  UNL     1     -23.900  -3.960  79.099  1.00  0.00     0.182 C 
HETATM    5 BR1  UNL     1     -25.049  -5.237  78.388  1.00  0.00    -0.048 Br
HETATM    6  C7  UNL     1     -24.319  -3.207  80.347  1.00  0.00     0.205 C 
HETATM    7  O4  UNL     1     -24.145  -3.916  81.504  1.00  0.00    -0.344 OA
HETATM    8  C8  UNL     1     -23.607  -2.933  82.367  1.00  0.00     0.158 C 
HETATM    9  C9  UNL     1     -23.171  -3.513  83.677  1.00  0.00     0.078 C 
HETATM   10  C10 UNL     1     -24.574  -1.829  82.623  1.00  0.00     0.078 C 
HETATM   11  O5  UNL     1     -22.507  -2.518  81.578  1.00  0.00    -0.345 OA
HETATM   12  C11 UNL     1     -23.121  -2.235  80.387  1.00  0.00     0.190 C 
ENDROOT
BRANCH   1  13
HETATM   13  C3  UNL     1     -21.847  -4.967  78.105  1.00  0.00     0.212 C 
BRANCH  13  14
HETATM   14  O1  UNL     1     -21.857  -6.347  78.218  1.00  0.00    -0.388 OA
BRANCH  14  15
HETATM   15  C2  UNL     1     -21.721  -6.971  76.984  1.00  0.00     0.163 C 
HETATM   16  C1  UNL     1     -22.773  -6.596  75.996  1.00  0.00     0.033 C 
ENDBRANCH  14  15
ENDBRANCH  13  14
ENDBRANCH   1  13
BRANCH   1  17
HETATM   17  O2  UNL     1     -22.046  -4.814  80.460  1.00  0.00    -0.381 OA
ATOM     18  H2  UNL     1     -22.354  -5.708  80.557  1.00  0.00     0.211 HD
ENDBRANCH   1  17
TORSDOF 4
ENDMDL
MODEL 2
REMARK VINA RESULT: -4.819179568      8.504      9.398
REMARK  4 active torsions:
REMARK  status: ('A' for Active; 'I' for Inactive)
REMARK    1  A    between atoms: C2_2  and  O1_3 
REMARK    2  A    between atoms: O1_3  and  C3_4 
REMARK    3  A    between atoms: C3_4  and  C4_5 
REMARK    4  A    between atoms: C4_5  and  O2_6 
ROOT
HETATM    1  C4  UNL     1     -30.203  -7.853  79.624  1.00  0.00     0.151 C 
HETATM    2  C5  UNL     1     -30.949  -8.910  78.853  1.00  0.00     0.196 C 
HETATM    3  O3  UNL     1     -30.186  -9.847  79.592  1.00  0.00    -0.351 OA
HETATM    4  C6  UNL     1     -30.314  -8.924  80.660  1.00  0.00     0.182 C 
HETATM    5 BR1  UNL     1     -29.087  -9.016  82.052  1.00  0.00    -0.048 Br
HETATM    6  C7  UNL     1     -31.793  -9.057  80.973  1.00  0.00     0.205 C 
HETATM    7  O4  UNL     1     -32.358  -7.912  81.462  1.00  0.00    -0.344 OA
HETATM    8  C8  UNL     1     -33.587  -7.874  80.762  1.00  0.00     0.158 C 
HETATM    9  C9  UNL     1     -34.336  -6.601  81.009  1.00  0.00     0.078 C 
HETATM   10  C10 UNL     1     -34.462  -9.027  81.114  1.00  0.00     0.078 C 
HETATM   11  O5  UNL     1     -33.094  -7.951  79.438  1.00  0.00    -0.345 OA
HETATM   12  C11 UNL     1     -32.291  -9.059  79.512  1.00  0.00     0.190 C 
ENDROOT
BRANCH   1  13
HETATM   13  C3  UNL     1     -28.816  -7.613  79.160  1.00  0.00     0.212 C 
BRANCH  13  14
HETATM   14  O1  UNL     1     -28.697  -7.476  77.786  1.00  0.00    -0.388 OA
BRANCH  14  15
HETATM   15  C2  UNL     1     -27.390  -7.200  77.402  1.00  0.00     0.163 C 
HETATM   16  C1  UNL     1     -27.197  -7.116  75.926  1.00  0.00     0.033 C 
ENDBRANCH  14  15
ENDBRANCH  13  14
ENDBRANCH   1  13
BRANCH   1  17
HETATM   17  O2  UNL     1     -30.874  -6.674  79.859  1.00  0.00    -0.381 OA
ATOM     18  H2  UNL     1     -31.782  -6.826  80.096  1.00  0.00     0.211 HD
ENDBRANCH   1  17
TORSDOF 4
ENDMDL
MODEL 3
REMARK VINA RESULT: -4.684595283      2.736      5.629
REMARK  4 active torsions:
REMARK  status: ('A' for Active; 'I' for Inactive)
REMARK    1  A    between atoms: C2_2  and  O1_3 
REMARK    2  A    between atoms: O1_3  and  C3_4 
REMARK    3  A    between atoms: C3_4  and  C4_5 
REMARK    4  A    between atoms: C4_5  and  O2_6 
ROOT
HETATM    1  C4  UNL     1     -23.252  -6.077  78.005  1.00  0.00     0.151 C 
HETATM    2  C5  UNL     1     -23.861  -7.320  78.599  1.00  0.00     0.196 C 
HETATM    3  O3  UNL     1     -24.507  -6.449  79.510  1.00  0.00    -0.351 OA
HETATM    4  C6  UNL     1     -24.596  -5.562  78.408  1.00  0.00     0.182 C 
HETATM    5 BR1  UNL     1     -24.843  -3.753  78.754  1.00  0.00    -0.048 Br
HETATM    6  C7  UNL     1     -25.605  -6.290  77.539  1.00  0.00     0.205 C 
HETATM    7  O4  UNL     1     -25.435  -6.075  76.199  1.00  0.00    -0.344 OA
HETATM    8  C8  UNL     1     -25.624  -7.375  75.673  1.00  0.00     0.158 C 
HETATM    9  C9  UNL     1     -25.324  -7.436  74.207  1.00  0.00     0.078 C 
HETATM   10  C10 UNL     1     -27.008  -7.873  75.906  1.00  0.00     0.078 C 
HETATM   11  O5  UNL     1     -24.660  -8.071  76.441  1.00  0.00    -0.345 OA
HETATM   12  C11 UNL     1     -25.012  -7.704  77.713  1.00  0.00     0.190 C 
ENDROOT
BRANCH   1  13
HETATM   13  C3  UNL     1     -22.133  -5.502  78.789  1.00  0.00     0.212 C 
BRANCH  13  14
HETATM   14  O1  UNL     1     -21.386  -4.562  78.098  1.00  0.00    -0.388 OA
BRANCH  14  15
HETATM   15  C2  UNL     1     -20.678  -3.729  78.955  1.00  0.00     0.163 C 
HETATM   16  C1  UNL     1     -21.541  -2.888  79.834  1.00  0.00     0.033 C 
ENDBRANCH  14  15
ENDBRANCH  13  14
ENDBRANCH   1  13
BRANCH   1  17
HETATM   17  O2  UNL     1     -22.967  -6.115  76.658  1.00  0.00    -0.381 OA
ATOM     18  H2  UNL     1     -22.095  -5.786  76.473  1.00  0.00     0.211 HD
ENDBRANCH   1  17
TORSDOF 4
ENDMDL
MODEL 4
REMARK VINA RESULT: -4.656389110      1.869      5.345
REMARK  4 active torsions:
REMARK  status: ('A' for Active; 'I' for Inactive)
REMARK    1  A    between atoms: C2_2  and  O1_3 
REMARK    2  A    between atoms: O1_3  and  C3_4 
REMARK    3  A    between atoms: C3_4  and  C4_5 
REMARK    4  A    between atoms: C4_5  and  O2_6 
ROOT
HETATM    1  C4  UNL     1     -22.198  -4.630  78.091  1.00  0.00     0.151 C 
HETATM    2  C5  UNL     1     -22.020  -5.925  78.839  1.00  0.00     0.196 C 
HETATM    3  O3  UNL     1     -22.944  -5.399  79.774  1.00  0.00    -0.351 OA
HETATM    4  C6  UNL     1     -23.574  -4.824  78.642  1.00  0.00     0.182 C 
HETATM    5 BR1  UNL     1     -24.694  -3.365  78.906  1.00  0.00    -0.048 Br
HETATM    6  C7  UNL     1     -24.128  -6.064  77.965  1.00  0.00     0.205 C 
HETATM    7  O4  UNL     1     -24.209  -5.961  76.604  1.00  0.00    -0.344 OA
HETATM    8  C8  UNL     1     -23.739  -7.229  76.189  1.00  0.00     0.158 C 
HETATM    9  C9  UNL     1     -23.577  -7.310  74.703  1.00  0.00     0.078 C 
HETATM   10  C10 UNL     1     -24.637  -8.329  76.640  1.00  0.00     0.078 C 
HETATM   11  O5  UNL     1     -22.493  -7.238  76.860  1.00  0.00    -0.345 OA
HETATM   12  C11 UNL     1     -22.874  -6.947  78.143  1.00  0.00     0.190 C 
ENDROOT
BRANCH   1  13
HETATM   13  C3  UNL     1     -21.478  -3.474  78.677  1.00  0.00     0.212 C 
BRANCH  13  14
HETATM   14  O1  UNL     1     -21.329  -3.542  80.053  1.00  0.00    -0.388 OA
BRANCH  14  15
HETATM   15  C2  UNL     1     -21.339  -2.282  80.640  1.00  0.00     0.163 C 
HETATM   16  C1  UNL     1     -22.400  -2.103  81.672  1.00  0.00     0.033 C 
ENDBRANCH  14  15
ENDBRANCH  13  14
ENDBRANCH   1  13
BRANCH   1  17
HETATM   17  O2  UNL     1     -22.051  -4.684  76.723  1.00  0.00    -0.381 OA
ATOM     18  H2  UNL     1     -22.884  -4.596  76.275  1.00  0.00     0.211 HD
ENDBRANCH   1  17
TORSDOF 4
ENDMDL
MODEL 5
REMARK VINA RESULT: -4.531045324      5.016      6.710
REMARK  4 active torsions:
REMARK  status: ('A' for Active; 'I' for Inactive)
REMARK    1  A    between atoms: C2_2  and  O1_3 
REMARK    2  A    between atoms: O1_3  and  C3_4 
REMARK    3  A    between atoms: C3_4  and  C4_5 
REMARK    4  A    between atoms: C4_5  and  O2_6 
ROOT
HETATM    1  C4  UNL     1     -23.600  -8.139  74.292  1.00  0.00     0.151 C 
HETATM    2  C5  UNL     1     -24.681  -7.157  73.929  1.00  0.00     0.196 C 
HETATM    3  O3  UNL     1     -25.325  -8.250  73.299  1.00  0.00    -0.351 OA
HETATM    4  C6  UNL     1     -24.807  -9.015  74.373  1.00  0.00     0.182 C 
HETATM    5 BR1  UNL     1     -24.651 -10.853  74.146  1.00  0.00    -0.048 Br
HETATM    6  C7  UNL     1     -25.638  -8.484  75.526  1.00  0.00     0.205 C 
HETATM    7  O4  UNL     1     -24.991  -8.514  76.731  1.00  0.00    -0.344 OA
HETATM    8  C8  UNL     1     -25.345  -7.259  77.280  1.00  0.00     0.158 C 
HETATM    9  C9  UNL     1     -24.615  -6.978  78.557  1.00  0.00     0.078 C 
HETATM   10  C10 UNL     1     -26.810  -7.153  77.525  1.00  0.00     0.078 C 
HETATM   11  O5  UNL     1     -24.910  -6.422  76.225  1.00  0.00    -0.345 OA
HETATM   12  C11 UNL     1     -25.542  -6.991  75.151  1.00  0.00     0.190 C 
ENDROOT
BRANCH   1  13
HETATM   13  C3  UNL     1     -22.683  -8.487  73.180  1.00  0.00     0.212 C 
BRANCH  13  14
HETATM   14  O1  UNL     1     -22.033  -7.397  72.623  1.00  0.00    -0.388 OA
BRANCH  14  15
HETATM   15  C2  UNL     1     -22.093  -7.410  71.235  1.00  0.00     0.163 C 
HETATM   16  C1  UNL     1     -23.072  -6.442  70.661  1.00  0.00     0.033 C 
ENDBRANCH  14  15
ENDBRANCH  13  14
ENDBRANCH   1  13
BRANCH   1  17
HETATM   17  O2  UNL     1     -22.915  -7.896  75.462  1.00  0.00    -0.381 OA
ATOM     18  H2  UNL     1     -23.326  -8.322  76.206  1.00  0.00     0.211 HD
ENDBRANCH   1  17
TORSDOF 4
ENDMDL
