MODEL 1
REMARK VINA RESULT: -6.534222734      0.000      0.000
REMARK  7 active torsions:
REMARK  status: ('A' for Active; 'I' for Inactive)
REMARK    1  A    between atoms: S1_2  and  C2_3 
REMARK    2  A    between atoms: N1_5  and  C4_7 
REMARK    3  A    between atoms: N2_9  and  C6_10 
REMARK    4  A    between atoms: C9_13  and  O1_14 
REMARK    5  A    between atoms: C10_16  and  C11_17 
REMARK    6  A    between atoms: C11_17  and  C12_18 
REMARK       I    between atoms: C12_18  and  N3_20 
REMARK    7  A    between atoms: C15_23  and  C16_24 
ROOT
HETATM    1  C4  UNL     1     -12.204   5.734 -24.235  1.00  0.00     0.059 A 
HETATM    2  C5  UNL     1     -13.072   6.588 -23.588  1.00  0.00     0.123 A 
HETATM    3  N2  UNL     1     -14.340   6.216 -23.919  1.00  0.00    -0.331 N 
HETATM    4  C9  UNL     1     -14.275   5.162 -24.749  1.00  0.00     0.151 A 
HETATM    5  C10 UNL     1     -12.939   4.830 -24.970  1.00  0.00     0.030 A 
ENDROOT
BRANCH   5   6
HETATM    6  C11 UNL     1     -12.456   3.715 -25.838  1.00  0.00     0.148 C 
BRANCH   6   7
HETATM    7  C12 UNL     1     -12.921   3.851 -27.226  1.00  0.00     0.224 C 
HETATM    8  O2  UNL     1     -13.936   3.232 -27.601  1.00  0.00    -0.273 OA
HETATM    9  N3  UNL     1     -12.196   4.689 -28.106  1.00  0.00    -0.352 N 
HETATM   10  C13 UNL     1     -11.015   5.427 -27.702  1.00  0.00     0.126 C 
HETATM   11  C20 UNL     1     -12.555   4.897 -29.503  1.00  0.00     0.126 C 
HETATM   12  C14 UNL     1      -9.827   5.206 -28.560  1.00  0.00     0.025 C 
HETATM   13  C15 UNL     1     -10.075   4.976 -30.017  1.00  0.00    -0.008 C 
HETATM   14  C19 UNL     1     -11.390   4.358 -30.296  1.00  0.00     0.025 C 
BRANCH  13  15
HETATM   15  C16 UNL     1      -9.704   6.148 -30.883  1.00  0.00    -0.019 C 
HETATM   16  C17 UNL     1      -9.181   5.749 -32.251  1.00  0.00     0.010 C 
HETATM   17  C18 UNL     1      -8.777   7.132 -30.290  1.00  0.00     0.010 C 
ENDBRANCH  13  15
ENDBRANCH   6   7
ENDBRANCH   5   6
BRANCH   1  18
HETATM   18  N1  UNL     1     -10.794   5.751 -24.177  1.00  0.00    -0.353 N 
HETATM   19  C2  UNL     1     -10.115   5.098 -23.305  1.00  0.00     0.042 C 
HETATM   20  C3  UNL     1     -10.770   4.259 -22.273  1.00  0.00     0.076 C 
ATOM     21  H1  UNL     1     -10.289   6.312 -24.862  1.00  0.00     0.166 HD
BRANCH  19  22
HETATM   22  S1  UNL     1      -8.339   5.200 -23.335  1.00  0.00    -0.121 SA
HETATM   23  C1  UNL     1      -7.798   5.704 -24.974  1.00  0.00     0.097 C 
ENDBRANCH  19  22
ENDBRANCH   1  18
BRANCH   4  24
HETATM   24  O1  UNL     1     -15.371   4.513 -25.294  1.00  0.00    -0.345 OA
ATOM     25  H1  UNL     1     -15.341   3.672 -25.737  1.00  0.00     0.219 HD
ENDBRANCH   4  24
BRANCH   3  26
HETATM   26  C6  UNL     1     -15.557   6.841 -23.462  1.00  0.00     0.083 C 
HETATM   27  C7  UNL     1     -15.344   8.352 -23.466  1.00  0.00     0.032 C 
HETATM   28  C8  UNL     1     -16.011   6.355 -22.117  1.00  0.00     0.032 C 
ENDBRANCH   3  26
TORSDOF 7
ENDMDL
MODEL 2
REMARK VINA RESULT: -6.486839438      4.060      5.958
REMARK  7 active torsions:
REMARK  status: ('A' for Active; 'I' for Inactive)
REMARK    1  A    between atoms: S1_2  and  C2_3 
REMARK    2  A    between atoms: N1_5  and  C4_7 
REMARK    3  A    between atoms: N2_9  and  C6_10 
REMARK    4  A    between atoms: C9_13  and  O1_14 
REMARK    5  A    between atoms: C10_16  and  C11_17 
REMARK    6  A    between atoms: C11_17  and  C12_18 
REMARK       I    between atoms: C12_18  and  N3_20 
REMARK    7  A    between atoms: C15_23  and  C16_24 
ROOT
HETATM    1  C4  UNL     1     -10.170   6.607 -28.816  1.00  0.00     0.059 A 
HETATM    2  C5  UNL     1     -10.662   5.358 -28.497  1.00  0.00     0.123 A 
HETATM    3  N2  UNL     1     -11.678   5.531 -27.606  1.00  0.00    -0.331 N 
HETATM    4  C9  UNL     1     -11.821   6.845 -27.368  1.00  0.00     0.151 A 
HETATM    5  C10 UNL     1     -10.884   7.555 -28.117  1.00  0.00     0.030 A 
ENDROOT
BRANCH   5   6
HETATM    6  C11 UNL     1     -10.726   9.040 -28.123  1.00  0.00     0.148 C 
BRANCH   6   7
HETATM    7  C12 UNL     1     -11.719   9.701 -28.982  1.00  0.00     0.224 C 
HETATM    8  O2  UNL     1     -12.915   9.732 -28.632  1.00  0.00    -0.273 OA
HETATM    9  N3  UNL     1     -11.284  10.288 -30.194  1.00  0.00    -0.352 N 
HETATM   10  C13 UNL     1      -9.901  10.274 -30.629  1.00  0.00     0.126 C 
HETATM   11  C20 UNL     1     -12.175  10.963 -31.129  1.00  0.00     0.126 C 
HETATM   12  C14 UNL     1      -9.690   9.738 -31.994  1.00  0.00     0.025 C 
HETATM   13  C15 UNL     1     -10.763  10.002 -33.001  1.00  0.00    -0.008 C 
HETATM   14  C19 UNL     1     -12.106  10.151 -32.399  1.00  0.00     0.025 C 
BRANCH  13  15
HETATM   15  C16 UNL     1     -10.386  11.035 -34.027  1.00  0.00    -0.019 C 
HETATM   16  C17 UNL     1      -9.762  10.448 -35.279  1.00  0.00     0.010 C 
HETATM   17  C18 UNL     1      -9.538  12.148 -33.553  1.00  0.00     0.010 C 
ENDBRANCH  13  15
ENDBRANCH   6   7
ENDBRANCH   5   6
BRANCH   1  18
HETATM   18  N1  UNL     1      -9.114   6.902 -29.704  1.00  0.00    -0.353 N 
HETATM   19  C2  UNL     1      -7.888   7.002 -29.336  1.00  0.00     0.042 C 
HETATM   20  C3  UNL     1      -7.479   6.813 -27.923  1.00  0.00     0.076 C 
ATOM     21  H1  UNL     1      -9.337   7.042 -30.689  1.00  0.00     0.166 HD
BRANCH  19  22
HETATM   22  S1  UNL     1      -6.646   7.377 -30.552  1.00  0.00    -0.121 SA
HETATM   23  C1  UNL     1      -6.268   9.135 -30.496  1.00  0.00     0.097 C 
ENDBRANCH  19  22
ENDBRANCH   1  18
BRANCH   4  24
HETATM   24  O1  UNL     1     -12.759   7.399 -26.510  1.00  0.00    -0.345 OA
ATOM     25  H1  UNL     1     -12.567   7.753 -25.650  1.00  0.00     0.219 HD
ENDBRANCH   4  24
BRANCH   3  26
HETATM   26  C6  UNL     1     -12.473   4.486 -27.009  1.00  0.00     0.083 C 
HETATM   27  C7  UNL     1     -11.597   3.731 -26.015  1.00  0.00     0.032 C 
HETATM   28  C8  UNL     1     -13.089   3.556 -28.013  1.00  0.00     0.032 C 
ENDBRANCH   3  26
TORSDOF 7
ENDMDL
MODEL 3
REMARK VINA RESULT: -6.461917969      2.872      6.904
REMARK  7 active torsions:
REMARK  status: ('A' for Active; 'I' for Inactive)
REMARK    1  A    between atoms: S1_2  and  C2_3 
REMARK    2  A    between atoms: N1_5  and  C4_7 
REMARK    3  A    between atoms: N2_9  and  C6_10 
REMARK    4  A    between atoms: C9_13  and  O1_14 
REMARK    5  A    between atoms: C10_16  and  C11_17 
REMARK    6  A    between atoms: C11_17  and  C12_18 
REMARK       I    between atoms: C12_18  and  N3_20 
REMARK    7  A    between atoms: C15_23  and  C16_24 
ROOT
HETATM    1  C4  UNL     1     -10.929   7.054 -28.566  1.00  0.00     0.059 A 
HETATM    2  C5  UNL     1     -11.414   7.949 -29.496  1.00  0.00     0.123 A 
HETATM    3  N2  UNL     1     -12.468   8.601 -28.931  1.00  0.00    -0.331 N 
HETATM    4  C9  UNL     1     -12.644   8.132 -27.685  1.00  0.00     0.151 A 
HETATM    5  C10 UNL     1     -11.688   7.153 -27.421  1.00  0.00     0.030 A 
ENDROOT
BRANCH   5   6
HETATM    6  C11 UNL     1     -11.558   6.393 -26.141  1.00  0.00     0.148 C 
BRANCH   6   7
HETATM    7  C12 UNL     1     -12.658   5.436 -25.949  1.00  0.00     0.224 C 
HETATM    8  O2  UNL     1     -12.861   4.550 -26.802  1.00  0.00    -0.273 OA
HETATM    9  N3  UNL     1     -13.462   5.551 -24.790  1.00  0.00    -0.352 N 
HETATM   10  C13 UNL     1     -13.250   6.566 -23.777  1.00  0.00     0.126 C 
HETATM   11  C20 UNL     1     -14.583   4.668 -24.495  1.00  0.00     0.126 C 
HETATM   12  C14 UNL     1     -14.449   7.374 -23.454  1.00  0.00     0.025 C 
HETATM   13  C15 UNL     1     -15.773   6.681 -23.520  1.00  0.00    -0.008 C 
HETATM   14  C19 UNL     1     -15.799   5.561 -24.486  1.00  0.00     0.025 C 
BRANCH  13  15
HETATM   15  C16 UNL     1     -16.372   6.397 -22.170  1.00  0.00    -0.019 C 
HETATM   16  C17 UNL     1     -17.104   7.583 -21.570  1.00  0.00     0.010 C 
HETATM   17  C18 UNL     1     -15.458   5.840 -21.153  1.00  0.00     0.010 C 
ENDBRANCH  13  15
ENDBRANCH   6   7
ENDBRANCH   5   6
BRANCH   1  18
HETATM   18  N1  UNL     1      -9.841   6.171 -28.725  1.00  0.00    -0.353 N 
HETATM   19  C2  UNL     1      -9.924   5.050 -29.346  1.00  0.00     0.042 C 
HETATM   20  C3  UNL     1     -11.195   4.588 -29.955  1.00  0.00     0.076 C 
ATOM     21  H1  UNL     1      -8.940   6.437 -28.325  1.00  0.00     0.166 HD
BRANCH  19  22
HETATM   22  S1  UNL     1      -8.479   4.023 -29.481  1.00  0.00    -0.121 SA
HETATM   23  C1  UNL     1      -7.878   4.059 -31.175  1.00  0.00     0.097 C 
ENDBRANCH  19  22
ENDBRANCH   1  18
BRANCH   4  24
HETATM   24  O1  UNL     1     -13.627   8.562 -26.806  1.00  0.00    -0.345 OA
ATOM     25  H1  UNL     1     -14.428   8.089 -26.611  1.00  0.00     0.219 HD
ENDBRANCH   4  24
BRANCH   3  26
HETATM   26  C6  UNL     1     -13.270   9.625 -29.555  1.00  0.00     0.083 C 
HETATM   27  C7  UNL     1     -13.284   9.366 -31.058  1.00  0.00     0.032 C 
HETATM   28  C8  UNL     1     -12.808  11.019 -29.244  1.00  0.00     0.032 C 
ENDBRANCH   3  26
TORSDOF 7
ENDMDL
MODEL 4
REMARK VINA RESULT: -6.335622308      4.009      6.225
REMARK  7 active torsions:
REMARK  status: ('A' for Active; 'I' for Inactive)
REMARK    1  A    between atoms: S1_2  and  C2_3 
REMARK    2  A    between atoms: N1_5  and  C4_7 
REMARK    3  A    between atoms: N2_9  and  C6_10 
REMARK    4  A    between atoms: C9_13  and  O1_14 
REMARK    5  A    between atoms: C10_16  and  C11_17 
REMARK    6  A    between atoms: C11_17  and  C12_18 
REMARK       I    between atoms: C12_18  and  N3_20 
REMARK    7  A    between atoms: C15_23  and  C16_24 
ROOT
HETATM    1  C4  UNL     1     -10.106   5.731 -28.889  1.00  0.00     0.059 A 
HETATM    2  C5  UNL     1      -9.590   4.946 -27.879  1.00  0.00     0.123 A 
HETATM    3  N2  UNL     1     -10.569   4.778 -26.947  1.00  0.00    -0.331 N 
HETATM    4  C9  UNL     1     -11.667   5.435 -27.354  1.00  0.00     0.151 A 
HETATM    5  C10 UNL     1     -11.410   6.049 -28.579  1.00  0.00     0.030 A 
ENDROOT
BRANCH   5   6
HETATM    6  C11 UNL     1     -12.383   6.875 -29.354  1.00  0.00     0.148 C 
BRANCH   6   7
HETATM    7  C12 UNL     1     -12.521   8.232 -28.804  1.00  0.00     0.224 C 
HETATM    8  O2  UNL     1     -13.294   8.434 -27.847  1.00  0.00    -0.273 OA
HETATM    9  N3  UNL     1     -11.766   9.279 -29.383  1.00  0.00    -0.352 N 
HETATM   10  C13 UNL     1     -10.855   9.078 -30.493  1.00  0.00     0.126 C 
HETATM   11  C20 UNL     1     -11.824  10.663 -28.930  1.00  0.00     0.126 C 
HETATM   12  C14 UNL     1     -11.088   9.973 -31.651  1.00  0.00     0.025 C 
HETATM   13  C15 UNL     1     -11.575  11.355 -31.354  1.00  0.00    -0.008 C 
HETATM   14  C19 UNL     1     -12.362  11.442 -30.104  1.00  0.00     0.025 C 
BRANCH  13  15
HETATM   15  C16 UNL     1     -10.527  12.417 -31.545  1.00  0.00    -0.019 C 
HETATM   16  C17 UNL     1     -11.038  13.652 -32.262  1.00  0.00     0.010 C 
HETATM   17  C18 UNL     1      -9.267  11.985 -32.184  1.00  0.00     0.010 C 
ENDBRANCH  13  15
ENDBRANCH   6   7
ENDBRANCH   5   6
BRANCH   1  18
HETATM   18  N1  UNL     1      -9.441   6.155 -30.058  1.00  0.00    -0.353 N 
HETATM   19  C2  UNL     1      -9.491   5.516 -31.171  1.00  0.00     0.042 C 
HETATM   20  C3  UNL     1     -10.265   4.260 -31.316  1.00  0.00     0.076 C 
ATOM     21  H1  UNL     1      -8.892   7.013 -30.018  1.00  0.00     0.166 HD
BRANCH  19  22
HETATM   22  S1  UNL     1      -8.608   6.153 -32.577  1.00  0.00    -0.121 SA
HETATM   23  C1  UNL     1      -7.786   7.686 -32.121  1.00  0.00     0.097 C 
ENDBRANCH  19  22
ENDBRANCH   1  18
BRANCH   4  24
HETATM   24  O1  UNL     1     -12.864   5.488 -26.658  1.00  0.00    -0.345 OA
ATOM     25  H1  UNL     1     -13.521   6.168 -26.756  1.00  0.00     0.219 HD
ENDBRANCH   4  24
BRANCH   3  26
HETATM   26  C6  UNL     1     -10.458   4.022 -25.723  1.00  0.00     0.083 C 
HETATM   27  C7  UNL     1     -10.101   4.990 -24.599  1.00  0.00     0.032 C 
HETATM   28  C8  UNL     1      -9.474   2.891 -25.805  1.00  0.00     0.032 C 
ENDBRANCH   3  26
TORSDOF 7
ENDMDL
MODEL 5
REMARK VINA RESULT: -6.288296579      7.095      9.164
REMARK  7 active torsions:
REMARK  status: ('A' for Active; 'I' for Inactive)
REMARK    1  A    between atoms: S1_2  and  C2_3 
REMARK    2  A    between atoms: N1_5  and  C4_7 
REMARK    3  A    between atoms: N2_9  and  C6_10 
REMARK    4  A    between atoms: C9_13  and  O1_14 
REMARK    5  A    between atoms: C10_16  and  C11_17 
REMARK    6  A    between atoms: C11_17  and  C12_18 
REMARK       I    between atoms: C12_18  and  N3_20 
REMARK    7  A    between atoms: C15_23  and  C16_24 
ROOT
HETATM    1  C4  UNL     1      -6.455   6.714 -32.116  1.00  0.00     0.059 A 
HETATM    2  C5  UNL     1      -5.613   5.806 -31.509  1.00  0.00     0.123 A 
HETATM    3  N2  UNL     1      -6.360   4.723 -31.155  1.00  0.00    -0.331 N 
HETATM    4  C9  UNL     1      -7.633   4.940 -31.525  1.00  0.00     0.151 A 
HETATM    5  C10 UNL     1      -7.729   6.189 -32.137  1.00  0.00     0.030 A 
ENDROOT
BRANCH   5   6
HETATM    6  C11 UNL     1      -8.982   6.792 -32.683  1.00  0.00     0.148 C 
BRANCH   6   7
HETATM    7  C12 UNL     1      -9.787   7.441 -31.638  1.00  0.00     0.224 C 
HETATM    8  O2  UNL     1     -10.176   6.778 -30.658  1.00  0.00    -0.273 OA
HETATM    9  N3  UNL     1     -10.099   8.815 -31.778  1.00  0.00    -0.352 N 
HETATM   10  C13 UNL     1      -9.658   9.616 -32.903  1.00  0.00     0.126 C 
HETATM   11  C20 UNL     1     -10.894   9.564 -30.814  1.00  0.00     0.126 C 
HETATM   12  C14 UNL     1     -10.743  10.340 -33.606  1.00  0.00     0.025 C 
HETATM   13  C15 UNL     1     -11.886  10.826 -32.774  1.00  0.00    -0.008 C 
HETATM   14  C19 UNL     1     -12.124  10.001 -31.569  1.00  0.00     0.025 C 
BRANCH  13  15
HETATM   15  C16 UNL     1     -11.885  12.315 -32.560  1.00  0.00    -0.019 C 
HETATM   16  C17 UNL     1     -10.642  13.003 -33.092  1.00  0.00     0.010 C 
HETATM   17  C18 UNL     1     -12.128  12.777 -31.178  1.00  0.00     0.010 C 
ENDBRANCH  13  15
ENDBRANCH   6   7
ENDBRANCH   5   6
BRANCH   1  18
HETATM   18  N1  UNL     1      -6.106   7.976 -32.641  1.00  0.00    -0.353 N 
HETATM   19  C2  UNL     1      -6.107   9.055 -31.946  1.00  0.00     0.042 C 
HETATM   20  C3  UNL     1      -6.482   9.059 -30.511  1.00  0.00     0.076 C 
ATOM     21  H1  UNL     1      -5.840   8.034 -33.624  1.00  0.00     0.166 HD
BRANCH  19  22
HETATM   22  S1  UNL     1      -5.646  10.587 -32.722  1.00  0.00    -0.121 SA
HETATM   23  C1  UNL     1      -6.784  11.882 -32.209  1.00  0.00     0.097 C 
ENDBRANCH  19  22
ENDBRANCH   1  18
BRANCH   4  24
HETATM   24  O1  UNL     1      -8.680   4.054 -31.327  1.00  0.00    -0.345 OA
ATOM     25  H1  UNL     1      -8.852   3.587 -30.517  1.00  0.00     0.219 HD
ENDBRANCH   4  24
BRANCH   3  26
HETATM   26  C6  UNL     1      -5.878   3.536 -30.492  1.00  0.00     0.083 C 
HETATM   27  C7  UNL     1      -4.704   3.933 -29.603  1.00  0.00     0.032 C 
HETATM   28  C8  UNL     1      -5.500   2.434 -31.438  1.00  0.00     0.032 C 
ENDBRANCH   3  26
TORSDOF 7
ENDMDL
