MODEL 1
REMARK VINA RESULT: -6.254867262      0.000      0.000
REMARK  4 active torsions:
REMARK  status: ('A' for Active; 'I' for Inactive)
REMARK    1  A    between atoms: O1_3  and  N2_4 
REMARK       I    between atoms: N2_4  and  C2_6 
REMARK       I    between atoms: C2_6  and  N3_8 
REMARK    2  A    between atoms: N3_8  and  N4_10 
REMARK    3  A    between atoms: C3_12  and  C4_13 
REMARK    4  A    between atoms: C5_19  and  N7_20 
ROOT
HETATM    1  N1  UNL     1     -38.810 -19.040   7.058  1.00  0.00    -0.162 NA
HETATM    2  C1  UNL     1     -39.636 -19.583   7.657  1.00  0.00     0.253 C 
HETATM    3  O1  UNL     1     -40.620 -20.248   8.364  1.00  0.00    -0.155 OA
ENDROOT
BRANCH   3   4
HETATM    4  N2  UNL     1     -41.347 -21.173   7.648  1.00  0.00    -0.198 N 
HETATM    5  C2  UNL     1     -40.732 -22.193   6.877  1.00  0.00     0.359 C 
HETATM    6  O2  UNL     1     -39.495 -22.298   6.814  1.00  0.00    -0.243 OA
HETATM    7  N3  UNL     1     -41.537 -23.116   6.160  1.00  0.00    -0.250 N 
ATOM      8  H3  UNL     1     -42.551 -23.023   6.217  1.00  0.00     0.192 HD
ATOM      9  H2  UNL     1     -42.366 -21.122   7.673  1.00  0.00     0.200 HD
BRANCH   7  10
HETATM   10  N4  UNL     1     -41.007 -24.143   5.381  1.00  0.00    -0.306 N 
HETATM   11  C3  UNL     1     -40.788 -25.330   5.838  1.00  0.00     0.142 C 
ATOM     12  H4  UNL     1     -40.783 -23.948   4.405  1.00  0.00     0.186 HD
BRANCH  11  13
HETATM   13  C4  UNL     1     -40.235 -26.387   5.008  1.00  0.00     0.118 A 
HETATM   14  N5  UNL     1     -39.552 -26.243   3.882  1.00  0.00    -0.237 N 
HETATM   15  O3  UNL     1     -39.231 -27.417   3.442  1.00  0.00    -0.155 OA
ATOM     16  H5  UNL     1     -39.318 -25.356   3.436  1.00  0.00     0.197 HD
HETATM   17  N6  UNL     1     -39.682 -28.333   4.241  1.00  0.00    -0.224 N 
HETATM   18  C5  UNL     1     -40.329 -27.740   5.257  1.00  0.00     0.151 A 
ATOM     19  H6  UNL     1     -39.564 -29.339   4.119  1.00  0.00     0.198 HD
BRANCH  18  20
HETATM   20  N7  UNL     1     -40.908 -28.310   6.245  1.00  0.00    -0.382 N 
ATOM     21  H72 UNL     1     -41.687 -27.951   6.795  1.00  0.00     0.157 HD
ATOM     22  H71 UNL     1     -40.691 -29.221   6.649  1.00  0.00     0.157 HD
ENDBRANCH  18  20
ENDBRANCH  11  13
ENDBRANCH   7  10
ENDBRANCH   3   4
TORSDOF 4
ENDMDL
MODEL 2
REMARK VINA RESULT: -6.244048252      3.051      6.781
REMARK  4 active torsions:
REMARK  status: ('A' for Active; 'I' for Inactive)
REMARK    1  A    between atoms: O1_3  and  N2_4 
REMARK       I    between atoms: N2_4  and  C2_6 
REMARK       I    between atoms: C2_6  and  N3_8 
REMARK    2  A    between atoms: N3_8  and  N4_10 
REMARK    3  A    between atoms: C3_12  and  C4_13 
REMARK    4  A    between atoms: C5_19  and  N7_20 
ROOT
HETATM    1  N1  UNL     1     -40.010 -26.519   5.671  1.00  0.00    -0.162 NA
HETATM    2  C1  UNL     1     -40.652 -25.748   5.097  1.00  0.00     0.253 C 
HETATM    3  O1  UNL     1     -41.404 -24.813   4.412  1.00  0.00    -0.155 OA
ENDROOT
BRANCH   3   4
HETATM    4  N2  UNL     1     -41.312 -23.519   4.874  1.00  0.00    -0.198 N 
HETATM    5  C2  UNL     1     -41.409 -23.195   6.253  1.00  0.00     0.359 C 
HETATM    6  O2  UNL     1     -41.582 -24.076   7.112  1.00  0.00    -0.243 OA
HETATM    7  N3  UNL     1     -41.307 -21.841   6.667  1.00  0.00    -0.250 N 
ATOM      8  H3  UNL     1     -41.165 -21.125   5.955  1.00  0.00     0.192 HD
ATOM      9  H2  UNL     1     -41.170 -22.766   4.201  1.00  0.00     0.200 HD
BRANCH   7  10
HETATM   10  N4  UNL     1     -41.393 -21.445   8.000  1.00  0.00    -0.306 N 
HETATM   11  C3  UNL     1     -41.293 -22.270   8.987  1.00  0.00     0.142 C 
ATOM     12  H4  UNL     1     -41.540 -20.456   8.205  1.00  0.00     0.186 HD
BRANCH  11  13
HETATM   13  C4  UNL     1     -41.385 -21.834  10.370  1.00  0.00     0.118 A 
HETATM   14  N5  UNL     1     -41.740 -20.636  10.808  1.00  0.00    -0.237 N 
HETATM   15  O3  UNL     1     -41.701 -20.640  12.101  1.00  0.00    -0.155 OA
ATOM     16  H5  UNL     1     -42.001 -19.841  10.223  1.00  0.00     0.197 HD
HETATM   17  N6  UNL     1     -41.330 -21.805  12.533  1.00  0.00    -0.224 N 
HETATM   18  C5  UNL     1     -41.114 -22.608  11.479  1.00  0.00     0.151 A 
ATOM     19  H6  UNL     1     -41.219 -22.069  13.512  1.00  0.00     0.198 HD
BRANCH  18  20
HETATM   20  N7  UNL     1     -40.740 -23.831  11.500  1.00  0.00    -0.382 N 
ATOM     21  H72 UNL     1     -41.334 -24.658  11.542  1.00  0.00     0.157 HD
ATOM     22  H71 UNL     1     -39.784 -24.188  11.476  1.00  0.00     0.157 HD
ENDBRANCH  18  20
ENDBRANCH  11  13
ENDBRANCH   7  10
ENDBRANCH   3   4
TORSDOF 4
ENDMDL
MODEL 3
REMARK VINA RESULT: -6.163618293      1.556      7.059
REMARK  4 active torsions:
REMARK  status: ('A' for Active; 'I' for Inactive)
REMARK    1  A    between atoms: O1_3  and  N2_4 
REMARK       I    between atoms: N2_4  and  C2_6 
REMARK       I    between atoms: C2_6  and  N3_8 
REMARK    2  A    between atoms: N3_8  and  N4_10 
REMARK    3  A    between atoms: C3_12  and  C4_13 
REMARK    4  A    between atoms: C5_19  and  N7_20 
ROOT
HETATM    1  N1  UNL     1     -38.013 -28.791   3.099  1.00  0.00    -0.162 NA
HETATM    2  C1  UNL     1     -38.986 -28.521   3.662  1.00  0.00     0.253 C 
HETATM    3  O1  UNL     1     -40.154 -28.185   4.320  1.00  0.00    -0.155 OA
ENDROOT
BRANCH   3   4
HETATM    4  N2  UNL     1     -40.512 -26.857   4.259  1.00  0.00    -0.198 N 
HETATM    5  C2  UNL     1     -40.480 -26.007   5.396  1.00  0.00     0.359 C 
HETATM    6  O2  UNL     1     -40.123 -26.431   6.508  1.00  0.00    -0.243 OA
HETATM    7  N3  UNL     1     -40.862 -24.646   5.269  1.00  0.00    -0.250 N 
ATOM      8  H3  UNL     1     -41.153 -24.307   4.353  1.00  0.00     0.192 HD
ATOM      9  H2  UNL     1     -40.811 -26.469   3.364  1.00  0.00     0.200 HD
BRANCH   7  10
HETATM   10  N4  UNL     1     -40.858 -23.752   6.337  1.00  0.00    -0.306 N 
HETATM   11  C3  UNL     1     -40.607 -22.494   6.200  1.00  0.00     0.142 C 
ATOM     12  H4  UNL     1     -41.062 -24.108   7.271  1.00  0.00     0.186 HD
BRANCH  11  13
HETATM   13  C4  UNL     1     -40.608 -21.579   7.329  1.00  0.00     0.118 A 
HETATM   14  N5  UNL     1     -41.588 -21.384   8.198  1.00  0.00    -0.237 N 
HETATM   15  O3  UNL     1     -41.208 -20.492   9.055  1.00  0.00    -0.155 OA
ATOM     16  H5  UNL     1     -42.491 -21.858   8.193  1.00  0.00     0.197 HD
HETATM   17  N6  UNL     1     -40.007 -20.090   8.779  1.00  0.00    -0.224 N 
HETATM   18  C5  UNL     1     -39.571 -20.745   7.691  1.00  0.00     0.151 A 
ATOM     19  H6  UNL     1     -39.479 -19.390   9.302  1.00  0.00     0.198 HD
BRANCH  18  20
HETATM   20  N7  UNL     1     -38.435 -20.621   7.116  1.00  0.00    -0.382 N 
ATOM     21  H72 UNL     1     -38.006 -21.266   6.453  1.00  0.00     0.157 HD
ATOM     22  H71 UNL     1     -37.767 -19.857   7.219  1.00  0.00     0.157 HD
ENDBRANCH  18  20
ENDBRANCH  11  13
ENDBRANCH   7  10
ENDBRANCH   3   4
TORSDOF 4
ENDMDL
MODEL 4
REMARK VINA RESULT: -5.914420772      6.115      6.930
REMARK  4 active torsions:
REMARK  status: ('A' for Active; 'I' for Inactive)
REMARK    1  A    between atoms: O1_3  and  N2_4 
REMARK       I    between atoms: N2_4  and  C2_6 
REMARK       I    between atoms: C2_6  and  N3_8 
REMARK    2  A    between atoms: N3_8  and  N4_10 
REMARK    3  A    between atoms: C3_12  and  C4_13 
REMARK    4  A    between atoms: C5_19  and  N7_20 
ROOT
HETATM    1  N1  UNL     1     -32.271 -19.689   1.484  1.00  0.00    -0.162 NA
HETATM    2  C1  UNL     1     -32.351 -20.817   1.723  1.00  0.00     0.253 C 
HETATM    3  O1  UNL     1     -32.458 -22.168   1.992  1.00  0.00    -0.155 OA
ENDROOT
BRANCH   3   4
HETATM    4  N2  UNL     1     -33.705 -22.719   1.791  1.00  0.00    -0.198 N 
HETATM    5  C2  UNL     1     -33.967 -24.100   1.986  1.00  0.00     0.359 C 
HETATM    6  O2  UNL     1     -33.072 -24.881   2.353  1.00  0.00    -0.243 OA
HETATM    7  N3  UNL     1     -35.273 -24.607   1.762  1.00  0.00    -0.250 N 
ATOM      8  H3  UNL     1     -36.001 -23.959   1.462  1.00  0.00     0.192 HD
ATOM      9  H2  UNL     1     -34.467 -22.112   1.490  1.00  0.00     0.200 HD
BRANCH   7  10
HETATM   10  N4  UNL     1     -35.608 -25.949   1.932  1.00  0.00    -0.306 N 
HETATM   11  C3  UNL     1     -36.789 -26.342   2.271  1.00  0.00     0.142 C 
ATOM     12  H4  UNL     1     -34.885 -26.654   1.782  1.00  0.00     0.186 HD
BRANCH  11  13
HETATM   13  C4  UNL     1     -37.116 -27.747   2.442  1.00  0.00     0.118 A 
HETATM   14  N5  UNL     1     -36.476 -28.785   1.925  1.00  0.00    -0.237 N 
HETATM   15  O3  UNL     1     -37.070 -29.869   2.309  1.00  0.00    -0.155 OA
ATOM     16  H5  UNL     1     -35.652 -28.738   1.326  1.00  0.00     0.197 HD
HETATM   17  N6  UNL     1     -38.084 -29.580   3.063  1.00  0.00    -0.224 N 
HETATM   18  C5  UNL     1     -38.166 -28.245   3.185  1.00  0.00     0.151 A 
ATOM     19  H6  UNL     1     -38.717 -30.255   3.492  1.00  0.00     0.198 HD
BRANCH  18  20
HETATM   20  N7  UNL     1     -39.032 -27.580   3.851  1.00  0.00    -0.382 N 
ATOM     21  H72 UNL     1     -39.550 -26.758   3.541  1.00  0.00     0.157 HD
ATOM     22  H71 UNL     1     -39.354 -27.758   4.802  1.00  0.00     0.157 HD
ENDBRANCH  18  20
ENDBRANCH  11  13
ENDBRANCH   7  10
ENDBRANCH   3   4
TORSDOF 4
ENDMDL
MODEL 5
REMARK VINA RESULT: -5.896822949      1.843      6.773
REMARK  4 active torsions:
REMARK  status: ('A' for Active; 'I' for Inactive)
REMARK    1  A    between atoms: O1_3  and  N2_4 
REMARK       I    between atoms: N2_4  and  C2_6 
REMARK       I    between atoms: C2_6  and  N3_8 
REMARK    2  A    between atoms: N3_8  and  N4_10 
REMARK    3  A    between atoms: C3_12  and  C4_13 
REMARK    4  A    between atoms: C5_19  and  N7_20 
ROOT
HETATM    1  N1  UNL     1     -40.861 -28.640   7.038  1.00  0.00    -0.162 NA
HETATM    2  C1  UNL     1     -40.974 -28.076   6.035  1.00  0.00     0.253 C 
HETATM    3  O1  UNL     1     -41.104 -27.385   4.846  1.00  0.00    -0.155 OA
ENDROOT
BRANCH   3   4
HETATM    4  N2  UNL     1     -41.701 -26.147   4.937  1.00  0.00    -0.198 N 
HETATM    5  C2  UNL     1     -40.972 -24.971   5.251  1.00  0.00     0.359 C 
HETATM    6  O2  UNL     1     -39.747 -25.007   5.458  1.00  0.00    -0.243 OA
HETATM    7  N3  UNL     1     -41.646 -23.725   5.331  1.00  0.00    -0.250 N 
ATOM      8  H3  UNL     1     -42.651 -23.704   5.159  1.00  0.00     0.192 HD
ATOM      9  H2  UNL     1     -42.706 -26.074   4.773  1.00  0.00     0.200 HD
BRANCH   7  10
HETATM   10  N4  UNL     1     -41.000 -22.528   5.633  1.00  0.00    -0.306 N 
HETATM   11  C3  UNL     1     -40.686 -22.183   6.836  1.00  0.00     0.142 C 
ATOM     12  H4  UNL     1     -40.763 -21.895   4.868  1.00  0.00     0.186 HD
BRANCH  11  13
HETATM   13  C4  UNL     1     -40.012 -20.929   7.129  1.00  0.00     0.118 A 
HETATM   14  N5  UNL     1     -39.673 -19.984   6.265  1.00  0.00    -0.237 N 
HETATM   15  O3  UNL     1     -39.092 -19.025   6.911  1.00  0.00    -0.155 OA
ATOM     16  H5  UNL     1     -39.842 -20.008   5.260  1.00  0.00     0.197 HD
HETATM   17  N6  UNL     1     -39.035 -19.306   8.175  1.00  0.00    -0.224 N 
HETATM   18  C5  UNL     1     -39.604 -20.506   8.376  1.00  0.00     0.151 A 
ATOM     19  H6  UNL     1     -38.625 -18.715   8.898  1.00  0.00     0.198 HD
BRANCH  18  20
HETATM   20  N7  UNL     1     -39.740 -21.122   9.489  1.00  0.00    -0.382 N 
ATOM     21  H72 UNL     1     -39.154 -21.871   9.855  1.00  0.00     0.157 HD
ATOM     22  H71 UNL     1     -40.454 -20.967  10.201  1.00  0.00     0.157 HD
ENDBRANCH  18  20
ENDBRANCH  11  13
ENDBRANCH   7  10
ENDBRANCH   3   4
TORSDOF 4
ENDMDL
