MODEL 1
REMARK VINA RESULT: -7.427273972      0.000      0.000
REMARK  6 active torsions:
REMARK  status: ('A' for Active; 'I' for Inactive)
REMARK    1  A    between atoms: O1_2  and  C2_3 
REMARK    2  A    between atoms: C2_3  and  C3_4 
REMARK    3  A    between atoms: C3_4  and  O3_6 
REMARK    4  A    between atoms: O3_6  and  C4_7 
REMARK    5  A    between atoms: C5_8  and  O4_9 
REMARK    6  A    between atoms: C7_17  and  N3_18 
ROOT
HETATM    1  C4  UNL     1     -40.852 -22.611  10.477  1.00  0.00     0.173 A 
HETATM    2  C5  UNL     1     -40.534 -23.799  11.098  1.00  0.00     0.182 A 
HETATM    3  N1  UNL     1     -40.712 -24.005  12.419  1.00  0.00    -0.287 N 
ATOM      4  H1  UNL     1     -40.471 -24.893  12.859  1.00  0.00     0.172 HD
HETATM    5  C6  UNL     1     -41.227 -22.980  13.130  1.00  0.00     0.327 A 
HETATM    6  O5  UNL     1     -41.408 -23.140  14.371  1.00  0.00    -0.247 OA
HETATM    7  N2  UNL     1     -41.556 -21.801  12.581  1.00  0.00    -0.292 N 
ATOM      8  H2  UNL     1     -41.942 -21.060  13.166  1.00  0.00     0.172 HD
HETATM    9  C7  UNL     1     -41.378 -21.587  11.246  1.00  0.00     0.141 A 
ENDROOT
BRANCH   1  10
HETATM   10  O3  UNL     1     -40.637 -22.479   9.116  1.00  0.00    -0.269 OA
BRANCH  10  11
HETATM   11  C3  UNL     1     -39.726 -21.645   8.544  1.00  0.00     0.288 C 
HETATM   12  O2  UNL     1     -38.525 -21.761   8.964  1.00  0.00    -0.262 OA
BRANCH  11  13
HETATM   13  C2  UNL     1     -40.094 -20.675   7.516  1.00  0.00     0.278 C 
BRANCH  13  14
HETATM   14  O1  UNL     1     -39.786 -19.368   7.726  1.00  0.00    -0.386 OA
HETATM   15  C1  UNL     1     -38.575 -18.979   7.212  1.00  0.00     0.202 C 
ENDBRANCH  13  14
ENDBRANCH  11  13
ENDBRANCH  10  11
ENDBRANCH   1  10
BRANCH   2  16
HETATM   16  O4  UNL     1     -40.008 -24.815  10.316  1.00  0.00    -0.344 OA
ATOM     17  H4  UNL     1     -40.589 -25.522  10.060  1.00  0.00     0.219 HD
ENDBRANCH   2  16
BRANCH   9  18
HETATM   18  N3  UNL     1     -41.681 -20.479  10.701  1.00  0.00    -0.383 N 
ATOM     19  H32 UNL     1     -40.972 -19.876  10.283  1.00  0.00     0.157 HD
ATOM     20  H31 UNL     1     -42.655 -20.176  10.675  1.00  0.00     0.157 HD
ENDBRANCH   9  18
TORSDOF 6
ENDMDL
MODEL 2
REMARK VINA RESULT: -7.402305362      1.360      1.951
REMARK  6 active torsions:
REMARK  status: ('A' for Active; 'I' for Inactive)
REMARK    1  A    between atoms: O1_2  and  C2_3 
REMARK    2  A    between atoms: C2_3  and  C3_4 
REMARK    3  A    between atoms: C3_4  and  O3_6 
REMARK    4  A    between atoms: O3_6  and  C4_7 
REMARK    5  A    between atoms: C5_8  and  O4_9 
REMARK    6  A    between atoms: C7_17  and  N3_18 
ROOT
HETATM    1  C4  UNL     1     -41.402 -22.166  10.282  1.00  0.00     0.173 A 
HETATM    2  C5  UNL     1     -40.923 -23.429  10.549  1.00  0.00     0.182 A 
HETATM    3  N1  UNL     1     -40.708 -23.880  11.802  1.00  0.00    -0.287 N 
ATOM      4  H1  UNL     1     -40.353 -24.820  11.978  1.00  0.00     0.172 HD
HETATM    5  C6  UNL     1     -40.985 -23.027  12.811  1.00  0.00     0.327 A 
HETATM    6  O5  UNL     1     -40.794 -23.419  13.998  1.00  0.00    -0.247 OA
HETATM    7  N2  UNL     1     -41.452 -21.787  12.612  1.00  0.00    -0.292 N 
ATOM      8  H2  UNL     1     -41.645 -21.184  13.413  1.00  0.00     0.172 HD
HETATM    9  C7  UNL     1     -41.673 -21.325  11.348  1.00  0.00     0.141 A 
ENDROOT
BRANCH   1  10
HETATM   10  O3  UNL     1     -41.596 -21.778   8.967  1.00  0.00    -0.269 OA
BRANCH  10  11
HETATM   11  C3  UNL     1     -40.678 -21.129   8.198  1.00  0.00     0.288 C 
HETATM   12  O2  UNL     1     -40.191 -20.060   8.699  1.00  0.00    -0.262 OA
BRANCH  11  13
HETATM   13  C2  UNL     1     -40.275 -21.619   6.883  1.00  0.00     0.278 C 
BRANCH  13  14
HETATM   14  O1  UNL     1     -40.454 -22.938   6.607  1.00  0.00    -0.386 OA
HETATM   15  C1  UNL     1     -41.488 -23.204   5.746  1.00  0.00     0.202 C 
ENDBRANCH  13  14
ENDBRANCH  11  13
ENDBRANCH  10  11
ENDBRANCH   1  10
BRANCH   2  16
HETATM   16  O4  UNL     1     -40.656 -24.259   9.472  1.00  0.00    -0.344 OA
ATOM     17  H4  UNL     1     -40.020 -24.954   9.596  1.00  0.00     0.219 HD
ENDBRANCH   2  16
BRANCH   9  18
HETATM   18  N3  UNL     1     -42.116 -20.153  11.133  1.00  0.00    -0.383 N 
ATOM     19  H32 UNL     1     -42.021 -19.409  11.825  1.00  0.00     0.157 HD
ATOM     20  H31 UNL     1     -42.578 -19.940  10.249  1.00  0.00     0.157 HD
ENDBRANCH   9  18
TORSDOF 6
ENDMDL
MODEL 3
REMARK VINA RESULT: -7.113006719      2.710      5.422
REMARK  6 active torsions:
REMARK  status: ('A' for Active; 'I' for Inactive)
REMARK    1  A    between atoms: O1_2  and  C2_3 
REMARK    2  A    between atoms: C2_3  and  C3_4 
REMARK    3  A    between atoms: C3_4  and  O3_6 
REMARK    4  A    between atoms: O3_6  and  C4_7 
REMARK    5  A    between atoms: C5_8  and  O4_9 
REMARK    6  A    between atoms: C7_17  and  N3_18 
ROOT
HETATM    1  C4  UNL     1     -40.772 -21.629   8.122  1.00  0.00     0.173 A 
HETATM    2  C5  UNL     1     -40.396 -20.480   8.782  1.00  0.00     0.182 A 
HETATM    3  N1  UNL     1     -39.487 -19.615   8.288  1.00  0.00    -0.287 N 
ATOM      4  H1  UNL     1     -39.224 -18.769   8.793  1.00  0.00     0.172 HD
HETATM    5  C6  UNL     1     -38.942 -19.924   7.091  1.00  0.00     0.327 A 
HETATM    6  O5  UNL     1     -38.087 -19.134   6.599  1.00  0.00    -0.247 OA
HETATM    7  N2  UNL     1     -39.268 -21.027   6.403  1.00  0.00    -0.292 N 
ATOM      8  H2  UNL     1     -38.825 -21.211   5.502  1.00  0.00     0.172 HD
HETATM    9  C7  UNL     1     -40.187 -21.904   6.897  1.00  0.00     0.141 A 
ENDROOT
BRANCH   1  10
HETATM   10  O3  UNL     1     -41.712 -22.465   8.697  1.00  0.00    -0.269 OA
BRANCH  10  11
HETATM   11  C3  UNL     1     -41.524 -23.191   9.834  1.00  0.00     0.288 C 
HETATM   12  O2  UNL     1     -40.667 -24.134   9.756  1.00  0.00    -0.262 OA
BRANCH  11  13
HETATM   13  C2  UNL     1     -42.256 -22.914  11.067  1.00  0.00     0.278 C 
BRANCH  13  14
HETATM   14  O1  UNL     1     -41.632 -22.195  12.037  1.00  0.00    -0.386 OA
HETATM   15  C1  UNL     1     -41.084 -22.952  13.042  1.00  0.00     0.202 C 
ENDBRANCH  13  14
ENDBRANCH  11  13
ENDBRANCH  10  11
ENDBRANCH   1  10
BRANCH   2  16
HETATM   16  O4  UNL     1     -40.989 -20.217  10.007  1.00  0.00    -0.344 OA
ATOM     17  H4  UNL     1     -40.864 -19.353  10.382  1.00  0.00     0.219 HD
ENDBRANCH   2  16
BRANCH   9  18
HETATM   18  N3  UNL     1     -40.513 -22.958   6.264  1.00  0.00    -0.383 N 
ATOM     19  H32 UNL     1     -39.858 -23.730   6.134  1.00  0.00     0.157 HD
ATOM     20  H31 UNL     1     -41.451 -23.044   5.872  1.00  0.00     0.157 HD
ENDBRANCH   9  18
TORSDOF 6
ENDMDL
MODEL 4
REMARK VINA RESULT: -7.093889368      2.415      5.196
REMARK  6 active torsions:
REMARK  status: ('A' for Active; 'I' for Inactive)
REMARK    1  A    between atoms: O1_2  and  C2_3 
REMARK    2  A    between atoms: C2_3  and  C3_4 
REMARK    3  A    between atoms: C3_4  and  O3_6 
REMARK    4  A    between atoms: O3_6  and  C4_7 
REMARK    5  A    between atoms: C5_8  and  O4_9 
REMARK    6  A    between atoms: C7_17  and  N3_18 
ROOT
HETATM    1  C4  UNL     1     -40.335 -22.091   8.346  1.00  0.00     0.173 A 
HETATM    2  C5  UNL     1     -39.400 -21.386   9.071  1.00  0.00     0.182 A 
HETATM    3  N1  UNL     1     -38.848 -20.236   8.632  1.00  0.00    -0.287 N 
ATOM      4  H1  UNL     1     -38.158 -19.729   9.185  1.00  0.00     0.172 HD
HETATM    5  C6  UNL     1     -39.254 -19.790   7.424  1.00  0.00     0.327 A 
HETATM    6  O5  UNL     1     -38.757 -18.714   6.983  1.00  0.00    -0.247 OA
HETATM    7  N2  UNL     1     -40.160 -20.433   6.674  1.00  0.00    -0.292 N 
ATOM      8  H2  UNL     1     -40.431 -20.050   5.768  1.00  0.00     0.172 HD
HETATM    9  C7  UNL     1     -40.722 -21.595   7.113  1.00  0.00     0.141 A 
ENDROOT
BRANCH   1  10
HETATM   10  O3  UNL     1     -40.853 -23.264   8.867  1.00  0.00    -0.269 OA
BRANCH  10  11
HETATM   11  C3  UNL     1     -41.044 -23.516  10.192  1.00  0.00     0.288 C 
HETATM   12  O2  UNL     1     -40.270 -24.390  10.708  1.00  0.00    -0.262 OA
BRANCH  11  13
HETATM   13  C2  UNL     1     -42.070 -22.833  10.976  1.00  0.00     0.278 C 
BRANCH  13  14
HETATM   14  O1  UNL     1     -42.281 -23.244  12.254  1.00  0.00    -0.386 OA
HETATM   15  C1  UNL     1     -41.279 -22.911  13.130  1.00  0.00     0.202 C 
ENDBRANCH  13  14
ENDBRANCH  11  13
ENDBRANCH  10  11
ENDBRANCH   1  10
BRANCH   2  16
HETATM   16  O4  UNL     1     -39.022 -21.895  10.303  1.00  0.00    -0.344 OA
ATOM     17  H4  UNL     1     -39.704 -22.049  10.946  1.00  0.00     0.219 HD
ENDBRANCH   2  16
BRANCH   9  18
HETATM   18  N3  UNL     1     -41.583 -22.224   6.420  1.00  0.00    -0.383 N 
ATOM     19  H32 UNL     1     -41.677 -23.239   6.474  1.00  0.00     0.157 HD
ATOM     20  H31 UNL     1     -42.201 -21.711   5.791  1.00  0.00     0.157 HD
ENDBRANCH   9  18
TORSDOF 6
ENDMDL
MODEL 5
REMARK VINA RESULT: -6.943526424      2.113      5.117
REMARK  6 active torsions:
REMARK  status: ('A' for Active; 'I' for Inactive)
REMARK    1  A    between atoms: O1_2  and  C2_3 
REMARK    2  A    between atoms: C2_3  and  C3_4 
REMARK    3  A    between atoms: C3_4  and  O3_6 
REMARK    4  A    between atoms: O3_6  and  C4_7 
REMARK    5  A    between atoms: C5_8  and  O4_9 
REMARK    6  A    between atoms: C7_17  and  N3_18 
ROOT
HETATM    1  C4  UNL     1     -40.793 -21.727   8.192  1.00  0.00     0.173 A 
HETATM    2  C5  UNL     1     -40.166 -21.978   6.992  1.00  0.00     0.182 A 
HETATM    3  N1  UNL     1     -39.295 -21.117   6.426  1.00  0.00    -0.287 N 
ATOM      4  H1  UNL     1     -38.842 -21.323   5.536  1.00  0.00     0.172 HD
HETATM    5  C6  UNL     1     -39.052 -19.971   7.097  1.00  0.00     0.327 A 
HETATM    6  O5  UNL     1     -38.240 -19.142   6.595  1.00  0.00    -0.247 OA
HETATM    7  N2  UNL     1     -39.631 -19.672   8.268  1.00  0.00    -0.292 N 
ATOM      8  H2  UNL     1     -39.411 -18.790   8.732  1.00  0.00     0.172 HD
HETATM    9  C7  UNL     1     -40.512 -20.538   8.844  1.00  0.00     0.141 A 
ENDROOT
BRANCH   1  10
HETATM   10  O3  UNL     1     -41.675 -22.662   8.705  1.00  0.00    -0.269 OA
BRANCH  10  11
HETATM   11  C3  UNL     1     -41.498 -23.353   9.865  1.00  0.00     0.288 C 
HETATM   12  O2  UNL     1     -40.618 -24.279   9.832  1.00  0.00    -0.262 OA
BRANCH  11  13
HETATM   13  C2  UNL     1     -42.264 -23.060  11.073  1.00  0.00     0.278 C 
BRANCH  13  14
HETATM   14  O1  UNL     1     -41.700 -22.256  12.012  1.00  0.00    -0.386 OA
HETATM   15  C1  UNL     1     -41.060 -22.925  13.023  1.00  0.00     0.202 C 
ENDBRANCH  13  14
ENDBRANCH  11  13
ENDBRANCH  10  11
ENDBRANCH   1  10
BRANCH   2  16
HETATM   16  O4  UNL     1     -40.456 -23.171   6.350  1.00  0.00    -0.344 OA
ATOM     17  H4  UNL     1     -41.078 -23.147   5.631  1.00  0.00     0.219 HD
ENDBRANCH   2  16
BRANCH   9  18
HETATM   18  N3  UNL     1     -41.075 -20.279   9.955  1.00  0.00    -0.383 N 
ATOM     19  H32 UNL     1     -41.417 -19.343  10.177  1.00  0.00     0.157 HD
ATOM     20  H31 UNL     1     -41.194 -21.017  10.649  1.00  0.00     0.157 HD
ENDBRANCH   9  18
TORSDOF 6
ENDMDL
