MODEL 1
REMARK VINA RESULT: -5.707536866      0.000      0.000
REMARK  3 active torsions:
REMARK  status: ('A' for Active; 'I' for Inactive)
REMARK    1  A    between atoms: C1_2  and  N2_4 
REMARK    2  A    between atoms: N2_4  and  N3_6 
REMARK    3  A    between atoms: C10_20  and  N5_21 
ROOT
HETATM    1  N5  UNL     1       1.801   2.751  26.125  1.00  0.00    -0.279 NA
HETATM    2  O1  UNL     1       2.700   3.581  26.330  1.00  0.00    -0.218 OA
ATOM      3  H1  UNL     1       3.402   4.185  26.543  1.00  0.00     0.261 HD
ENDROOT
BRANCH   1   4
HETATM    4  C10 UNL     1       0.918   1.990  25.857  1.00  0.00     0.198 C 
HETATM    5  C2  UNL     1       0.129   1.341  26.919  1.00  0.00     0.072 C 
HETATM    6  N3  UNL     1       0.006   1.970  28.038  1.00  0.00    -0.299 N 
HETATM    7  C3  UNL     1      -0.522   0.019  26.773  1.00  0.00     0.062 C 
ATOM      8  H3  UNL     1       0.459   2.880  28.132  1.00  0.00     0.186 HD
HETATM    9  C4  UNL     1       0.359  -1.043  26.196  1.00  0.00     0.006 C 
HETATM   10  C5  UNL     1      -0.378  -2.141  25.503  1.00  0.00     0.000 C 
HETATM   11  C6  UNL     1      -1.271  -1.703  24.388  1.00  0.00     0.001 C 
HETATM   12  C7  UNL     1      -0.539  -1.238  23.174  1.00  0.00     0.010 C 
HETATM   13  C8  UNL     1      -1.055   0.065  22.624  1.00  0.00     0.081 C 
HETATM   14  S2  UNL     1      -1.047   1.389  23.852  1.00  0.00    -0.107 SA
HETATM   15  C9  UNL     1       0.607   1.698  24.435  1.00  0.00     0.141 C 
HETATM   16  N4  UNL     1       1.574   1.671  23.613  1.00  0.00    -0.214 N 
HETATM   17  F1  UNL     1       2.850   1.890  23.956  1.00  0.00    -0.101 F 
ATOM     18  H4  UNL     1       1.367   1.470  22.635  1.00  0.00     0.200 HD
BRANCH   6  19
HETATM   19  N2  UNL     1      -0.707   1.476  29.122  1.00  0.00    -0.278 N 
ATOM     20  H2  UNL     1      -0.296   0.736  29.691  1.00  0.00     0.189 HD
BRANCH  19  21
HETATM   21  C1  UNL     1      -1.991   1.972  29.459  1.00  0.00     0.199 C 
HETATM   22  N1  UNL     1      -2.864   2.508  28.483  1.00  0.00    -0.068 NA
HETATM   23  S1  UNL     1      -2.534   1.948  31.005  1.00  0.00    -0.043 SA
ENDBRANCH  19  21
ENDBRANCH   6  19
ENDBRANCH   1   4
TORSDOF 3
ENDMDL
MODEL 2
REMARK VINA RESULT: -5.706638163      4.022      4.898
REMARK  3 active torsions:
REMARK  status: ('A' for Active; 'I' for Inactive)
REMARK    1  A    between atoms: C1_2  and  N2_4 
REMARK    2  A    between atoms: N2_4  and  N3_6 
REMARK    3  A    between atoms: C10_20  and  N5_21 
ROOT
HETATM    1  N5  UNL     1      -1.757  -2.774  26.059  1.00  0.00    -0.279 NA
HETATM    2  O1  UNL     1      -2.625  -3.645  26.224  1.00  0.00    -0.218 OA
ATOM      3  H1  UNL     1      -3.317  -4.273  26.398  1.00  0.00     0.261 HD
ENDROOT
BRANCH   1   4
HETATM    4  C10 UNL     1      -0.886  -1.983  25.841  1.00  0.00     0.198 C 
HETATM    5  C2  UNL     1      -0.129  -1.368  26.945  1.00  0.00     0.072 C 
HETATM    6  N3  UNL     1      -0.009  -2.046  28.036  1.00  0.00    -0.299 N 
HETATM    7  C3  UNL     1       0.495  -0.027  26.872  1.00  0.00     0.062 C 
ATOM      8  H3  UNL     1      -0.443  -2.969  28.080  1.00  0.00     0.186 HD
HETATM    9  C4  UNL     1      -0.400   1.042  26.330  1.00  0.00     0.006 C 
HETATM   10  C5  UNL     1       0.323   2.187  25.701  1.00  0.00     0.000 C 
HETATM   11  C6  UNL     1       1.242   1.821  24.582  1.00  0.00     0.001 C 
HETATM   12  C7  UNL     1       0.540   1.398  23.336  1.00  0.00     0.010 C 
HETATM   13  C8  UNL     1       1.092   0.133  22.734  1.00  0.00     0.081 C 
HETATM   14  S2  UNL     1       1.095  -1.247  23.899  1.00  0.00    -0.107 SA
HETATM   15  C9  UNL     1      -0.561  -1.619  24.440  1.00  0.00     0.141 C 
HETATM   16  N4  UNL     1      -1.515  -1.573  23.604  1.00  0.00    -0.214 N 
HETATM   17  F1  UNL     1      -2.792  -1.835  23.916  1.00  0.00    -0.101 F 
ATOM     18  H4  UNL     1      -1.298  -1.322  22.640  1.00  0.00     0.200 HD
BRANCH   6  19
HETATM   19  N2  UNL     1       0.677  -1.588  29.152  1.00  0.00    -0.278 N 
ATOM     20  H2  UNL     1       0.228  -0.908  29.767  1.00  0.00     0.189 HD
BRANCH  19  21
HETATM   21  C1  UNL     1       1.983  -2.040  29.463  1.00  0.00     0.199 C 
HETATM   22  N1  UNL     1       2.855  -2.544  28.470  1.00  0.00    -0.068 NA
HETATM   23  S1  UNL     1       2.555  -2.001  30.999  1.00  0.00    -0.043 SA
ENDBRANCH  19  21
ENDBRANCH   6  19
ENDBRANCH   1   4
TORSDOF 3
ENDMDL
MODEL 3
REMARK VINA RESULT: -5.470716095      0.948      1.340
REMARK  3 active torsions:
REMARK  status: ('A' for Active; 'I' for Inactive)
REMARK    1  A    between atoms: C1_2  and  N2_4 
REMARK    2  A    between atoms: N2_4  and  N3_6 
REMARK    3  A    between atoms: C10_20  and  N5_21 
ROOT
HETATM    1  N5  UNL     1       1.706   2.672  26.172  1.00  0.00    -0.279 NA
HETATM    2  O1  UNL     1       2.583   3.491  26.488  1.00  0.00    -0.218 OA
ATOM      3  H1  UNL     1       3.270   4.079  26.781  1.00  0.00     0.261 HD
ENDROOT
BRANCH   1   4
HETATM    4  C10 UNL     1       0.842   1.931  25.804  1.00  0.00     0.198 C 
HETATM    5  C2  UNL     1       0.006   1.203  26.773  1.00  0.00     0.072 C 
HETATM    6  N3  UNL     1      -0.177   1.746  27.929  1.00  0.00    -0.299 N 
HETATM    7  C3  UNL     1      -0.629  -0.106  26.496  1.00  0.00     0.062 C 
ATOM      8  H3  UNL     1       0.264   2.647  28.113  1.00  0.00     0.186 HD
HETATM    9  C4  UNL     1       0.285  -1.120  25.886  1.00  0.00     0.006 C 
HETATM   10  C5  UNL     1      -0.409  -2.165  25.077  1.00  0.00     0.000 C 
HETATM   11  C6  UNL     1      -1.248  -1.647  23.955  1.00  0.00     0.001 C 
HETATM   12  C7  UNL     1      -0.459  -1.090  22.817  1.00  0.00     0.010 C 
HETATM   13  C8  UNL     1      -0.954   0.249  22.341  1.00  0.00     0.081 C 
HETATM   14  S2  UNL     1      -1.016   1.478  23.663  1.00  0.00    -0.107 SA
HETATM   15  C9  UNL     1       0.605   1.746  24.350  1.00  0.00     0.141 C 
HETATM   16  N4  UNL     1       1.612   1.782  23.578  1.00  0.00    -0.214 N 
HETATM   17  F1  UNL     1       2.869   1.978  24.001  1.00  0.00    -0.101 F 
ATOM     18  H4  UNL     1       1.456   1.655  22.578  1.00  0.00     0.200 HD
BRANCH   6  19
HETATM   19  N2  UNL     1      -0.941   1.171  28.935  1.00  0.00    -0.278 N 
ATOM     20  H2  UNL     1      -1.959   1.210  28.869  1.00  0.00     0.189 HD
BRANCH  19  21
HETATM   21  C1  UNL     1      -0.347   0.530  30.050  1.00  0.00     0.199 C 
HETATM   22  N1  UNL     1       0.681  -0.430  29.900  1.00  0.00    -0.068 NA
HETATM   23  S1  UNL     1      -0.823   0.871  31.581  1.00  0.00    -0.043 SA
ENDBRANCH  19  21
ENDBRANCH   6  19
ENDBRANCH   1   4
TORSDOF 3
ENDMDL
MODEL 4
REMARK VINA RESULT: -5.460719957      3.663      4.361
REMARK  3 active torsions:
REMARK  status: ('A' for Active; 'I' for Inactive)
REMARK    1  A    between atoms: C1_2  and  N2_4 
REMARK    2  A    between atoms: N2_4  and  N3_6 
REMARK    3  A    between atoms: C10_20  and  N5_21 
ROOT
HETATM    1  N5  UNL     1      -1.718  -2.673  26.166  1.00  0.00    -0.279 NA
HETATM    2  O1  UNL     1      -2.584  -3.499  26.496  1.00  0.00    -0.218 OA
ATOM      3  H1  UNL     1      -3.273  -4.084  26.787  1.00  0.00     0.261 HD
ENDROOT
BRANCH   1   4
HETATM    4  C10 UNL     1      -0.852  -1.935  25.799  1.00  0.00     0.198 C 
HETATM    5  C2  UNL     1      -0.014  -1.209  26.770  1.00  0.00     0.072 C 
HETATM    6  N3  UNL     1       0.166  -1.754  27.925  1.00  0.00    -0.299 N 
HETATM    7  C3  UNL     1       0.626   0.097  26.495  1.00  0.00     0.062 C 
ATOM      8  H3  UNL     1      -0.279  -2.654  28.109  1.00  0.00     0.186 HD
HETATM    9  C4  UNL     1      -0.285   1.115  25.884  1.00  0.00     0.006 C 
HETATM   10  C5  UNL     1       0.413   2.158  25.076  1.00  0.00     0.000 C 
HETATM   11  C6  UNL     1       1.251   1.638  23.954  1.00  0.00     0.001 C 
HETATM   12  C7  UNL     1       0.463   1.085  22.816  1.00  0.00     0.010 C 
HETATM   13  C8  UNL     1       0.954  -0.256  22.339  1.00  0.00     0.081 C 
HETATM   14  S2  UNL     1       1.011  -1.486  23.661  1.00  0.00    -0.107 SA
HETATM   15  C9  UNL     1      -0.612  -1.750  24.346  1.00  0.00     0.141 C 
HETATM   16  N4  UNL     1      -1.619  -1.782  23.573  1.00  0.00    -0.214 N 
HETATM   17  F1  UNL     1      -2.876  -1.974  23.994  1.00  0.00    -0.101 F 
ATOM     18  H4  UNL     1      -1.461  -1.655  22.573  1.00  0.00     0.200 HD
BRANCH   6  19
HETATM   19  N2  UNL     1       0.931  -1.181  28.932  1.00  0.00    -0.278 N 
ATOM     20  H2  UNL     1       1.948  -1.228  28.870  1.00  0.00     0.189 HD
BRANCH  19  21
HETATM   21  C1  UNL     1       0.337  -0.535  30.045  1.00  0.00     0.199 C 
HETATM   22  N1  UNL     1      -0.694   0.421  29.891  1.00  0.00    -0.068 NA
HETATM   23  S1  UNL     1       0.818  -0.865  31.577  1.00  0.00    -0.043 SA
ENDBRANCH  19  21
ENDBRANCH   6  19
ENDBRANCH   1   4
TORSDOF 3
ENDMDL
MODEL 5
REMARK VINA RESULT: -5.434342020      6.387     10.039
REMARK  3 active torsions:
REMARK  status: ('A' for Active; 'I' for Inactive)
REMARK    1  A    between atoms: C1_2  and  N2_4 
REMARK    2  A    between atoms: N2_4  and  N3_6 
REMARK    3  A    between atoms: C10_20  and  N5_21 
ROOT
HETATM    1  N5  UNL     1      -6.220  -0.089  31.750  1.00  0.00    -0.279 NA
HETATM    2  O1  UNL     1      -6.445  -1.202  31.250  1.00  0.00    -0.218 OA
ATOM      3  H1  UNL     1      -6.653  -2.069  30.921  1.00  0.00     0.261 HD
ENDROOT
BRANCH   1   4
HETATM    4  C10 UNL     1      -5.958   1.003  32.164  1.00  0.00     0.198 C 
HETATM    5  C2  UNL     1      -4.750   1.714  31.712  1.00  0.00     0.072 C 
HETATM    6  N3  UNL     1      -4.304   1.441  30.534  1.00  0.00    -0.299 N 
HETATM    7  C3  UNL     1      -4.027   2.715  32.530  1.00  0.00     0.062 C 
ATOM      8  H3  UNL     1      -4.806   0.750  29.976  1.00  0.00     0.186 HD
HETATM    9  C4  UNL     1      -3.760   2.286  33.937  1.00  0.00     0.006 C 
HETATM   10  C5  UNL     1      -3.601   3.413  34.903  1.00  0.00     0.000 C 
HETATM   11  C6  UNL     1      -4.760   4.354  34.978  1.00  0.00     0.001 C 
HETATM   12  C7  UNL     1      -5.967   3.775  35.636  1.00  0.00     0.010 C 
HETATM   13  C8  UNL     1      -7.241   4.015  34.871  1.00  0.00     0.081 C 
HETATM   14  S2  UNL     1      -7.157   3.409  33.172  1.00  0.00    -0.107 SA
HETATM   15  C9  UNL     1      -6.865   1.652  33.143  1.00  0.00     0.141 C 
HETATM   16  N4  UNL     1      -7.449   0.908  33.991  1.00  0.00    -0.214 N 
HETATM   17  F1  UNL     1      -7.293  -0.421  34.048  1.00  0.00    -0.101 F 
ATOM     18  H4  UNL     1      -8.073   1.349  34.667  1.00  0.00     0.200 HD
BRANCH   6  19
HETATM   19  N2  UNL     1      -3.177   2.036  29.982  1.00  0.00    -0.278 N 
ATOM     20  H2  UNL     1      -3.218   3.019  29.711  1.00  0.00     0.189 HD
BRANCH  19  21
HETATM   21  C1  UNL     1      -1.973   1.317  29.786  1.00  0.00     0.199 C 
HETATM   22  N1  UNL     1      -1.570   0.870  28.505  1.00  0.00    -0.068 NA
HETATM   23  S1  UNL     1      -0.978   0.962  31.040  1.00  0.00    -0.043 SA
ENDBRANCH  19  21
ENDBRANCH   6  19
ENDBRANCH   1   4
TORSDOF 3
ENDMDL
