MODEL 1
REMARK VINA RESULT: -4.860192126      0.000      0.000
REMARK  5 active torsions:
REMARK  status: ('A' for Active; 'I' for Inactive)
REMARK    1  A    between atoms: O1_2  and  C2_3 
REMARK    2  A    between atoms: C6_7  and  O2_8 
REMARK    3  A    between atoms: C6_7  and  C7_10 
REMARK    4  A    between atoms: C7_10  and  N1_11 
REMARK    5  A    between atoms: C14_18  and  O3_19 
ROOT
HETATM    1  C2  UNL     1     -15.923  -7.743  22.557  1.00  0.00     0.123 C 
HETATM    2  C3  UNL     1     -16.820  -8.979  22.700  1.00  0.00     0.039 C 
HETATM    3  C4  UNL     1     -17.614  -9.216  21.461  1.00  0.00     0.023 C 
HETATM    4  C5  UNL     1     -18.556 -10.359  21.667  1.00  0.00     0.013 C 
HETATM    5  C6  UNL     1     -18.459  -8.005  21.045  1.00  0.00     0.113 C 
HETATM    6  C14 UNL     1     -17.619  -6.752  21.036  1.00  0.00     0.157 C 
HETATM    7  C15 UNL     1     -16.924  -6.597  22.352  1.00  0.00     0.067 C 
ENDROOT
BRANCH   5   8
HETATM    8  O2  UNL     1     -19.438  -7.864  21.986  1.00  0.00    -0.385 OA
ATOM      9  H2  UNL     1     -19.067  -7.354  22.696  1.00  0.00     0.210 HD
ENDBRANCH   5   8
BRANCH   5  10
HETATM   10  C7  UNL     1     -19.032  -8.337  19.717  1.00  0.00     0.313 C 
BRANCH  10  11
HETATM   11  N1  UNL     1     -19.874  -7.425  19.070  1.00  0.00     0.095 N 
HETATM   12  C8  UNL     1     -19.353  -7.194  17.730  1.00  0.00     0.273 C 
HETATM   13  C9  UNL     1     -19.633  -8.325  16.773  1.00  0.00     0.030 C 
HETATM   14  C10 UNL     1     -21.125  -8.541  16.670  1.00  0.00     0.004 C 
HETATM   15  C11 UNL     1     -21.669  -8.740  18.044  1.00  0.00     0.035 C 
HETATM   16  C12 UNL     1     -21.268  -7.636  19.009  1.00  0.00     0.219 C 
HETATM   17  C13 UNL     1     -21.877  -6.307  18.504  1.00  0.00     0.043 C 
ENDBRANCH  10  11
ENDBRANCH   5  10
BRANCH   6  18
HETATM   18  O3  UNL     1     -16.681  -6.725  20.029  1.00  0.00    -0.392 OA
ATOM     19  H3  UNL     1     -16.645  -5.897  19.564  1.00  0.00     0.210 HD
ENDBRANCH   6  18
BRANCH   1  20
HETATM   20  O1  UNL     1     -15.299  -7.531  23.779  1.00  0.00    -0.391 OA
HETATM   21  C1  UNL     1     -14.347  -8.551  23.994  1.00  0.00     0.202 C 
ENDBRANCH   1  20
TORSDOF 5
ENDMDL
MODEL 2
REMARK VINA RESULT: -4.818874960      2.930      4.046
REMARK  5 active torsions:
REMARK  status: ('A' for Active; 'I' for Inactive)
REMARK    1  A    between atoms: O1_2  and  C2_3 
REMARK    2  A    between atoms: C6_7  and  O2_8 
REMARK    3  A    between atoms: C6_7  and  C7_10 
REMARK    4  A    between atoms: C7_10  and  N1_11 
REMARK    5  A    between atoms: C14_18  and  O3_19 
ROOT
HETATM    1  C2  UNL     1     -16.907  -8.233  22.504  1.00  0.00     0.123 C 
HETATM    2  C3  UNL     1     -17.426  -8.253  21.060  1.00  0.00     0.039 C 
HETATM    3  C4  UNL     1     -18.176  -7.005  20.740  1.00  0.00     0.023 C 
HETATM    4  C5  UNL     1     -18.761  -7.097  19.367  1.00  0.00     0.013 C 
HETATM    5  C6  UNL     1     -19.335  -6.733  21.707  1.00  0.00     0.113 C 
HETATM    6  C14 UNL     1     -18.870  -6.849  23.137  1.00  0.00     0.157 C 
HETATM    7  C15 UNL     1     -18.191  -8.165  23.345  1.00  0.00     0.067 C 
ENDROOT
BRANCH   5   8
HETATM    8  O2  UNL     1     -20.276  -7.695  21.477  1.00  0.00    -0.385 OA
ATOM      9  H2  UNL     1     -19.980  -8.481  21.919  1.00  0.00     0.210 HD
ENDBRANCH   5   8
BRANCH   5  10
HETATM   10  C7  UNL     1     -19.850  -5.383  21.365  1.00  0.00     0.313 C 
BRANCH  10  11
HETATM   11  N1  UNL     1     -21.031  -4.915  21.952  1.00  0.00     0.095 N 
HETATM   12  C8  UNL     1     -20.736  -3.663  22.636  1.00  0.00     0.273 C 
HETATM   13  C9  UNL     1     -20.586  -2.490  21.703  1.00  0.00     0.030 C 
HETATM   14  C10 UNL     1     -21.860  -2.308  20.911  1.00  0.00     0.004 C 
HETATM   15  C11 UNL     1     -22.187  -3.598  20.240  1.00  0.00     0.035 C 
HETATM   16  C12 UNL     1     -22.216  -4.777  21.198  1.00  0.00     0.219 C 
HETATM   17  C13 UNL     1     -23.348  -4.539  22.225  1.00  0.00     0.043 C 
ENDBRANCH  10  11
ENDBRANCH   5  10
BRANCH   6  18
HETATM   18  O3  UNL     1     -18.017  -5.839  23.523  1.00  0.00    -0.392 OA
ATOM     19  H3  UNL     1     -17.108  -6.110  23.578  1.00  0.00     0.210 HD
ENDBRANCH   6  18
BRANCH   1  20
HETATM   20  O1  UNL     1     -16.315  -9.463  22.756  1.00  0.00    -0.391 OA
HETATM   21  C1  UNL     1     -15.125  -9.262  23.490  1.00  0.00     0.202 C 
ENDBRANCH   1  20
TORSDOF 5
ENDMDL
MODEL 3
REMARK VINA RESULT: -4.692297143      3.193      4.368
REMARK  5 active torsions:
REMARK  status: ('A' for Active; 'I' for Inactive)
REMARK    1  A    between atoms: O1_2  and  C2_3 
REMARK    2  A    between atoms: C6_7  and  O2_8 
REMARK    3  A    between atoms: C6_7  and  C7_10 
REMARK    4  A    between atoms: C7_10  and  N1_11 
REMARK    5  A    between atoms: C14_18  and  O3_19 
ROOT
HETATM    1  C2  UNL     1     -17.916  -9.162  21.925  1.00  0.00     0.123 C 
HETATM    2  C3  UNL     1     -17.925  -8.189  23.112  1.00  0.00     0.039 C 
HETATM    3  C4  UNL     1     -19.118  -7.297  23.069  1.00  0.00     0.023 C 
HETATM    4  C5  UNL     1     -19.046  -6.291  24.172  1.00  0.00     0.013 C 
HETATM    5  C6  UNL     1     -19.241  -6.516  21.754  1.00  0.00     0.113 C 
HETATM    6  C14 UNL     1     -19.094  -7.443  20.573  1.00  0.00     0.157 C 
HETATM    7  C15 UNL     1     -17.831  -8.235  20.703  1.00  0.00     0.067 C 
ENDROOT
BRANCH   5   8
HETATM    8  O2  UNL     1     -18.215  -5.616  21.731  1.00  0.00    -0.385 OA
ATOM      9  H2  UNL     1     -17.778  -5.718  20.894  1.00  0.00     0.210 HD
ENDBRANCH   5   8
BRANCH   5  10
HETATM   10  C7  UNL     1     -20.557  -5.832  21.801  1.00  0.00     0.313 C 
BRANCH  10  11
HETATM   11  N1  UNL     1     -20.654  -4.478  21.462  1.00  0.00     0.095 N 
HETATM   12  C8  UNL     1     -21.763  -4.319  20.530  1.00  0.00     0.273 C 
HETATM   13  C9  UNL     1     -23.116  -4.380  21.190  1.00  0.00     0.030 C 
HETATM   14  C10 UNL     1     -23.218  -3.294  22.237  1.00  0.00     0.004 C 
HETATM   15  C11 UNL     1     -22.064  -3.430  23.171  1.00  0.00     0.035 C 
HETATM   16  C12 UNL     1     -20.723  -3.479  22.457  1.00  0.00     0.219 C 
HETATM   17  C13 UNL     1     -20.514  -2.133  21.724  1.00  0.00     0.043 C 
ENDBRANCH  10  11
ENDBRANCH   5  10
BRANCH   6  18
HETATM   18  O3  UNL     1     -20.152  -8.310  20.417  1.00  0.00    -0.392 OA
ATOM     19  H3  UNL     1     -20.154  -8.761  19.580  1.00  0.00     0.210 HD
ENDBRANCH   6  18
BRANCH   1  20
HETATM   20  O1  UNL     1     -16.730  -9.882  21.979  1.00  0.00    -0.391 OA
HETATM   21  C1  UNL     1     -15.953  -9.412  23.060  1.00  0.00     0.202 C 
ENDBRANCH   1  20
TORSDOF 5
ENDMDL
MODEL 4
REMARK VINA RESULT: -4.665841895      2.492      6.286
REMARK  5 active torsions:
REMARK  status: ('A' for Active; 'I' for Inactive)
REMARK    1  A    between atoms: O1_2  and  C2_3 
REMARK    2  A    between atoms: C6_7  and  O2_8 
REMARK    3  A    between atoms: C6_7  and  C7_10 
REMARK    4  A    between atoms: C7_10  and  N1_11 
REMARK    5  A    between atoms: C14_18  and  O3_19 
ROOT
HETATM    1  C2  UNL     1     -19.505  -6.393  21.235  1.00  0.00     0.123 C 
HETATM    2  C3  UNL     1     -19.977  -7.737  21.806  1.00  0.00     0.039 C 
HETATM    3  C4  UNL     1     -18.964  -8.314  22.734  1.00  0.00     0.023 C 
HETATM    4  C5  UNL     1     -19.400  -9.670  23.190  1.00  0.00     0.013 C 
HETATM    5  C6  UNL     1     -17.580  -8.478  22.092  1.00  0.00     0.113 C 
HETATM    6  C14 UNL     1     -17.163  -7.202  21.404  1.00  0.00     0.157 C 
HETATM    7  C15 UNL     1     -18.234  -6.762  20.457  1.00  0.00     0.067 C 
ENDROOT
BRANCH   5   8
HETATM    8  O2  UNL     1     -17.694  -9.461  21.152  1.00  0.00    -0.385 OA
ATOM      9  H2  UNL     1     -17.005  -9.314  20.515  1.00  0.00     0.210 HD
ENDBRANCH   5   8
BRANCH   5  10
HETATM   10  C7  UNL     1     -16.662  -8.882  23.186  1.00  0.00     0.313 C 
BRANCH  10  11
HETATM   11  N1  UNL     1     -15.948 -10.082  23.092  1.00  0.00     0.095 N 
HETATM   12  C8  UNL     1     -14.546  -9.801  23.372  1.00  0.00     0.273 C 
HETATM   13  C9  UNL     1     -14.255  -9.596  24.836  1.00  0.00     0.030 C 
HETATM   14  C10 UNL     1     -14.654 -10.832  25.609  1.00  0.00     0.004 C 
HETATM   15  C11 UNL     1     -16.077 -11.145  25.297  1.00  0.00     0.035 C 
HETATM   16  C12 UNL     1     -16.354 -11.231  23.804  1.00  0.00     0.219 C 
HETATM   17  C13 UNL     1     -15.529 -12.404  23.225  1.00  0.00     0.043 C 
ENDBRANCH  10  11
ENDBRANCH   5  10
BRANCH   6  18
HETATM   18  O3  UNL     1     -16.884  -6.172  22.275  1.00  0.00    -0.392 OA
ATOM     19  H3  UNL     1     -17.513  -5.462  22.237  1.00  0.00     0.210 HD
ENDBRANCH   6  18
BRANCH   1  20
HETATM   20  O1  UNL     1     -20.449  -5.974  20.307  1.00  0.00    -0.391 OA
HETATM   21  C1  UNL     1     -20.567  -6.951  19.295  1.00  0.00     0.202 C 
ENDBRANCH   1  20
TORSDOF 5
ENDMDL
MODEL 5
REMARK VINA RESULT: -4.656860698      6.549      9.289
REMARK  5 active torsions:
REMARK  status: ('A' for Active; 'I' for Inactive)
REMARK    1  A    between atoms: O1_2  and  C2_3 
REMARK    2  A    between atoms: C6_7  and  O2_8 
REMARK    3  A    between atoms: C6_7  and  C7_10 
REMARK    4  A    between atoms: C7_10  and  N1_11 
REMARK    5  A    between atoms: C14_18  and  O3_19 
ROOT
HETATM    1  C2  UNL     1     -14.215 -13.225  29.666  1.00  0.00     0.123 C 
HETATM    2  C3  UNL     1     -14.889 -13.584  28.335  1.00  0.00     0.039 C 
HETATM    3  C4  UNL     1     -14.287 -12.823  27.204  1.00  0.00     0.023 C 
HETATM    4  C5  UNL     1     -15.031 -13.111  25.939  1.00  0.00     0.013 C 
HETATM    5  C6  UNL     1     -14.322 -11.304  27.412  1.00  0.00     0.113 C 
HETATM    6  C14 UNL     1     -13.791 -10.944  28.778  1.00  0.00     0.157 C 
HETATM    7  C15 UNL     1     -14.516 -11.727  29.826  1.00  0.00     0.067 C 
ENDROOT
BRANCH   5   8
HETATM    8  O2  UNL     1     -15.631 -10.925  27.342  1.00  0.00    -0.385 OA
ATOM      9  H2  UNL     1     -15.642 -10.026  27.035  1.00  0.00     0.210 HD
ENDBRANCH   5   8
BRANCH   5  10
HETATM   10  C7  UNL     1     -13.531 -10.716  26.302  1.00  0.00     0.313 C 
BRANCH  10  11
HETATM   11  N1  UNL     1     -13.984  -9.561  25.655  1.00  0.00     0.095 N 
HETATM   12  C8  UNL     1     -13.201  -8.431  26.136  1.00  0.00     0.273 C 
HETATM   13  C9  UNL     1     -11.814  -8.368  25.549  1.00  0.00     0.030 C 
HETATM   14  C10 UNL     1     -11.907  -8.274  24.043  1.00  0.00     0.004 C 
HETATM   15  C11 UNL     1     -12.740  -9.407  23.549  1.00  0.00     0.035 C 
HETATM   16  C12 UNL     1     -14.086  -9.505  24.249  1.00  0.00     0.219 C 
HETATM   17  C13 UNL     1     -14.891  -8.222  23.931  1.00  0.00     0.043 C 
ENDBRANCH  10  11
ENDBRANCH   5  10
BRANCH   6  18
HETATM   18  O3  UNL     1     -12.438 -11.157  28.916  1.00  0.00    -0.392 OA
ATOM     19  H3  UNL     1     -12.224 -11.941  29.407  1.00  0.00     0.210 HD
ENDBRANCH   6  18
BRANCH   1  20
HETATM   20  O1  UNL     1     -14.896 -13.892  30.677  1.00  0.00    -0.391 OA
HETATM   21  C1  UNL     1     -16.038 -13.143  31.036  1.00  0.00     0.202 C 
ENDBRANCH   1  20
TORSDOF 5
ENDMDL
