MODEL 1
REMARK VINA RESULT: -6.339624688      0.000      0.000
REMARK  4 active torsions:
REMARK  status: ('A' for Active; 'I' for Inactive)
REMARK    1  A    between atoms: C3_3  and  N1_4 
REMARK    2  A    between atoms: N1_4  and  C4_5 
REMARK    3  A    between atoms: C4_5  and  C5_6 
REMARK    4  A    between atoms: C6_7  and  N2_8 
REMARK       I    between atoms: N2_8  and  C7_10 
ROOT
HETATM    1  C1  UNL     1      17.768  72.614  55.958  1.00  0.00     0.013 C 
HETATM    2  C2  UNL     1      17.768  73.695  56.496  1.00  0.00    -0.089 C 
HETATM    3  C3  UNL     1      17.781  75.019  57.163  1.00  0.00     0.332 C 
ENDROOT
BRANCH   3   4
HETATM    4  N1  UNL     1      16.460  75.506  57.424  1.00  0.00    -0.031 N 
HETATM    5  C8  UNL     1      15.790  75.761  56.175  1.00  0.00     0.205 C 
HETATM    6  C9  UNL     1      14.488  76.314  56.737  1.00  0.00     0.041 C 
HETATM    7  C12 UNL     1      16.487  77.034  55.698  1.00  0.00     0.089 C 
HETATM    8  C10 UNL     1      15.171  77.514  57.419  1.00  0.00     0.027 C 
HETATM    9  C11 UNL     1      15.506  78.176  56.060  1.00  0.00     0.021 C 
HETATM   10  C14 UNL     1      16.458  76.905  57.903  1.00  0.00     0.266 C 
HETATM   11  C13 UNL     1      17.392  77.368  56.835  1.00  0.00     0.164 C 
HETATM   12  O2  UNL     1      18.463  77.829  56.943  1.00  0.00    -0.295 OA
BRANCH   4  13
HETATM   13  C4  UNL     1      15.820  74.650  58.340  1.00  0.00     0.335 C 
BRANCH  13  14
HETATM   14  C5  UNL     1      16.370  74.735  59.704  1.00  0.00    -0.055 C 
HETATM   15  C6  UNL     1      16.811  74.787  60.827  1.00  0.00     0.015 C 
BRANCH  15  16
HETATM   16  N2  UNL     1      17.308  74.828  62.134  1.00  0.00    -0.270 N 
HETATM   17  C7  UNL     1      17.566  73.664  62.897  1.00  0.00     0.340 C 
HETATM   18  N3  UNL     1      18.068  73.711  64.214  1.00  0.00    -0.039 NA
HETATM   19  O1  UNL     1      17.338  72.548  62.380  1.00  0.00    -0.250 OA
ATOM     20  H2  UNL     1      17.493  75.738  62.556  1.00  0.00     0.180 HD
ENDBRANCH  15  16
ENDBRANCH  13  14
ENDBRANCH   4  13
ENDBRANCH   3   4
TORSDOF 4
ENDMDL
MODEL 2
REMARK VINA RESULT: -6.235748588      1.557      1.910
REMARK  4 active torsions:
REMARK  status: ('A' for Active; 'I' for Inactive)
REMARK    1  A    between atoms: C3_3  and  N1_4 
REMARK    2  A    between atoms: N1_4  and  C4_5 
REMARK    3  A    between atoms: C4_5  and  C5_6 
REMARK    4  A    between atoms: C6_7  and  N2_8 
REMARK       I    between atoms: N2_8  and  C7_10 
ROOT
HETATM    1  C1  UNL     1      14.121  72.950  56.052  1.00  0.00     0.013 C 
HETATM    2  C2  UNL     1      15.136  73.400  56.528  1.00  0.00    -0.089 C 
HETATM    3  C3  UNL     1      16.387  73.937  57.115  1.00  0.00     0.332 C 
ENDROOT
BRANCH   3   4
HETATM    4  N1  UNL     1      16.243  75.298  57.539  1.00  0.00    -0.031 N 
HETATM    5  C8  UNL     1      16.014  76.134  56.389  1.00  0.00     0.205 C 
HETATM    6  C9  UNL     1      15.974  77.477  57.104  1.00  0.00     0.041 C 
HETATM    7  C12 UNL     1      17.399  76.169  55.744  1.00  0.00     0.089 C 
HETATM    8  C10 UNL     1      17.424  77.370  57.611  1.00  0.00     0.027 C 
HETATM    9  C11 UNL     1      18.000  77.527  56.182  1.00  0.00     0.021 C 
HETATM   10  C14 UNL     1      17.532  75.905  57.934  1.00  0.00     0.266 C 
HETATM   11  C13 UNL     1      18.241  75.414  56.716  1.00  0.00     0.164 C 
HETATM   12  O2  UNL     1      19.149  74.678  56.640  1.00  0.00    -0.295 OA
BRANCH   4  13
HETATM   13  C4  UNL     1      15.304  75.363  58.586  1.00  0.00     0.335 C 
BRANCH  13  14
HETATM   14  C5  UNL     1      15.763  74.715  59.827  1.00  0.00    -0.055 C 
HETATM   15  C6  UNL     1      16.120  74.187  60.852  1.00  0.00     0.015 C 
BRANCH  15  16
HETATM   16  N2  UNL     1      16.514  73.583  62.051  1.00  0.00    -0.270 N 
HETATM   17  C7  UNL     1      17.675  73.968  62.762  1.00  0.00     0.340 C 
HETATM   18  N3  UNL     1      18.068  73.357  63.971  1.00  0.00    -0.039 NA
HETATM   19  O1  UNL     1      18.382  74.890  62.298  1.00  0.00    -0.250 OA
ATOM     20  H2  UNL     1      15.939  72.830  62.429  1.00  0.00     0.180 HD
ENDBRANCH  15  16
ENDBRANCH  13  14
ENDBRANCH   4  13
ENDBRANCH   3   4
TORSDOF 4
ENDMDL
MODEL 3
REMARK VINA RESULT: -6.223140123      2.976      5.864
REMARK  4 active torsions:
REMARK  status: ('A' for Active; 'I' for Inactive)
REMARK    1  A    between atoms: C3_3  and  N1_4 
REMARK    2  A    between atoms: N1_4  and  C4_5 
REMARK    3  A    between atoms: C4_5  and  C5_6 
REMARK    4  A    between atoms: C6_7  and  N2_8 
REMARK       I    between atoms: N2_8  and  C7_10 
ROOT
HETATM    1  C1  UNL     1      18.460  77.256  57.916  1.00  0.00     0.013 C 
HETATM    2  C2  UNL     1      18.129  76.118  58.145  1.00  0.00    -0.089 C 
HETATM    3  C3  UNL     1      17.723  74.717  58.410  1.00  0.00     0.332 C 
ENDROOT
BRANCH   3   4
HETATM    4  N1  UNL     1      17.098  74.570  59.691  1.00  0.00    -0.031 N 
HETATM    5  C8  UNL     1      18.102  74.629  60.721  1.00  0.00     0.205 C 
HETATM    6  C9  UNL     1      17.197  74.382  61.919  1.00  0.00     0.041 C 
HETATM    7  C12 UNL     1      18.790  73.274  60.569  1.00  0.00     0.089 C 
HETATM    8  C10 UNL     1      16.770  72.982  61.441  1.00  0.00     0.027 C 
HETATM    9  C11 UNL     1      18.183  72.398  61.692  1.00  0.00     0.021 C 
HETATM   10  C14 UNL     1      16.671  73.179  59.953  1.00  0.00     0.266 C 
HETATM   11  C13 UNL     1      17.975  72.599  59.518  1.00  0.00     0.164 C 
HETATM   12  O2  UNL     1      18.194  71.865  58.633  1.00  0.00    -0.295 OA
BRANCH   4  13
HETATM   13  C4  UNL     1      16.016  75.465  59.788  1.00  0.00     0.335 C 
BRANCH  13  14
HETATM   14  C5  UNL     1      14.982  75.248  58.761  1.00  0.00    -0.055 C 
HETATM   15  C6  UNL     1      14.150  75.067  57.904  1.00  0.00     0.015 C 
BRANCH  15  16
HETATM   16  N2  UNL     1      13.203  74.858  56.896  1.00  0.00    -0.270 N 
HETATM   17  C7  UNL     1      11.844  74.572  57.165  1.00  0.00     0.340 C 
HETATM   18  N3  UNL     1      10.892  74.362  56.145  1.00  0.00    -0.039 NA
HETATM   19  O1  UNL     1      11.472  74.502  58.357  1.00  0.00    -0.250 OA
ATOM     20  H2  UNL     1      13.507  74.914  55.924  1.00  0.00     0.180 HD
ENDBRANCH  15  16
ENDBRANCH  13  14
ENDBRANCH   4  13
ENDBRANCH   3   4
TORSDOF 4
ENDMDL
MODEL 4
REMARK VINA RESULT: -6.213700844      3.082      4.764
REMARK  4 active torsions:
REMARK  status: ('A' for Active; 'I' for Inactive)
REMARK    1  A    between atoms: C3_3  and  N1_4 
REMARK    2  A    between atoms: N1_4  and  C4_5 
REMARK    3  A    between atoms: C4_5  and  C5_6 
REMARK    4  A    between atoms: C6_7  and  N2_8 
REMARK       I    between atoms: N2_8  and  C7_10 
ROOT
HETATM    1  C1  UNL     1      17.687  74.055  62.439  1.00  0.00     0.013 C 
HETATM    2  C2  UNL     1      17.097  74.137  61.389  1.00  0.00    -0.089 C 
HETATM    3  C3  UNL     1      16.363  74.227  60.104  1.00  0.00     0.332 C 
ENDROOT
BRANCH   3   4
HETATM    4  N1  UNL     1      17.177  74.758  59.052  1.00  0.00    -0.031 N 
HETATM    5  C8  UNL     1      17.393  76.163  59.280  1.00  0.00     0.205 C 
HETATM    6  C9  UNL     1      18.195  76.465  58.022  1.00  0.00     0.041 C 
HETATM    7  C12 UNL     1      16.029  76.754  58.926  1.00  0.00     0.089 C 
HETATM    8  C10 UNL     1      17.047  76.082  57.072  1.00  0.00     0.027 C 
HETATM    9  C11 UNL     1      16.205  77.312  57.493  1.00  0.00     0.021 C 
HETATM   10  C14 UNL     1      16.434  74.907  57.783  1.00  0.00     0.266 C 
HETATM   11  C13 UNL     1      15.267  75.569  58.438  1.00  0.00     0.164 C 
HETATM   12  O2  UNL     1      14.155  75.206  58.499  1.00  0.00    -0.295 OA
BRANCH   4  13
HETATM   13  C4  UNL     1      18.315  73.945  58.887  1.00  0.00     0.335 C 
BRANCH  13  14
HETATM   14  C5  UNL     1      18.018  72.639  58.273  1.00  0.00    -0.055 C 
HETATM   15  C6  UNL     1      17.795  71.565  57.768  1.00  0.00     0.015 C 
BRANCH  15  16
HETATM   16  N2  UNL     1      17.560  70.319  57.177  1.00  0.00    -0.270 N 
HETATM   17  C7  UNL     1      16.264  69.770  57.029  1.00  0.00     0.340 C 
HETATM   18  N3  UNL     1      16.032  68.513  56.431  1.00  0.00    -0.039 NA
HETATM   19  O1  UNL     1      15.285  70.427  57.447  1.00  0.00    -0.250 OA
ATOM     20  H2  UNL     1      18.359  69.783  56.837  1.00  0.00     0.180 HD
ENDBRANCH  15  16
ENDBRANCH  13  14
ENDBRANCH   4  13
ENDBRANCH   3   4
TORSDOF 4
ENDMDL
MODEL 5
REMARK VINA RESULT: -6.195762356      2.933      6.326
REMARK  4 active torsions:
REMARK  status: ('A' for Active; 'I' for Inactive)
REMARK    1  A    between atoms: C3_3  and  N1_4 
REMARK    2  A    between atoms: N1_4  and  C4_5 
REMARK    3  A    between atoms: C4_5  and  C5_6 
REMARK    4  A    between atoms: C6_7  and  N2_8 
REMARK       I    between atoms: N2_8  and  C7_10 
ROOT
HETATM    1  C1  UNL     1      16.415  76.841  59.023  1.00  0.00     0.013 C 
HETATM    2  C2  UNL     1      16.363  75.733  59.498  1.00  0.00    -0.089 C 
HETATM    3  C3  UNL     1      16.287  74.376  60.092  1.00  0.00     0.332 C 
ENDROOT
BRANCH   3   4
HETATM    4  N1  UNL     1      17.509  73.646  59.929  1.00  0.00    -0.031 N 
HETATM    5  C8  UNL     1      17.303  72.277  60.326  1.00  0.00     0.205 C 
HETATM    6  C9  UNL     1      18.726  71.778  60.126  1.00  0.00     0.041 C 
HETATM    7  C12 UNL     1      17.229  72.398  61.848  1.00  0.00     0.089 C 
HETATM    8  C10 UNL     1      19.320  72.728  61.181  1.00  0.00     0.027 C 
HETATM    9  C11 UNL     1      18.632  71.968  62.343  1.00  0.00     0.021 C 
HETATM   10  C14 UNL     1      18.505  73.974  60.971  1.00  0.00     0.266 C 
HETATM   11  C13 UNL     1      17.520  73.841  62.085  1.00  0.00     0.164 C 
HETATM   12  O2  UNL     1      17.154  74.653  62.845  1.00  0.00    -0.295 OA
BRANCH   4  13
HETATM   13  C4  UNL     1      18.022  73.877  58.639  1.00  0.00     0.335 C 
BRANCH  13  14
HETATM   14  C5  UNL     1      17.340  73.099  57.589  1.00  0.00    -0.055 C 
HETATM   15  C6  UNL     1      16.786  72.478  56.715  1.00  0.00     0.015 C 
BRANCH  15  16
HETATM   16  N2  UNL     1      16.146  71.776  55.688  1.00  0.00    -0.270 N 
HETATM   17  C7  UNL     1      15.357  70.624  55.919  1.00  0.00     0.340 C 
HETATM   18  N3  UNL     1      14.713  69.920  54.880  1.00  0.00    -0.039 NA
HETATM   19  O1  UNL     1      15.227  70.214  57.093  1.00  0.00    -0.250 OA
ATOM     20  H2  UNL     1      16.252  72.111  54.730  1.00  0.00     0.180 HD
ENDBRANCH  15  16
ENDBRANCH  13  14
ENDBRANCH   4  13
ENDBRANCH   3   4
TORSDOF 4
ENDMDL
