MODEL 1
REMARK VINA RESULT: -4.514036465      0.000      0.000
REMARK  4 active torsions:
REMARK  status: ('A' for Active; 'I' for Inactive)
REMARK    1  A    between atoms: C5_5  and  N1_6 
REMARK    2  A    between atoms: N1_6  and  C6_8 
REMARK    3  A    between atoms: C6_8  and  O1_10 
REMARK    4  A    between atoms: O1_10  and  C7_11 
ROOT
HETATM    1  C1  UNL     1      35.585  -1.777  10.471  1.00  0.00     0.037 C 
HETATM    2  C2  UNL     1      35.414  -1.741  11.998  1.00  0.00     0.021 C 
HETATM    3  C3  UNL     1      34.426  -2.878  12.302  1.00  0.00     0.037 C 
HETATM    4  C4  UNL     1      34.808  -0.454  12.378  1.00  0.00     0.055 C 
HETATM    5  C5  UNL     1      35.685   0.548  13.032  1.00  0.00     0.089 C 
HETATM    6  C11 UNL     1      37.123   0.168  13.121  1.00  0.00     0.055 C 
HETATM    7  C12 UNL     1      37.170  -1.279  13.598  1.00  0.00     0.021 C 
HETATM    8  C13 UNL     1      38.621  -1.698  13.846  1.00  0.00     0.037 C 
HETATM    9  C14 UNL     1      36.453  -1.413  14.913  1.00  0.00     0.037 C 
HETATM   10  N2  UNL     1      36.653  -2.091  12.565  1.00  0.00    -0.405 N 
ATOM     11  H2  UNL     1      37.164  -2.912  12.238  1.00  0.00     0.154 HD
ENDROOT
BRANCH   5  12
HETATM   12  N1  UNL     1      35.625   1.863  12.375  1.00  0.00    -0.357 N 
ATOM     13  H1  UNL     1      35.914   1.946  11.400  1.00  0.00     0.162 HD
BRANCH  12  14
HETATM   14  C6  UNL     1      35.176   3.014  13.064  1.00  0.00     0.211 C 
HETATM   15  S1  UNL     1      33.848   2.896  13.987  1.00  0.00    -0.033 SA
BRANCH  14  16
HETATM   16  O1  UNL     1      35.835   4.194  12.961  1.00  0.00    -0.317 OA
BRANCH  16  17
HETATM   17  C7  UNL     1      36.833   4.685  13.794  1.00  0.00     0.059 C 
HETATM   18  C8  UNL     1      36.236   5.528  14.922  1.00  0.00     0.045 C 
HETATM   19  C9  UNL     1      37.685   3.632  14.436  1.00  0.00     0.045 C 
HETATM   20  C10 UNL     1      37.734   5.585  12.944  1.00  0.00     0.045 C 
ENDBRANCH  16  17
ENDBRANCH  14  16
ENDBRANCH  12  14
ENDBRANCH   5  12
TORSDOF 4
ENDMDL
MODEL 2
REMARK VINA RESULT: -4.468844049      4.117      7.073
REMARK  4 active torsions:
REMARK  status: ('A' for Active; 'I' for Inactive)
REMARK    1  A    between atoms: C5_5  and  N1_6 
REMARK    2  A    between atoms: N1_6  and  C6_8 
REMARK    3  A    between atoms: C6_8  and  O1_10 
REMARK    4  A    between atoms: O1_10  and  C7_11 
ROOT
HETATM    1  C1  UNL     1      36.191  -0.350  11.088  1.00  0.00     0.037 C 
HETATM    2  C2  UNL     1      35.910  -0.345  12.599  1.00  0.00     0.021 C 
HETATM    3  C3  UNL     1      35.752   1.142  12.955  1.00  0.00     0.037 C 
HETATM    4  C4  UNL     1      37.081  -0.893  13.302  1.00  0.00     0.055 C 
HETATM    5  C5  UNL     1      36.960  -2.258  13.870  1.00  0.00     0.089 C 
HETATM    6  C11 UNL     1      35.687  -2.964  13.555  1.00  0.00     0.055 C 
HETATM    7  C12 UNL     1      34.558  -1.965  13.783  1.00  0.00     0.021 C 
HETATM    8  C13 UNL     1      33.205  -2.660  13.611  1.00  0.00     0.037 C 
HETATM    9  C14 UNL     1      34.600  -1.452  15.196  1.00  0.00     0.037 C 
HETATM   10  N2  UNL     1      34.661  -0.963  12.794  1.00  0.00    -0.405 N 
ATOM     11  H2  UNL     1      33.852  -0.693  12.234  1.00  0.00     0.154 HD
ENDROOT
BRANCH   5  12
HETATM   12  N1  UNL     1      38.059  -3.142  13.452  1.00  0.00    -0.357 N 
ATOM     13  H1  UNL     1      38.380  -3.115  12.485  1.00  0.00     0.162 HD
BRANCH  12  14
HETATM   14  C6  UNL     1      38.682  -4.028  14.362  1.00  0.00     0.211 C 
HETATM   15  S1  UNL     1      39.519  -3.403  15.604  1.00  0.00    -0.033 SA
BRANCH  14  16
HETATM   16  O1  UNL     1      38.587  -5.372  14.209  1.00  0.00    -0.317 OA
BRANCH  16  17
HETATM   17  C7  UNL     1      37.583  -6.211  14.676  1.00  0.00     0.059 C 
HETATM   18  C8  UNL     1      38.171  -7.514  15.223  1.00  0.00     0.045 C 
HETATM   19  C9  UNL     1      36.731  -5.624  15.761  1.00  0.00     0.045 C 
HETATM   20  C10 UNL     1      36.683  -6.552  13.485  1.00  0.00     0.045 C 
ENDBRANCH  16  17
ENDBRANCH  14  16
ENDBRANCH  12  14
ENDBRANCH   5  12
TORSDOF 4
ENDMDL
MODEL 3
REMARK VINA RESULT: -4.365506049      3.896      5.938
REMARK  4 active torsions:
REMARK  status: ('A' for Active; 'I' for Inactive)
REMARK    1  A    between atoms: C5_5  and  N1_6 
REMARK    2  A    between atoms: N1_6  and  C6_8 
REMARK    3  A    between atoms: C6_8  and  O1_10 
REMARK    4  A    between atoms: O1_10  and  C7_11 
ROOT
HETATM    1  C1  UNL     1      36.199  -2.904  16.663  1.00  0.00     0.037 C 
HETATM    2  C2  UNL     1      37.649  -3.392  16.513  1.00  0.00     0.021 C 
HETATM    3  C3  UNL     1      38.224  -3.334  17.937  1.00  0.00     0.037 C 
HETATM    4  C4  UNL     1      38.382  -2.448  15.653  1.00  0.00     0.055 C 
HETATM    5  C5  UNL     1      38.702  -2.888  14.272  1.00  0.00     0.089 C 
HETATM    6  C11 UNL     1      38.133  -4.208  13.881  1.00  0.00     0.055 C 
HETATM    7  C12 UNL     1      38.391  -5.164  15.040  1.00  0.00     0.021 C 
HETATM    8  C13 UNL     1      37.954  -6.579  14.655  1.00  0.00     0.037 C 
HETATM    9  C14 UNL     1      39.864  -5.233  15.334  1.00  0.00     0.037 C 
HETATM   10  N2  UNL     1      37.597  -4.745  16.131  1.00  0.00    -0.405 N 
ATOM     11  H2  UNL     1      37.001  -5.406  16.630  1.00  0.00     0.154 HD
ENDROOT
BRANCH   5  12
HETATM   12  N1  UNL     1      38.273  -1.914  13.257  1.00  0.00    -0.357 N 
ATOM     13  H1  UNL     1      38.874  -1.736  12.452  1.00  0.00     0.162 HD
BRANCH  12  14
HETATM   14  C6  UNL     1      37.046  -1.220  13.371  1.00  0.00     0.211 C 
HETATM   15  S1  UNL     1      37.051   0.395  13.211  1.00  0.00    -0.033 SA
BRANCH  14  16
HETATM   16  O1  UNL     1      35.886  -1.880  13.609  1.00  0.00    -0.317 OA
BRANCH  16  17
HETATM   17  C7  UNL     1      34.945  -2.305  12.678  1.00  0.00     0.059 C 
HETATM   18  C8  UNL     1      33.668  -1.465  12.772  1.00  0.00     0.045 C 
HETATM   19  C9  UNL     1      35.404  -2.247  11.253  1.00  0.00     0.045 C 
HETATM   20  C10 UNL     1      34.593  -3.756  13.016  1.00  0.00     0.045 C 
ENDBRANCH  16  17
ENDBRANCH  14  16
ENDBRANCH  12  14
ENDBRANCH   5  12
TORSDOF 4
ENDMDL
MODEL 4
REMARK VINA RESULT: -4.350721032      4.334      6.862
REMARK  4 active torsions:
REMARK  status: ('A' for Active; 'I' for Inactive)
REMARK    1  A    between atoms: C5_5  and  N1_6 
REMARK    2  A    between atoms: N1_6  and  C6_8 
REMARK    3  A    between atoms: C6_8  and  O1_10 
REMARK    4  A    between atoms: O1_10  and  C7_11 
ROOT
HETATM    1  C1  UNL     1      36.126  -0.985  11.217  1.00  0.00     0.037 C 
HETATM    2  C2  UNL     1      36.105  -1.024  12.754  1.00  0.00     0.021 C 
HETATM    3  C3  UNL     1      36.728   0.315  13.181  1.00  0.00     0.037 C 
HETATM    4  C4  UNL     1      36.964  -2.129  13.213  1.00  0.00     0.055 C 
HETATM    5  C5  UNL     1      36.292  -3.338  13.750  1.00  0.00     0.089 C 
HETATM    6  C11 UNL     1      34.805  -3.333  13.650  1.00  0.00     0.055 C 
HETATM    7  C12 UNL     1      34.335  -1.959  14.113  1.00  0.00     0.021 C 
HETATM    8  C13 UNL     1      32.806  -1.924  14.168  1.00  0.00     0.037 C 
HETATM    9  C14 UNL     1      34.822  -1.689  15.510  1.00  0.00     0.037 C 
HETATM   10  N2  UNL     1      34.757  -1.012  13.154  1.00  0.00    -0.405 N 
ATOM     11  H2  UNL     1      34.101  -0.336  12.761  1.00  0.00     0.154 HD
ENDROOT
BRANCH   5  12
HETATM   12  N1  UNL     1      36.764  -4.576  13.110  1.00  0.00    -0.357 N 
ATOM     13  H1  UNL     1      36.487  -4.776  12.149  1.00  0.00     0.162 HD
BRANCH  12  14
HETATM   14  C6  UNL     1      37.593  -5.494  13.797  1.00  0.00     0.211 C 
HETATM   15  S1  UNL     1      37.004  -6.966  14.137  1.00  0.00    -0.033 SA
BRANCH  14  16
HETATM   16  O1  UNL     1      38.853  -5.159  14.167  1.00  0.00    -0.317 OA
BRANCH  16  17
HETATM   17  C7  UNL     1      39.292  -4.770  15.427  1.00  0.00     0.059 C 
HETATM   18  C8  UNL     1      39.724  -3.301  15.424  1.00  0.00     0.045 C 
HETATM   19  C9  UNL     1      38.278  -4.927  16.520  1.00  0.00     0.045 C 
HETATM   20  C10 UNL     1      40.511  -5.629  15.770  1.00  0.00     0.045 C 
ENDBRANCH  16  17
ENDBRANCH  14  16
ENDBRANCH  12  14
ENDBRANCH   5  12
TORSDOF 4
ENDMDL
MODEL 5
REMARK VINA RESULT: -4.349504025      4.353      6.002
REMARK  4 active torsions:
REMARK  status: ('A' for Active; 'I' for Inactive)
REMARK    1  A    between atoms: C5_5  and  N1_6 
REMARK    2  A    between atoms: N1_6  and  C6_8 
REMARK    3  A    between atoms: C6_8  and  O1_10 
REMARK    4  A    between atoms: O1_10  and  C7_11 
ROOT
HETATM    1  C1  UNL     1      35.868  -6.638  11.622  1.00  0.00     0.037 C 
HETATM    2  C2  UNL     1      35.626  -6.413  13.124  1.00  0.00     0.021 C 
HETATM    3  C3  UNL     1      34.099  -6.492  13.283  1.00  0.00     0.037 C 
HETATM    4  C4  UNL     1      36.084  -5.060  13.481  1.00  0.00     0.055 C 
HETATM    5  C5  UNL     1      37.343  -4.948  14.257  1.00  0.00     0.089 C 
HETATM    6  C11 UNL     1      38.063  -6.232  14.484  1.00  0.00     0.055 C 
HETATM    7  C12 UNL     1      37.019  -7.256  14.914  1.00  0.00     0.021 C 
HETATM    8  C13 UNL     1      37.705  -8.569  15.298  1.00  0.00     0.037 C 
HETATM    9  C14 UNL     1      36.297  -6.773  16.141  1.00  0.00     0.037 C 
HETATM   10  N2  UNL     1      36.181  -7.511  13.805  1.00  0.00    -0.405 N 
ATOM     11  H2  UNL     1      35.984  -8.466  13.506  1.00  0.00     0.154 HD
ENDROOT
BRANCH   5  12
HETATM   12  N1  UNL     1      38.303  -4.017  13.642  1.00  0.00    -0.357 N 
ATOM     13  H1  UNL     1      38.863  -4.331  12.850  1.00  0.00     0.162 HD
BRANCH  12  14
HETATM   14  C6  UNL     1      38.466  -2.698  14.126  1.00  0.00     0.211 C 
HETATM   15  S1  UNL     1      39.101  -2.486  15.603  1.00  0.00    -0.033 SA
BRANCH  14  16
HETATM   16  O1  UNL     1      38.102  -1.628  13.378  1.00  0.00    -0.317 OA
BRANCH  16  17
HETATM   17  C7  UNL     1      36.831  -1.083  13.237  1.00  0.00     0.059 C 
HETATM   18  C8  UNL     1      36.185  -1.538  11.927  1.00  0.00     0.045 C 
HETATM   19  C9  UNL     1      35.877  -1.427  14.341  1.00  0.00     0.045 C 
HETATM   20  C10 UNL     1      36.991   0.439  13.192  1.00  0.00     0.045 C 
ENDBRANCH  16  17
ENDBRANCH  14  16
ENDBRANCH  12  14
ENDBRANCH   5  12
TORSDOF 4
ENDMDL
