MODEL 1
REMARK VINA RESULT: -7.592189376      0.000      0.000
REMARK  6 active torsions:
REMARK  status: ('A' for Active; 'I' for Inactive)
REMARK    1  A    between atoms: N1_2  and  C2_4 
REMARK    2  A    between atoms: C2_4  and  N2_6 
REMARK       I    between atoms: C3_8  and  N3_9 
REMARK       I    between atoms: C3_8  and  N6_14 
REMARK       I    between atoms: N6_14  and  C5_16 
REMARK    3  A    between atoms: C5_16  and  C6_18 
REMARK    4  A    between atoms: C6_18  and  N7_19 
REMARK    5  A    between atoms: C6_18  and  C7_23 
REMARK    6  A    between atoms: C7_23  and  C8_24 
ROOT
HETATM    1  N2  UNL     1      41.039  -6.362  60.864  1.00  0.00    -0.166 N 
ATOM      2  H2  UNL     1      40.831  -6.286  61.861  1.00  0.00     0.186 HD
HETATM    3  C3  UNL     1      41.472  -5.317  60.296  1.00  0.00     0.689 C 
HETATM    4  N3  UNL     1      41.629  -4.143  61.084  1.00  0.00    -0.165 N 
ATOM      5  H3  UNL     1      40.995  -3.359  60.926  1.00  0.00     0.186 HD
HETATM    6  C4  UNL     1      42.538  -4.030  61.989  1.00  0.00     0.215 C 
HETATM    7  N4  UNL     1      42.608  -2.812  62.722  1.00  0.00    -0.066 NA
HETATM    8  N5  UNL     1      43.471  -5.045  62.300  1.00  0.00    -0.066 NA
HETATM    9  N6  UNL     1      41.787  -5.342  58.903  1.00  0.00    -0.158 N 
ATOM     10  H6  UNL     1      41.658  -6.209  58.382  1.00  0.00     0.187 HD
HETATM   11  C5  UNL     1      42.273  -4.199  58.225  1.00  0.00     0.267 C 
HETATM   12  O1  UNL     1      42.438  -3.144  58.882  1.00  0.00    -0.270 OA
ENDROOT
BRANCH   1  13
HETATM   13  C2  UNL     1      40.815  -7.614  60.271  1.00  0.00     0.186 C 
HETATM   14  S1  UNL     1      39.360  -8.116  59.732  1.00  0.00    -0.040 SA
BRANCH  13  15
HETATM   15  N1  UNL     1      41.907  -8.510  60.124  1.00  0.00    -0.371 N 
HETATM   16  C1  UNL     1      43.080  -8.474  60.993  1.00  0.00     0.148 C 
ATOM     17  H1  UNL     1      41.870  -9.207  59.380  1.00  0.00     0.161 HD
ENDBRANCH  13  15
ENDBRANCH   1  13
BRANCH  11  18
HETATM   18  C6  UNL     1      42.574  -4.285  56.783  1.00  0.00     0.283 C 
BRANCH  18  19
HETATM   19  N7  UNL     1      43.490  -5.480  56.707  1.00  0.00    -0.066 N 
ATOM     20  H73 UNL     1      43.398  -6.139  57.479  1.00  0.00     0.275 HD
ATOM     21  H72 UNL     1      43.257  -6.150  55.974  1.00  0.00     0.275 HD
ATOM     22  H71 UNL     1      44.411  -5.051  56.618  1.00  0.00     0.275 HD
ENDBRANCH  18  19
BRANCH  18  23
HETATM   23  C7  UNL     1      43.421  -3.179  56.240  1.00  0.00     0.142 C 
BRANCH  23  24
HETATM   24  C8  UNL     1      44.830  -3.142  56.628  1.00  0.00     0.233 C 
HETATM   25  N8  UNL     1      45.556  -1.918  56.327  1.00  0.00    -0.062 NA
HETATM   26  O2  UNL     1      45.451  -4.054  57.183  1.00  0.00    -0.277 OA
ENDBRANCH  23  24
ENDBRANCH  18  23
ENDBRANCH  11  18
TORSDOF 6
ENDMDL
MODEL 2
REMARK VINA RESULT: -7.184463340      1.499      1.581
REMARK  6 active torsions:
REMARK  status: ('A' for Active; 'I' for Inactive)
REMARK    1  A    between atoms: N1_2  and  C2_4 
REMARK    2  A    between atoms: C2_4  and  N2_6 
REMARK       I    between atoms: C3_8  and  N3_9 
REMARK       I    between atoms: C3_8  and  N6_14 
REMARK       I    between atoms: N6_14  and  C5_16 
REMARK    3  A    between atoms: C5_16  and  C6_18 
REMARK    4  A    between atoms: C6_18  and  N7_19 
REMARK    5  A    between atoms: C6_18  and  C7_23 
REMARK    6  A    between atoms: C7_23  and  C8_24 
ROOT
HETATM    1  N2  UNL     1      41.987  -5.413  60.894  1.00  0.00    -0.166 N 
ATOM      2  H2  UNL     1      41.875  -5.120  61.865  1.00  0.00     0.186 HD
HETATM    3  C3  UNL     1      42.229  -4.498  60.052  1.00  0.00     0.689 C 
HETATM    4  N3  UNL     1      42.323  -3.160  60.526  1.00  0.00    -0.165 N 
ATOM      5  H3  UNL     1      41.586  -2.500  60.277  1.00  0.00     0.186 HD
HETATM    6  C4  UNL     1      43.300  -2.749  61.258  1.00  0.00     0.215 C 
HETATM    7  N4  UNL     1      43.297  -1.390  61.680  1.00  0.00    -0.066 NA
HETATM    8  N5  UNL     1      44.376  -3.567  61.668  1.00  0.00    -0.066 NA
HETATM    9  N6  UNL     1      42.400  -4.826  58.672  1.00  0.00    -0.158 N 
ATOM     10  H6  UNL     1      42.323  -5.802  58.383  1.00  0.00     0.187 HD
HETATM   11  C5  UNL     1      42.671  -3.839  57.696  1.00  0.00     0.267 C 
HETATM   12  O1  UNL     1      42.773  -2.647  58.069  1.00  0.00    -0.270 OA
ENDROOT
BRANCH   1  13
HETATM   13  C2  UNL     1      41.857  -6.786  60.634  1.00  0.00     0.186 C 
HETATM   14  S1  UNL     1      43.087  -7.850  60.743  1.00  0.00    -0.040 SA
BRANCH  13  15
HETATM   15  N1  UNL     1      40.587  -7.296  60.254  1.00  0.00    -0.371 N 
HETATM   16  C1  UNL     1      40.214  -8.696  60.431  1.00  0.00     0.148 C 
ATOM     17  H1  UNL     1      39.908  -6.657  59.840  1.00  0.00     0.161 HD
ENDBRANCH  13  15
ENDBRANCH   1  13
BRANCH  11  18
HETATM   18  C6  UNL     1      42.830  -4.239  56.285  1.00  0.00     0.283 C 
BRANCH  18  19
HETATM   19  N7  UNL     1      43.195  -5.698  56.394  1.00  0.00    -0.066 N 
ATOM     20  H73 UNL     1      43.661  -5.959  57.263  1.00  0.00     0.275 HD
ATOM     21  H72 UNL     1      42.403  -6.329  56.510  1.00  0.00     0.275 HD
ATOM     22  H71 UNL     1      43.746  -5.854  55.550  1.00  0.00     0.275 HD
ENDBRANCH  18  19
BRANCH  18  23
HETATM   23  C7  UNL     1      44.010  -3.650  55.583  1.00  0.00     0.142 C 
BRANCH  23  24
HETATM   24  C8  UNL     1      45.170  -3.275  56.389  1.00  0.00     0.233 C 
HETATM   25  N8  UNL     1      45.537  -1.868  56.388  1.00  0.00    -0.062 NA
HETATM   26  O2  UNL     1      45.860  -4.045  57.065  1.00  0.00    -0.277 OA
ENDBRANCH  23  24
ENDBRANCH  18  23
ENDBRANCH  11  18
TORSDOF 6
ENDMDL
MODEL 3
REMARK VINA RESULT: -6.942115164      1.480      1.633
REMARK  6 active torsions:
REMARK  status: ('A' for Active; 'I' for Inactive)
REMARK    1  A    between atoms: N1_2  and  C2_4 
REMARK    2  A    between atoms: C2_4  and  N2_6 
REMARK       I    between atoms: C3_8  and  N3_9 
REMARK       I    between atoms: C3_8  and  N6_14 
REMARK       I    between atoms: N6_14  and  C5_16 
REMARK    3  A    between atoms: C5_16  and  C6_18 
REMARK    4  A    between atoms: C6_18  and  N7_19 
REMARK    5  A    between atoms: C6_18  and  C7_23 
REMARK    6  A    between atoms: C7_23  and  C8_24 
ROOT
HETATM    1  N2  UNL     1      41.269  -6.030  60.909  1.00  0.00    -0.166 N 
ATOM      2  H2  UNL     1      40.983  -6.209  61.872  1.00  0.00     0.186 HD
HETATM    3  C3  UNL     1      41.660  -4.855  60.644  1.00  0.00     0.689 C 
HETATM    4  N3  UNL     1      41.667  -3.899  61.698  1.00  0.00    -0.165 N 
ATOM      5  H3  UNL     1      40.988  -3.139  61.673  1.00  0.00     0.186 HD
HETATM    6  C4  UNL     1      42.496  -3.956  62.682  1.00  0.00     0.215 C 
HETATM    7  N4  UNL     1      42.418  -2.949  63.685  1.00  0.00    -0.066 NA
HETATM    8  N5  UNL     1      43.479  -4.960  62.828  1.00  0.00    -0.066 NA
HETATM    9  N6  UNL     1      42.078  -4.525  59.319  1.00  0.00    -0.158 N 
ATOM     10  H6  UNL     1      42.055  -5.247  58.599  1.00  0.00     0.187 HD
HETATM   11  C5  UNL     1      42.522  -3.226  58.976  1.00  0.00     0.267 C 
HETATM   12  O1  UNL     1      42.556  -2.354  59.875  1.00  0.00    -0.270 OA
ENDROOT
BRANCH   1  13
HETATM   13  C2  UNL     1      41.187  -7.113  60.020  1.00  0.00     0.186 C 
HETATM   14  S1  UNL     1      42.486  -7.892  59.417  1.00  0.00    -0.040 SA
BRANCH  13  15
HETATM   15  N1  UNL     1      39.907  -7.571  59.611  1.00  0.00    -0.371 N 
HETATM   16  C1  UNL     1      39.364  -8.863  60.018  1.00  0.00     0.148 C 
ATOM     17  H1  UNL     1      39.344  -6.971  59.007  1.00  0.00     0.161 HD
ENDBRANCH  13  15
ENDBRANCH   1  13
BRANCH  11  18
HETATM   18  C6  UNL     1      42.934  -2.944  57.588  1.00  0.00     0.283 C 
BRANCH  18  19
HETATM   19  N7  UNL     1      41.687  -3.260  56.802  1.00  0.00    -0.066 N 
ATOM     20  H73 UNL     1      41.106  -2.452  56.576  1.00  0.00     0.275 HD
ATOM     21  H72 UNL     1      41.850  -3.540  55.835  1.00  0.00     0.275 HD
ATOM     22  H71 UNL     1      41.231  -3.966  57.380  1.00  0.00     0.275 HD
ENDBRANCH  18  19
BRANCH  18  23
HETATM   23  C7  UNL     1      43.939  -3.889  57.014  1.00  0.00     0.142 C 
BRANCH  23  24
HETATM   24  C8  UNL     1      45.266  -3.367  56.692  1.00  0.00     0.233 C 
HETATM   25  N8  UNL     1      45.330  -1.987  56.237  1.00  0.00    -0.062 NA
HETATM   26  O2  UNL     1      46.328  -3.992  56.773  1.00  0.00    -0.277 OA
ENDBRANCH  23  24
ENDBRANCH  18  23
ENDBRANCH  11  18
TORSDOF 6
ENDMDL
MODEL 4
REMARK VINA RESULT: -6.864527170      0.990      1.358
REMARK  6 active torsions:
REMARK  status: ('A' for Active; 'I' for Inactive)
REMARK    1  A    between atoms: N1_2  and  C2_4 
REMARK    2  A    between atoms: C2_4  and  N2_6 
REMARK       I    between atoms: C3_8  and  N3_9 
REMARK       I    between atoms: C3_8  and  N6_14 
REMARK       I    between atoms: N6_14  and  C5_16 
REMARK    3  A    between atoms: C5_16  and  C6_18 
REMARK    4  A    between atoms: C6_18  and  N7_19 
REMARK    5  A    between atoms: C6_18  and  C7_23 
REMARK    6  A    between atoms: C7_23  and  C8_24 
ROOT
HETATM    1  N2  UNL     1      41.107  -6.396  61.056  1.00  0.00    -0.166 N 
ATOM      2  H2  UNL     1      40.935  -6.308  62.058  1.00  0.00     0.186 HD
HETATM    3  C3  UNL     1      41.488  -5.349  60.453  1.00  0.00     0.689 C 
HETATM    4  N3  UNL     1      41.639  -4.157  61.215  1.00  0.00    -0.165 N 
ATOM      5  H3  UNL     1      40.977  -3.395  61.068  1.00  0.00     0.186 HD
HETATM    6  C4  UNL     1      42.578  -4.002  62.083  1.00  0.00     0.215 C 
HETATM    7  N4  UNL     1      42.640  -2.770  62.792  1.00  0.00    -0.066 NA
HETATM    8  N5  UNL     1      43.552  -4.983  62.375  1.00  0.00    -0.066 NA
HETATM    9  N6  UNL     1      41.751  -5.390  59.050  1.00  0.00    -0.158 N 
ATOM     10  H6  UNL     1      41.628  -6.270  58.549  1.00  0.00     0.187 HD
HETATM   11  C5  UNL     1      42.177  -4.246  58.335  1.00  0.00     0.267 C 
HETATM   12  O1  UNL     1      42.335  -3.176  58.967  1.00  0.00    -0.270 OA
ENDROOT
BRANCH   1  13
HETATM   13  C2  UNL     1      40.898  -7.665  60.493  1.00  0.00     0.186 C 
HETATM   14  S1  UNL     1      41.661  -9.017  60.994  1.00  0.00    -0.040 SA
BRANCH  13  15
HETATM   15  N1  UNL     1      39.973  -7.799  59.425  1.00  0.00    -0.371 N 
HETATM   16  C1  UNL     1      38.587  -8.210  59.628  1.00  0.00     0.148 C 
ATOM     17  H1  UNL     1      40.290  -7.599  58.476  1.00  0.00     0.161 HD
ENDBRANCH  13  15
ENDBRANCH   1  13
BRANCH  11  18
HETATM   18  C6  UNL     1      42.426  -4.349  56.884  1.00  0.00     0.283 C 
BRANCH  18  19
HETATM   19  N7  UNL     1      43.292  -5.579  56.784  1.00  0.00    -0.066 N 
ATOM     20  H73 UNL     1      43.131  -6.277  57.510  1.00  0.00     0.275 HD
ATOM     21  H72 UNL     1      43.070  -6.195  56.001  1.00  0.00     0.275 HD
ATOM     22  H71 UNL     1      44.234  -5.189  56.767  1.00  0.00     0.275 HD
ENDBRANCH  18  19
BRANCH  18  23
HETATM   23  C7  UNL     1      43.296  -3.280  56.308  1.00  0.00     0.142 C 
BRANCH  23  24
HETATM   24  C8  UNL     1      44.706  -3.261  56.693  1.00  0.00     0.233 C 
HETATM   25  N8  UNL     1      45.462  -2.069  56.342  1.00  0.00    -0.062 NA
HETATM   26  O2  UNL     1      45.305  -4.164  57.287  1.00  0.00    -0.277 OA
ENDBRANCH  23  24
ENDBRANCH  18  23
ENDBRANCH  11  18
TORSDOF 6
ENDMDL
MODEL 5
REMARK VINA RESULT: -6.844622035      2.082      4.870
REMARK  6 active torsions:
REMARK  status: ('A' for Active; 'I' for Inactive)
REMARK    1  A    between atoms: N1_2  and  C2_4 
REMARK    2  A    between atoms: C2_4  and  N2_6 
REMARK       I    between atoms: C3_8  and  N3_9 
REMARK       I    between atoms: C3_8  and  N6_14 
REMARK       I    between atoms: N6_14  and  C5_16 
REMARK    3  A    between atoms: C5_16  and  C6_18 
REMARK    4  A    between atoms: C6_18  and  N7_19 
REMARK    5  A    between atoms: C6_18  and  C7_23 
REMARK    6  A    between atoms: C7_23  and  C8_24 
ROOT
HETATM    1  N2  UNL     1      43.292  -6.645  58.555  1.00  0.00    -0.166 N 
ATOM      2  H2  UNL     1      43.781  -7.157  57.820  1.00  0.00     0.186 HD
HETATM    3  C3  UNL     1      43.423  -5.385  58.548  1.00  0.00     0.689 C 
HETATM    4  N3  UNL     1      44.229  -4.802  57.531  1.00  0.00    -0.165 N 
ATOM      5  H3  UNL     1      45.125  -4.390  57.793  1.00  0.00     0.186 HD
HETATM    6  C4  UNL     1      43.873  -4.774  56.294  1.00  0.00     0.215 C 
HETATM    7  N4  UNL     1      44.754  -4.166  55.355  1.00  0.00    -0.066 NA
HETATM    8  N5  UNL     1      42.659  -5.311  55.810  1.00  0.00    -0.066 NA
HETATM    9  N6  UNL     1      42.771  -4.595  59.544  1.00  0.00    -0.158 N 
ATOM     10  H6  UNL     1      42.204  -5.062  60.252  1.00  0.00     0.187 HD
HETATM   11  C5  UNL     1      42.889  -3.186  59.577  1.00  0.00     0.267 C 
HETATM   12  O1  UNL     1      43.580  -2.627  58.694  1.00  0.00    -0.270 OA
ENDROOT
BRANCH   1  13
HETATM   13  C2  UNL     1      42.547  -7.411  59.464  1.00  0.00     0.186 C 
HETATM   14  S1  UNL     1      43.160  -8.038  60.839  1.00  0.00    -0.040 SA
BRANCH  13  15
HETATM   15  N1  UNL     1      41.177  -7.665  59.188  1.00  0.00    -0.371 N 
HETATM   16  C1  UNL     1      40.213  -8.008  60.230  1.00  0.00     0.148 C 
ATOM     17  H1  UNL     1      40.854  -7.605  58.223  1.00  0.00     0.161 HD
ENDBRANCH  13  15
ENDBRANCH   1  13
BRANCH  11  18
HETATM   18  C6  UNL     1      42.197  -2.425  60.635  1.00  0.00     0.283 C 
BRANCH  18  19
HETATM   19  N7  UNL     1      43.333  -1.720  61.332  1.00  0.00    -0.066 N 
ATOM     20  H73 UNL     1      43.526  -0.778  60.990  1.00  0.00     0.275 HD
ATOM     21  H72 UNL     1      43.137  -1.440  62.293  1.00  0.00     0.275 HD
ATOM     22  H71 UNL     1      44.104  -2.379  61.227  1.00  0.00     0.275 HD
ENDBRANCH  18  19
BRANCH  18  23
HETATM   23  C7  UNL     1      41.596  -3.250  61.726  1.00  0.00     0.142 C 
BRANCH  23  24
HETATM   24  C8  UNL     1      42.473  -3.703  62.805  1.00  0.00     0.233 C 
HETATM   25  N8  UNL     1      43.335  -4.837  62.511  1.00  0.00    -0.062 NA
HETATM   26  O2  UNL     1      42.543  -3.209  63.935  1.00  0.00    -0.277 OA
ENDBRANCH  23  24
ENDBRANCH  18  23
ENDBRANCH  11  18
TORSDOF 6
ENDMDL
