MODEL 1
REMARK VINA RESULT: -8.125277445      0.000      0.000
REMARK  5 active torsions:
REMARK  status: ('A' for Active; 'I' for Inactive)
REMARK    1  A    between atoms: C2_2  and  N1_3 
REMARK       I    between atoms: C3_5  and  N3_7 
REMARK       I    between atoms: N3_7  and  C4_9 
REMARK       I    between atoms: C4_9  and  N7_17 
REMARK    2  A    between atoms: N4_10  and  N5_12 
REMARK    3  A    between atoms: N5_12  and  C5_14 
REMARK    4  A    between atoms: N7_17  and  S2_19 
REMARK    5  A    between atoms: S2_19  and  N8_20 
ROOT
HETATM    1  N1  UNL     1      41.680  -8.775  60.207  1.00  0.00    -0.364 N 
ATOM      2  H1  UNL     1      42.534  -9.330  60.260  1.00  0.00     0.162 HD
HETATM    3  C3  UNL     1      41.718  -7.602  59.722  1.00  0.00     0.202 C 
HETATM    4  N2  UNL     1      40.551  -6.826  59.643  1.00  0.00    -0.063 NA
HETATM    5  N3  UNL     1      42.933  -7.067  59.258  1.00  0.00    -0.162 N 
ATOM      6  H3  UNL     1      43.645  -7.684  58.867  1.00  0.00     0.187 HD
HETATM    7  C4  UNL     1      43.166  -5.676  59.333  1.00  0.00     0.710 C 
HETATM    8  N4  UNL     1      43.930  -5.198  60.226  1.00  0.00    -0.129 N 
ATOM      9  H4  UNL     1      44.357  -5.861  60.873  1.00  0.00     0.205 HD
HETATM   10  N7  UNL     1      42.527  -4.828  58.388  1.00  0.00    -0.098 N 
ATOM     11  H7  UNL     1      41.652  -4.370  58.646  1.00  0.00     0.199 HD
ENDROOT
BRANCH   8  12
HETATM   12  N5  UNL     1      44.235  -3.864  60.401  1.00  0.00    -0.264 N 
ATOM     13  H5  UNL     1      45.126  -3.510  60.055  1.00  0.00     0.189 HD
BRANCH  12  14
HETATM   14  C5  UNL     1      43.339  -2.966  61.051  1.00  0.00     0.200 C 
HETATM   15  N6  UNL     1      43.229  -1.633  60.543  1.00  0.00    -0.068 NA
HETATM   16  S1  UNL     1      42.448  -3.401  62.334  1.00  0.00    -0.043 SA
ENDBRANCH  12  14
ENDBRANCH   8  12
BRANCH  10  17
HETATM   17  S2  UNL     1      43.189  -4.548  56.811  1.00  0.00     0.330 S 
HETATM   18  O1  UNL     1      42.782  -3.229  56.265  1.00  0.00    -0.182 OA
HETATM   19  O2  UNL     1      42.762  -5.652  55.897  1.00  0.00    -0.182 OA
BRANCH  17  20
HETATM   20  N8  UNL     1      44.925  -4.542  56.983  1.00  0.00    -0.311 N 
ATOM     21  H82 UNL     1      45.445  -4.869  57.798  1.00  0.00     0.170 HD
ATOM     22  H81 UNL     1      45.309  -4.155  56.121  1.00  0.00     0.170 HD
ENDBRANCH  17  20
ENDBRANCH  10  17
BRANCH   1  23
HETATM   23  C2  UNL     1      40.430  -9.330  60.688  1.00  0.00     0.118 C 
HETATM   24  C1  UNL     1      40.718  -9.909  62.072  1.00  0.00     0.026 C 
ENDBRANCH   1  23
TORSDOF 5
ENDMDL
MODEL 2
REMARK VINA RESULT: -8.026336976      0.918      1.099
REMARK  5 active torsions:
REMARK  status: ('A' for Active; 'I' for Inactive)
REMARK    1  A    between atoms: C2_2  and  N1_3 
REMARK       I    between atoms: C3_5  and  N3_7 
REMARK       I    between atoms: N3_7  and  C4_9 
REMARK       I    between atoms: C4_9  and  N7_17 
REMARK    2  A    between atoms: N4_10  and  N5_12 
REMARK    3  A    between atoms: N5_12  and  C5_14 
REMARK    4  A    between atoms: N7_17  and  S2_19 
REMARK    5  A    between atoms: S2_19  and  N8_20 
ROOT
HETATM    1  N1  UNL     1      41.767  -8.658  60.184  1.00  0.00    -0.364 N 
ATOM      2  H1  UNL     1      42.609  -9.216  60.327  1.00  0.00     0.162 HD
HETATM    3  C3  UNL     1      41.858  -7.491  59.690  1.00  0.00     0.202 C 
HETATM    4  N2  UNL     1      40.708  -6.713  59.487  1.00  0.00    -0.063 NA
HETATM    5  N3  UNL     1      43.115  -6.968  59.340  1.00  0.00    -0.162 N 
ATOM      6  H3  UNL     1      43.860  -7.592  59.029  1.00  0.00     0.187 HD
HETATM    7  C4  UNL     1      43.346  -5.576  59.420  1.00  0.00     0.710 C 
HETATM    8  N4  UNL     1      44.021  -5.089  60.378  1.00  0.00    -0.129 N 
ATOM      9  H4  UNL     1      44.380  -5.745  61.072  1.00  0.00     0.205 HD
HETATM   10  N7  UNL     1      42.807  -4.738  58.406  1.00  0.00    -0.098 N 
ATOM     11  H7  UNL     1      41.914  -4.274  58.571  1.00  0.00     0.199 HD
ENDROOT
BRANCH   8  12
HETATM   12  N5  UNL     1      44.314  -3.754  60.564  1.00  0.00    -0.264 N 
ATOM     13  H5  UNL     1      45.221  -3.398  60.262  1.00  0.00     0.189 HD
BRANCH  12  14
HETATM   14  C5  UNL     1      43.385  -2.857  61.167  1.00  0.00     0.200 C 
HETATM   15  N6  UNL     1      43.351  -1.504  60.702  1.00  0.00    -0.068 NA
HETATM   16  S1  UNL     1      42.375  -3.314  62.350  1.00  0.00    -0.043 SA
ENDBRANCH  12  14
ENDBRANCH   8  12
BRANCH  10  17
HETATM   17  S2  UNL     1      43.623  -4.482  56.899  1.00  0.00     0.330 S 
HETATM   18  O1  UNL     1      45.099  -4.477  57.060  1.00  0.00    -0.182 OA
HETATM   19  O2  UNL     1      43.153  -3.195  56.299  1.00  0.00    -0.182 OA
BRANCH  17  20
HETATM   20  N8  UNL     1      43.204  -5.821  55.861  1.00  0.00    -0.311 N 
ATOM     21  H82 UNL     1      43.785  -6.201  55.114  1.00  0.00     0.170 HD
ATOM     22  H81 UNL     1      42.278  -6.141  56.146  1.00  0.00     0.170 HD
ENDBRANCH  17  20
ENDBRANCH  10  17
BRANCH   1  23
HETATM   23  C2  UNL     1      40.473  -9.203  60.547  1.00  0.00     0.118 C 
HETATM   24  C1  UNL     1      40.652  -9.872  61.908  1.00  0.00     0.026 C 
ENDBRANCH   1  23
TORSDOF 5
ENDMDL
MODEL 3
REMARK VINA RESULT: -7.538128373      2.572      3.930
REMARK  5 active torsions:
REMARK  status: ('A' for Active; 'I' for Inactive)
REMARK    1  A    between atoms: C2_2  and  N1_3 
REMARK       I    between atoms: C3_5  and  N3_7 
REMARK       I    between atoms: N3_7  and  C4_9 
REMARK       I    between atoms: C4_9  and  N7_17 
REMARK    2  A    between atoms: N4_10  and  N5_12 
REMARK    3  A    between atoms: N5_12  and  C5_14 
REMARK    4  A    between atoms: N7_17  and  S2_19 
REMARK    5  A    between atoms: S2_19  and  N8_20 
ROOT
HETATM    1  N1  UNL     1      40.438  -8.072  60.566  1.00  0.00    -0.364 N 
ATOM      2  H1  UNL     1      39.471  -7.748  60.591  1.00  0.00     0.162 HD
HETATM    3  C3  UNL     1      41.382  -7.232  60.434  1.00  0.00     0.202 C 
HETATM    4  N2  UNL     1      42.717  -7.662  60.397  1.00  0.00    -0.063 NA
HETATM    5  N3  UNL     1      41.097  -5.859  60.322  1.00  0.00    -0.162 N 
ATOM      6  H3  UNL     1      40.278  -5.469  60.788  1.00  0.00     0.187 HD
HETATM    7  C4  UNL     1      41.946  -5.022  59.564  1.00  0.00     0.710 C 
HETATM    8  N4  UNL     1      41.599  -4.628  58.410  1.00  0.00    -0.129 N 
ATOM      9  H4  UNL     1      40.692  -4.943  58.066  1.00  0.00     0.205 HD
HETATM   10  N7  UNL     1      43.193  -4.633  60.125  1.00  0.00    -0.098 N 
ATOM     11  H7  UNL     1      44.031  -5.162  59.882  1.00  0.00     0.199 HD
ENDROOT
BRANCH   8  12
HETATM   12  N5  UNL     1      42.338  -3.812  57.578  1.00  0.00    -0.264 N 
ATOM     13  H5  UNL     1      42.239  -2.800  57.661  1.00  0.00     0.189 HD
BRANCH  12  14
HETATM   14  C5  UNL     1      43.234  -4.343  56.605  1.00  0.00     0.200 C 
HETATM   15  N6  UNL     1      42.749  -5.356  55.719  1.00  0.00    -0.068 NA
HETATM   16  S1  UNL     1      44.770  -3.841  56.471  1.00  0.00    -0.043 SA
ENDBRANCH  12  14
ENDBRANCH   8  12
BRANCH  10  17
HETATM   17  S2  UNL     1      43.333  -3.288  61.208  1.00  0.00     0.330 S 
HETATM   18  O1  UNL     1      44.668  -3.235  61.857  1.00  0.00    -0.182 OA
HETATM   19  O2  UNL     1      42.250  -3.372  62.236  1.00  0.00    -0.182 OA
BRANCH  17  20
HETATM   20  N8  UNL     1      43.146  -1.842  60.250  1.00  0.00    -0.311 N 
ATOM     21  H82 UNL     1      43.346  -1.758  59.253  1.00  0.00     0.170 HD
ATOM     22  H81 UNL     1      42.804  -1.113  60.875  1.00  0.00     0.170 HD
ENDBRANCH  17  20
ENDBRANCH  10  17
BRANCH   1  23
HETATM   23  C2  UNL     1      40.726  -9.487  60.681  1.00  0.00     0.118 C 
HETATM   24  C1  UNL     1      40.606  -9.834  62.164  1.00  0.00     0.026 C 
ENDBRANCH   1  23
TORSDOF 5
ENDMDL
MODEL 4
REMARK VINA RESULT: -7.443577247      0.926      1.123
REMARK  5 active torsions:
REMARK  status: ('A' for Active; 'I' for Inactive)
REMARK    1  A    between atoms: C2_2  and  N1_3 
REMARK       I    between atoms: C3_5  and  N3_7 
REMARK       I    between atoms: N3_7  and  C4_9 
REMARK       I    between atoms: C4_9  and  N7_17 
REMARK    2  A    between atoms: N4_10  and  N5_12 
REMARK    3  A    between atoms: N5_12  and  C5_14 
REMARK    4  A    between atoms: N7_17  and  S2_19 
REMARK    5  A    between atoms: S2_19  and  N8_20 
ROOT
HETATM    1  N1  UNL     1      41.674  -8.899  60.386  1.00  0.00    -0.364 N 
ATOM      2  H1  UNL     1      42.526  -9.453  60.472  1.00  0.00     0.162 HD
HETATM    3  C3  UNL     1      41.724  -7.741  59.865  1.00  0.00     0.202 C 
HETATM    4  N2  UNL     1      40.560  -6.967  59.739  1.00  0.00    -0.063 NA
HETATM    5  N3  UNL     1      42.949  -7.223  59.409  1.00  0.00    -0.162 N 
ATOM      6  H3  UNL     1      43.668  -7.852  59.052  1.00  0.00     0.187 HD
HETATM    7  C4  UNL     1      43.183  -5.830  59.447  1.00  0.00     0.710 C 
HETATM    8  N4  UNL     1      43.929  -5.326  60.340  1.00  0.00    -0.129 N 
ATOM      9  H4  UNL     1      44.342  -5.969  61.015  1.00  0.00     0.205 HD
HETATM   10  N7  UNL     1      42.565  -5.011  58.463  1.00  0.00    -0.098 N 
ATOM     11  H7  UNL     1      41.686  -4.544  58.689  1.00  0.00     0.199 HD
ENDROOT
BRANCH   8  12
HETATM   12  N5  UNL     1      44.233  -3.987  60.479  1.00  0.00    -0.264 N 
ATOM     13  H5  UNL     1      45.140  -3.649  60.159  1.00  0.00     0.189 HD
BRANCH  12  14
HETATM   14  C5  UNL     1      43.314  -3.063  61.057  1.00  0.00     0.200 C 
HETATM   15  N6  UNL     1      43.214  -1.758  60.480  1.00  0.00    -0.068 NA
HETATM   16  S1  UNL     1      42.388  -3.439  62.334  1.00  0.00    -0.043 SA
ENDBRANCH  12  14
ENDBRANCH   8  12
BRANCH  10  17
HETATM   17  S2  UNL     1      43.259  -4.781  56.892  1.00  0.00     0.330 S 
HETATM   18  O1  UNL     1      42.912  -5.888  55.965  1.00  0.00    -0.182 OA
HETATM   19  O2  UNL     1      44.743  -4.651  57.025  1.00  0.00    -0.182 OA
BRANCH  17  20
HETATM   20  N8  UNL     1      42.579  -3.310  56.246  1.00  0.00    -0.311 N 
ATOM     21  H82 UNL     1      41.587  -3.126  56.099  1.00  0.00     0.170 HD
ATOM     22  H81 UNL     1      43.359  -2.683  56.049  1.00  0.00     0.170 HD
ENDBRANCH  17  20
ENDBRANCH  10  17
BRANCH   1  23
HETATM   23  C2  UNL     1      40.414  -9.438  60.857  1.00  0.00     0.118 C 
HETATM   24  C1  UNL     1      40.692 -10.050  62.229  1.00  0.00     0.026 C 
ENDBRANCH   1  23
TORSDOF 5
ENDMDL
MODEL 5
REMARK VINA RESULT: -7.435336690      2.517      3.791
REMARK  5 active torsions:
REMARK  status: ('A' for Active; 'I' for Inactive)
REMARK    1  A    between atoms: C2_2  and  N1_3 
REMARK       I    between atoms: C3_5  and  N3_7 
REMARK       I    between atoms: N3_7  and  C4_9 
REMARK       I    between atoms: C4_9  and  N7_17 
REMARK    2  A    between atoms: N4_10  and  N5_12 
REMARK    3  A    between atoms: N5_12  and  C5_14 
REMARK    4  A    between atoms: N7_17  and  S2_19 
REMARK    5  A    between atoms: S2_19  and  N8_20 
ROOT
HETATM    1  N1  UNL     1      41.459  -8.381  61.103  1.00  0.00    -0.364 N 
ATOM      2  H1  UNL     1      40.715  -8.369  60.406  1.00  0.00     0.162 HD
HETATM    3  C3  UNL     1      42.219  -7.371  61.234  1.00  0.00     0.202 C 
HETATM    4  N2  UNL     1      43.248  -7.374  62.189  1.00  0.00    -0.063 NA
HETATM    5  N3  UNL     1      42.036  -6.239  60.420  1.00  0.00    -0.162 N 
ATOM      6  H3  UNL     1      41.103  -5.996  60.086  1.00  0.00     0.187 HD
HETATM    7  C4  UNL     1      43.145  -5.438  60.066  1.00  0.00     0.710 C 
HETATM    8  N4  UNL     1      43.649  -5.513  58.905  1.00  0.00    -0.129 N 
ATOM      9  H4  UNL     1      43.217  -6.169  58.254  1.00  0.00     0.205 HD
HETATM   10  N7  UNL     1      43.681  -4.551  61.039  1.00  0.00    -0.098 N 
ATOM     11  H7  UNL     1      44.482  -4.851  61.595  1.00  0.00     0.199 HD
ENDROOT
BRANCH   8  12
HETATM   12  N5  UNL     1      44.726  -4.786  58.442  1.00  0.00    -0.264 N 
ATOM     13  H5  UNL     1      45.595  -4.791  58.976  1.00  0.00     0.189 HD
BRANCH  12  14
HETATM   14  C5  UNL     1      44.660  -4.027  57.237  1.00  0.00     0.200 C 
HETATM   15  N6  UNL     1      45.888  -3.652  56.605  1.00  0.00    -0.068 NA
HETATM   16  S1  UNL     1      43.254  -3.579  56.566  1.00  0.00    -0.043 SA
ENDBRANCH  12  14
ENDBRANCH   8  12
BRANCH  10  17
HETATM   17  S2  UNL     1      43.012  -2.975  61.311  1.00  0.00     0.330 S 
HETATM   18  O1  UNL     1      44.022  -1.904  61.120  1.00  0.00    -0.182 OA
HETATM   19  O2  UNL     1      42.436  -2.917  62.689  1.00  0.00    -0.182 OA
BRANCH  17  20
HETATM   20  N8  UNL     1      41.757  -2.744  60.121  1.00  0.00    -0.311 N 
ATOM     21  H82 UNL     1      40.859  -3.227  60.100  1.00  0.00     0.170 HD
ATOM     22  H81 UNL     1      42.096  -2.042  59.463  1.00  0.00     0.170 HD
ENDBRANCH  17  20
ENDBRANCH  10  17
BRANCH   1  23
HETATM   23  C2  UNL     1      41.644  -9.551  61.939  1.00  0.00     0.118 C 
HETATM   24  C1  UNL     1      40.311 -10.298  61.937  1.00  0.00     0.026 C 
ENDBRANCH   1  23
TORSDOF 5
ENDMDL
