MODEL 1
REMARK VINA RESULT: -7.041224284      0.000      0.000
REMARK  6 active torsions:
REMARK  status: ('A' for Active; 'I' for Inactive)
REMARK    1  A    between atoms: C2_3  and  C3_4 
REMARK    2  A    between atoms: C3_4  and  N4_10 
REMARK    3  A    between atoms: N2_5  and  N3_7 
REMARK       I    between atoms: N4_10  and  C4_12 
REMARK    4  A    between atoms: N6_14  and  C5_16 
REMARK    5  A    between atoms: N7_17  and  N8_19 
REMARK    6  A    between atoms: N8_19  and  C6_21 
ROOT
HETATM    1  N4  UNL     1      43.741  -4.862  60.606  1.00  0.00    -0.317 N 
ATOM      2  H4  UNL     1      44.620  -5.272  60.922  1.00  0.00     0.170 HD
HETATM    3  C4  UNL     1      42.526  -5.249  61.239  1.00  0.00     0.194 C 
HETATM    4  N5  UNL     1      41.471  -4.343  61.475  1.00  0.00    -0.063 NA
HETATM    5  N6  UNL     1      42.367  -6.467  61.614  1.00  0.00    -0.325 N 
ATOM      6  H6  UNL     1      41.491  -6.729  62.065  1.00  0.00     0.169 HD
ENDROOT
BRANCH   1   7
HETATM    7  C3  UNL     1      43.756  -3.916  59.544  1.00  0.00     0.134 C 
HETATM    8  N2  UNL     1      43.614  -2.678  59.825  1.00  0.00    -0.294 N 
ATOM      9  H2  UNL     1      43.624  -1.991  59.071  1.00  0.00     0.187 HD
BRANCH   7  10
HETATM   10  C2  UNL     1      43.938  -4.438  58.176  1.00  0.00     0.329 A 
HETATM   11  N1  UNL     1      44.252  -3.373  57.213  1.00  0.00     0.110 N 
HETATM   12  C1  UNL     1      45.419  -3.627  56.416  1.00  0.00     0.312 C 
HETATM   13  C7  UNL     1      43.069  -4.178  57.070  1.00  0.00     0.191 A 
HETATM   14  C8  UNL     1      42.967  -5.171  55.946  1.00  0.00     0.051 C 
HETATM   15  C9  UNL     1      41.763  -3.435  57.346  1.00  0.00     0.051 C 
ENDBRANCH   7  10
BRANCH   8  16
HETATM   16  N3  UNL     1      43.445  -2.244  61.140  1.00  0.00    -0.344 N 
ATOM     17  H32 UNL     1      44.268  -1.929  61.654  1.00  0.00     0.176 HD
ATOM     18  H31 UNL     1      42.527  -2.238  61.585  1.00  0.00     0.176 HD
ENDBRANCH   8  16
ENDBRANCH   1   7
BRANCH   5  19
HETATM   19  C5  UNL     1      43.358  -7.463  61.428  1.00  0.00     0.199 C 
HETATM   20  N7  UNL     1      43.187  -8.626  61.918  1.00  0.00    -0.294 N 
ATOM     21  H7  UNL     1      43.904  -9.337  61.780  1.00  0.00     0.187 HD
BRANCH  20  22
HETATM   22  N8  UNL     1      42.039  -8.944  62.637  1.00  0.00    -0.278 N 
ATOM     23  H8  UNL     1      41.934  -8.605  63.594  1.00  0.00     0.189 HD
BRANCH  22  24
HETATM   24  C6  UNL     1      41.016  -9.731  62.061  1.00  0.00     0.199 C 
HETATM   25  N9  UNL     1      40.641 -10.965  62.666  1.00  0.00    -0.068 NA
HETATM   26  S1  UNL     1      40.270  -9.243  60.720  1.00  0.00    -0.043 SA
ENDBRANCH  22  24
ENDBRANCH  20  22
ENDBRANCH   5  19
TORSDOF 6
ENDMDL
MODEL 2
REMARK VINA RESULT: -6.710644628      2.633      6.431
REMARK  6 active torsions:
REMARK  status: ('A' for Active; 'I' for Inactive)
REMARK    1  A    between atoms: C2_3  and  C3_4 
REMARK    2  A    between atoms: C3_4  and  N4_10 
REMARK    3  A    between atoms: N2_5  and  N3_7 
REMARK       I    between atoms: N4_10  and  C4_12 
REMARK    4  A    between atoms: N6_14  and  C5_16 
REMARK    5  A    between atoms: N7_17  and  N8_19 
REMARK    6  A    between atoms: N8_19  and  C6_21 
ROOT
HETATM    1  N4  UNL     1      41.597  -5.712  60.135  1.00  0.00    -0.317 N 
ATOM      2  H4  UNL     1      40.693  -5.467  59.730  1.00  0.00     0.170 HD
HETATM    3  C4  UNL     1      42.285  -4.755  60.933  1.00  0.00     0.194 C 
HETATM    4  N5  UNL     1      43.030  -5.115  62.076  1.00  0.00    -0.063 NA
HETATM    5  N6  UNL     1      42.235  -3.512  60.616  1.00  0.00    -0.325 N 
ATOM      6  H6  UNL     1      42.732  -2.839  61.198  1.00  0.00     0.169 HD
ENDROOT
BRANCH   1   7
HETATM    7  C3  UNL     1      42.143  -7.003  59.889  1.00  0.00     0.134 C 
HETATM    8  N2  UNL     1      43.375  -7.094  59.563  1.00  0.00    -0.294 N 
ATOM      9  H2  UNL     1      43.777  -8.015  59.386  1.00  0.00     0.187 HD
BRANCH   7  10
HETATM   10  C2  UNL     1      41.236  -8.158  60.028  1.00  0.00     0.329 A 
HETATM   11  N1  UNL     1      40.110  -7.874  60.928  1.00  0.00     0.110 N 
HETATM   12  C1  UNL     1      38.821  -8.172  60.370  1.00  0.00     0.312 C 
HETATM   13  C7  UNL     1      41.049  -8.923  61.223  1.00  0.00     0.191 A 
HETATM   14  C8  UNL     1      40.620 -10.361  61.134  1.00  0.00     0.051 C 
HETATM   15  C9  UNL     1      41.967  -8.632  62.409  1.00  0.00     0.051 C 
ENDBRANCH   7  10
BRANCH   8  16
HETATM   16  N3  UNL     1      44.184  -5.964  59.446  1.00  0.00    -0.344 N 
ATOM     17  H32 UNL     1      44.010  -5.179  60.075  1.00  0.00     0.176 HD
ATOM     18  H31 UNL     1      44.931  -5.913  58.755  1.00  0.00     0.176 HD
ENDBRANCH   8  16
ENDBRANCH   1   7
BRANCH   5  19
HETATM   19  C5  UNL     1      41.517  -3.035  59.491  1.00  0.00     0.199 C 
HETATM   20  N7  UNL     1      42.148  -2.648  58.454  1.00  0.00    -0.294 N 
ATOM     21  H7  UNL     1      41.624  -2.305  57.649  1.00  0.00     0.187 HD
BRANCH  20  22
HETATM   22  N8  UNL     1      43.538  -2.683  58.401  1.00  0.00    -0.278 N 
ATOM     23  H8  UNL     1      44.079  -2.499  59.246  1.00  0.00     0.189 HD
BRANCH  22  24
HETATM   24  C6  UNL     1      44.210  -2.971  57.191  1.00  0.00     0.199 C 
HETATM   25  N9  UNL     1      45.207  -2.080  56.703  1.00  0.00    -0.068 NA
HETATM   26  S1  UNL     1      43.854  -4.302  56.359  1.00  0.00    -0.043 SA
ENDBRANCH  22  24
ENDBRANCH  20  22
ENDBRANCH   5  19
TORSDOF 6
ENDMDL
MODEL 3
REMARK VINA RESULT: -6.617116541      2.222      3.830
REMARK  6 active torsions:
REMARK  status: ('A' for Active; 'I' for Inactive)
REMARK    1  A    between atoms: C2_3  and  C3_4 
REMARK    2  A    between atoms: C3_4  and  N4_10 
REMARK    3  A    between atoms: N2_5  and  N3_7 
REMARK       I    between atoms: N4_10  and  C4_12 
REMARK    4  A    between atoms: N6_14  and  C5_16 
REMARK    5  A    between atoms: N7_17  and  N8_19 
REMARK    6  A    between atoms: N8_19  and  C6_21 
ROOT
HETATM    1  N4  UNL     1      41.454  -5.910  58.996  1.00  0.00    -0.317 N 
ATOM      2  H4  UNL     1      40.489  -5.849  58.671  1.00  0.00     0.170 HD
HETATM    3  C4  UNL     1      41.988  -7.179  59.358  1.00  0.00     0.194 C 
HETATM    4  N5  UNL     1      43.324  -7.545  59.091  1.00  0.00    -0.063 NA
HETATM    5  N6  UNL     1      41.238  -8.036  59.953  1.00  0.00    -0.325 N 
ATOM      6  H6  UNL     1      41.635  -8.940  60.205  1.00  0.00     0.169 HD
ENDROOT
BRANCH   1   7
HETATM    7  C3  UNL     1      42.237  -4.725  59.078  1.00  0.00     0.134 C 
HETATM    8  N2  UNL     1      43.029  -4.447  58.115  1.00  0.00    -0.294 N 
ATOM      9  H2  UNL     1      43.594  -3.600  58.163  1.00  0.00     0.187 HD
BRANCH   7  10
HETATM   10  C2  UNL     1      42.076  -3.890  60.284  1.00  0.00     0.329 A 
HETATM   11  N1  UNL     1      43.340  -3.267  60.700  1.00  0.00     0.110 N 
HETATM   12  C1  UNL     1      43.259  -1.848  60.897  1.00  0.00     0.312 C 
HETATM   13  C7  UNL     1      42.639  -4.175  61.568  1.00  0.00     0.191 A 
HETATM   14  C8  UNL     1      41.970  -3.660  62.812  1.00  0.00     0.051 C 
HETATM   15  C9  UNL     1      43.331  -5.524  61.762  1.00  0.00     0.051 C 
ENDBRANCH   7  10
BRANCH   8  16
HETATM   16  N3  UNL     1      43.139  -5.277  57.000  1.00  0.00    -0.344 N 
ATOM     17  H32 UNL     1      42.752  -4.949  56.115  1.00  0.00     0.176 HD
ATOM     18  H31 UNL     1      43.592  -6.189  57.056  1.00  0.00     0.176 HD
ENDBRANCH   8  16
ENDBRANCH   1   7
BRANCH   5  19
HETATM   19  C5  UNL     1      39.882  -7.778  60.272  1.00  0.00     0.199 C 
HETATM   20  N7  UNL     1      39.191  -8.667  60.866  1.00  0.00    -0.294 N 
ATOM     21  H7  UNL     1      38.215  -8.474  61.092  1.00  0.00     0.187 HD
BRANCH  20  22
HETATM   22  N8  UNL     1      39.742  -9.897  61.213  1.00  0.00    -0.278 N 
ATOM     23  H8  UNL     1      39.571 -10.710  60.620  1.00  0.00     0.189 HD
BRANCH  22  24
HETATM   24  C6  UNL     1      40.535 -10.035  62.374  1.00  0.00     0.199 C 
HETATM   25  N9  UNL     1      41.858  -9.509  62.398  1.00  0.00    -0.068 NA
HETATM   26  S1  UNL     1      39.954 -10.788  63.673  1.00  0.00    -0.043 SA
ENDBRANCH  22  24
ENDBRANCH  20  22
ENDBRANCH   5  19
TORSDOF 6
ENDMDL
MODEL 4
REMARK VINA RESULT: -6.252868694      1.997      3.558
REMARK  6 active torsions:
REMARK  status: ('A' for Active; 'I' for Inactive)
REMARK    1  A    between atoms: C2_3  and  C3_4 
REMARK    2  A    between atoms: C3_4  and  N4_10 
REMARK    3  A    between atoms: N2_5  and  N3_7 
REMARK       I    between atoms: N4_10  and  C4_12 
REMARK    4  A    between atoms: N6_14  and  C5_16 
REMARK    5  A    between atoms: N7_17  and  N8_19 
REMARK    6  A    between atoms: N8_19  and  C6_21 
ROOT
HETATM    1  N4  UNL     1      42.567  -6.494  58.733  1.00  0.00    -0.317 N 
ATOM      2  H4  UNL     1      41.840  -6.787  58.081  1.00  0.00     0.170 HD
HETATM    3  C4  UNL     1      42.944  -7.365  59.794  1.00  0.00     0.194 C 
HETATM    4  N5  UNL     1      44.277  -7.486  60.240  1.00  0.00    -0.063 NA
HETATM    5  N6  UNL     1      42.048  -8.075  60.379  1.00  0.00    -0.325 N 
ATOM      6  H6  UNL     1      42.334  -8.694  61.137  1.00  0.00     0.169 HD
ENDROOT
BRANCH   1   7
HETATM    7  C3  UNL     1      43.182  -5.222  58.563  1.00  0.00     0.134 C 
HETATM    8  N2  UNL     1      43.511  -4.854  57.384  1.00  0.00    -0.294 N 
ATOM      9  H2  UNL     1      43.951  -3.944  57.251  1.00  0.00     0.187 HD
BRANCH   7  10
HETATM   10  C2  UNL     1      43.399  -4.409  59.775  1.00  0.00     0.329 A 
HETATM   11  N1  UNL     1      42.260  -4.476  60.700  1.00  0.00     0.110 N 
HETATM   12  C1  UNL     1      42.616  -4.816  62.048  1.00  0.00     0.312 C 
HETATM   13  C7  UNL     1      42.671  -3.226  60.119  1.00  0.00     0.191 A 
HETATM   14  C8  UNL     1      43.312  -2.173  60.978  1.00  0.00     0.051 C 
HETATM   15  C9  UNL     1      41.697  -2.660  59.086  1.00  0.00     0.051 C 
ENDBRANCH   7  10
BRANCH   8  16
HETATM   16  N3  UNL     1      43.280  -5.668  56.276  1.00  0.00    -0.344 N 
ATOM     17  H32 UNL     1      42.454  -5.485  55.706  1.00  0.00     0.176 HD
ATOM     18  H31 UNL     1      43.914  -6.429  56.033  1.00  0.00     0.176 HD
ENDBRANCH   8  16
ENDBRANCH   1   7
BRANCH   5  19
HETATM   19  C5  UNL     1      40.679  -8.036  60.016  1.00  0.00     0.199 C 
HETATM   20  N7  UNL     1      39.919  -9.015  60.305  1.00  0.00    -0.294 N 
ATOM     21  H7  UNL     1      38.935  -8.980  60.039  1.00  0.00     0.187 HD
BRANCH  20  22
HETATM   22  N8  UNL     1      40.406 -10.134  60.975  1.00  0.00    -0.278 N 
ATOM     23  H8  UNL     1      40.600 -10.988  60.452  1.00  0.00     0.189 HD
BRANCH  22  24
HETATM   24  C6  UNL     1      40.635 -10.102  62.369  1.00  0.00     0.199 C 
HETATM   25  N9  UNL     1      41.749  -9.384  62.890  1.00  0.00    -0.068 NA
HETATM   26  S1  UNL     1      39.643 -10.873  63.375  1.00  0.00    -0.043 SA
ENDBRANCH  22  24
ENDBRANCH  20  22
ENDBRANCH   5  19
TORSDOF 6
ENDMDL
MODEL 5
REMARK VINA RESULT: -6.223927814      2.628      5.585
REMARK  6 active torsions:
REMARK  status: ('A' for Active; 'I' for Inactive)
REMARK    1  A    between atoms: C2_3  and  C3_4 
REMARK    2  A    between atoms: C3_4  and  N4_10 
REMARK    3  A    between atoms: N2_5  and  N3_7 
REMARK       I    between atoms: N4_10  and  C4_12 
REMARK    4  A    between atoms: N6_14  and  C5_16 
REMARK    5  A    between atoms: N7_17  and  N8_19 
REMARK    6  A    between atoms: N8_19  and  C6_21 
ROOT
HETATM    1  N4  UNL     1      41.904  -3.667  61.025  1.00  0.00    -0.317 N 
ATOM      2  H4  UNL     1      40.924  -3.465  60.829  1.00  0.00     0.170 HD
HETATM    3  C4  UNL     1      42.911  -2.811  60.497  1.00  0.00     0.194 C 
HETATM    4  N5  UNL     1      44.084  -2.487  61.212  1.00  0.00    -0.063 NA
HETATM    5  N6  UNL     1      42.763  -2.306  59.326  1.00  0.00    -0.325 N 
ATOM      6  H6  UNL     1      43.493  -1.694  58.962  1.00  0.00     0.169 HD
ENDROOT
BRANCH   1   7
HETATM    7  C3  UNL     1      42.235  -4.799  61.822  1.00  0.00     0.134 C 
HETATM    8  N2  UNL     1      42.588  -4.611  63.035  1.00  0.00    -0.294 N 
ATOM      9  H2  UNL     1      42.827  -5.416  63.615  1.00  0.00     0.187 HD
BRANCH   7  10
HETATM   10  C2  UNL     1      42.145  -6.125  61.181  1.00  0.00     0.329 A 
HETATM   11  N1  UNL     1      43.056  -7.101  61.797  1.00  0.00     0.110 N 
HETATM   12  C1  UNL     1      42.425  -8.329  62.188  1.00  0.00     0.312 C 
HETATM   13  C7  UNL     1      43.180  -6.742  60.409  1.00  0.00     0.191 A 
HETATM   14  C8  UNL     1      42.826  -7.739  59.341  1.00  0.00     0.051 C 
HETATM   15  C9  UNL     1      44.419  -5.911  60.080  1.00  0.00     0.051 C 
ENDBRANCH   7  10
BRANCH   8  16
HETATM   16  N3  UNL     1      42.655  -3.332  63.585  1.00  0.00    -0.344 N 
ATOM     17  H32 UNL     1      42.293  -3.192  64.528  1.00  0.00     0.176 HD
ATOM     18  H31 UNL     1      43.053  -2.549  63.066  1.00  0.00     0.176 HD
ENDBRANCH   8  16
ENDBRANCH   1   7
BRANCH   5  19
HETATM   19  C5  UNL     1      41.627  -2.561  58.518  1.00  0.00     0.199 C 
HETATM   20  N7  UNL     1      41.608  -3.582  57.757  1.00  0.00    -0.294 N 
ATOM     21  H7  UNL     1      40.787  -3.758  57.178  1.00  0.00     0.187 HD
BRANCH  20  22
HETATM   22  N8  UNL     1      42.685  -4.461  57.701  1.00  0.00    -0.278 N 
ATOM     23  H8  UNL     1      42.945  -4.992  58.532  1.00  0.00     0.189 HD
BRANCH  22  24
HETATM   24  C6  UNL     1      43.424  -4.627  56.508  1.00  0.00     0.199 C 
HETATM   25  N9  UNL     1      42.935  -5.485  55.483  1.00  0.00    -0.068 NA
HETATM   26  S1  UNL     1      44.820  -3.853  56.300  1.00  0.00    -0.043 SA
ENDBRANCH  22  24
ENDBRANCH  20  22
ENDBRANCH   5  19
TORSDOF 6
ENDMDL
