MODEL 1
REMARK VINA RESULT: -7.116216260      0.000      0.000
REMARK  3 active torsions:
REMARK  status: ('A' for Active; 'I' for Inactive)
REMARK    1  A    between atoms: C3_3  and  C4_4 
REMARK    2  A    between atoms: C4_4  and  C5_5 
REMARK    3  A    between atoms: C7_9  and  N2_10 
REMARK       I    between atoms: N2_10  and  C8_12 
REMARK       I    between atoms: C8_12  and  N3_13 
REMARK       I    between atoms: C8_12  and  N4_17 
ROOT
HETATM    1  C5  UNL     1      -3.955  -7.150  41.194  1.00  0.00     0.024 A 
HETATM    2  C6  UNL     1      -4.404  -8.442  41.046  1.00  0.00     0.109 A 
HETATM    3  N1  UNL     1      -4.341  -8.983  39.852  1.00  0.00    -0.345 N 
ATOM      4  H1  UNL     1      -4.662  -9.938  39.690  1.00  0.00     0.167 HD
HETATM    5  C7  UNL     1      -3.846  -8.247  38.855  1.00  0.00     0.147 A 
HETATM    6  S1  UNL     1      -3.462  -6.770  39.603  1.00  0.00    -0.053 SA
ENDROOT
BRANCH   5   7
HETATM    7  N2  UNL     1      -3.705  -8.616  37.594  1.00  0.00    -0.321 N 
HETATM    8  C8  UNL     1      -2.928  -9.798  37.274  1.00  0.00     0.482 C 
HETATM    9  N3  UNL     1      -1.729  -9.511  36.549  1.00  0.00    -0.033 N 
HETATM   10  N4  UNL     1      -3.782 -10.665  36.481  1.00  0.00    -0.033 N 
ATOM     11  H33 UNL     1      -1.936  -8.976  35.706  1.00  0.00     0.278 HD
ATOM     12  H32 UNL     1      -1.160  -8.827  37.048  1.00  0.00     0.278 HD
ATOM     13  H31 UNL     1      -1.182 -10.342  36.325  1.00  0.00     0.278 HD
ATOM     14  H43 UNL     1      -4.669 -10.879  36.937  1.00  0.00     0.278 HD
ATOM     15  H42 UNL     1      -4.166 -10.204  35.657  1.00  0.00     0.278 HD
ATOM     16  H41 UNL     1      -3.235 -11.497  36.257  1.00  0.00     0.278 HD
ATOM     17  H2  UNL     1      -4.140  -8.072  36.849  1.00  0.00     0.165 HD
ENDBRANCH   5   7
BRANCH   1  18
HETATM   18  C4  UNL     1      -3.894  -6.353  42.420  1.00  0.00     0.034 C 
BRANCH  18  19
HETATM   19  C3  UNL     1      -4.346  -5.180  42.620  1.00  0.00    -0.007 A 
HETATM   20  C2  UNL     1      -5.265  -4.663  43.494  1.00  0.00     0.034 A 
HETATM   21  C1  UNL     1      -5.973  -5.271  44.419  1.00  0.00     0.044 C 
HETATM   22  N5  UNL     1      -5.365  -3.314  43.267  1.00  0.00    -0.361 N 
HETATM   23  C10 UNL     1      -4.541  -2.946  42.274  1.00  0.00     0.091 A 
HETATM   24  C11 UNL     1      -6.233  -2.406  43.987  1.00  0.00     0.155 C 
HETATM   25  C9  UNL     1      -3.904  -4.077  41.862  1.00  0.00     0.031 A 
ENDBRANCH  18  19
ENDBRANCH   1  18
TORSDOF 3
ENDMDL
MODEL 2
REMARK VINA RESULT: -7.113788889      0.511      1.444
REMARK  3 active torsions:
REMARK  status: ('A' for Active; 'I' for Inactive)
REMARK    1  A    between atoms: C3_3  and  C4_4 
REMARK    2  A    between atoms: C4_4  and  C5_5 
REMARK    3  A    between atoms: C7_9  and  N2_10 
REMARK       I    between atoms: N2_10  and  C8_12 
REMARK       I    between atoms: C8_12  and  N3_13 
REMARK       I    between atoms: C8_12  and  N4_17 
ROOT
HETATM    1  C5  UNL     1      -3.870  -7.265  41.218  1.00  0.00     0.024 A 
HETATM    2  C6  UNL     1      -4.438  -8.502  41.015  1.00  0.00     0.109 A 
HETATM    3  N1  UNL     1      -4.405  -9.003  39.802  1.00  0.00    -0.345 N 
ATOM      4  H1  UNL     1      -4.812  -9.916  39.600  1.00  0.00     0.167 HD
HETATM    5  C7  UNL     1      -3.823  -8.283  38.841  1.00  0.00     0.147 A 
HETATM    6  S1  UNL     1      -3.313  -6.878  39.649  1.00  0.00    -0.053 SA
ENDROOT
BRANCH   5   7
HETATM    7  N2  UNL     1      -3.694  -8.618  37.569  1.00  0.00    -0.321 N 
HETATM    8  C8  UNL     1      -2.910  -9.785  37.211  1.00  0.00     0.482 C 
HETATM    9  N3  UNL     1      -1.723  -9.468  36.478  1.00  0.00    -0.033 N 
HETATM   10  N4  UNL     1      -3.766 -10.640  36.406  1.00  0.00    -0.033 N 
ATOM     11  H33 UNL     1      -1.946  -8.914  35.651  1.00  0.00     0.278 HD
ATOM     12  H32 UNL     1      -1.154  -8.792  36.987  1.00  0.00     0.278 HD
ATOM     13  H31 UNL     1      -1.172 -10.288  36.226  1.00  0.00     0.278 HD
ATOM     14  H43 UNL     1      -4.645 -10.873  36.867  1.00  0.00     0.278 HD
ATOM     15  H42 UNL     1      -4.165 -10.162  35.599  1.00  0.00     0.278 HD
ATOM     16  H41 UNL     1      -3.214 -11.460  36.154  1.00  0.00     0.278 HD
ATOM     17  H2  UNL     1      -4.144  -8.060  36.844  1.00  0.00     0.165 HD
ENDBRANCH   5   7
BRANCH   1  18
HETATM   18  C4  UNL     1      -3.756  -6.522  42.473  1.00  0.00     0.034 C 
BRANCH  18  19
HETATM   19  C3  UNL     1      -4.471  -5.553  42.883  1.00  0.00    -0.007 A 
HETATM   20  C2  UNL     1      -4.556  -4.232  42.530  1.00  0.00     0.034 A 
HETATM   21  C1  UNL     1      -3.882  -3.565  41.619  1.00  0.00     0.044 C 
HETATM   22  N5  UNL     1      -5.513  -3.636  43.311  1.00  0.00    -0.361 N 
HETATM   23  C10 UNL     1      -6.047  -4.531  44.156  1.00  0.00     0.091 A 
HETATM   24  C11 UNL     1      -5.901  -2.243  43.244  1.00  0.00     0.155 C 
HETATM   25  C9  UNL     1      -5.422  -5.716  43.910  1.00  0.00     0.031 A 
ENDBRANCH  18  19
ENDBRANCH   1  18
TORSDOF 3
ENDMDL
MODEL 3
REMARK VINA RESULT: -7.058917798      0.874      1.189
REMARK  3 active torsions:
REMARK  status: ('A' for Active; 'I' for Inactive)
REMARK    1  A    between atoms: C3_3  and  C4_4 
REMARK    2  A    between atoms: C4_4  and  C5_5 
REMARK    3  A    between atoms: C7_9  and  N2_10 
REMARK       I    between atoms: N2_10  and  C8_12 
REMARK       I    between atoms: C8_12  and  N3_13 
REMARK       I    between atoms: C8_12  and  N4_17 
ROOT
HETATM    1  C5  UNL     1      -4.150  -7.541  41.851  1.00  0.00     0.024 A 
HETATM    2  C6  UNL     1      -4.966  -8.531  41.354  1.00  0.00     0.109 A 
HETATM    3  N1  UNL     1      -4.520  -9.250  40.351  1.00  0.00    -0.345 N 
ATOM      4  H1  UNL     1      -5.087  -9.997  39.947  1.00  0.00     0.167 HD
HETATM    5  C7  UNL     1      -3.304  -8.978  39.875  1.00  0.00     0.147 A 
HETATM    6  S1  UNL     1      -2.774  -7.690  40.849  1.00  0.00    -0.053 SA
ENDROOT
BRANCH   5   7
HETATM    7  N2  UNL     1      -2.689  -9.590  38.878  1.00  0.00    -0.321 N 
HETATM    8  C8  UNL     1      -2.963  -9.187  37.512  1.00  0.00     0.482 C 
HETATM    9  N3  UNL     1      -3.622 -10.197  36.743  1.00  0.00    -0.033 N 
HETATM   10  N4  UNL     1      -1.685  -8.866  36.900  1.00  0.00    -0.033 N 
ATOM     11  H33 UNL     1      -3.095 -11.069  36.764  1.00  0.00     0.278 HD
ATOM     12  H32 UNL     1      -4.477 -10.504  37.208  1.00  0.00     0.278 HD
ATOM     13  H31 UNL     1      -3.815  -9.913  35.782  1.00  0.00     0.278 HD
ATOM     14  H43 UNL     1      -1.154  -8.171  37.424  1.00  0.00     0.278 HD
ATOM     15  H42 UNL     1      -1.007  -9.625  36.966  1.00  0.00     0.278 HD
ATOM     16  H41 UNL     1      -1.878  -8.582  35.939  1.00  0.00     0.278 HD
ATOM     17  H2  UNL     1      -2.026 -10.340  39.068  1.00  0.00     0.165 HD
ENDBRANCH   5   7
BRANCH   1  18
HETATM   18  C4  UNL     1      -4.411  -6.638  42.973  1.00  0.00     0.034 C 
BRANCH  18  19
HETATM   19  C3  UNL     1      -4.636  -5.386  42.941  1.00  0.00    -0.007 A 
HETATM   20  C2  UNL     1      -5.504  -4.570  43.617  1.00  0.00     0.034 A 
HETATM   21  C1  UNL     1      -6.393  -4.873  44.536  1.00  0.00     0.044 C 
HETATM   22  N5  UNL     1      -5.316  -3.283  43.179  1.00  0.00    -0.361 N 
HETATM   23  C10 UNL     1      -4.355  -3.246  42.243  1.00  0.00     0.091 A 
HETATM   24  C11 UNL     1      -6.044  -2.124  43.650  1.00  0.00     0.155 C 
HETATM   25  C9  UNL     1      -3.923  -4.527  42.081  1.00  0.00     0.031 A 
ENDBRANCH  18  19
ENDBRANCH   1  18
TORSDOF 3
ENDMDL
MODEL 4
REMARK VINA RESULT: -6.985865204      1.644      2.190
REMARK  3 active torsions:
REMARK  status: ('A' for Active; 'I' for Inactive)
REMARK    1  A    between atoms: C3_3  and  C4_4 
REMARK    2  A    between atoms: C4_4  and  C5_5 
REMARK    3  A    between atoms: C7_9  and  N2_10 
REMARK       I    between atoms: N2_10  and  C8_12 
REMARK       I    between atoms: C8_12  and  N3_13 
REMARK       I    between atoms: C8_12  and  N4_17 
ROOT
HETATM    1  C5  UNL     1      -3.625  -6.697  40.703  1.00  0.00     0.024 A 
HETATM    2  C6  UNL     1      -4.416  -6.681  39.578  1.00  0.00     0.109 A 
HETATM    3  N1  UNL     1      -4.457  -7.766  38.840  1.00  0.00    -0.345 N 
ATOM      4  H1  UNL     1      -5.028  -7.804  37.995  1.00  0.00     0.167 HD
HETATM    5  C7  UNL     1      -3.731  -8.817  39.226  1.00  0.00     0.147 A 
HETATM    6  S1  UNL     1      -2.975  -8.276  40.649  1.00  0.00    -0.053 SA
ENDROOT
BRANCH   5   7
HETATM    7  N2  UNL     1      -3.646  -9.986  38.618  1.00  0.00    -0.321 N 
HETATM    8  C8  UNL     1      -3.850 -11.206  39.375  1.00  0.00     0.482 C 
HETATM    9  N3  UNL     1      -2.674 -12.012  39.482  1.00  0.00    -0.033 N 
HETATM   10  N4  UNL     1      -4.894 -11.955  38.698  1.00  0.00    -0.033 N 
ATOM     11  H33 UNL     1      -2.292 -12.219  38.560  1.00  0.00     0.278 HD
ATOM     12  H32 UNL     1      -1.899 -11.472  39.869  1.00  0.00     0.278 HD
ATOM     13  H31 UNL     1      -2.817 -12.870  40.016  1.00  0.00     0.278 HD
ATOM     14  H43 UNL     1      -5.750 -11.418  38.565  1.00  0.00     0.278 HD
ATOM     15  H42 UNL     1      -4.692 -12.125  37.713  1.00  0.00     0.278 HD
ATOM     16  H41 UNL     1      -5.038 -12.813  39.231  1.00  0.00     0.278 HD
ATOM     17  H2  UNL     1      -3.437 -10.031  37.621  1.00  0.00     0.165 HD
ENDBRANCH   5   7
BRANCH   1  18
HETATM   18  C4  UNL     1      -3.443  -5.632  41.691  1.00  0.00     0.034 C 
BRANCH  18  19
HETATM   19  C3  UNL     1      -4.290  -5.177  42.524  1.00  0.00    -0.007 A 
HETATM   20  C2  UNL     1      -4.779  -3.923  42.778  1.00  0.00     0.034 A 
HETATM   21  C1  UNL     1      -4.491  -2.780  42.198  1.00  0.00     0.044 C 
HETATM   22  N5  UNL     1      -5.688  -4.013  43.802  1.00  0.00    -0.361 N 
HETATM   23  C10 UNL     1      -5.798  -5.284  44.216  1.00  0.00     0.091 A 
HETATM   24  C11 UNL     1      -6.427  -2.903  44.366  1.00  0.00     0.155 C 
HETATM   25  C9  UNL     1      -4.949  -6.017  43.444  1.00  0.00     0.031 A 
ENDBRANCH  18  19
ENDBRANCH   1  18
TORSDOF 3
ENDMDL
MODEL 5
REMARK VINA RESULT: -6.981139495      1.338      1.445
REMARK  3 active torsions:
REMARK  status: ('A' for Active; 'I' for Inactive)
REMARK    1  A    between atoms: C3_3  and  C4_4 
REMARK    2  A    between atoms: C4_4  and  C5_5 
REMARK    3  A    between atoms: C7_9  and  N2_10 
REMARK       I    between atoms: N2_10  and  C8_12 
REMARK       I    between atoms: C8_12  and  N3_13 
REMARK       I    between atoms: C8_12  and  N4_17 
ROOT
HETATM    1  C5  UNL     1      -4.183  -7.709  41.833  1.00  0.00     0.024 A 
HETATM    2  C6  UNL     1      -5.119  -8.580  41.326  1.00  0.00     0.109 A 
HETATM    3  N1  UNL     1      -4.750  -9.384  40.357  1.00  0.00    -0.345 N 
ATOM      4  H1  UNL     1      -5.407 -10.049  39.947  1.00  0.00     0.167 HD
HETATM    5  C7  UNL     1      -3.490  -9.309  39.924  1.00  0.00     0.147 A 
HETATM    6  S1  UNL     1      -2.809  -8.088  40.890  1.00  0.00    -0.053 SA
ENDROOT
BRANCH   5   7
HETATM    7  N2  UNL     1      -2.938 -10.031  38.964  1.00  0.00    -0.321 N 
HETATM    8  C8  UNL     1      -3.491 -11.331  38.637  1.00  0.00     0.482 C 
HETATM    9  N3  UNL     1      -2.610 -12.416  38.940  1.00  0.00    -0.033 N 
HETATM   10  N4  UNL     1      -3.781 -11.322  37.213  1.00  0.00    -0.033 N 
ATOM     11  H33 UNL     1      -1.705 -12.284  38.489  1.00  0.00     0.278 HD
ATOM     12  H32 UNL     1      -2.319 -12.382  39.917  1.00  0.00     0.278 HD
ATOM     13  H31 UNL     1      -2.999 -13.331  38.710  1.00  0.00     0.278 HD
ATOM     14  H43 UNL     1      -4.382 -10.548  36.932  1.00  0.00     0.278 HD
ATOM     15  H42 UNL     1      -2.974 -11.074  36.642  1.00  0.00     0.278 HD
ATOM     16  H41 UNL     1      -4.170 -12.237  36.983  1.00  0.00     0.278 HD
ATOM     17  H2  UNL     1      -2.128  -9.676  38.457  1.00  0.00     0.165 HD
ENDBRANCH   5   7
BRANCH   1  18
HETATM   18  C4  UNL     1      -4.346  -6.748  42.925  1.00  0.00     0.034 C 
BRANCH  18  19
HETATM   19  C3  UNL     1      -4.537  -5.493  42.848  1.00  0.00    -0.007 A 
HETATM   20  C2  UNL     1      -5.380  -4.628  43.494  1.00  0.00     0.034 A 
HETATM   21  C1  UNL     1      -6.275  -4.872  44.425  1.00  0.00     0.044 C 
HETATM   22  N5  UNL     1      -5.158  -3.364  43.008  1.00  0.00    -0.361 N 
HETATM   23  C10 UNL     1      -4.200  -3.388  42.070  1.00  0.00     0.091 A 
HETATM   24  C11 UNL     1      -5.853  -2.168  43.438  1.00  0.00     0.155 C 
HETATM   25  C9  UNL     1      -3.803  -4.685  41.955  1.00  0.00     0.031 A 
ENDBRANCH  18  19
ENDBRANCH   1  18
TORSDOF 3
ENDMDL
