MODEL 1
REMARK VINA RESULT: -7.694275413      0.000      0.000
REMARK  3 active torsions:
REMARK  status: ('A' for Active; 'I' for Inactive)
REMARK    1  A    between atoms: O1_2  and  C2_3 
REMARK    2  A    between atoms: C5_6  and  C6_7 
REMARK    3  A    between atoms: C9_11  and  N1_12 
ROOT
HETATM    1  C6  UNL     1      -3.875  -5.605  40.914  1.00  0.00     0.050 C 
HETATM    2  C7  UNL     1      -2.805  -6.391  41.268  1.00  0.00     0.089 C 
HETATM    3  C8  UNL     1      -2.395  -7.597  40.686  1.00  0.00     0.217 C 
HETATM    4  O2  UNL     1      -1.648  -8.330  41.396  1.00  0.00    -0.284 OA
HETATM    5  C9  UNL     1      -2.739  -8.038  39.419  1.00  0.00     0.154 C 
HETATM    6  N2  UNL     1      -3.678  -7.536  38.614  1.00  0.00    -0.292 N 
ATOM      7  H2  UNL     1      -3.888  -8.125  37.808  1.00  0.00     0.172 HD
HETATM    8  C10 UNL     1      -4.412  -6.386  38.661  1.00  0.00     0.326 C 
HETATM    9  O3  UNL     1      -5.222  -6.144  37.740  1.00  0.00    -0.247 OA
HETATM   10  N3  UNL     1      -4.346  -5.442  39.650  1.00  0.00    -0.308 N 
ATOM     11  H3  UNL     1      -4.689  -4.511  39.412  1.00  0.00     0.170 HD
ENDROOT
BRANCH   1  12
HETATM   12  C5  UNL     1      -4.569  -4.897  41.977  1.00  0.00    -0.009 A 
HETATM   13  C4  UNL     1      -5.346  -5.505  42.917  1.00  0.00     0.016 A 
HETATM   14  C3  UNL     1      -6.002  -4.821  43.918  1.00  0.00     0.037 A 
HETATM   15  C2  UNL     1      -5.882  -3.458  43.994  1.00  0.00     0.068 A 
HETATM   16  C12 UNL     1      -5.111  -2.799  43.071  1.00  0.00     0.037 A 
HETATM   17  C11 UNL     1      -4.475  -3.516  42.089  1.00  0.00     0.016 A 
BRANCH  15  18
HETATM   18  O1  UNL     1      -6.523  -2.723  44.984  1.00  0.00    -0.356 OA
HETATM   19  C1  UNL     1      -6.915  -1.395  44.772  1.00  0.00     0.210 C 
ENDBRANCH  15  18
ENDBRANCH   1  12
BRANCH   5  20
HETATM   20  N1  UNL     1      -2.063  -9.048  38.995  1.00  0.00    -0.382 N 
ATOM     21  H12 UNL     1      -1.077  -9.101  39.253  1.00  0.00     0.157 HD
ATOM     22  H11 UNL     1      -2.591  -9.710  38.427  1.00  0.00     0.157 HD
ENDBRANCH   5  20
TORSDOF 3
ENDMDL
MODEL 2
REMARK VINA RESULT: -7.663657751      0.100      1.109
REMARK  3 active torsions:
REMARK  status: ('A' for Active; 'I' for Inactive)
REMARK    1  A    between atoms: O1_2  and  C2_3 
REMARK    2  A    between atoms: C5_6  and  C6_7 
REMARK    3  A    between atoms: C9_11  and  N1_12 
ROOT
HETATM    1  C6  UNL     1      -3.853  -5.553  40.922  1.00  0.00     0.050 C 
HETATM    2  C7  UNL     1      -2.791  -6.350  41.275  1.00  0.00     0.089 C 
HETATM    3  C8  UNL     1      -2.402  -7.567  40.699  1.00  0.00     0.217 C 
HETATM    4  O2  UNL     1      -1.660  -8.305  41.409  1.00  0.00    -0.284 OA
HETATM    5  C9  UNL     1      -2.760  -8.012  39.438  1.00  0.00     0.154 C 
HETATM    6  N2  UNL     1      -3.698  -7.503  38.635  1.00  0.00    -0.292 N 
ATOM      7  H2  UNL     1      -3.920  -8.094  37.834  1.00  0.00     0.172 HD
HETATM    8  C10 UNL     1      -4.415  -6.343  38.678  1.00  0.00     0.326 C 
HETATM    9  O3  UNL     1      -5.228  -6.096  37.761  1.00  0.00    -0.247 OA
HETATM   10  N3  UNL     1      -4.330  -5.392  39.660  1.00  0.00    -0.308 N 
ATOM     11  H3  UNL     1      -4.662  -4.458  39.417  1.00  0.00     0.170 HD
ENDROOT
BRANCH   1  12
HETATM   12  C5  UNL     1      -4.531  -4.828  41.984  1.00  0.00    -0.009 A 
HETATM   13  C4  UNL     1      -4.408  -3.486  42.191  1.00  0.00     0.016 A 
HETATM   14  C3  UNL     1      -5.055  -2.812  43.204  1.00  0.00     0.037 A 
HETATM   15  C2  UNL     1      -5.869  -3.503  44.062  1.00  0.00     0.068 A 
HETATM   16  C12 UNL     1      -6.026  -4.856  43.896  1.00  0.00     0.037 A 
HETATM   17  C11 UNL     1      -5.365  -5.491  42.875  1.00  0.00     0.016 A 
BRANCH  15  18
HETATM   18  O1  UNL     1      -6.543  -2.869  45.099  1.00  0.00    -0.356 OA
HETATM   19  C1  UNL     1      -6.976  -1.542  44.985  1.00  0.00     0.210 C 
ENDBRANCH  15  18
ENDBRANCH   1  12
BRANCH   5  20
HETATM   20  N1  UNL     1      -2.101  -9.033  39.016  1.00  0.00    -0.382 N 
ATOM     21  H12 UNL     1      -1.766  -9.018  38.053  1.00  0.00     0.157 HD
ATOM     22  H11 UNL     1      -1.976  -9.777  39.703  1.00  0.00     0.157 HD
ENDBRANCH   5  20
TORSDOF 3
ENDMDL
MODEL 3
REMARK VINA RESULT: -7.602566900      1.070      2.684
REMARK  3 active torsions:
REMARK  status: ('A' for Active; 'I' for Inactive)
REMARK    1  A    between atoms: O1_2  and  C2_3 
REMARK    2  A    between atoms: C5_6  and  C6_7 
REMARK    3  A    between atoms: C9_11  and  N1_12 
ROOT
HETATM    1  C6  UNL     1      -4.223  -6.414  41.051  1.00  0.00     0.050 C 
HETATM    2  C7  UNL     1      -4.857  -6.527  39.838  1.00  0.00     0.089 C 
HETATM    3  C8  UNL     1      -4.333  -7.024  38.637  1.00  0.00     0.217 C 
HETATM    4  O2  UNL     1      -4.941  -6.682  37.583  1.00  0.00    -0.284 OA
HETATM    5  C9  UNL     1      -3.223  -7.844  38.522  1.00  0.00     0.154 C 
HETATM    6  N2  UNL     1      -2.324  -8.130  39.467  1.00  0.00    -0.292 N 
ATOM      7  H2  UNL     1      -1.493  -8.604  39.115  1.00  0.00     0.172 HD
HETATM    8  C10 UNL     1      -2.304  -7.910  40.814  1.00  0.00     0.326 C 
HETATM    9  O3  UNL     1      -1.328  -8.315  41.481  1.00  0.00    -0.247 OA
HETATM   10  N3  UNL     1      -3.280  -7.268  41.529  1.00  0.00    -0.308 N 
ATOM     11  H3  UNL     1      -3.302  -7.451  42.532  1.00  0.00     0.170 HD
ENDROOT
BRANCH   1  12
HETATM   12  C5  UNL     1      -4.578  -5.283  41.892  1.00  0.00    -0.009 A 
HETATM   13  C4  UNL     1      -4.187  -4.000  41.650  1.00  0.00     0.016 A 
HETATM   14  C3  UNL     1      -4.529  -2.936  42.457  1.00  0.00     0.037 A 
HETATM   15  C2  UNL     1      -5.302  -3.153  43.567  1.00  0.00     0.068 A 
HETATM   16  C12 UNL     1      -5.722  -4.427  43.855  1.00  0.00     0.037 A 
HETATM   17  C11 UNL     1      -5.360  -5.459  43.026  1.00  0.00     0.016 A 
BRANCH  15  18
HETATM   18  O1  UNL     1      -5.674  -2.114  44.412  1.00  0.00    -0.356 OA
HETATM   19  C1  UNL     1      -6.717  -1.241  44.081  1.00  0.00     0.210 C 
ENDBRANCH  15  18
ENDBRANCH   1  12
BRANCH   5  20
HETATM   20  N1  UNL     1      -3.061  -8.376  37.361  1.00  0.00    -0.382 N 
ATOM     21  H12 UNL     1      -3.739  -8.145  36.634  1.00  0.00     0.157 HD
ATOM     22  H11 UNL     1      -2.253  -8.994  37.280  1.00  0.00     0.157 HD
ENDBRANCH   5  20
TORSDOF 3
ENDMDL
MODEL 4
REMARK VINA RESULT: -7.602096818      1.092      2.475
REMARK  3 active torsions:
REMARK  status: ('A' for Active; 'I' for Inactive)
REMARK    1  A    between atoms: O1_2  and  C2_3 
REMARK    2  A    between atoms: C5_6  and  C6_7 
REMARK    3  A    between atoms: C9_11  and  N1_12 
ROOT
HETATM    1  C6  UNL     1      -4.224  -6.464  41.075  1.00  0.00     0.050 C 
HETATM    2  C7  UNL     1      -4.853  -6.562  39.858  1.00  0.00     0.089 C 
HETATM    3  C8  UNL     1      -4.319  -7.032  38.651  1.00  0.00     0.217 C 
HETATM    4  O2  UNL     1      -4.927  -6.678  37.600  1.00  0.00    -0.284 OA
HETATM    5  C9  UNL     1      -3.200  -7.838  38.524  1.00  0.00     0.154 C 
HETATM    6  N2  UNL     1      -2.302  -8.132  39.468  1.00  0.00    -0.292 N 
ATOM      7  H2  UNL     1      -1.465  -8.591  39.110  1.00  0.00     0.172 HD
HETATM    8  C10 UNL     1      -2.289  -7.936  40.818  1.00  0.00     0.326 C 
HETATM    9  O3  UNL     1      -1.311  -8.343  41.482  1.00  0.00    -0.247 OA
HETATM   10  N3  UNL     1      -3.274  -7.317  41.541  1.00  0.00    -0.308 N 
ATOM     11  H3  UNL     1      -3.297  -7.518  42.541  1.00  0.00     0.170 HD
ENDROOT
BRANCH   1  12
HETATM   12  C5  UNL     1      -4.594  -5.352  41.934  1.00  0.00    -0.009 A 
HETATM   13  C4  UNL     1      -5.355  -5.476  43.058  1.00  0.00     0.016 A 
HETATM   14  C3  UNL     1      -5.701  -4.412  43.863  1.00  0.00     0.037 A 
HETATM   15  C2  UNL     1      -5.270  -3.153  43.538  1.00  0.00     0.068 A 
HETATM   16  C12 UNL     1      -4.502  -2.974  42.416  1.00  0.00     0.037 A 
HETATM   17  C11 UNL     1      -4.179  -4.059  41.640  1.00  0.00     0.016 A 
BRANCH  15  18
HETATM   18  O1  UNL     1      -5.592  -2.048  44.317  1.00  0.00    -0.356 OA
HETATM   19  C1  UNL     1      -6.692  -1.235  44.014  1.00  0.00     0.210 C 
ENDBRANCH  15  18
ENDBRANCH   1  12
BRANCH   5  20
HETATM   20  N1  UNL     1      -3.029  -8.348  37.355  1.00  0.00    -0.382 N 
ATOM     21  H12 UNL     1      -3.223  -7.757  36.546  1.00  0.00     0.157 HD
ATOM     22  H11 UNL     1      -2.711  -9.317  37.351  1.00  0.00     0.157 HD
ENDBRANCH   5  20
TORSDOF 3
ENDMDL
MODEL 5
REMARK VINA RESULT: -7.389719019      1.275      1.702
REMARK  3 active torsions:
REMARK  status: ('A' for Active; 'I' for Inactive)
REMARK    1  A    between atoms: O1_2  and  C2_3 
REMARK    2  A    between atoms: C5_6  and  C6_7 
REMARK    3  A    between atoms: C9_11  and  N1_12 
ROOT
HETATM    1  C6  UNL     1      -4.363  -5.413  41.372  1.00  0.00     0.050 C 
HETATM    2  C7  UNL     1      -4.040  -6.629  41.924  1.00  0.00     0.089 C 
HETATM    3  C8  UNL     1      -4.181  -7.899  41.350  1.00  0.00     0.217 C 
HETATM    4  O2  UNL     1      -4.192  -8.874  42.155  1.00  0.00    -0.284 OA
HETATM    5  C9  UNL     1      -4.307  -8.160  39.996  1.00  0.00     0.154 C 
HETATM    6  N2  UNL     1      -4.541  -7.281  39.019  1.00  0.00    -0.292 N 
ATOM      7  H2  UNL     1      -4.778  -7.712  38.125  1.00  0.00     0.172 HD
HETATM    8  C10 UNL     1      -4.526  -5.917  38.985  1.00  0.00     0.326 C 
HETATM    9  O3  UNL     1      -4.762  -5.333  37.906  1.00  0.00    -0.247 OA
HETATM   10  N3  UNL     1      -4.269  -5.099  40.053  1.00  0.00    -0.308 N 
ATOM     11  H3  UNL     1      -3.975  -4.147  39.835  1.00  0.00     0.170 HD
ENDROOT
BRANCH   1  12
HETATM   12  C5  UNL     1      -4.856  -4.379  42.266  1.00  0.00    -0.009 A 
HETATM   13  C4  UNL     1      -4.664  -3.044  42.069  1.00  0.00     0.016 A 
HETATM   14  C3  UNL     1      -5.135  -2.074  42.927  1.00  0.00     0.037 A 
HETATM   15  C2  UNL     1      -5.837  -2.444  44.043  1.00  0.00     0.068 A 
HETATM   16  C12 UNL     1      -6.058  -3.775  44.287  1.00  0.00     0.037 A 
HETATM   17  C11 UNL     1      -5.572  -4.712  43.409  1.00  0.00     0.016 A 
BRANCH  15  18
HETATM   18  O1  UNL     1      -6.333  -1.504  44.938  1.00  0.00    -0.356 OA
HETATM   19  C1  UNL     1      -7.190  -0.477  44.521  1.00  0.00     0.210 C 
ENDBRANCH  15  18
ENDBRANCH   1  12
BRANCH   5  20
HETATM   20  N1  UNL     1      -4.180  -9.399  39.669  1.00  0.00    -0.382 N 
ATOM     21  H12 UNL     1      -3.258  -9.824  39.768  1.00  0.00     0.157 HD
ATOM     22  H11 UNL     1      -5.034  -9.844  39.334  1.00  0.00     0.157 HD
ENDBRANCH   5  20
TORSDOF 3
ENDMDL
