MODEL 1
REMARK VINA RESULT: -7.253684204      0.000      0.000
REMARK  3 active torsions:
REMARK  status: ('A' for Active; 'I' for Inactive)
REMARK    1  A    between atoms: C3_9  and  N3_10 
REMARK    2  A    between atoms: N3_10  and  N4_12 
REMARK    3  A    between atoms: C4_14  and  C5_15 
ROOT
HETATM    1  O1  UNL     1     -18.970  22.564   0.561  1.00  0.00    -0.246 OA
HETATM    2  C1  UNL     1     -19.515  23.686   0.382  1.00  0.00     0.342 A 
HETATM    3  N1  UNL     1     -20.190  24.254   1.411  1.00  0.00    -0.260 N 
ATOM      4  H1  UNL     1     -20.262  23.793   2.318  1.00  0.00     0.175 HD
HETATM    5  C2  UNL     1     -20.761  25.449   1.190  1.00  0.00     0.342 A 
HETATM    6  O2  UNL     1     -21.404  26.020   2.122  1.00  0.00    -0.246 OA
HETATM    7  N2  UNL     1     -20.685  26.084   0.007  1.00  0.00    -0.139 N 
ATOM      8  H2  UNL     1     -21.128  26.992  -0.134  1.00  0.00     0.189 HD
HETATM    9  C3  UNL     1     -20.005  25.483  -0.985  1.00  0.00     0.704 A 
HETATM   10  N5  UNL     1     -19.425  24.292  -0.794  1.00  0.00    -0.139 N 
ATOM     11  H5  UNL     1     -18.913  23.848  -1.556  1.00  0.00     0.189 HD
ENDROOT
BRANCH   9  12
HETATM   12  N3  UNL     1     -19.891  26.032  -2.142  1.00  0.00    -0.132 N 
ATOM     13  H3  UNL     1     -20.130  25.481  -2.966  1.00  0.00     0.205 HD
BRANCH  12  14
HETATM   14  N4  UNL     1     -19.473  27.290  -2.319  1.00  0.00    -0.297 N 
HETATM   15  C4  UNL     1     -18.347  27.770  -2.517  1.00  0.00     0.119 C 
ATOM     16  H4  UNL     1     -20.219  27.984  -2.284  1.00  0.00     0.186 HD
BRANCH  15  17
HETATM   17  C5  UNL     1     -17.064  27.072  -2.625  1.00  0.00    -0.019 A 
HETATM   18  C6  UNL     1     -16.523  26.312  -1.635  1.00  0.00     0.013 A 
HETATM   19  C7  UNL     1     -15.292  25.693  -1.851  1.00  0.00     0.001 A 
HETATM   20  C8  UNL     1     -14.610  25.828  -3.034  1.00  0.00     0.000 A 
HETATM   21  C9  UNL     1     -15.187  26.604  -4.013  1.00  0.00     0.001 A 
HETATM   22  C10 UNL     1     -16.393  27.219  -3.819  1.00  0.00     0.013 A 
ENDBRANCH  15  17
ENDBRANCH  12  14
ENDBRANCH   9  12
TORSDOF 3
ENDMDL
MODEL 2
REMARK VINA RESULT: -7.248507896      0.073      1.912
REMARK  3 active torsions:
REMARK  status: ('A' for Active; 'I' for Inactive)
REMARK    1  A    between atoms: C3_9  and  N3_10 
REMARK    2  A    between atoms: N3_10  and  N4_12 
REMARK    3  A    between atoms: C4_14  and  C5_15 
ROOT
HETATM    1  O1  UNL     1     -21.394  26.113   2.066  1.00  0.00    -0.246 OA
HETATM    2  C1  UNL     1     -20.777  25.508   1.149  1.00  0.00     0.342 A 
HETATM    3  N1  UNL     1     -20.265  24.279   1.406  1.00  0.00    -0.260 N 
ATOM      4  H1  UNL     1     -20.371  23.842   2.322  1.00  0.00     0.175 HD
HETATM    5  C2  UNL     1     -19.613  23.661   0.409  1.00  0.00     0.342 A 
HETATM    6  O2  UNL     1     -19.117  22.510   0.603  1.00  0.00    -0.246 OA
HETATM    7  N2  UNL     1     -19.456  24.210  -0.808  1.00  0.00    -0.139 N 
ATOM      8  H2  UNL     1     -18.955  23.718  -1.548  1.00  0.00     0.189 HD
HETATM    9  C3  UNL     1     -19.980  25.430  -1.018  1.00  0.00     0.704 A 
HETATM   10  N5  UNL     1     -20.636  26.071  -0.044  1.00  0.00    -0.139 N 
ATOM     11  H5  UNL     1     -21.028  26.996  -0.219  1.00  0.00     0.189 HD
ENDROOT
BRANCH   9  12
HETATM   12  N3  UNL     1     -19.869  26.015  -2.158  1.00  0.00    -0.132 N 
ATOM     13  H3  UNL     1     -20.113  25.490  -2.998  1.00  0.00     0.205 HD
BRANCH  12  14
HETATM   14  N4  UNL     1     -19.448  27.277  -2.297  1.00  0.00    -0.297 N 
HETATM   15  C4  UNL     1     -18.321  27.761  -2.481  1.00  0.00     0.119 C 
ATOM     16  H4  UNL     1     -20.194  27.971  -2.242  1.00  0.00     0.186 HD
BRANCH  15  17
HETATM   17  C5  UNL     1     -17.041  27.063  -2.610  1.00  0.00    -0.019 A 
HETATM   18  C6  UNL     1     -16.496  26.280  -1.640  1.00  0.00     0.013 A 
HETATM   19  C7  UNL     1     -15.267  25.665  -1.874  1.00  0.00     0.001 A 
HETATM   20  C8  UNL     1     -14.590  25.826  -3.057  1.00  0.00     0.000 A 
HETATM   21  C9  UNL     1     -15.169  26.624  -4.015  1.00  0.00     0.001 A 
HETATM   22  C10 UNL     1     -16.373  27.236  -3.803  1.00  0.00     0.013 A 
ENDBRANCH  15  17
ENDBRANCH  12  14
ENDBRANCH   9  12
TORSDOF 3
ENDMDL
MODEL 3
REMARK VINA RESULT: -7.165528098      0.092      1.145
REMARK  3 active torsions:
REMARK  status: ('A' for Active; 'I' for Inactive)
REMARK    1  A    between atoms: C3_9  and  N3_10 
REMARK    2  A    between atoms: N3_10  and  N4_12 
REMARK    3  A    between atoms: C4_14  and  C5_15 
ROOT
HETATM    1  O1  UNL     1     -18.983  22.569   0.562  1.00  0.00    -0.246 OA
HETATM    2  C1  UNL     1     -19.524  23.692   0.376  1.00  0.00     0.342 A 
HETATM    3  N1  UNL     1     -20.205  24.266   1.399  1.00  0.00    -0.260 N 
ATOM      4  H1  UNL     1     -20.285  23.807   2.307  1.00  0.00     0.175 HD
HETATM    5  C2  UNL     1     -20.770  25.461   1.170  1.00  0.00     0.342 A 
HETATM    6  O2  UNL     1     -21.418  26.037   2.096  1.00  0.00    -0.246 OA
HETATM    7  N2  UNL     1     -20.683  26.093  -0.015  1.00  0.00    -0.139 N 
ATOM      8  H2  UNL     1     -21.123  27.002  -0.161  1.00  0.00     0.189 HD
HETATM    9  C3  UNL     1     -19.998  25.487  -0.999  1.00  0.00     0.704 A 
HETATM   10  N5  UNL     1     -19.423  24.294  -0.801  1.00  0.00    -0.139 N 
ATOM     11  H5  UNL     1     -18.906  23.848  -1.558  1.00  0.00     0.189 HD
ENDROOT
BRANCH   9  12
HETATM   12  N3  UNL     1     -19.873  26.032  -2.157  1.00  0.00    -0.132 N 
ATOM     13  H3  UNL     1     -20.077  25.470  -2.983  1.00  0.00     0.205 HD
BRANCH  12  14
HETATM   14  N4  UNL     1     -19.489  27.301  -2.332  1.00  0.00    -0.297 N 
HETATM   15  C4  UNL     1     -18.382  27.808  -2.572  1.00  0.00     0.119 C 
ATOM     16  H4  UNL     1     -20.247  27.979  -2.254  1.00  0.00     0.186 HD
BRANCH  15  17
HETATM   17  C5  UNL     1     -17.093  27.138  -2.748  1.00  0.00    -0.019 A 
HETATM   18  C6  UNL     1     -16.353  27.193  -3.888  1.00  0.00     0.013 A 
HETATM   19  C7  UNL     1     -15.136  26.513  -3.942  1.00  0.00     0.001 A 
HETATM   20  C8  UNL     1     -14.663  25.790  -2.876  1.00  0.00     0.000 A 
HETATM   21  C9  UNL     1     -15.436  25.757  -1.739  1.00  0.00     0.001 A 
HETATM   22  C10 UNL     1     -16.632  26.416  -1.668  1.00  0.00     0.013 A 
ENDBRANCH  15  17
ENDBRANCH  12  14
ENDBRANCH   9  12
TORSDOF 3
ENDMDL
MODEL 4
REMARK VINA RESULT: -7.054136005      1.784      2.749
REMARK  3 active torsions:
REMARK  status: ('A' for Active; 'I' for Inactive)
REMARK    1  A    between atoms: C3_9  and  N3_10 
REMARK    2  A    between atoms: N3_10  and  N4_12 
REMARK    3  A    between atoms: C4_14  and  C5_15 
ROOT
HETATM    1  O1  UNL     1     -22.250  26.907   0.147  1.00  0.00    -0.246 OA
HETATM    2  C1  UNL     1     -21.383  26.173   0.692  1.00  0.00     0.342 A 
HETATM    3  N1  UNL     1     -21.639  25.663   1.922  1.00  0.00    -0.260 N 
ATOM      4  H1  UNL     1     -22.514  25.863   2.408  1.00  0.00     0.175 HD
HETATM    5  C2  UNL     1     -20.695  24.886   2.476  1.00  0.00     0.342 A 
HETATM    6  O2  UNL     1     -20.889  24.387   3.627  1.00  0.00    -0.246 OA
HETATM    7  N2  UNL     1     -19.532  24.604   1.864  1.00  0.00    -0.139 N 
ATOM      8  H2  UNL     1     -18.832  24.010   2.309  1.00  0.00     0.189 HD
HETATM    9  C3  UNL     1     -19.321  25.131   0.646  1.00  0.00     0.704 A 
HETATM   10  N5  UNL     1     -20.243  25.909   0.067  1.00  0.00    -0.139 N 
ATOM     11  H5  UNL     1     -20.069  26.301  -0.858  1.00  0.00     0.189 HD
ENDROOT
BRANCH   9  12
HETATM   12  N3  UNL     1     -18.232  24.903   0.001  1.00  0.00    -0.132 N 
ATOM     13  H3  UNL     1     -17.401  25.438   0.250  1.00  0.00     0.205 HD
BRANCH  12  14
HETATM   14  N4  UNL     1     -18.136  23.999  -0.980  1.00  0.00    -0.297 N 
HETATM   15  C4  UNL     1     -17.640  24.055  -2.115  1.00  0.00     0.119 C 
ATOM     16  H4  UNL     1     -18.547  23.093  -0.751  1.00  0.00     0.186 HD
BRANCH  15  17
HETATM   17  C5  UNL     1     -16.974  25.186  -2.763  1.00  0.00    -0.019 A 
HETATM   18  C6  UNL     1     -17.588  26.360  -3.072  1.00  0.00     0.013 A 
HETATM   19  C7  UNL     1     -16.851  27.369  -3.691  1.00  0.00     0.001 A 
HETATM   20  C8  UNL     1     -15.523  27.213  -3.997  1.00  0.00     0.000 A 
HETATM   21  C9  UNL     1     -14.934  26.014  -3.670  1.00  0.00     0.001 A 
HETATM   22  C10 UNL     1     -15.640  25.013  -3.064  1.00  0.00     0.013 A 
ENDBRANCH  15  17
ENDBRANCH  12  14
ENDBRANCH   9  12
TORSDOF 3
ENDMDL
MODEL 5
REMARK VINA RESULT: -7.047169344      1.790      2.545
REMARK  3 active torsions:
REMARK  status: ('A' for Active; 'I' for Inactive)
REMARK    1  A    between atoms: C3_9  and  N3_10 
REMARK    2  A    between atoms: N3_10  and  N4_12 
REMARK    3  A    between atoms: C4_14  and  C5_15 
ROOT
HETATM    1  O1  UNL     1     -20.943  24.336   3.636  1.00  0.00    -0.246 OA
HETATM    2  C1  UNL     1     -20.724  24.848   2.506  1.00  0.00     0.342 A 
HETATM    3  N1  UNL     1     -21.669  25.651   1.958  1.00  0.00    -0.260 N 
ATOM      4  H1  UNL     1     -22.545  25.846   2.443  1.00  0.00     0.175 HD
HETATM    5  C2  UNL     1     -21.406  26.180   0.753  1.00  0.00     0.342 A 
HETATM    6  O2  UNL     1     -22.260  26.938   0.200  1.00  0.00    -0.246 OA
HETATM    7  N2  UNL     1     -20.261  25.944   0.087  1.00  0.00    -0.139 N 
ATOM      8  H2  UNL     1     -20.088  26.359  -0.828  1.00  0.00     0.189 HD
HETATM    9  C3  UNL     1     -19.353  25.141   0.669  1.00  0.00     0.704 A 
HETATM   10  N5  UNL     1     -19.587  24.599   1.870  1.00  0.00    -0.139 N 
ATOM     11  H5  UNL     1     -18.887  23.993   2.298  1.00  0.00     0.189 HD
ENDROOT
BRANCH   9  12
HETATM   12  N3  UNL     1     -18.236  24.872   0.091  1.00  0.00    -0.132 N 
ATOM     13  H3  UNL     1     -17.403  25.382   0.386  1.00  0.00     0.205 HD
BRANCH  12  14
HETATM   14  N4  UNL     1     -18.113  23.958  -0.877  1.00  0.00    -0.297 N 
HETATM   15  C4  UNL     1     -17.630  24.018  -2.018  1.00  0.00     0.119 C 
ATOM     16  H4  UNL     1     -18.485  23.041  -0.632  1.00  0.00     0.186 HD
BRANCH  15  17
HETATM   17  C5  UNL     1     -17.016  25.165  -2.689  1.00  0.00    -0.019 A 
HETATM   18  C6  UNL     1     -17.670  26.322  -2.977  1.00  0.00     0.013 A 
HETATM   19  C7  UNL     1     -16.982  27.350  -3.621  1.00  0.00     0.001 A 
HETATM   20  C8  UNL     1     -15.661  27.228  -3.972  1.00  0.00     0.000 A 
HETATM   21  C9  UNL     1     -15.031  26.044  -3.666  1.00  0.00     0.001 A 
HETATM   22  C10 UNL     1     -15.689  25.025  -3.036  1.00  0.00     0.013 A 
ENDBRANCH  15  17
ENDBRANCH  12  14
ENDBRANCH   9  12
TORSDOF 3
ENDMDL
