MODEL 1
REMARK VINA RESULT: -6.614796337      0.000      0.000
REMARK  6 active torsions:
REMARK  status: ('A' for Active; 'I' for Inactive)
REMARK    1  A    between atoms: C7_7  and  O1_8 
REMARK    2  A    between atoms: O1_8  and  C8_9 
REMARK    3  A    between atoms: C8_9  and  C9_10 
REMARK    4  A    between atoms: C10_11  and  N1_12 
REMARK    5  A    between atoms: C11_17  and  N3_18 
REMARK    6  A    between atoms: N4_21  and  O2_22 
ROOT
HETATM    1  C1  UNL     1     -21.326  26.194   0.651  1.00  0.00     0.050 C 
HETATM    2  C2  UNL     1     -20.012  25.562   0.505  1.00  0.00    -0.031 A 
HETATM    3  C3  UNL     1     -19.434  24.846   1.551  1.00  0.00     0.009 A 
HETATM    4  C4  UNL     1     -18.201  24.241   1.446  1.00  0.00     0.002 A 
HETATM    5  C5  UNL     1     -17.481  24.330   0.262  1.00  0.00     0.018 A 
HETATM    6  C6  UNL     1     -18.017  25.026  -0.793  1.00  0.00     0.046 A 
HETATM    7  C7  UNL     1     -17.304  25.126  -1.994  1.00  0.00     0.171 A 
HETATM    8  N2  UNL     1     -17.852  25.813  -3.007  1.00  0.00    -0.168 N 
ATOM      9  H2  UNL     1     -17.341  25.893  -3.887  1.00  0.00     0.186 HD
HETATM   10  C11 UNL     1     -19.064  26.404  -2.894  1.00  0.00     0.704 A 
HETATM   11  N4  UNL     1     -19.732  26.297  -1.730  1.00  0.00    -0.051 N 
HETATM   12  C12 UNL     1     -19.260  25.629  -0.668  1.00  0.00     0.101 A 
ENDROOT
BRANCH   7  13
HETATM   13  O1  UNL     1     -16.069  24.544  -2.162  1.00  0.00    -0.323 OA
BRANCH  13  14
HETATM   14  C8  UNL     1     -15.588  23.974  -3.357  1.00  0.00     0.272 C 
BRANCH  14  15
HETATM   15  C9  UNL     1     -16.211  22.679  -3.617  1.00  0.00    -0.057 C 
HETATM   16  C10 UNL     1     -16.714  21.582  -3.833  1.00  0.00     0.005 C 
BRANCH  16  17
HETATM   17  N1  UNL     1     -17.267  20.315  -4.075  1.00  0.00    -0.359 N 
ATOM     18  H12 UNL     1     -16.609  20.722  -3.411  1.00  0.00     0.166 HD
ATOM     19  H11 UNL     1     -17.679  19.401  -4.265  1.00  0.00     0.166 HD
ENDBRANCH  16  17
ENDBRANCH  14  15
ENDBRANCH  13  14
ENDBRANCH   7  13
BRANCH  10  20
HETATM   20  N3  UNL     1     -19.548  27.066  -3.905  1.00  0.00    -0.232 N 
ATOM     21  H32 UNL     1     -20.250  26.662  -4.525  1.00  0.00     0.174 HD
ATOM     22  H31 UNL     1     -19.227  28.018  -4.080  1.00  0.00     0.174 HD
ENDBRANCH  10  20
BRANCH  11  23
HETATM   23  O2  UNL     1     -20.936  26.904  -1.671  1.00  0.00    -0.269 OA
ATOM     24  H2  UNL     1     -21.630  26.424  -1.234  1.00  0.00     0.245 HD
ENDBRANCH  11  23
TORSDOF 6
ENDMDL
MODEL 2
REMARK VINA RESULT: -6.607591570      1.784      3.560
REMARK  6 active torsions:
REMARK  status: ('A' for Active; 'I' for Inactive)
REMARK    1  A    between atoms: C7_7  and  O1_8 
REMARK    2  A    between atoms: O1_8  and  C8_9 
REMARK    3  A    between atoms: C8_9  and  C9_10 
REMARK    4  A    between atoms: C10_11  and  N1_12 
REMARK    5  A    between atoms: C11_17  and  N3_18 
REMARK    6  A    between atoms: N4_21  and  O2_22 
ROOT
HETATM    1  C1  UNL     1     -18.840  27.972  -4.230  1.00  0.00     0.050 C 
HETATM    2  C2  UNL     1     -17.811  27.189  -3.539  1.00  0.00    -0.031 A 
HETATM    3  C3  UNL     1     -16.530  27.051  -4.069  1.00  0.00     0.009 A 
HETATM    4  C4  UNL     1     -15.542  26.322  -3.445  1.00  0.00     0.002 A 
HETATM    5  C5  UNL     1     -15.802  25.687  -2.238  1.00  0.00     0.018 A 
HETATM    6  C6  UNL     1     -17.053  25.800  -1.682  1.00  0.00     0.046 A 
HETATM    7  C7  UNL     1     -17.333  25.166  -0.466  1.00  0.00     0.171 A 
HETATM    8  N2  UNL     1     -18.564  25.292   0.053  1.00  0.00    -0.168 N 
ATOM      9  H2  UNL     1     -18.779  24.835   0.938  1.00  0.00     0.186 HD
HETATM   10  C11 UNL     1     -19.527  26.011  -0.568  1.00  0.00     0.704 A 
HETATM   11  N4  UNL     1     -19.238  26.611  -1.738  1.00  0.00    -0.051 N 
HETATM   12  C12 UNL     1     -18.036  26.538  -2.326  1.00  0.00     0.101 A 
ENDROOT
BRANCH   7  13
HETATM   13  O1  UNL     1     -16.390  24.425   0.207  1.00  0.00    -0.323 OA
BRANCH  13  14
HETATM   14  C8  UNL     1     -16.455  23.037   0.446  1.00  0.00     0.272 C 
BRANCH  14  15
HETATM   15  C9  UNL     1     -16.552  22.287  -0.803  1.00  0.00    -0.057 C 
HETATM   16  C10 UNL     1     -16.629  21.677  -1.863  1.00  0.00     0.005 C 
BRANCH  16  17
HETATM   17  N1  UNL     1     -16.710  20.998  -3.090  1.00  0.00    -0.359 N 
ATOM     18  H12 UNL     1     -16.401  21.916  -2.769  1.00  0.00     0.166 HD
ATOM     19  H11 UNL     1     -16.776  20.491  -3.972  1.00  0.00     0.166 HD
ENDBRANCH  16  17
ENDBRANCH  14  15
ENDBRANCH  13  14
ENDBRANCH   7  13
BRANCH  10  20
HETATM   20  N3  UNL     1     -20.709  26.096  -0.028  1.00  0.00    -0.232 N 
ATOM     21  H32 UNL     1     -21.081  25.358   0.569  1.00  0.00     0.174 HD
ATOM     22  H31 UNL     1     -21.278  26.926  -0.197  1.00  0.00     0.174 HD
ENDBRANCH  10  20
BRANCH  11  23
HETATM   23  O2  UNL     1     -20.235  27.316  -2.314  1.00  0.00    -0.269 OA
ATOM     24  H2  UNL     1     -20.125  28.259  -2.340  1.00  0.00     0.245 HD
ENDBRANCH  11  23
TORSDOF 6
ENDMDL
MODEL 3
REMARK VINA RESULT: -6.422695601      1.946      2.704
REMARK  6 active torsions:
REMARK  status: ('A' for Active; 'I' for Inactive)
REMARK    1  A    between atoms: C7_7  and  O1_8 
REMARK    2  A    between atoms: O1_8  and  C8_9 
REMARK    3  A    between atoms: C8_9  and  C9_10 
REMARK    4  A    between atoms: C10_11  and  N1_12 
REMARK    5  A    between atoms: C11_17  and  N3_18 
REMARK    6  A    between atoms: N4_21  and  O2_22 
ROOT
HETATM    1  C1  UNL     1     -21.106  25.955   1.295  1.00  0.00     0.050 C 
HETATM    2  C2  UNL     1     -19.835  25.328   0.924  1.00  0.00    -0.031 A 
HETATM    3  C3  UNL     1     -19.150  24.501   1.812  1.00  0.00     0.009 A 
HETATM    4  C4  UNL     1     -17.953  23.898   1.495  1.00  0.00     0.002 A 
HETATM    5  C5  UNL     1     -17.380  24.102   0.247  1.00  0.00     0.018 A 
HETATM    6  C6  UNL     1     -18.024  24.910  -0.658  1.00  0.00     0.046 A 
HETATM    7  C7  UNL     1     -17.460  25.128  -1.920  1.00  0.00     0.171 A 
HETATM    8  N2  UNL     1     -18.111  25.923  -2.783  1.00  0.00    -0.168 N 
ATOM      9  H2  UNL     1     -17.709  26.088  -3.705  1.00  0.00     0.186 HD
HETATM   10  C11 UNL     1     -19.286  26.510  -2.462  1.00  0.00     0.704 A 
HETATM   11  N4  UNL     1     -19.810  26.289  -1.242  1.00  0.00    -0.051 N 
HETATM   12  C12 UNL     1     -19.229  25.510  -0.319  1.00  0.00     0.101 A 
ENDROOT
BRANCH   7  13
HETATM   13  O1  UNL     1     -16.268  24.554  -2.297  1.00  0.00    -0.323 OA
BRANCH  13  14
HETATM   14  C8  UNL     1     -15.101  25.254  -2.663  1.00  0.00     0.272 C 
BRANCH  14  15
HETATM   15  C9  UNL     1     -14.205  25.423  -1.522  1.00  0.00    -0.057 C 
HETATM   16  C10 UNL     1     -13.438  25.577  -0.578  1.00  0.00     0.005 C 
BRANCH  16  17
HETATM   17  N1  UNL     1     -12.546  25.769   0.488  1.00  0.00    -0.359 N 
ATOM     18  H12 UNL     1     -12.951  24.974  -0.006  1.00  0.00     0.166 HD
ATOM     19  H11 UNL     1     -11.899  25.927   1.261  1.00  0.00     0.166 HD
ENDBRANCH  16  17
ENDBRANCH  14  15
ENDBRANCH  13  14
ENDBRANCH   7  13
BRANCH  10  20
HETATM   20  N3  UNL     1     -19.875  27.280  -3.331  1.00  0.00    -0.232 N 
ATOM     21  H32 UNL     1     -19.510  28.203  -3.566  1.00  0.00     0.174 HD
ATOM     22  H31 UNL     1     -20.720  26.952  -3.799  1.00  0.00     0.174 HD
ENDBRANCH  10  20
BRANCH  11  23
HETATM   23  O2  UNL     1     -20.985  26.899  -0.973  1.00  0.00    -0.269 OA
ATOM     24  H2  UNL     1     -21.490  26.543  -0.252  1.00  0.00     0.245 HD
ENDBRANCH  11  23
TORSDOF 6
ENDMDL
MODEL 4
REMARK VINA RESULT: -6.356842178      2.734      4.245
REMARK  6 active torsions:
REMARK  status: ('A' for Active; 'I' for Inactive)
REMARK    1  A    between atoms: C7_7  and  O1_8 
REMARK    2  A    between atoms: O1_8  and  C8_9 
REMARK    3  A    between atoms: C8_9  and  C9_10 
REMARK    4  A    between atoms: C10_11  and  N1_12 
REMARK    5  A    between atoms: C11_17  and  N3_18 
REMARK    6  A    between atoms: N4_21  and  O2_22 
ROOT
HETATM    1  C1  UNL     1     -17.574  23.296   2.890  1.00  0.00     0.050 C 
HETATM    2  C2  UNL     1     -17.547  23.669   1.473  1.00  0.00    -0.031 A 
HETATM    3  C3  UNL     1     -16.511  23.256   0.637  1.00  0.00     0.009 A 
HETATM    4  C4  UNL     1     -16.455  23.590  -0.698  1.00  0.00     0.002 A 
HETATM    5  C5  UNL     1     -17.457  24.368  -1.264  1.00  0.00     0.018 A 
HETATM    6  C6  UNL     1     -18.496  24.794  -0.473  1.00  0.00     0.046 A 
HETATM    7  C7  UNL     1     -19.514  25.579  -1.027  1.00  0.00     0.171 A 
HETATM    8  N2  UNL     1     -20.516  25.982  -0.231  1.00  0.00    -0.168 N 
ATOM      9  H2  UNL     1     -21.262  26.555  -0.623  1.00  0.00     0.186 HD
HETATM   10  C11 UNL     1     -20.561  25.649   1.080  1.00  0.00     0.704 A 
HETATM   11  N4  UNL     1     -19.571  24.894   1.592  1.00  0.00    -0.051 N 
HETATM   12  C12 UNL     1     -18.534  24.448   0.870  1.00  0.00     0.101 A 
ENDROOT
BRANCH   7  13
HETATM   13  O1  UNL     1     -19.516  25.946  -2.353  1.00  0.00    -0.323 OA
BRANCH  13  14
HETATM   14  C8  UNL     1     -19.122  27.201  -2.857  1.00  0.00     0.272 C 
BRANCH  14  15
HETATM   15  C9  UNL     1     -17.725  27.189  -3.282  1.00  0.00    -0.057 C 
HETATM   16  C10 UNL     1     -16.552  27.156  -3.633  1.00  0.00     0.005 C 
BRANCH  16  17
HETATM   17  N1  UNL     1     -15.207  27.094  -4.031  1.00  0.00    -0.359 N 
ATOM     18  H12 UNL     1     -16.111  27.212  -4.488  1.00  0.00     0.166 HD
ATOM     19  H11 UNL     1     -14.224  27.046  -4.302  1.00  0.00     0.166 HD
ENDBRANCH  16  17
ENDBRANCH  14  15
ENDBRANCH  13  14
ENDBRANCH   7  13
BRANCH  10  20
HETATM   20  N3  UNL     1     -21.551  26.071   1.813  1.00  0.00    -0.232 N 
ATOM     21  H32 UNL     1     -21.420  26.342   2.787  1.00  0.00     0.174 HD
ATOM     22  H31 UNL     1     -22.483  26.143   1.403  1.00  0.00     0.174 HD
ENDBRANCH  10  20
BRANCH  11  23
HETATM   23  O2  UNL     1     -19.666  24.590   2.905  1.00  0.00    -0.269 OA
ATOM     24  H2  UNL     1     -20.477  24.184   3.186  1.00  0.00     0.245 HD
ENDBRANCH  11  23
TORSDOF 6
ENDMDL
MODEL 5
REMARK VINA RESULT: -6.346134742      2.726      4.529
REMARK  6 active torsions:
REMARK  status: ('A' for Active; 'I' for Inactive)
REMARK    1  A    between atoms: C7_7  and  O1_8 
REMARK    2  A    between atoms: O1_8  and  C8_9 
REMARK    3  A    between atoms: C8_9  and  C9_10 
REMARK    4  A    between atoms: C10_11  and  N1_12 
REMARK    5  A    between atoms: C11_17  and  N3_18 
REMARK    6  A    between atoms: N4_21  and  O2_22 
ROOT
HETATM    1  C1  UNL     1     -19.703  21.167   1.840  1.00  0.00     0.050 C 
HETATM    2  C2  UNL     1     -18.906  22.019   0.952  1.00  0.00    -0.031 A 
HETATM    3  C3  UNL     1     -17.839  21.502   0.220  1.00  0.00     0.009 A 
HETATM    4  C4  UNL     1     -17.070  22.275  -0.621  1.00  0.00     0.002 A 
HETATM    5  C5  UNL     1     -17.344  23.628  -0.767  1.00  0.00     0.018 A 
HETATM    6  C6  UNL     1     -18.388  24.177  -0.063  1.00  0.00     0.046 A 
HETATM    7  C7  UNL     1     -18.678  25.540  -0.199  1.00  0.00     0.171 A 
HETATM    8  N2  UNL     1     -19.703  26.047   0.502  1.00  0.00    -0.168 N 
ATOM      9  H2  UNL     1     -19.923  27.039   0.412  1.00  0.00     0.186 HD
HETATM   10  C11 UNL     1     -20.452  25.279   1.326  1.00  0.00     0.704 A 
HETATM   11  N4  UNL     1     -20.156  23.971   1.443  1.00  0.00    -0.051 N 
HETATM   12  C12 UNL     1     -19.151  23.381   0.780  1.00  0.00     0.101 A 
ENDROOT
BRANCH   7  13
HETATM   13  O1  UNL     1     -17.949  26.364  -1.022  1.00  0.00    -0.323 OA
BRANCH  13  14
HETATM   14  C8  UNL     1     -18.351  27.638  -1.472  1.00  0.00     0.272 C 
BRANCH  14  15
HETATM   15  C9  UNL     1     -18.740  27.606  -2.880  1.00  0.00    -0.057 C 
HETATM   16  C10 UNL     1     -19.087  27.573  -4.054  1.00  0.00     0.005 C 
BRANCH  16  17
HETATM   17  N1  UNL     1     -19.509  27.531  -5.393  1.00  0.00    -0.359 N 
ATOM     18  H12 UNL     1     -18.714  27.909  -4.877  1.00  0.00     0.166 HD
ATOM     19  H11 UNL     1     -19.831  27.491  -6.360  1.00  0.00     0.166 HD
ENDBRANCH  16  17
ENDBRANCH  14  15
ENDBRANCH  13  14
ENDBRANCH   7  13
BRANCH  10  20
HETATM   20  N3  UNL     1     -21.432  25.822   1.991  1.00  0.00    -0.232 N 
ATOM     21  H32 UNL     1     -21.270  26.363   2.840  1.00  0.00     0.174 HD
ATOM     22  H31 UNL     1     -22.388  25.712   1.653  1.00  0.00     0.174 HD
ENDBRANCH  10  20
BRANCH  11  23
HETATM   23  O2  UNL     1     -20.935  23.251   2.277  1.00  0.00    -0.269 OA
ATOM     24  H2  UNL     1     -20.938  22.310   2.145  1.00  0.00     0.245 HD
ENDBRANCH  11  23
TORSDOF 6
ENDMDL
