MODEL 1
REMARK VINA RESULT: -6.040911363      0.000      0.000
REMARK  3 active torsions:
REMARK  status: ('A' for Active; 'I' for Inactive)
REMARK    1  A    between atoms: C4_9  and  C5_10 
REMARK    2  A    between atoms: C6_11  and  N3_12 
REMARK    3  A    between atoms: N4_18  and  N5_19 
ROOT
HETATM    1  C5  UNL     1      82.765  98.134  20.005  1.00  0.00     0.117 A 
HETATM    2  C6  UNL     1      82.834  97.258  18.956  1.00  0.00     0.134 A 
HETATM    3  C7  UNL     1      81.908  97.381  17.904  1.00  0.00     0.040 A 
HETATM    4  C8  UNL     1      80.991  98.375  17.996  1.00  0.00     0.022 A 
HETATM    5  C9  UNL     1      80.962  99.227  19.066  1.00  0.00     0.116 A 
HETATM    6  N4  UNL     1      81.832  99.133  20.085  1.00  0.00    -0.269 N 
ENDROOT
BRANCH   1   7
HETATM    7  C4  UNL     1      83.696  98.075  21.120  1.00  0.00     0.090 A 
HETATM    8  C2  UNL     1      83.423  97.447  22.319  1.00  0.00     0.039 A 
HETATM    9  C1  UNL     1      82.179  96.728  22.716  1.00  0.00     0.071 C 
HETATM   10  N1  UNL     1      84.525  97.619  23.071  1.00  0.00    -0.310 N 
HETATM   11  C3  UNL     1      85.445  98.318  22.382  1.00  0.00     0.325 A 
ATOM     12  H1  UNL     1      84.646  97.270  24.022  1.00  0.00     0.170 HD
HETATM   13  O1  UNL     1      86.584  98.638  22.824  1.00  0.00    -0.247 OA
HETATM   14  N2  UNL     1      84.912  98.591  21.178  1.00  0.00    -0.305 N 
ATOM     15  H2  UNL     1      85.371  99.111  20.430  1.00  0.00     0.171 HD
ENDBRANCH   1   7
BRANCH   2  16
HETATM   16  N3  UNL     1      83.791  96.224  18.908  1.00  0.00    -0.113 N 
HETATM   17  O2  UNL     1      83.485  95.053  19.118  1.00  0.00    -0.532 OA
HETATM   18  O3  UNL     1      85.105  96.514  18.629  1.00  0.00    -0.532 OA
ENDBRANCH   2  16
BRANCH   6  19
HETATM   19  N5  UNL     1      81.808  99.997  21.178  1.00  0.00    -0.338 N 
ATOM     20  H52 UNL     1      82.555 100.031  21.872  1.00  0.00     0.177 HD
ATOM     21  H51 UNL     1      81.024 100.635  21.319  1.00  0.00     0.177 HD
ENDBRANCH   6  19
TORSDOF 3
ENDMDL
MODEL 2
REMARK VINA RESULT: -5.753764163      3.495      5.317
REMARK  3 active torsions:
REMARK  status: ('A' for Active; 'I' for Inactive)
REMARK    1  A    between atoms: C4_9  and  C5_10 
REMARK    2  A    between atoms: C6_11  and  N3_12 
REMARK    3  A    between atoms: N4_18  and  N5_19 
ROOT
HETATM    1  C5  UNL     1      83.388  94.879  16.665  1.00  0.00     0.117 A 
HETATM    2  C6  UNL     1      84.741  94.938  16.465  1.00  0.00     0.134 A 
HETATM    3  C7  UNL     1      85.352  93.968  15.649  1.00  0.00     0.040 A 
HETATM    4  C8  UNL     1      84.550  93.021  15.103  1.00  0.00     0.022 A 
HETATM    5  C9  UNL     1      83.202  93.004  15.334  1.00  0.00     0.116 A 
HETATM    6  N4  UNL     1      82.592  93.915  16.108  1.00  0.00    -0.269 N 
ENDROOT
BRANCH   1   7
HETATM    7  C4  UNL     1      82.688  95.855  17.485  1.00  0.00     0.090 A 
HETATM    8  C2  UNL     1      82.335  95.641  18.803  1.00  0.00     0.039 A 
HETATM    9  C1  UNL     1      82.578  94.428  19.633  1.00  0.00     0.071 C 
HETATM   10  N1  UNL     1      81.713  96.769  19.192  1.00  0.00    -0.310 N 
HETATM   11  C3  UNL     1      81.678  97.647  18.173  1.00  0.00     0.325 A 
ATOM     12  H1  UNL     1      81.326  96.934  20.121  1.00  0.00     0.170 HD
HETATM   13  O1  UNL     1      81.158  98.797  18.234  1.00  0.00    -0.247 OA
HETATM   14  N2  UNL     1      82.286  97.062  17.127  1.00  0.00    -0.305 N 
ATOM     15  H2  UNL     1      82.417  97.481  16.206  1.00  0.00     0.171 HD
ENDBRANCH   1   7
BRANCH   2  16
HETATM   16  N3  UNL     1      85.543  95.929  17.067  1.00  0.00    -0.113 N 
HETATM   17  O2  UNL     1      85.368  96.279  18.231  1.00  0.00    -0.532 OA
HETATM   18  O3  UNL     1      86.545  96.534  16.348  1.00  0.00    -0.532 OA
ENDBRANCH   2  16
BRANCH   6  19
HETATM   19  N5  UNL     1      81.218  93.903  16.347  1.00  0.00    -0.338 N 
ATOM     20  H52 UNL     1      80.822  93.869  17.287  1.00  0.00     0.177 HD
ATOM     21  H51 UNL     1      80.556  93.929  15.573  1.00  0.00     0.177 HD
ENDBRANCH   6  19
TORSDOF 3
ENDMDL
MODEL 3
REMARK VINA RESULT: -5.656486280      2.304      3.444
REMARK  3 active torsions:
REMARK  status: ('A' for Active; 'I' for Inactive)
REMARK    1  A    between atoms: C4_9  and  C5_10 
REMARK    2  A    between atoms: C6_11  and  N3_12 
REMARK    3  A    between atoms: N4_18  and  N5_19 
ROOT
HETATM    1  C5  UNL     1      83.652  98.075  20.282  1.00  0.00     0.117 A 
HETATM    2  C6  UNL     1      82.412  98.648  20.368  1.00  0.00     0.134 A 
HETATM    3  C7  UNL     1      81.492  98.441  19.324  1.00  0.00     0.040 A 
HETATM    4  C8  UNL     1      81.898  97.674  18.281  1.00  0.00     0.022 A 
HETATM    5  C9  UNL     1      83.149  97.122  18.242  1.00  0.00     0.116 A 
HETATM    6  N4  UNL     1      84.047  97.304  19.223  1.00  0.00    -0.269 N 
ENDROOT
BRANCH   1   7
HETATM    7  C4  UNL     1      84.648  98.236  21.329  1.00  0.00     0.090 A 
HETATM    8  C2  UNL     1      85.669  99.165  21.284  1.00  0.00     0.039 A 
HETATM    9  C1  UNL     1      85.961 100.156  20.210  1.00  0.00     0.071 C 
HETATM   10  N1  UNL     1      86.360  98.990  22.426  1.00  0.00    -0.310 N 
HETATM   11  C3  UNL     1      85.803  98.004  23.151  1.00  0.00     0.325 A 
ATOM     12  H1  UNL     1      87.183  99.526  22.700  1.00  0.00     0.170 HD
HETATM   13  O1  UNL     1      86.229  97.609  24.273  1.00  0.00    -0.247 OA
HETATM   14  N2  UNL     1      84.746  97.550  22.455  1.00  0.00    -0.305 N 
ATOM     15  H2  UNL     1      84.121  96.800  22.748  1.00  0.00     0.171 HD
ENDBRANCH   1   7
BRANCH   2  16
HETATM   16  N3  UNL     1      82.036  99.457  21.460  1.00  0.00    -0.113 N 
HETATM   17  O2  UNL     1      81.716 100.633  21.310  1.00  0.00    -0.532 OA
HETATM   18  O3  UNL     1      82.030  98.936  22.732  1.00  0.00    -0.532 OA
ENDBRANCH   2  16
BRANCH   6  19
HETATM   19  N5  UNL     1      85.324  96.745  19.188  1.00  0.00    -0.338 N 
ATOM     20  H52 UNL     1      85.795  96.394  20.022  1.00  0.00     0.177 HD
ATOM     21  H51 UNL     1      85.834  96.669  18.308  1.00  0.00     0.177 HD
ENDBRANCH   6  19
TORSDOF 3
ENDMDL
MODEL 4
REMARK VINA RESULT: -5.601304103      4.659      7.135
REMARK  3 active torsions:
REMARK  status: ('A' for Active; 'I' for Inactive)
REMARK    1  A    between atoms: C4_9  and  C5_10 
REMARK    2  A    between atoms: C6_11  and  N3_12 
REMARK    3  A    between atoms: N4_18  and  N5_19 
ROOT
HETATM    1  C5  UNL     1      82.328  94.799  15.575  1.00  0.00     0.117 A 
HETATM    2  C6  UNL     1      82.758  95.338  16.757  1.00  0.00     0.134 A 
HETATM    3  C7  UNL     1      81.808  95.870  17.649  1.00  0.00     0.040 A 
HETATM    4  C8  UNL     1      80.506  95.813  17.275  1.00  0.00     0.022 A 
HETATM    5  C9  UNL     1      80.126  95.263  16.082  1.00  0.00     0.116 A 
HETATM    6  N4  UNL     1      81.010  94.749  15.212  1.00  0.00    -0.269 N 
ENDROOT
BRANCH   1   7
HETATM    7  C4  UNL     1      83.252  94.220  14.612  1.00  0.00     0.090 A 
HETATM    8  C2  UNL     1      83.497  92.866  14.498  1.00  0.00     0.039 A 
HETATM    9  C1  UNL     1      82.901  91.755  15.295  1.00  0.00     0.071 C 
HETATM   10  N1  UNL     1      84.398  92.749  13.507  1.00  0.00    -0.310 N 
HETATM   11  C3  UNL     1      84.705  93.966  13.021  1.00  0.00     0.325 A 
ATOM     12  H1  UNL     1      84.791  91.869  13.173  1.00  0.00     0.170 HD
HETATM   13  O1  UNL     1      85.524  94.180  12.084  1.00  0.00    -0.247 OA
HETATM   14  N2  UNL     1      83.985  94.861  13.719  1.00  0.00    -0.305 N 
ATOM     15  H2  UNL     1      84.001  95.872  13.581  1.00  0.00     0.171 HD
ENDBRANCH   1   7
BRANCH   2  16
HETATM   16  N3  UNL     1      84.125  95.396  17.099  1.00  0.00    -0.113 N 
HETATM   17  O2  UNL     1      84.585  94.736  18.027  1.00  0.00    -0.532 OA
HETATM   18  O3  UNL     1      84.976  96.213  16.394  1.00  0.00    -0.532 OA
ENDBRANCH   2  16
BRANCH   6  19
HETATM   19  N5  UNL     1      80.628  94.188  13.994  1.00  0.00    -0.338 N 
ATOM     20  H52 UNL     1      81.302  93.919  13.276  1.00  0.00     0.177 HD
ATOM     21  H51 UNL     1      79.644  94.027  13.781  1.00  0.00     0.177 HD
ENDBRANCH   6  19
TORSDOF 3
ENDMDL
MODEL 5
REMARK VINA RESULT: -5.549751819      5.057      6.860
REMARK  3 active torsions:
REMARK  status: ('A' for Active; 'I' for Inactive)
REMARK    1  A    between atoms: C4_9  and  C5_10 
REMARK    2  A    between atoms: C6_11  and  N3_12 
REMARK    3  A    between atoms: N4_18  and  N5_19 
ROOT
HETATM    1  C5  UNL     1      81.875  94.705  15.271  1.00  0.00     0.117 A 
HETATM    2  C6  UNL     1      81.472  95.156  16.498  1.00  0.00     0.134 A 
HETATM    3  C7  UNL     1      80.101  95.367  16.730  1.00  0.00     0.040 A 
HETATM    4  C8  UNL     1      79.250  95.106  15.707  1.00  0.00     0.022 A 
HETATM    5  C9  UNL     1      79.702  94.656  14.497  1.00  0.00     0.116 A 
HETATM    6  N4  UNL     1      81.004  94.447  14.247  1.00  0.00    -0.269 N 
ENDROOT
BRANCH   1   7
HETATM    7  C4  UNL     1      83.274  94.452  14.964  1.00  0.00     0.090 A 
HETATM    8  C2  UNL     1      83.839  93.193  14.929  1.00  0.00     0.039 A 
HETATM    9  C1  UNL     1      83.177  91.882  15.183  1.00  0.00     0.071 C 
HETATM   10  N1  UNL     1      85.132  93.392  14.614  1.00  0.00    -0.310 N 
HETATM   11  C3  UNL     1      85.369  94.707  14.459  1.00  0.00     0.325 A 
ATOM     12  H1  UNL     1      85.829  92.655  14.509  1.00  0.00     0.170 HD
HETATM   13  O1  UNL     1      86.491  95.205  14.162  1.00  0.00    -0.247 OA
HETATM   14  N2  UNL     1      84.206  95.345  14.680  1.00  0.00    -0.305 N 
ATOM     15  H2  UNL     1      84.067  96.355  14.636  1.00  0.00     0.171 HD
ENDBRANCH   1   7
BRANCH   2  16
HETATM   16  N3  UNL     1      82.391  95.435  17.531  1.00  0.00    -0.113 N 
HETATM   17  O2  UNL     1      82.572  94.653  18.460  1.00  0.00    -0.532 OA
HETATM   18  O3  UNL     1      83.105  96.609  17.518  1.00  0.00    -0.532 OA
ENDBRANCH   2  16
BRANCH   6  19
HETATM   19  N5  UNL     1      81.471  93.989  13.015  1.00  0.00    -0.338 N 
ATOM     20  H52 UNL     1      82.126  93.211  12.928  1.00  0.00     0.177 HD
ATOM     21  H51 UNL     1      81.164  94.428  12.147  1.00  0.00     0.177 HD
ENDBRANCH   6  19
TORSDOF 3
ENDMDL
