MODEL 1
REMARK VINA RESULT: -8.043928015      0.000      0.000
REMARK  9 active torsions:
REMARK  status: ('A' for Active; 'I' for Inactive)
REMARK    1  A    between atoms: O1_2  and  C2_3 
REMARK    2  A    between atoms: C4_5  and  N1_6 
REMARK    3  A    between atoms: N1_6  and  C5_8 
REMARK    4  A    between atoms: C10_14  and  N2_15 
REMARK    5  A    between atoms: N2_15  and  C11_17 
REMARK    6  A    between atoms: C11_17  and  O3_18 
REMARK    7  A    between atoms: C11_17  and  C12_20 
REMARK    8  A    between atoms: C14_25  and  C15_26 
REMARK    9  A    between atoms: C17_30  and  S2_31 
ROOT
HETATM    1  C11 UNL     1      -9.535   8.722  17.254  1.00  0.00     0.158 C 
ENDROOT
BRANCH   1   2
HETATM    2  N2  UNL     1      -8.953   7.792  16.437  1.00  0.00    -0.333 N 
ATOM      3  H2  UNL     1      -9.219   7.731  15.454  1.00  0.00     0.168 HD
BRANCH   2   4
HETATM    4  C10 UNL     1      -7.946   6.885  16.983  1.00  0.00     0.074 A 
HETATM    5  C2  UNL     1      -6.696   7.393  17.246  1.00  0.00     0.097 A 
HETATM    6  C3  UNL     1      -5.719   6.550  17.766  1.00  0.00     0.069 A 
HETATM    7  C4  UNL     1      -5.943   5.228  18.034  1.00  0.00     0.043 A 
HETATM    8  C6  UNL     1      -7.237   4.737  17.752  1.00  0.00    -0.027 A 
HETATM    9  C7  UNL     1      -7.560   3.323  18.011  1.00  0.00     0.051 C 
HETATM   10  C8  UNL     1      -8.209   5.565  17.237  1.00  0.00    -0.024 A 
HETATM   11  C9  UNL     1      -9.546   5.005  16.961  1.00  0.00     0.051 C 
BRANCH   5  12
HETATM   12  O1  UNL     1      -6.397   8.711  17.003  1.00  0.00    -0.354 OA
HETATM   13  C1  UNL     1      -5.560   9.053  15.923  1.00  0.00     0.210 C 
ENDBRANCH   5  12
BRANCH   7  14
HETATM   14  N1  UNL     1      -4.998   4.328  18.560  1.00  0.00    -0.334 N 
ATOM     15  H1  UNL     1      -4.942   3.405  18.128  1.00  0.00     0.168 HD
BRANCH  14  16
HETATM   16  C5  UNL     1      -4.133   4.587  19.621  1.00  0.00     0.353 C 
HETATM   17  O2  UNL     1      -3.016   5.113  19.580  1.00  0.00    -0.283 OA
ENDBRANCH  14  16
ENDBRANCH   7  14
ENDBRANCH   2   4
ENDBRANCH   1   2
BRANCH   1  18
HETATM   18  O3  UNL     1      -9.287   8.582  18.539  1.00  0.00    -0.345 OA
ATOM     19  H3  UNL     1      -9.418   7.708  18.887  1.00  0.00     0.219 HD
ENDBRANCH   1  18
BRANCH   1  20
HETATM   20  C12 UNL     1     -10.396   9.865  16.917  1.00  0.00     0.064 A 
HETATM   21  S1  UNL     1     -12.096   9.953  17.274  1.00  0.00    -0.067 SA
HETATM   22  C13 UNL     1     -12.431  11.498  16.645  1.00  0.00     0.087 A 
HETATM   23  N3  UNL     1     -13.591  12.238  16.598  1.00  0.00    -0.349 N 
HETATM   24  C19 UNL     1     -11.216  11.921  16.165  1.00  0.00     0.022 A 
HETATM   25  C14 UNL     1     -13.625  13.466  16.069  1.00  0.00     0.076 A 
ATOM     26  H3  UNL     1     -14.449  11.839  16.978  1.00  0.00     0.166 HD
HETATM   27  C16 UNL     1     -12.430  13.918  15.586  1.00  0.00     0.050 A 
HETATM   28  C17 UNL     1     -11.238  13.217  15.607  1.00  0.00     0.015 A 
HETATM   29  C20 UNL     1     -10.174  11.063  16.309  1.00  0.00    -0.026 A 
HETATM   30  C21 UNL     1      -8.794  11.327  15.712  1.00  0.00     0.050 C 
BRANCH  25  31
HETATM   31  C15 UNL     1     -14.881  14.248  16.026  1.00  0.00     0.403 C 
HETATM   32  F1  UNL     1     -15.181  14.696  14.764  1.00  0.00    -0.208 F 
HETATM   33  F2  UNL     1     -15.889  13.413  16.514  1.00  0.00    -0.208 F 
ENDBRANCH  25  31
BRANCH  28  34
HETATM   34  S2  UNL     1      -9.782  14.059  14.977  1.00  0.00    -0.133 SA
HETATM   35  C18 UNL     1      -9.646  13.848  13.178  1.00  0.00     0.095 C 
ENDBRANCH  28  34
ENDBRANCH   1  20
TORSDOF 9
ENDMDL
MODEL 2
REMARK VINA RESULT: -7.872229944      4.882      9.429
REMARK  9 active torsions:
REMARK  status: ('A' for Active; 'I' for Inactive)
REMARK    1  A    between atoms: O1_2  and  C2_3 
REMARK    2  A    between atoms: C4_5  and  N1_6 
REMARK    3  A    between atoms: N1_6  and  C5_8 
REMARK    4  A    between atoms: C10_14  and  N2_15 
REMARK    5  A    between atoms: N2_15  and  C11_17 
REMARK    6  A    between atoms: C11_17  and  O3_18 
REMARK    7  A    between atoms: C11_17  and  C12_20 
REMARK    8  A    between atoms: C14_25  and  C15_26 
REMARK    9  A    between atoms: C17_30  and  S2_31 
ROOT
HETATM    1  C11 UNL     1     -10.246  11.121  15.592  1.00  0.00     0.158 C 
ENDROOT
BRANCH   1   2
HETATM    2  N2  UNL     1     -10.752  11.741  16.703  1.00  0.00    -0.333 N 
ATOM      3  H2  UNL     1     -10.124  12.149  17.395  1.00  0.00     0.168 HD
BRANCH   2   4
HETATM    4  C10 UNL     1     -12.199  11.813  16.888  1.00  0.00     0.074 A 
HETATM    5  C2  UNL     1     -12.818  10.773  17.540  1.00  0.00     0.097 A 
HETATM    6  C3  UNL     1     -14.196  10.818  17.729  1.00  0.00     0.069 A 
HETATM    7  C4  UNL     1     -14.973  11.855  17.295  1.00  0.00     0.043 A 
HETATM    8  C6  UNL     1     -14.306  12.907  16.628  1.00  0.00    -0.027 A 
HETATM    9  C7  UNL     1     -15.072  14.063  16.128  1.00  0.00     0.051 C 
HETATM   10  C8  UNL     1     -12.944  12.870  16.437  1.00  0.00    -0.024 A 
HETATM   11  C9  UNL     1     -12.294  13.994  15.735  1.00  0.00     0.051 C 
BRANCH   5  12
HETATM   12  O1  UNL     1     -12.103   9.697  18.005  1.00  0.00    -0.354 OA
HETATM   13  C1  UNL     1     -12.780   8.568  18.506  1.00  0.00     0.210 C 
ENDBRANCH   5  12
BRANCH   7  14
HETATM   14  N1  UNL     1     -16.367  11.958  17.457  1.00  0.00    -0.334 N 
ATOM     15  H1  UNL     1     -16.891  12.415  16.711  1.00  0.00     0.168 HD
BRANCH  14  16
HETATM   16  C5  UNL     1     -17.093  11.489  18.549  1.00  0.00     0.353 C 
HETATM   17  O2  UNL     1     -17.520  10.345  18.745  1.00  0.00    -0.283 OA
ENDBRANCH  14  16
ENDBRANCH   7  14
ENDBRANCH   2   4
ENDBRANCH   1   2
BRANCH   1  18
HETATM   18  O3  UNL     1     -10.889  11.359  14.469  1.00  0.00    -0.345 OA
ATOM     19  H3  UNL     1     -11.677  10.847  14.333  1.00  0.00     0.219 HD
ENDBRANCH   1  18
BRANCH   1  20
HETATM   20  C12 UNL     1      -9.085  10.229  15.458  1.00  0.00     0.064 A 
HETATM   21  S1  UNL     1      -8.164  10.030  13.995  1.00  0.00    -0.067 SA
HETATM   22  C13 UNL     1      -7.008   8.910  14.548  1.00  0.00     0.087 A 
HETATM   23  N3  UNL     1      -5.938   8.312  13.921  1.00  0.00    -0.349 N 
HETATM   24  C19 UNL     1      -7.357   8.707  15.859  1.00  0.00     0.022 A 
HETATM   25  C14 UNL     1      -5.127   7.464  14.562  1.00  0.00     0.076 A 
ATOM     26  H3  UNL     1      -5.758   8.522  12.940  1.00  0.00     0.166 HD
HETATM   27  C16 UNL     1      -5.445   7.243  15.873  1.00  0.00     0.050 A 
HETATM   28  C17 UNL     1      -6.507   7.815  16.550  1.00  0.00     0.015 A 
HETATM   29  C20 UNL     1      -8.437   9.393  16.314  1.00  0.00    -0.026 A 
HETATM   30  C21 UNL     1      -9.031   9.178  17.704  1.00  0.00     0.050 C 
BRANCH  25  31
HETATM   31  C15 UNL     1      -3.981   6.828  13.874  1.00  0.00     0.403 C 
HETATM   32  F1  UNL     1      -4.116   5.467  13.771  1.00  0.00    -0.208 F 
HETATM   33  F2  UNL     1      -3.894   7.421  12.613  1.00  0.00    -0.208 F 
ENDBRANCH  25  31
BRANCH  28  34
HETATM   34  S2  UNL     1      -6.673   7.425  18.294  1.00  0.00    -0.133 SA
HETATM   35  C18 UNL     1      -5.065   6.970  19.006  1.00  0.00     0.095 C 
ENDBRANCH  28  34
ENDBRANCH   1  20
TORSDOF 9
ENDMDL
MODEL 3
REMARK VINA RESULT: -7.840785305      2.530      3.493
REMARK  9 active torsions:
REMARK  status: ('A' for Active; 'I' for Inactive)
REMARK    1  A    between atoms: O1_2  and  C2_3 
REMARK    2  A    between atoms: C4_5  and  N1_6 
REMARK    3  A    between atoms: N1_6  and  C5_8 
REMARK    4  A    between atoms: C10_14  and  N2_15 
REMARK    5  A    between atoms: N2_15  and  C11_17 
REMARK    6  A    between atoms: C11_17  and  O3_18 
REMARK    7  A    between atoms: C11_17  and  C12_20 
REMARK    8  A    between atoms: C14_25  and  C15_26 
REMARK    9  A    between atoms: C17_30  and  S2_31 
ROOT
HETATM    1  C11 UNL     1      -9.351   8.821  16.638  1.00  0.00     0.158 C 
ENDROOT
BRANCH   1   2
HETATM    2  N2  UNL     1      -8.990   8.165  17.784  1.00  0.00    -0.333 N 
ATOM      3  H2  UNL     1      -8.246   8.534  18.376  1.00  0.00     0.168 HD
BRANCH   2   4
HETATM    4  C10 UNL     1      -9.680   6.931  18.152  1.00  0.00     0.074 A 
HETATM    5  C2  UNL     1      -9.304   5.769  17.519  1.00  0.00     0.097 A 
HETATM    6  C3  UNL     1      -9.946   4.580  17.851  1.00  0.00     0.069 A 
HETATM    7  C4  UNL     1     -10.942   4.508  18.786  1.00  0.00     0.043 A 
HETATM    8  C6  UNL     1     -11.305   5.720  19.416  1.00  0.00    -0.027 A 
HETATM    9  C7  UNL     1     -12.370   5.728  20.435  1.00  0.00     0.051 C 
HETATM   10  C8  UNL     1     -10.675   6.899  19.093  1.00  0.00    -0.024 A 
HETATM   11  C9  UNL     1     -11.088   8.138  19.780  1.00  0.00     0.051 C 
BRANCH   5  12
HETATM   12  O1  UNL     1      -8.312   5.764  16.570  1.00  0.00    -0.354 OA
HETATM   13  C1  UNL     1      -6.973   5.557  16.956  1.00  0.00     0.210 C 
ENDBRANCH   5  12
BRANCH   7  14
HETATM   14  N1  UNL     1     -11.627   3.338  19.164  1.00  0.00    -0.334 N 
ATOM     15  H1  UNL     1     -12.597   3.248  18.863  1.00  0.00     0.168 HD
BRANCH  14  16
HETATM   16  C5  UNL     1     -11.093   2.294  19.915  1.00  0.00     0.353 C 
HETATM   17  O2  UNL     1     -11.661   1.265  20.298  1.00  0.00    -0.283 OA
ENDBRANCH  14  16
ENDBRANCH   7  14
ENDBRANCH   2   4
ENDBRANCH   1   2
BRANCH   1  18
HETATM   18  O3  UNL     1      -8.807   8.367  15.530  1.00  0.00    -0.345 OA
ATOM     19  H3  UNL     1      -7.862   8.440  15.478  1.00  0.00     0.219 HD
ENDBRANCH   1  18
BRANCH   1  20
HETATM   20  C12 UNL     1     -10.262   9.960  16.452  1.00  0.00     0.064 A 
HETATM   21  S1  UNL     1     -11.944   9.955  16.898  1.00  0.00    -0.067 SA
HETATM   22  C13 UNL     1     -12.357  11.538  16.433  1.00  0.00     0.087 A 
HETATM   23  N3  UNL     1     -13.540  12.238  16.513  1.00  0.00    -0.349 N 
HETATM   24  C19 UNL     1     -11.183  12.046  15.938  1.00  0.00     0.022 A 
HETATM   25  C14 UNL     1     -13.640  13.507  16.104  1.00  0.00     0.076 A 
ATOM     26  H3  UNL     1     -14.365  11.775  16.895  1.00  0.00     0.166 HD
HETATM   27  C16 UNL     1     -12.485  14.044  15.608  1.00  0.00     0.050 A 
HETATM   28  C17 UNL     1     -11.272  13.387  15.505  1.00  0.00     0.015 A 
HETATM   29  C20 UNL     1     -10.109  11.215  15.950  1.00  0.00    -0.026 A 
HETATM   30  C21 UNL     1      -8.770  11.582  15.315  1.00  0.00     0.050 C 
BRANCH  25  31
HETATM   31  C15 UNL     1     -14.919  14.246  16.195  1.00  0.00     0.403 C 
HETATM   32  F1  UNL     1     -15.303  14.788  14.994  1.00  0.00    -0.208 F 
HETATM   33  F2  UNL     1     -15.872  13.337  16.662  1.00  0.00    -0.208 F 
ENDBRANCH  25  31
BRANCH  28  34
HETATM   34  S2  UNL     1      -9.877  14.334  14.888  1.00  0.00    -0.133 SA
HETATM   35  C18 UNL     1      -9.623  14.023  13.116  1.00  0.00     0.095 C 
ENDBRANCH  28  34
ENDBRANCH   1  20
TORSDOF 9
ENDMDL
MODEL 4
REMARK VINA RESULT: -7.755111262      2.047      2.875
REMARK  9 active torsions:
REMARK  status: ('A' for Active; 'I' for Inactive)
REMARK    1  A    between atoms: O1_2  and  C2_3 
REMARK    2  A    between atoms: C4_5  and  N1_6 
REMARK    3  A    between atoms: N1_6  and  C5_8 
REMARK    4  A    between atoms: C10_14  and  N2_15 
REMARK    5  A    between atoms: N2_15  and  C11_17 
REMARK    6  A    between atoms: C11_17  and  O3_18 
REMARK    7  A    between atoms: C11_17  and  C12_20 
REMARK    8  A    between atoms: C14_25  and  C15_26 
REMARK    9  A    between atoms: C17_30  and  S2_31 
ROOT
HETATM    1  C11 UNL     1      -9.563   9.466  18.433  1.00  0.00     0.158 C 
ENDROOT
BRANCH   1   2
HETATM    2  N2  UNL     1      -9.145   8.251  17.962  1.00  0.00    -0.333 N 
ATOM      3  H2  UNL     1      -9.669   7.405  18.185  1.00  0.00     0.168 HD
BRANCH   2   4
HETATM    4  C10 UNL     1      -7.944   8.177  17.135  1.00  0.00     0.074 A 
HETATM    5  C2  UNL     1      -6.764   7.815  17.743  1.00  0.00     0.097 A 
HETATM    6  C3  UNL     1      -5.605   7.737  16.977  1.00  0.00     0.069 A 
HETATM    7  C4  UNL     1      -5.579   8.004  15.636  1.00  0.00     0.043 A 
HETATM    8  C6  UNL     1      -6.807   8.374  15.043  1.00  0.00    -0.027 A 
HETATM    9  C7  UNL     1      -6.865   8.679  13.602  1.00  0.00     0.051 C 
HETATM   10  C8  UNL     1      -7.958   8.453  15.793  1.00  0.00    -0.024 A 
HETATM   11  C9  UNL     1      -9.216   8.842  15.127  1.00  0.00     0.051 C 
BRANCH   5  12
HETATM   12  O1  UNL     1      -6.712   7.532  19.085  1.00  0.00    -0.354 OA
HETATM   13  C1  UNL     1      -5.664   6.742  19.596  1.00  0.00     0.210 C 
ENDBRANCH   5  12
BRANCH   7  14
HETATM   14  N1  UNL     1      -4.442   7.941  14.811  1.00  0.00    -0.334 N 
ATOM     15  H1  UNL     1      -3.815   8.746  14.820  1.00  0.00     0.168 HD
BRANCH  14  16
HETATM   16  C5  UNL     1      -4.098   6.876  13.982  1.00  0.00     0.353 C 
HETATM   17  O2  UNL     1      -2.979   6.577  13.550  1.00  0.00    -0.283 OA
ENDBRANCH  14  16
ENDBRANCH   7  14
ENDBRANCH   2   4
ENDBRANCH   1   2
BRANCH   1  18
HETATM   18  O3  UNL     1      -9.097   9.805  19.617  1.00  0.00    -0.345 OA
ATOM     19  H3  UNL     1      -9.261  10.703  19.878  1.00  0.00     0.219 HD
ENDBRANCH   1  18
BRANCH   1  20
HETATM   20  C12 UNL     1     -10.452  10.461  17.817  1.00  0.00     0.064 A 
HETATM   21  S1  UNL     1     -12.185  10.460  17.972  1.00  0.00    -0.067 SA
HETATM   22  C13 UNL     1     -12.545  11.848  17.056  1.00  0.00     0.087 A 
HETATM   23  N3  UNL     1     -13.738  12.468  16.761  1.00  0.00    -0.349 N 
HETATM   24  C19 UNL     1     -11.313  12.289  16.641  1.00  0.00     0.022 A 
HETATM   25  C14 UNL     1     -13.792  13.586  16.029  1.00  0.00     0.076 A 
ATOM     26  H3  UNL     1     -14.607  12.064  17.111  1.00  0.00     0.166 HD
HETATM   27  C16 UNL     1     -12.580  14.054  15.604  1.00  0.00     0.050 A 
HETATM   28  C17 UNL     1     -11.355  13.471  15.870  1.00  0.00     0.015 A 
HETATM   29  C20 UNL     1     -10.241  11.558  17.040  1.00  0.00    -0.026 A 
HETATM   30  C21 UNL     1      -8.820  11.839  16.555  1.00  0.00     0.050 C 
BRANCH  25  31
HETATM   31  C15 UNL     1     -15.083  14.240  15.720  1.00  0.00     0.403 C 
HETATM   32  F1  UNL     1     -15.317  14.336  14.371  1.00  0.00    -0.208 F 
HETATM   33  F2  UNL     1     -16.075  13.484  16.349  1.00  0.00    -0.208 F 
ENDBRANCH  25  31
BRANCH  28  34
HETATM   34  S2  UNL     1      -9.894  14.320  15.263  1.00  0.00    -0.133 SA
HETATM   35  C18 UNL     1      -9.553  13.859  13.539  1.00  0.00     0.095 C 
ENDBRANCH  28  34
ENDBRANCH   1  20
TORSDOF 9
ENDMDL
MODEL 5
REMARK VINA RESULT: -7.728306719      4.621      9.252
REMARK  9 active torsions:
REMARK  status: ('A' for Active; 'I' for Inactive)
REMARK    1  A    between atoms: O1_2  and  C2_3 
REMARK    2  A    between atoms: C4_5  and  N1_6 
REMARK    3  A    between atoms: N1_6  and  C5_8 
REMARK    4  A    between atoms: C10_14  and  N2_15 
REMARK    5  A    between atoms: N2_15  and  C11_17 
REMARK    6  A    between atoms: C11_17  and  O3_18 
REMARK    7  A    between atoms: C11_17  and  C12_20 
REMARK    8  A    between atoms: C14_25  and  C15_26 
REMARK    9  A    between atoms: C17_30  and  S2_31 
ROOT
HETATM    1  C11 UNL     1     -11.037   8.945  18.328  1.00  0.00     0.158 C 
ENDROOT
BRANCH   1   2
HETATM    2  N2  UNL     1     -11.338  10.185  18.821  1.00  0.00    -0.333 N 
ATOM      3  H2  UNL     1     -10.808  10.570  19.604  1.00  0.00     0.168 HD
BRANCH   2   4
HETATM    4  C10 UNL     1     -12.423  10.954  18.218  1.00  0.00     0.074 A 
HETATM    5  C2  UNL     1     -12.129  11.738  17.128  1.00  0.00     0.097 A 
HETATM    6  C3  UNL     1     -13.145  12.482  16.535  1.00  0.00     0.069 A 
HETATM    7  C4  UNL     1     -14.436  12.471  16.987  1.00  0.00     0.043 A 
HETATM    8  C6  UNL     1     -14.704  11.656  18.110  1.00  0.00    -0.027 A 
HETATM    9  C7  UNL     1     -16.070  11.589  18.659  1.00  0.00     0.051 C 
HETATM   10  C8  UNL     1     -13.704  10.918  18.701  1.00  0.00    -0.024 A 
HETATM   11  C9  UNL     1     -14.035  10.081  19.871  1.00  0.00     0.051 C 
BRANCH   5  12
HETATM   12  O1  UNL     1     -10.855  11.800  16.618  1.00  0.00    -0.354 OA
HETATM   13  C1  UNL     1     -10.490  12.865  15.771  1.00  0.00     0.210 C 
ENDBRANCH   5  12
BRANCH   7  14
HETATM   14  N1  UNL     1     -15.504  13.198  16.431  1.00  0.00    -0.334 N 
ATOM     15  H1  UNL     1     -16.448  12.883  16.655  1.00  0.00     0.168 HD
BRANCH  14  16
HETATM   16  C5  UNL     1     -15.384  14.310  15.601  1.00  0.00     0.353 C 
HETATM   17  O2  UNL     1     -15.325  14.335  14.366  1.00  0.00    -0.283 OA
ENDBRANCH  14  16
ENDBRANCH   7  14
ENDBRANCH   2   4
ENDBRANCH   1   2
BRANCH   1  18
HETATM   18  O3  UNL     1     -11.982   8.038  18.460  1.00  0.00    -0.345 OA
ATOM     19  H3  UNL     1     -11.765   7.172  18.138  1.00  0.00     0.219 HD
ENDBRANCH   1  18
BRANCH   1  20
HETATM   20  C12 UNL     1      -9.817   8.465  17.663  1.00  0.00     0.064 A 
HETATM   21  S1  UNL     1      -9.390   8.826  16.015  1.00  0.00    -0.067 SA
HETATM   22  C13 UNL     1      -7.907   7.997  15.927  1.00  0.00     0.087 A 
HETATM   23  N3  UNL     1      -6.990   7.864  14.909  1.00  0.00    -0.349 N 
HETATM   24  C19 UNL     1      -7.767   7.451  17.178  1.00  0.00     0.022 A 
HETATM   25  C14 UNL     1      -5.855   7.174  15.065  1.00  0.00     0.076 A 
ATOM     26  H3  UNL     1      -7.181   8.304  14.009  1.00  0.00     0.166 HD
HETATM   27  C16 UNL     1      -5.684   6.621  16.303  1.00  0.00     0.050 A 
HETATM   28  C17 UNL     1      -6.571   6.723  17.359  1.00  0.00     0.015 A 
HETATM   29  C20 UNL     1      -8.766   7.699  18.064  1.00  0.00    -0.026 A 
HETATM   30  C21 UNL     1      -8.825   7.057  19.448  1.00  0.00     0.050 C 
BRANCH  25  31
HETATM   31  C15 UNL     1      -4.880   7.038  13.960  1.00  0.00     0.403 C 
HETATM   32  F1  UNL     1      -3.776   7.835  14.129  1.00  0.00    -0.208 F 
HETATM   33  F2  UNL     1      -4.521   5.689  13.907  1.00  0.00    -0.208 F 
ENDBRANCH  25  31
BRANCH  28  34
HETATM   34  S2  UNL     1      -6.084   5.969  18.914  1.00  0.00    -0.133 SA
HETATM   35  C18 UNL     1      -4.825   6.977  19.750  1.00  0.00     0.095 C 
ENDBRANCH  28  34
ENDBRANCH   1  20
TORSDOF 9
ENDMDL
