MODEL 1
REMARK VINA RESULT: -8.400326988      0.000      0.000
REMARK  1 active torsions:
REMARK  status: ('A' for Active; 'I' for Inactive)
REMARK    1  A    between atoms: C4_8  and  C5_9 
ROOT
HETATM    1  O1  UNL     1       0.930  -8.458 -36.359  1.00  0.00    -0.247 OA
HETATM    2  C1  UNL     1       1.831  -8.325 -37.226  1.00  0.00     0.327 A 
HETATM    3  N1  UNL     1       1.629  -7.577 -38.316  1.00  0.00    -0.275 N 
ATOM      4  H1  UNL     1       0.728  -7.113 -38.438  1.00  0.00     0.173 HD
HETATM    5  C2  UNL     1       2.579  -7.420 -39.255  1.00  0.00     0.264 A 
HETATM    6  O2  UNL     1       2.331  -6.709 -40.266  1.00  0.00    -0.267 OA
HETATM    7  C3  UNL     1       3.806  -8.025 -39.129  1.00  0.00     0.093 A 
HETATM    8  C4  UNL     1       4.808  -7.935 -40.041  1.00  0.00     0.076 A 
HETATM    9  N2  UNL     1       5.954  -8.608 -39.808  1.00  0.00    -0.296 N 
ATOM     10  H2  UNL     1       6.704  -8.540 -40.497  1.00  0.00     0.187 HD
HETATM   11  N3  UNL     1       6.154  -9.347 -38.740  1.00  0.00    -0.264 N 
ATOM     12  H3  UNL     1       7.041  -9.836 -38.615  1.00  0.00     0.190 HD
HETATM   13  C11 UNL     1       5.201  -9.457 -37.824  1.00  0.00     0.287 A 
HETATM   14  O3  UNL     1       5.348 -10.156 -36.777  1.00  0.00    -0.264 OA
HETATM   15  C12 UNL     1       4.007  -8.807 -37.986  1.00  0.00     0.124 A 
HETATM   16  N4  UNL     1       3.013  -8.935 -37.063  1.00  0.00    -0.303 N 
ATOM     17  H4  UNL     1       3.171  -9.505 -36.233  1.00  0.00     0.171 HD
ENDROOT
BRANCH   8  18
HETATM   18  C5  UNL     1       4.730  -7.178 -41.252  1.00  0.00    -0.007 A 
HETATM   19  C6  UNL     1       5.321  -5.912 -41.257  1.00  0.00     0.014 A 
HETATM   20  C7  UNL     1       5.238  -5.044 -42.327  1.00  0.00     0.001 A 
HETATM   21  C8  UNL     1       4.546  -5.411 -43.460  1.00  0.00     0.000 A 
HETATM   22  C9  UNL     1       3.959  -6.657 -43.464  1.00  0.00     0.001 A 
HETATM   23  C10 UNL     1       4.045  -7.516 -42.396  1.00  0.00     0.014 A 
ENDBRANCH   8  18
TORSDOF 1
ENDMDL
MODEL 2
REMARK VINA RESULT: -8.386120783      1.337      3.016
REMARK  1 active torsions:
REMARK  status: ('A' for Active; 'I' for Inactive)
REMARK    1  A    between atoms: C4_8  and  C5_9 
ROOT
HETATM    1  O1  UNL     1       5.910 -10.370 -37.040  1.00  0.00    -0.247 OA
HETATM    2  C1  UNL     1       5.367  -9.547 -37.821  1.00  0.00     0.327 A 
HETATM    3  N1  UNL     1       5.972  -9.179 -38.955  1.00  0.00    -0.275 N 
ATOM      4  H1  UNL     1       6.886  -9.574 -39.181  1.00  0.00     0.173 HD
HETATM    5  C2  UNL     1       5.411  -8.301 -39.807  1.00  0.00     0.264 A 
HETATM    6  O2  UNL     1       6.029  -7.984 -40.858  1.00  0.00    -0.267 OA
HETATM    7  C3  UNL     1       4.182  -7.747 -39.542  1.00  0.00     0.093 A 
HETATM    8  C4  UNL     1       3.558  -6.839 -40.337  1.00  0.00     0.076 A 
HETATM    9  N2  UNL     1       2.364  -6.349 -39.942  1.00  0.00    -0.296 N 
ATOM     10  H2  UNL     1       1.900  -5.665 -40.541  1.00  0.00     0.187 HD
HETATM   11  N3  UNL     1       1.770  -6.706 -38.826  1.00  0.00    -0.264 N 
ATOM     12  H3  UNL     1       0.867  -6.302 -38.576  1.00  0.00     0.190 HD
HETATM   13  C11 UNL     1       2.345  -7.593 -38.025  1.00  0.00     0.287 A 
HETATM   14  O3  UNL     1       1.809  -7.970 -36.940  1.00  0.00    -0.264 OA
HETATM   15  C12 UNL     1       3.558  -8.138 -38.352  1.00  0.00     0.124 A 
HETATM   16  N4  UNL     1       4.168  -9.030 -37.523  1.00  0.00    -0.303 N 
ATOM     17  H4  UNL     1       3.704  -9.309 -36.660  1.00  0.00     0.171 HD
ENDROOT
BRANCH   8  18
HETATM   18  C5  UNL     1       4.088  -6.351 -41.573  1.00  0.00    -0.007 A 
HETATM   19  C6  UNL     1       4.998  -5.292 -41.506  1.00  0.00     0.014 A 
HETATM   20  C7  UNL     1       5.513  -4.668 -42.625  1.00  0.00     0.001 A 
HETATM   21  C8  UNL     1       5.132  -5.083 -43.882  1.00  0.00     0.000 A 
HETATM   22  C9  UNL     1       4.235  -6.125 -43.957  1.00  0.00     0.001 A 
HETATM   23  C10 UNL     1       3.726  -6.742 -42.840  1.00  0.00     0.014 A 
ENDBRANCH   8  18
TORSDOF 1
ENDMDL
MODEL 3
REMARK VINA RESULT: -8.374916434      0.195      1.091
REMARK  1 active torsions:
REMARK  status: ('A' for Active; 'I' for Inactive)
REMARK    1  A    between atoms: C4_8  and  C5_9 
ROOT
HETATM    1  O1  UNL     1       1.066  -8.683 -36.217  1.00  0.00    -0.247 OA
HETATM    2  C1  UNL     1       1.937  -8.468 -37.098  1.00  0.00     0.327 A 
HETATM    3  N1  UNL     1       1.689  -7.639 -38.118  1.00  0.00    -0.275 N 
ATOM      4  H1  UNL     1       0.779  -7.181 -38.174  1.00  0.00     0.173 HD
HETATM    5  C2  UNL     1       2.605  -7.393 -39.072  1.00  0.00     0.264 A 
HETATM    6  O2  UNL     1       2.315  -6.608 -40.014  1.00  0.00    -0.267 OA
HETATM    7  C3  UNL     1       3.844  -7.987 -39.033  1.00  0.00     0.093 A 
HETATM    8  C4  UNL     1       4.814  -7.809 -39.966  1.00  0.00     0.076 A 
HETATM    9  N2  UNL     1       5.976  -8.480 -39.824  1.00  0.00    -0.296 N 
ATOM     10  H2  UNL     1       6.702  -8.346 -40.529  1.00  0.00     0.187 HD
HETATM   11  N3  UNL     1       6.220  -9.299 -38.825  1.00  0.00    -0.264 N 
ATOM     12  H3  UNL     1       7.117  -9.782 -38.768  1.00  0.00     0.190 HD
HETATM   13  C11 UNL     1       5.299  -9.496 -37.892  1.00  0.00     0.287 A 
HETATM   14  O3  UNL     1       5.490 -10.274 -36.909  1.00  0.00    -0.264 OA
HETATM   15  C12 UNL     1       4.092  -8.854 -37.963  1.00  0.00     0.124 A 
HETATM   16  N4  UNL     1       3.131  -9.070 -37.022  1.00  0.00    -0.303 N 
ATOM     17  H4  UNL     1       3.324  -9.702 -36.246  1.00  0.00     0.171 HD
ENDROOT
BRANCH   8  18
HETATM   18  C5  UNL     1       4.686  -6.959 -41.110  1.00  0.00    -0.007 A 
HETATM   19  C6  UNL     1       4.064  -7.495 -42.240  1.00  0.00     0.014 A 
HETATM   20  C7  UNL     1       3.958  -6.815 -43.438  1.00  0.00     0.001 A 
HETATM   21  C8  UNL     1       4.482  -5.547 -43.558  1.00  0.00     0.000 A 
HETATM   22  C9  UNL     1       5.098  -5.011 -42.449  1.00  0.00     0.001 A 
HETATM   23  C10 UNL     1       5.200  -5.693 -41.261  1.00  0.00     0.014 A 
ENDBRANCH   8  18
TORSDOF 1
ENDMDL
MODEL 4
REMARK VINA RESULT: -8.025947068      1.894      3.303
REMARK  1 active torsions:
REMARK  status: ('A' for Active; 'I' for Inactive)
REMARK    1  A    between atoms: C4_8  and  C5_9 
ROOT
HETATM    1  O1  UNL     1       5.988  -9.947 -37.764  1.00  0.00    -0.247 OA
HETATM    2  C1  UNL     1       5.298  -9.354 -38.631  1.00  0.00     0.327 A 
HETATM    3  N1  UNL     1       5.846  -8.427 -39.425  1.00  0.00    -0.275 N 
ATOM      4  H1  UNL     1       6.836  -8.205 -39.317  1.00  0.00     0.173 HD
HETATM    5  C2  UNL     1       5.128  -7.780 -40.361  1.00  0.00     0.264 A 
HETATM    6  O2  UNL     1       5.694  -6.911 -41.077  1.00  0.00    -0.267 OA
HETATM    7  C3  UNL     1       3.793  -8.050 -40.540  1.00  0.00     0.093 A 
HETATM    8  C4  UNL     1       2.995  -7.426 -41.445  1.00  0.00     0.076 A 
HETATM    9  N2  UNL     1       1.690  -7.765 -41.495  1.00  0.00    -0.296 N 
ATOM     10  H2  UNL     1       1.092  -7.293 -42.174  1.00  0.00     0.187 HD
HETATM   11  N3  UNL     1       1.148  -8.672 -40.713  1.00  0.00    -0.264 N 
ATOM     12  H3  UNL     1       0.154  -8.889 -40.793  1.00  0.00     0.190 HD
HETATM   13  C11 UNL     1       1.895  -9.306 -39.820  1.00  0.00     0.287 A 
HETATM   14  O3  UNL     1       1.418 -10.190 -39.046  1.00  0.00    -0.264 OA
HETATM   15  C12 UNL     1       3.229  -9.020 -39.704  1.00  0.00     0.124 A 
HETATM   16  N4  UNL     1       3.999  -9.647 -38.771  1.00  0.00    -0.303 N 
ATOM     17  H4  UNL     1       3.578 -10.353 -38.168  1.00  0.00     0.171 HD
ENDROOT
BRANCH   8  18
HETATM   18  C5  UNL     1       3.442  -6.414 -42.352  1.00  0.00    -0.007 A 
HETATM   19  C6  UNL     1       3.119  -5.090 -42.045  1.00  0.00     0.014 A 
HETATM   20  C7  UNL     1       3.409  -4.030 -42.881  1.00  0.00     0.001 A 
HETATM   21  C8  UNL     1       4.046  -4.253 -44.082  1.00  0.00     0.000 A 
HETATM   22  C9  UNL     1       4.368  -5.555 -44.392  1.00  0.00     0.001 A 
HETATM   23  C10 UNL     1       4.076  -6.606 -43.557  1.00  0.00     0.014 A 
ENDBRANCH   8  18
TORSDOF 1
ENDMDL
MODEL 5
REMARK VINA RESULT: -7.887134583      2.311      3.630
REMARK  1 active torsions:
REMARK  status: ('A' for Active; 'I' for Inactive)
REMARK    1  A    between atoms: C4_8  and  C5_9 
ROOT
HETATM    1  O1  UNL     1       5.405  -6.569 -37.101  1.00  0.00    -0.247 OA
HETATM    2  C1  UNL     1       4.892  -6.485 -38.246  1.00  0.00     0.327 A 
HETATM    3  N1  UNL     1       5.459  -5.736 -39.197  1.00  0.00    -0.275 N 
ATOM      4  H1  UNL     1       6.318  -5.229 -38.982  1.00  0.00     0.173 HD
HETATM    5  C2  UNL     1       4.929  -5.632 -40.430  1.00  0.00     0.264 A 
HETATM    6  O2  UNL     1       5.502  -4.906 -41.285  1.00  0.00    -0.267 OA
HETATM    7  C3  UNL     1       3.775  -6.300 -40.761  1.00  0.00     0.093 A 
HETATM    8  C4  UNL     1       3.165  -6.230 -41.973  1.00  0.00     0.076 A 
HETATM    9  N2  UNL     1       2.015  -6.912 -42.156  1.00  0.00    -0.296 N 
ATOM     10  H2  UNL     1       1.558  -6.856 -43.067  1.00  0.00     0.187 HD
HETATM   11  N3  UNL     1       1.453  -7.646 -41.221  1.00  0.00    -0.264 N 
ATOM     12  H3  UNL     1       0.582  -8.140 -41.414  1.00  0.00     0.190 HD
HETATM   13  C11 UNL     1       2.021  -7.742 -40.027  1.00  0.00     0.287 A 
HETATM   14  O3  UNL     1       1.518  -8.439 -39.094  1.00  0.00    -0.264 OA
HETATM   15  C12 UNL     1       3.189  -7.080 -39.759  1.00  0.00     0.124 A 
HETATM   16  N4  UNL     1       3.764  -7.152 -38.526  1.00  0.00    -0.303 N 
ATOM     17  H4  UNL     1       3.329  -7.725 -37.804  1.00  0.00     0.171 HD
ENDROOT
BRANCH   8  18
HETATM   18  C5  UNL     1       3.654  -5.465 -43.079  1.00  0.00    -0.007 A 
HETATM   19  C6  UNL     1       3.249  -4.131 -43.164  1.00  0.00     0.014 A 
HETATM   20  C7  UNL     1       3.573  -3.311 -44.227  1.00  0.00     0.001 A 
HETATM   21  C8  UNL     1       4.329  -3.800 -45.270  1.00  0.00     0.000 A 
HETATM   22  C9  UNL     1       4.732  -5.115 -45.194  1.00  0.00     0.001 A 
HETATM   23  C10 UNL     1       4.406  -5.926 -44.134  1.00  0.00     0.014 A 
ENDBRANCH   8  18
TORSDOF 1
ENDMDL
