MODEL 1
REMARK VINA RESULT: -8.209959445      0.000      0.000
REMARK  8 active torsions:
REMARK  status: ('A' for Active; 'I' for Inactive)
REMARK    1  A    between atoms: C7_10  and  C8_11 
REMARK       I    between atoms: C8_11  and  N2_13 
REMARK    2  A    between atoms: N2_13  and  C9_15 
REMARK    3  A    between atoms: C9_15  and  N3_16 
REMARK    4  A    between atoms: C9_15  and  C23_34 
REMARK       I    between atoms: N3_16  and  C10_18 
REMARK    5  A    between atoms: C10_18  and  C11_20 
REMARK    6  A    between atoms: C11_20  and  C12_21 
REMARK    7  A    between atoms: C18_27  and  C19_28 
REMARK    8  A    between atoms: C19_28  and  O3_29 
ROOT
HETATM    1  C9  UNL     1      38.777 -18.211  27.731  1.00  0.00     0.190 C 
ENDROOT
BRANCH   1   2
HETATM    2  N2  UNL     1      39.277 -19.170  28.674  1.00  0.00    -0.339 N 
HETATM    3  C8  UNL     1      40.397 -20.005  28.362  1.00  0.00     0.228 C 
HETATM    4  O1  UNL     1      40.892 -19.816  27.230  1.00  0.00    -0.273 OA
ATOM      5  H2  UNL     1      38.825 -19.258  29.584  1.00  0.00     0.164 HD
BRANCH   3   6
HETATM    6  C7  UNL     1      40.948 -21.001  29.243  1.00  0.00     0.148 C 
HETATM    7  C2  UNL     1      40.696 -22.417  28.884  1.00  0.00     0.134 C 
HETATM    8  C1  UNL     1      40.306 -23.309  30.073  1.00  0.00     0.047 C 
HETATM    9  C3  UNL     1      39.854 -22.788  27.704  1.00  0.00     0.047 C 
HETATM   10  N1  UNL     1      42.107 -22.632  28.525  1.00  0.00    -0.057 N 
HETATM   11  C4  UNL     1      42.377 -21.374  29.229  1.00  0.00     0.134 C 
ATOM     12  H12 UNL     1      42.595 -23.494  28.765  1.00  0.00     0.279 HD
ATOM     13  H11 UNL     1      42.398 -22.777  27.558  1.00  0.00     0.279 HD
HETATM   14  C5  UNL     1      43.384 -20.595  28.483  1.00  0.00     0.047 C 
HETATM   15  C6  UNL     1      42.878 -21.711  30.630  1.00  0.00     0.047 C 
ENDBRANCH   3   6
ENDBRANCH   1   2
BRANCH   1  16
HETATM   16  N3  UNL     1      37.678 -18.840  27.022  1.00  0.00    -0.340 N 
HETATM   17  C10 UNL     1      37.656 -18.963  25.585  1.00  0.00     0.220 C 
HETATM   18  O2  UNL     1      38.651 -18.508  24.992  1.00  0.00    -0.274 OA
ATOM     19  H3  UNL     1      36.894 -19.209  27.559  1.00  0.00     0.164 HD
BRANCH  17  20
HETATM   20  C11 UNL     1      36.552 -19.574  24.873  1.00  0.00     0.112 C 
BRANCH  20  21
HETATM   21  C12 UNL     1      36.585 -21.040  24.632  1.00  0.00    -0.031 C 
HETATM   22  C13 UNL     1      37.879 -21.262  23.800  1.00  0.00     0.014 C 
HETATM   23  C14 UNL     1      38.076 -22.691  23.438  1.00  0.00    -0.013 C 
HETATM   24  C15 UNL     1      38.093 -23.548  24.685  1.00  0.00     0.009 C 
HETATM   25  C20 UNL     1      36.928 -23.116  22.533  1.00  0.00     0.016 C 
HETATM   26  C16 UNL     1      36.806 -23.359  25.431  1.00  0.00    -0.013 C 
HETATM   27  C17 UNL     1      35.678 -23.804  24.525  1.00  0.00     0.016 C 
HETATM   28  C22 UNL     1      36.660 -21.902  25.837  1.00  0.00     0.014 C 
HETATM   29  C18 UNL     1      35.649 -22.903  23.303  1.00  0.00    -0.018 C 
HETATM   30  C21 UNL     1      35.447 -21.490  23.730  1.00  0.00     0.021 C 
BRANCH  29  31
HETATM   31  C19 UNL     1      34.505 -23.360  22.417  1.00  0.00     0.173 C 
BRANCH  31  32
HETATM   32  O3  UNL     1      33.311 -22.726  22.789  1.00  0.00    -0.400 OA
ATOM     33  H3  UNL     1      32.884 -23.204  23.490  1.00  0.00     0.209 HD
ENDBRANCH  31  32
ENDBRANCH  29  31
ENDBRANCH  20  21
ENDBRANCH  17  20
ENDBRANCH   1  16
BRANCH   1  34
HETATM   34  C23 UNL     1      38.423 -16.876  28.268  1.00  0.00     0.028 C 
HETATM   35  C24 UNL     1      38.717 -15.753  27.304  1.00  0.00     0.008 C 
HETATM   36  C25 UNL     1      37.444 -15.140  26.747  1.00  0.00     0.001 C 
HETATM   37  C26 UNL     1      36.607 -14.527  27.857  1.00  0.00     0.000 C 
HETATM   38  C27 UNL     1      36.801 -15.319  29.149  1.00  0.00     0.001 C 
HETATM   39  C28 UNL     1      36.995 -16.795  28.741  1.00  0.00     0.008 C 
ENDBRANCH   1  34
TORSDOF 8
ENDMDL
MODEL 2
REMARK VINA RESULT: -8.080641314      1.283      1.846
REMARK  8 active torsions:
REMARK  status: ('A' for Active; 'I' for Inactive)
REMARK    1  A    between atoms: C7_10  and  C8_11 
REMARK       I    between atoms: C8_11  and  N2_13 
REMARK    2  A    between atoms: N2_13  and  C9_15 
REMARK    3  A    between atoms: C9_15  and  N3_16 
REMARK    4  A    between atoms: C9_15  and  C23_34 
REMARK       I    between atoms: N3_16  and  C10_18 
REMARK    5  A    between atoms: C10_18  and  C11_20 
REMARK    6  A    between atoms: C11_20  and  C12_21 
REMARK    7  A    between atoms: C18_27  and  C19_28 
REMARK    8  A    between atoms: C19_28  and  O3_29 
ROOT
HETATM    1  C9  UNL     1      38.935 -19.061  28.074  1.00  0.00     0.190 C 
ENDROOT
BRANCH   1   2
HETATM    2  N2  UNL     1      39.545 -19.992  28.979  1.00  0.00    -0.339 N 
HETATM    3  C8  UNL     1      40.894 -20.433  28.795  1.00  0.00     0.228 C 
HETATM    4  O1  UNL     1      41.478 -19.935  27.808  1.00  0.00    -0.273 OA
ATOM      5  H2  UNL     1      39.006 -20.347  29.769  1.00  0.00     0.164 HD
BRANCH   3   6
HETATM    6  C7  UNL     1      41.572 -21.377  29.645  1.00  0.00     0.148 C 
HETATM    7  C2  UNL     1      41.573 -22.791  29.200  1.00  0.00     0.134 C 
HETATM    8  C1  UNL     1      41.296 -23.805  30.320  1.00  0.00     0.047 C 
HETATM    9  C3  UNL     1      40.847 -23.224  27.965  1.00  0.00     0.047 C 
HETATM   10  N1  UNL     1      43.012 -22.748  28.893  1.00  0.00    -0.057 N 
HETATM   11  C4  UNL     1      43.043 -21.508  29.675  1.00  0.00     0.134 C 
ATOM     12  H12 UNL     1      43.629 -23.531  29.108  1.00  0.00     0.279 HD
ATOM     13  H11 UNL     1      43.357 -22.785  27.934  1.00  0.00     0.279 HD
HETATM   14  C5  UNL     1      43.931 -20.530  29.018  1.00  0.00     0.047 C 
HETATM   15  C6  UNL     1      43.544 -21.841  31.076  1.00  0.00     0.047 C 
ENDBRANCH   3   6
ENDBRANCH   1   2
BRANCH   1  16
HETATM   16  N3  UNL     1      37.676 -19.641  27.647  1.00  0.00    -0.340 N 
HETATM   17  C10 UNL     1      37.608 -20.740  26.715  1.00  0.00     0.220 C 
HETATM   18  O2  UNL     1      38.705 -21.171  26.314  1.00  0.00    -0.274 OA
ATOM     19  H3  UNL     1      36.807 -19.257  28.018  1.00  0.00     0.164 HD
BRANCH  17  20
HETATM   20  C11 UNL     1      36.352 -21.309  26.272  1.00  0.00     0.112 C 
BRANCH  20  21
HETATM   21  C12 UNL     1      36.270 -21.871  24.899  1.00  0.00    -0.031 C 
HETATM   22  C13 UNL     1      35.144 -21.046  24.214  1.00  0.00     0.014 C 
HETATM   23  C14 UNL     1      34.898 -21.485  22.815  1.00  0.00    -0.013 C 
HETATM   24  C15 UNL     1      36.177 -21.407  22.010  1.00  0.00     0.009 C 
HETATM   25  C20 UNL     1      34.393 -22.921  22.847  1.00  0.00     0.016 C 
HETATM   26  C16 UNL     1      37.222 -22.262  22.661  1.00  0.00    -0.013 C 
HETATM   27  C17 UNL     1      36.713 -23.688  22.668  1.00  0.00     0.016 C 
HETATM   28  C22 UNL     1      37.494 -21.756  24.068  1.00  0.00     0.014 C 
HETATM   29  C18 UNL     1      35.457 -23.754  23.518  1.00  0.00    -0.018 C 
HETATM   30  C21 UNL     1      35.767 -23.305  24.904  1.00  0.00     0.021 C 
BRANCH  29  31
HETATM   31  C19 UNL     1      34.972 -25.192  23.519  1.00  0.00     0.173 C 
BRANCH  31  32
HETATM   32  O3  UNL     1      34.105 -25.417  24.598  1.00  0.00    -0.400 OA
ATOM     33  H3  UNL     1      33.437 -26.050  24.362  1.00  0.00     0.209 HD
ENDBRANCH  31  32
ENDBRANCH  29  31
ENDBRANCH  20  21
ENDBRANCH  17  20
ENDBRANCH   1  16
BRANCH   1  34
HETATM   34  C23 UNL     1      38.791 -17.667  28.556  1.00  0.00     0.028 C 
HETATM   35  C24 UNL     1      39.182 -16.640  27.522  1.00  0.00     0.008 C 
HETATM   36  C25 UNL     1      37.976 -15.885  26.991  1.00  0.00     0.001 C 
HETATM   37  C26 UNL     1      37.285 -15.114  28.104  1.00  0.00     0.000 C 
HETATM   38  C27 UNL     1      37.438 -15.866  29.425  1.00  0.00     0.001 C 
HETATM   39  C28 UNL     1      37.412 -17.371  29.087  1.00  0.00     0.008 C 
ENDBRANCH   1  34
TORSDOF 8
ENDMDL
MODEL 3
REMARK VINA RESULT: -8.034594863      1.447      2.318
REMARK  8 active torsions:
REMARK  status: ('A' for Active; 'I' for Inactive)
REMARK    1  A    between atoms: C7_10  and  C8_11 
REMARK       I    between atoms: C8_11  and  N2_13 
REMARK    2  A    between atoms: N2_13  and  C9_15 
REMARK    3  A    between atoms: C9_15  and  N3_16 
REMARK    4  A    between atoms: C9_15  and  C23_34 
REMARK       I    between atoms: N3_16  and  C10_18 
REMARK    5  A    between atoms: C10_18  and  C11_20 
REMARK    6  A    between atoms: C11_20  and  C12_21 
REMARK    7  A    between atoms: C18_27  and  C19_28 
REMARK    8  A    between atoms: C19_28  and  O3_29 
ROOT
HETATM    1  C9  UNL     1      38.727 -17.900  27.779  1.00  0.00     0.190 C 
ENDROOT
BRANCH   1   2
HETATM    2  N2  UNL     1      39.577 -18.683  28.629  1.00  0.00    -0.339 N 
HETATM    3  C8  UNL     1      40.573 -19.555  28.084  1.00  0.00     0.228 C 
HETATM    4  O1  UNL     1      40.639 -19.559  26.836  1.00  0.00    -0.273 OA
ATOM      5  H2  UNL     1      39.470 -18.617  29.641  1.00  0.00     0.164 HD
BRANCH   3   6
HETATM    6  C7  UNL     1      41.452 -20.386  28.864  1.00  0.00     0.148 C 
HETATM    7  C2  UNL     1      41.048 -21.802  29.036  1.00  0.00     0.134 C 
HETATM    8  C1  UNL     1      41.230 -22.341  30.463  1.00  0.00     0.047 C 
HETATM    9  C3  UNL     1      39.758 -22.322  28.484  1.00  0.00     0.047 C 
HETATM   10  N1  UNL     1      42.140 -22.274  28.169  1.00  0.00    -0.057 N 
HETATM   11  C4  UNL     1      42.715 -20.934  28.328  1.00  0.00     0.134 C 
ATOM     12  H12 UNL     1      42.674 -23.114  28.389  1.00  0.00     0.279 HD
ATOM     13  H11 UNL     1      41.959 -22.672  27.248  1.00  0.00     0.279 HD
HETATM   14  C5  UNL     1      43.282 -20.482  27.043  1.00  0.00     0.047 C 
HETATM   15  C6  UNL     1      43.793 -21.004  29.405  1.00  0.00     0.047 C 
ENDBRANCH   3   6
ENDBRANCH   1   2
BRANCH   1  16
HETATM   16  N3  UNL     1      37.699 -18.786  27.267  1.00  0.00    -0.340 N 
HETATM   17  C10 UNL     1      37.423 -18.916  25.857  1.00  0.00     0.220 C 
HETATM   18  O2  UNL     1      38.139 -18.229  25.106  1.00  0.00    -0.274 OA
ATOM     19  H3  UNL     1      37.152 -19.338  27.928  1.00  0.00     0.164 HD
BRANCH  17  20
HETATM   20  C11 UNL     1      36.385 -19.786  25.344  1.00  0.00     0.112 C 
BRANCH  20  21
HETATM   21  C12 UNL     1      36.776 -21.102  24.776  1.00  0.00    -0.031 C 
HETATM   22  C13 UNL     1      36.039 -22.139  25.670  1.00  0.00     0.014 C 
HETATM   23  C14 UNL     1      36.329 -23.539  25.262  1.00  0.00    -0.013 C 
HETATM   24  C15 UNL     1      35.972 -23.745  23.807  1.00  0.00     0.009 C 
HETATM   25  C20 UNL     1      37.815 -23.799  25.472  1.00  0.00     0.016 C 
HETATM   26  C16 UNL     1      36.746 -22.773  22.967  1.00  0.00    -0.013 C 
HETATM   27  C17 UNL     1      38.220 -23.058  23.173  1.00  0.00     0.016 C 
HETATM   28  C22 UNL     1      36.387 -21.351  23.367  1.00  0.00     0.014 C 
HETATM   29  C18 UNL     1      38.567 -22.801  24.628  1.00  0.00    -0.018 C 
HETATM   30  C21 UNL     1      38.257 -21.386  24.974  1.00  0.00     0.021 C 
BRANCH  29  31
HETATM   31  C19 UNL     1      40.048 -23.081  24.807  1.00  0.00     0.173 C 
BRANCH  31  32
HETATM   32  O3  UNL     1      40.717 -21.927  25.240  1.00  0.00    -0.400 OA
ATOM     33  H3  UNL     1      41.211 -21.541  24.526  1.00  0.00     0.209 HD
ENDBRANCH  31  32
ENDBRANCH  29  31
ENDBRANCH  20  21
ENDBRANCH  17  20
ENDBRANCH   1  16
BRANCH   1  34
HETATM   34  C23 UNL     1      38.173 -16.656  28.364  1.00  0.00     0.028 C 
HETATM   35  C24 UNL     1      38.509 -15.424  27.560  1.00  0.00     0.008 C 
HETATM   36  C25 UNL     1      37.289 -14.858  26.856  1.00  0.00     0.001 C 
HETATM   37  C26 UNL     1      36.235 -14.424  27.862  1.00  0.00     0.000 C 
HETATM   38  C27 UNL     1      36.297 -15.323  29.096  1.00  0.00     0.001 C 
HETATM   39  C28 UNL     1      36.687 -16.732  28.601  1.00  0.00     0.008 C 
ENDBRANCH   1  34
TORSDOF 8
ENDMDL
MODEL 4
REMARK VINA RESULT: -7.886503143      3.238      6.704
REMARK  8 active torsions:
REMARK  status: ('A' for Active; 'I' for Inactive)
REMARK    1  A    between atoms: C7_10  and  C8_11 
REMARK       I    between atoms: C8_11  and  N2_13 
REMARK    2  A    between atoms: N2_13  and  C9_15 
REMARK    3  A    between atoms: C9_15  and  N3_16 
REMARK    4  A    between atoms: C9_15  and  C23_34 
REMARK       I    between atoms: N3_16  and  C10_18 
REMARK    5  A    between atoms: C10_18  and  C11_20 
REMARK    6  A    between atoms: C11_20  and  C12_21 
REMARK    7  A    between atoms: C18_27  and  C19_28 
REMARK    8  A    between atoms: C19_28  and  O3_29 
ROOT
HETATM    1  C9  UNL     1      40.511 -22.951  28.550  1.00  0.00     0.190 C 
ENDROOT
BRANCH   1   2
HETATM    2  N2  UNL     1      41.835 -22.671  29.025  1.00  0.00    -0.339 N 
HETATM    3  C8  UNL     1      42.075 -21.654  30.003  1.00  0.00     0.228 C 
HETATM    4  O1  UNL     1      41.050 -21.059  30.401  1.00  0.00    -0.273 OA
ATOM      5  H2  UNL     1      42.621 -23.209  28.659  1.00  0.00     0.164 HD
BRANCH   3   6
HETATM    6  C7  UNL     1      43.371 -21.299  30.518  1.00  0.00     0.148 C 
HETATM    7  C2  UNL     1      44.231 -22.415  30.977  1.00  0.00     0.134 C 
HETATM    8  C1  UNL     1      44.958 -22.147  32.304  1.00  0.00     0.047 C 
HETATM    9  C3  UNL     1      43.748 -23.832  30.969  1.00  0.00     0.047 C 
HETATM   10  N1  UNL     1      45.154 -22.240  29.844  1.00  0.00    -0.057 N 
HETATM   11  C4  UNL     1      44.505 -20.940  29.643  1.00  0.00     0.134 C 
ATOM     12  H12 UNL     1      46.164 -22.322  29.959  1.00  0.00     0.279 HD
ATOM     13  H11 UNL     1      45.219 -22.928  29.094  1.00  0.00     0.279 HD
HETATM   14  C5  UNL     1      44.332 -20.691  28.199  1.00  0.00     0.047 C 
HETATM   15  C6  UNL     1      45.382 -19.867  30.279  1.00  0.00     0.047 C 
ENDBRANCH   3   6
ENDBRANCH   1   2
BRANCH   1  16
HETATM   16  N3  UNL     1      40.258 -22.057  27.435  1.00  0.00    -0.340 N 
HETATM   17  C10 UNL     1      39.165 -21.117  27.432  1.00  0.00     0.220 C 
HETATM   18  O2  UNL     1      38.461 -21.109  28.458  1.00  0.00    -0.274 OA
ATOM     19  H3  UNL     1      40.876 -22.096  26.625  1.00  0.00     0.164 HD
BRANCH  17  20
HETATM   20  C11 UNL     1      38.899 -20.236  26.313  1.00  0.00     0.112 C 
BRANCH  20  21
HETATM   21  C12 UNL     1      38.816 -18.774  26.562  1.00  0.00    -0.031 C 
HETATM   22  C13 UNL     1      37.291 -18.476  26.594  1.00  0.00     0.014 C 
HETATM   23  C14 UNL     1      37.004 -17.034  26.817  1.00  0.00    -0.013 C 
HETATM   24  C15 UNL     1      37.663 -16.560  28.093  1.00  0.00     0.009 C 
HETATM   25  C20 UNL     1      37.550 -16.251  25.631  1.00  0.00     0.016 C 
HETATM   26  C16 UNL     1      39.141 -16.803  28.005  1.00  0.00    -0.013 C 
HETATM   27  C17 UNL     1      39.670 -16.003  26.833  1.00  0.00     0.016 C 
HETATM   28  C22 UNL     1      39.405 -18.291  27.835  1.00  0.00     0.014 C 
HETATM   29  C18 UNL     1      39.031 -16.524  25.558  1.00  0.00    -0.018 C 
HETATM   30  C21 UNL     1      39.355 -17.969  25.391  1.00  0.00     0.021 C 
BRANCH  29  31
HETATM   31  C19 UNL     1      39.585 -15.717  24.399  1.00  0.00     0.173 C 
BRANCH  31  32
HETATM   32  O3  UNL     1      38.542 -15.143  23.657  1.00  0.00    -0.400 OA
ATOM     33  H3  UNL     1      38.825 -14.329  23.257  1.00  0.00     0.209 HD
ENDBRANCH  31  32
ENDBRANCH  29  31
ENDBRANCH  20  21
ENDBRANCH  17  20
ENDBRANCH   1  16
BRANCH   1  34
HETATM   34  C23 UNL     1      40.207 -24.366  28.231  1.00  0.00     0.028 C 
HETATM   35  C24 UNL     1      40.730 -24.794  26.882  1.00  0.00     0.008 C 
HETATM   36  C25 UNL     1      41.896 -25.758  27.008  1.00  0.00     0.001 C 
HETATM   37  C26 UNL     1      41.470 -27.035  27.714  1.00  0.00     0.000 C 
HETATM   38  C27 UNL     1      40.372 -26.722  28.729  1.00  0.00     0.001 C 
HETATM   39  C28 UNL     1      40.677 -25.321  29.297  1.00  0.00     0.008 C 
ENDBRANCH   1  34
TORSDOF 8
ENDMDL
MODEL 5
REMARK VINA RESULT: -7.858787733      2.069      6.672
REMARK  8 active torsions:
REMARK  status: ('A' for Active; 'I' for Inactive)
REMARK    1  A    between atoms: C7_10  and  C8_11 
REMARK       I    between atoms: C8_11  and  N2_13 
REMARK    2  A    between atoms: N2_13  and  C9_15 
REMARK    3  A    between atoms: C9_15  and  N3_16 
REMARK    4  A    between atoms: C9_15  and  C23_34 
REMARK       I    between atoms: N3_16  and  C10_18 
REMARK    5  A    between atoms: C10_18  and  C11_20 
REMARK    6  A    between atoms: C11_20  and  C12_21 
REMARK    7  A    between atoms: C18_27  and  C19_28 
REMARK    8  A    between atoms: C19_28  and  O3_29 
ROOT
HETATM    1  C9  UNL     1      38.331 -23.032  26.087  1.00  0.00     0.190 C 
ENDROOT
BRANCH   1   2
HETATM    2  N2  UNL     1      39.601 -23.280  26.705  1.00  0.00    -0.339 N 
HETATM    3  C8  UNL     1      39.929 -22.720  27.982  1.00  0.00     0.228 C 
HETATM    4  O1  UNL     1      39.025 -22.027  28.496  1.00  0.00    -0.273 OA
ATOM      5  H2  UNL     1      40.285 -23.866  26.226  1.00  0.00     0.164 HD
BRANCH   3   6
HETATM    6  C7  UNL     1      41.184 -22.904  28.661  1.00  0.00     0.148 C 
HETATM    7  C2  UNL     1      41.629 -21.802  29.545  1.00  0.00     0.134 C 
HETATM    8  C1  UNL     1      43.120 -21.452  29.418  1.00  0.00     0.047 C 
HETATM    9  C3  UNL     1      40.845 -20.533  29.671  1.00  0.00     0.047 C 
HETATM   10  N1  UNL     1      41.395 -22.607  30.755  1.00  0.00    -0.057 N 
HETATM   11  C4  UNL     1      41.326 -23.762  29.854  1.00  0.00     0.134 C 
ATOM     12  H12 UNL     1      42.036 -22.583  31.547  1.00  0.00     0.279 HD
ATOM     13  H11 UNL     1      40.640 -22.389  31.405  1.00  0.00     0.279 HD
HETATM   14  C5  UNL     1      40.253 -24.673  30.297  1.00  0.00     0.047 C 
HETATM   15  C6  UNL     1      42.680 -24.465  29.878  1.00  0.00     0.047 C 
ENDBRANCH   3   6
ENDBRANCH   1   2
BRANCH   1  16
HETATM   16  N3  UNL     1      38.326 -21.647  25.657  1.00  0.00    -0.340 N 
HETATM   17  C10 UNL     1      37.224 -20.757  25.932  1.00  0.00     0.220 C 
HETATM   18  O2  UNL     1      36.283 -21.252  26.579  1.00  0.00    -0.274 OA
ATOM     19  H3  UNL     1      39.130 -21.289  25.143  1.00  0.00     0.164 HD
BRANCH  17  20
HETATM   20  C11 UNL     1      37.208 -19.378  25.489  1.00  0.00     0.112 C 
BRANCH  20  21
HETATM   21  C12 UNL     1      37.714 -18.328  26.411  1.00  0.00    -0.031 C 
HETATM   22  C13 UNL     1      37.047 -18.662  27.774  1.00  0.00     0.014 C 
HETATM   23  C14 UNL     1      37.423 -17.692  28.837  1.00  0.00    -0.013 C 
HETATM   24  C15 UNL     1      38.928 -17.634  28.983  1.00  0.00     0.009 C 
HETATM   25  C20 UNL     1      36.888 -16.322  28.443  1.00  0.00     0.016 C 
HETATM   26  C16 UNL     1      39.537 -17.248  27.668  1.00  0.00    -0.013 C 
HETATM   27  C17 UNL     1      39.009 -15.877  27.300  1.00  0.00     0.016 C 
HETATM   28  C22 UNL     1      39.183 -18.287  26.616  1.00  0.00     0.014 C 
HETATM   29  C18 UNL     1      37.505 -15.967  27.113  1.00  0.00    -0.018 C 
HETATM   30  C21 UNL     1      37.193 -16.949  26.039  1.00  0.00     0.021 C 
BRANCH  29  31
HETATM   31  C19 UNL     1      37.002 -14.586  26.736  1.00  0.00     0.173 C 
BRANCH  31  32
HETATM   32  O3  UNL     1      37.747 -13.595  27.390  1.00  0.00    -0.400 OA
ATOM     33  H3  UNL     1      38.631 -13.558  27.043  1.00  0.00     0.209 HD
ENDBRANCH  31  32
ENDBRANCH  29  31
ENDBRANCH  20  21
ENDBRANCH  17  20
ENDBRANCH   1  16
BRANCH   1  34
HETATM   34  C23 UNL     1      37.925 -23.967  25.011  1.00  0.00     0.028 C 
HETATM   35  C24 UNL     1      38.737 -25.239  24.994  1.00  0.00     0.008 C 
HETATM   36  C25 UNL     1      37.920 -26.437  25.443  1.00  0.00     0.001 C 
HETATM   37  C26 UNL     1      36.750 -26.679  24.504  1.00  0.00     0.000 C 
HETATM   38  C27 UNL     1      36.263 -25.348  23.933  1.00  0.00     0.001 C 
HETATM   39  C28 UNL     1      36.453 -24.291  25.041  1.00  0.00     0.008 C 
ENDBRANCH   1  34
TORSDOF 8
ENDMDL
