MODEL 1
REMARK VINA RESULT: -8.532200412      0.000      0.000
REMARK  7 active torsions:
REMARK  status: ('A' for Active; 'I' for Inactive)
REMARK    1  A    between atoms: C2_2  and  C3_3 
REMARK       I    between atoms: C3_3  and  N1_5 
REMARK    2  A    between atoms: N1_5  and  C4_7 
REMARK    3  A    between atoms: C4_7  and  C5_8 
REMARK    4  A    between atoms: C4_7  and  C12_15 
REMARK    5  A    between atoms: C5_8  and  C6_9 
REMARK       I    between atoms: C12_15  and  N2_17 
REMARK    6  A    between atoms: N2_17  and  C13_19 
REMARK    7  A    between atoms: C13_19  and  C14_20 
ROOT
HETATM    1  C4  UNL     1      39.420 -19.722  27.434  1.00  0.00     0.177 C 
ENDROOT
BRANCH   1   2
HETATM    2  N1  UNL     1      39.161 -20.437  26.206  1.00  0.00    -0.347 N 
HETATM    3  C3  UNL     1      37.982 -21.193  26.010  1.00  0.00     0.227 C 
HETATM    4  O1  UNL     1      37.142 -21.223  26.953  1.00  0.00    -0.273 OA
ATOM      5  H1  UNL     1      39.851 -20.396  25.455  1.00  0.00     0.163 HD
BRANCH   3   6
HETATM    6  C2  UNL     1      37.761 -21.915  24.746  1.00  0.00     0.048 C 
HETATM    7  C1  UNL     1      39.112 -22.191  24.125  1.00  0.00     0.026 C 
HETATM    8  C19 UNL     1      37.069 -23.231  25.046  1.00  0.00     0.047 C 
HETATM    9  C20 UNL     1      36.749 -23.996  23.810  1.00  0.00     0.233 C 
HETATM   10  N3  UNL     1      36.125 -23.180  22.786  1.00  0.00    -0.074 N 
HETATM   11  C21 UNL     1      36.921 -22.028  22.473  1.00  0.00     0.243 C 
ATOM     12  H32 UNL     1      35.916 -23.726  21.950  1.00  0.00     0.277 HD
ATOM     13  H31 UNL     1      35.174 -22.917  23.046  1.00  0.00     0.277 HD
HETATM   14  C22 UNL     1      36.960 -21.154  23.736  1.00  0.00    -0.001 C 
HETATM   15  C23 UNL     1      37.612 -19.861  23.311  1.00  0.00     0.012 C 
HETATM   16  C27 UNL     1      35.534 -20.922  24.136  1.00  0.00     0.012 C 
HETATM   17  C24 UNL     1      36.648 -18.711  23.225  1.00  0.00     0.001 C 
HETATM   18  C25 UNL     1      35.404 -19.083  22.428  1.00  0.00     0.000 C 
HETATM   19  C26 UNL     1      34.789 -20.366  22.925  1.00  0.00     0.001 C 
ENDBRANCH   3   6
ENDBRANCH   1   2
BRANCH   1  20
HETATM   20  C5  UNL     1      39.638 -18.305  27.197  1.00  0.00     0.039 C 
BRANCH  20  21
HETATM   21  C6  UNL     1      38.755 -17.255  27.686  1.00  0.00    -0.012 C 
HETATM   22  C7  UNL     1      39.114 -15.843  27.213  1.00  0.00     0.005 C 
HETATM   23  C8  UNL     1      38.092 -14.868  27.773  1.00  0.00     0.000 C 
HETATM   24  C9  UNL     1      37.393 -15.398  28.984  1.00  0.00     0.000 C 
HETATM   25  C10 UNL     1      36.637 -16.672  28.771  1.00  0.00     0.000 C 
HETATM   26  C11 UNL     1      37.288 -17.413  27.590  1.00  0.00     0.005 C 
ENDBRANCH  20  21
ENDBRANCH   1  20
BRANCH   1  27
HETATM   27  C12 UNL     1      40.364 -20.423  28.313  1.00  0.00     0.241 C 
HETATM   28  O2  UNL     1      41.408 -19.845  28.662  1.00  0.00    -0.271 OA
HETATM   29  N2  UNL     1      40.153 -21.730  28.789  1.00  0.00    -0.340 N 
ATOM     30  H2  UNL     1      39.292 -22.198  28.506  1.00  0.00     0.163 HD
BRANCH  29  31
HETATM   31  C13 UNL     1      41.058 -22.463  29.646  1.00  0.00     0.121 C 
HETATM   32  C15 UNL     1      42.246 -22.990  28.879  1.00  0.00     0.042 C 
HETATM   33  C16 UNL     1      42.316 -24.472  29.091  1.00  0.00     0.003 C 
HETATM   34  C17 UNL     1      41.509 -24.705  30.344  1.00  0.00     0.003 C 
HETATM   35  C18 UNL     1      40.375 -23.705  30.168  1.00  0.00     0.042 C 
BRANCH  31  36
HETATM   36  C14 UNL     1      41.533 -21.682  30.803  1.00  0.00     0.202 C 
HETATM   37  O3  UNL     1      40.690 -21.194  31.595  1.00  0.00    -0.646 OA
HETATM   38  O4  UNL     1      42.857 -21.446  31.082  1.00  0.00    -0.646 OA
ENDBRANCH  31  36
ENDBRANCH  29  31
ENDBRANCH   1  27
TORSDOF 7
ENDMDL
MODEL 2
REMARK VINA RESULT: -8.350883187      0.889      1.188
REMARK  7 active torsions:
REMARK  status: ('A' for Active; 'I' for Inactive)
REMARK    1  A    between atoms: C2_2  and  C3_3 
REMARK       I    between atoms: C3_3  and  N1_5 
REMARK    2  A    between atoms: N1_5  and  C4_7 
REMARK    3  A    between atoms: C4_7  and  C5_8 
REMARK    4  A    between atoms: C4_7  and  C12_15 
REMARK    5  A    between atoms: C5_8  and  C6_9 
REMARK       I    between atoms: C12_15  and  N2_17 
REMARK    6  A    between atoms: N2_17  and  C13_19 
REMARK    7  A    between atoms: C13_19  and  C14_20 
ROOT
HETATM    1  C4  UNL     1      39.228 -19.313  27.566  1.00  0.00     0.177 C 
ENDROOT
BRANCH   1   2
HETATM    2  N1  UNL     1      39.122 -20.044  26.325  1.00  0.00    -0.347 N 
HETATM    3  C3  UNL     1      38.051 -20.929  26.063  1.00  0.00     0.227 C 
HETATM    4  O1  UNL     1      37.170 -21.063  26.958  1.00  0.00    -0.273 OA
ATOM      5  H1  UNL     1      39.842 -19.917  25.613  1.00  0.00     0.163 HD
BRANCH   3   6
HETATM    6  C2  UNL     1      37.984 -21.661  24.787  1.00  0.00     0.048 C 
HETATM    7  C1  UNL     1      39.373 -21.680  24.188  1.00  0.00     0.026 C 
HETATM    8  C19 UNL     1      37.537 -23.085  25.060  1.00  0.00     0.047 C 
HETATM    9  C20 UNL     1      37.381 -23.878  23.811  1.00  0.00     0.233 C 
HETATM   10  N3  UNL     1      36.637 -23.174  22.784  1.00  0.00    -0.074 N 
HETATM   11  C21 UNL     1      37.215 -21.893  22.498  1.00  0.00     0.243 C 
ATOM     12  H32 UNL     1      36.543 -23.737  21.939  1.00  0.00     0.277 HD
ATOM     13  H31 UNL     1      35.649 -23.091  23.029  1.00  0.00     0.277 HD
HETATM   14  C22 UNL     1      37.075 -21.044  23.771  1.00  0.00    -0.001 C 
HETATM   15  C23 UNL     1      37.489 -19.648  23.372  1.00  0.00     0.012 C 
HETATM   16  C27 UNL     1      35.624 -21.079  24.147  1.00  0.00     0.012 C 
HETATM   17  C24 UNL     1      36.334 -18.691  23.281  1.00  0.00     0.001 C 
HETATM   18  C25 UNL     1      35.191 -19.270  22.457  1.00  0.00     0.000 C 
HETATM   19  C26 UNL     1      34.811 -20.651  22.929  1.00  0.00     0.001 C 
ENDBRANCH   3   6
ENDBRANCH   1   2
BRANCH   1  20
HETATM   20  C5  UNL     1      39.482 -17.900  27.341  1.00  0.00     0.039 C 
BRANCH  20  21
HETATM   21  C6  UNL     1      38.568 -16.838  27.739  1.00  0.00    -0.012 C 
HETATM   22  C7  UNL     1      38.902 -15.457  27.167  1.00  0.00     0.005 C 
HETATM   23  C8  UNL     1      37.850 -14.468  27.640  1.00  0.00     0.000 C 
HETATM   24  C9  UNL     1      37.145 -14.923  28.877  1.00  0.00     0.000 C 
HETATM   25  C10 UNL     1      36.421 -16.227  28.750  1.00  0.00     0.000 C 
HETATM   26  C11 UNL     1      37.107 -17.037  27.635  1.00  0.00     0.005 C 
ENDBRANCH  20  21
ENDBRANCH   1  20
BRANCH   1  27
HETATM   27  C12 UNL     1      40.051 -20.006  28.565  1.00  0.00     0.241 C 
HETATM   28  O2  UNL     1      40.071 -19.579  29.733  1.00  0.00    -0.271 OA
HETATM   29  N2  UNL     1      40.831 -21.139  28.274  1.00  0.00    -0.340 N 
ATOM     30  H2  UNL     1      40.807 -21.491  27.317  1.00  0.00     0.163 HD
BRANCH  29  31
HETATM   31  C13 UNL     1      41.664 -21.847  29.221  1.00  0.00     0.121 C 
HETATM   32  C15 UNL     1      42.878 -21.038  29.606  1.00  0.00     0.042 C 
HETATM   33  C16 UNL     1      44.096 -21.864  29.324  1.00  0.00     0.003 C 
HETATM   34  C17 UNL     1      43.578 -23.279  29.266  1.00  0.00     0.003 C 
HETATM   35  C18 UNL     1      42.237 -23.086  28.573  1.00  0.00     0.042 C 
BRANCH  31  36
HETATM   36  C14 UNL     1      40.946 -22.259  30.441  1.00  0.00     0.202 C 
HETATM   37  O3  UNL     1      40.125 -23.206  30.373  1.00  0.00    -0.646 OA
HETATM   38  O4  UNL     1      41.116 -21.671  31.671  1.00  0.00    -0.646 OA
ENDBRANCH  31  36
ENDBRANCH  29  31
ENDBRANCH   1  27
TORSDOF 7
ENDMDL
MODEL 3
REMARK VINA RESULT: -8.337615229      1.005      2.586
REMARK  7 active torsions:
REMARK  status: ('A' for Active; 'I' for Inactive)
REMARK    1  A    between atoms: C2_2  and  C3_3 
REMARK       I    between atoms: C3_3  and  N1_5 
REMARK    2  A    between atoms: N1_5  and  C4_7 
REMARK    3  A    between atoms: C4_7  and  C5_8 
REMARK    4  A    between atoms: C4_7  and  C12_15 
REMARK    5  A    between atoms: C5_8  and  C6_9 
REMARK       I    between atoms: C12_15  and  N2_17 
REMARK    6  A    between atoms: N2_17  and  C13_19 
REMARK    7  A    between atoms: C13_19  and  C14_20 
ROOT
HETATM    1  C4  UNL     1      39.236 -19.262  27.748  1.00  0.00     0.177 C 
ENDROOT
BRANCH   1   2
HETATM    2  N1  UNL     1      38.851 -19.746  26.443  1.00  0.00    -0.347 N 
HETATM    3  C3  UNL     1      37.714 -20.564  26.249  1.00  0.00     0.227 C 
HETATM    4  O1  UNL     1      37.027 -20.862  27.266  1.00  0.00    -0.273 OA
ATOM      5  H1  UNL     1      39.419 -19.490  25.634  1.00  0.00     0.163 HD
BRANCH   3   6
HETATM    6  C2  UNL     1      37.362 -21.044  24.902  1.00  0.00     0.048 C 
HETATM    7  C1  UNL     1      35.857 -21.171  24.832  1.00  0.00     0.026 C 
HETATM    8  C19 UNL     1      37.827 -20.024  23.880  1.00  0.00     0.047 C 
HETATM    9  C20 UNL     1      37.566 -20.465  22.482  1.00  0.00     0.233 C 
HETATM   10  N3  UNL     1      37.981 -21.834  22.235  1.00  0.00    -0.074 N 
HETATM   11  C21 UNL     1      37.383 -22.742  23.171  1.00  0.00     0.243 C 
ATOM     12  H32 UNL     1      37.793 -22.113  21.273  1.00  0.00     0.277 HD
ATOM     13  H31 UNL     1      38.998 -21.921  22.230  1.00  0.00     0.277 HD
HETATM   14  C22 UNL     1      37.933 -22.384  24.559  1.00  0.00    -0.001 C 
HETATM   15  C23 UNL     1      37.461 -23.485  25.477  1.00  0.00     0.012 C 
HETATM   16  C27 UNL     1      39.428 -22.399  24.439  1.00  0.00     0.012 C 
HETATM   17  C24 UNL     1      38.561 -24.418  25.899  1.00  0.00     0.001 C 
HETATM   18  C25 UNL     1      39.377 -24.897  24.705  1.00  0.00     0.000 C 
HETATM   19  C26 UNL     1      39.841 -23.745  23.851  1.00  0.00     0.001 C 
ENDBRANCH   3   6
ENDBRANCH   1   2
BRANCH   1  20
HETATM   20  C5  UNL     1      39.528 -17.839  27.732  1.00  0.00     0.039 C 
BRANCH  20  21
HETATM   21  C6  UNL     1      38.538 -16.804  27.997  1.00  0.00    -0.012 C 
HETATM   22  C7  UNL     1      38.816 -15.461  27.314  1.00  0.00     0.005 C 
HETATM   23  C8  UNL     1      37.689 -14.501  27.656  1.00  0.00     0.000 C 
HETATM   24  C9  UNL     1      36.960 -14.887  28.903  1.00  0.00     0.000 C 
HETATM   25  C10 UNL     1      36.318 -16.239  28.868  1.00  0.00     0.000 C 
HETATM   26  C11 UNL     1      37.097 -17.101  27.858  1.00  0.00     0.005 C 
ENDBRANCH  20  21
ENDBRANCH   1  20
BRANCH   1  27
HETATM   27  C12 UNL     1      40.190 -20.149  28.426  1.00  0.00     0.241 C 
HETATM   28  O2  UNL     1      41.355 -19.756  28.610  1.00  0.00    -0.271 OA
HETATM   29  N2  UNL     1      39.857 -21.437  28.884  1.00  0.00    -0.340 N 
ATOM     30  H2  UNL     1      38.899 -21.753  28.738  1.00  0.00     0.163 HD
BRANCH  29  31
HETATM   31  C13 UNL     1      40.765 -22.348  29.546  1.00  0.00     0.121 C 
HETATM   32  C15 UNL     1      41.800 -22.892  28.593  1.00  0.00     0.042 C 
HETATM   33  C16 UNL     1      41.733 -24.388  28.638  1.00  0.00     0.003 C 
HETATM   34  C17 UNL     1      41.043 -24.689  29.944  1.00  0.00     0.003 C 
HETATM   35  C18 UNL     1      40.011 -23.572  30.010  1.00  0.00     0.042 C 
BRANCH  31  36
HETATM   36  C14 UNL     1      41.441 -21.757  30.715  1.00  0.00     0.202 C 
HETATM   37  O3  UNL     1      40.747 -21.224  31.615  1.00  0.00    -0.646 OA
HETATM   38  O4  UNL     1      42.803 -21.748  30.894  1.00  0.00    -0.646 OA
ENDBRANCH  31  36
ENDBRANCH  29  31
ENDBRANCH   1  27
TORSDOF 7
ENDMDL
MODEL 4
REMARK VINA RESULT: -8.302925598      2.022      7.361
REMARK  7 active torsions:
REMARK  status: ('A' for Active; 'I' for Inactive)
REMARK    1  A    between atoms: C2_2  and  C3_3 
REMARK       I    between atoms: C3_3  and  N1_5 
REMARK    2  A    between atoms: N1_5  and  C4_7 
REMARK    3  A    between atoms: C4_7  and  C5_8 
REMARK    4  A    between atoms: C4_7  and  C12_15 
REMARK    5  A    between atoms: C5_8  and  C6_9 
REMARK       I    between atoms: C12_15  and  N2_17 
REMARK    6  A    between atoms: N2_17  and  C13_19 
REMARK    7  A    between atoms: C13_19  and  C14_20 
ROOT
HETATM    1  C4  UNL     1      38.649 -20.773  26.141  1.00  0.00     0.177 C 
ENDROOT
BRANCH   1   2
HETATM    2  N1  UNL     1      39.863 -21.307  26.712  1.00  0.00    -0.347 N 
HETATM    3  C3  UNL     1      39.996 -21.558  28.097  1.00  0.00     0.227 C 
HETATM    4  O1  UNL     1      39.004 -21.304  28.836  1.00  0.00    -0.273 OA
ATOM      5  H1  UNL     1      40.651 -21.509  26.096  1.00  0.00     0.163 HD
BRANCH   3   6
HETATM    6  C2  UNL     1      41.255 -22.095  28.640  1.00  0.00     0.048 C 
HETATM    7  C1  UNL     1      42.354 -21.805  27.641  1.00  0.00     0.026 C 
HETATM    8  C19 UNL     1      41.567 -21.391  29.947  1.00  0.00     0.047 C 
HETATM    9  C20 UNL     1      42.796 -21.922  30.596  1.00  0.00     0.233 C 
HETATM   10  N3  UNL     1      42.827 -23.372  30.643  1.00  0.00    -0.074 N 
HETATM   11  C21 UNL     1      42.659 -23.945  29.339  1.00  0.00     0.243 C 
ATOM     12  H32 UNL     1      43.677 -23.712  31.093  1.00  0.00     0.277 HD
ATOM     13  H31 UNL     1      42.141 -23.739  31.303  1.00  0.00     0.277 HD
HETATM   14  C22 UNL     1      41.246 -23.575  28.865  1.00  0.00    -0.001 C 
HETATM   15  C23 UNL     1      41.022 -24.368  27.602  1.00  0.00     0.012 C 
HETATM   16  C27 UNL     1      40.306 -24.022  29.945  1.00  0.00     0.012 C 
HETATM   17  C24 UNL     1      40.058 -25.506  27.778  1.00  0.00     0.001 C 
HETATM   18  C25 UNL     1      40.404 -26.348  28.999  1.00  0.00     0.000 C 
HETATM   19  C26 UNL     1      40.582 -25.495  30.230  1.00  0.00     0.001 C 
ENDBRANCH   3   6
ENDBRANCH   1   2
BRANCH   1  20
HETATM   20  C5  UNL     1      38.382 -21.327  24.825  1.00  0.00     0.039 C 
BRANCH  20  21
HETATM   21  C6  UNL     1      37.127 -21.965  24.452  1.00  0.00    -0.012 C 
HETATM   22  C7  UNL     1      36.846 -23.292  25.163  1.00  0.00     0.005 C 
HETATM   23  C8  UNL     1      35.497 -23.816  24.699  1.00  0.00     0.000 C 
HETATM   24  C9  UNL     1      35.082 -23.251  23.378  1.00  0.00     0.000 C 
HETATM   25  C10 UNL     1      34.953 -21.760  23.340  1.00  0.00     0.000 C 
HETATM   26  C11 UNL     1      35.873 -21.181  24.429  1.00  0.00     0.005 C 
ENDBRANCH  20  21
ENDBRANCH   1  20
BRANCH   1  27
HETATM   27  C12 UNL     1      38.533 -19.319  26.308  1.00  0.00     0.241 C 
HETATM   28  O2  UNL     1      38.959 -18.571  25.411  1.00  0.00    -0.271 OA
HETATM   29  N2  UNL     1      37.960 -18.714  27.442  1.00  0.00    -0.340 N 
ATOM     30  H2  UNL     1      37.605 -19.330  28.173  1.00  0.00     0.163 HD
BRANCH  29  31
HETATM   31  C13 UNL     1      37.834 -17.288  27.654  1.00  0.00     0.121 C 
HETATM   32  C15 UNL     1      37.065 -16.626  26.537  1.00  0.00     0.042 C 
HETATM   33  C16 UNL     1      37.918 -15.532  25.971  1.00  0.00     0.003 C 
HETATM   34  C17 UNL     1      38.922 -15.244  27.059  1.00  0.00     0.003 C 
HETATM   35  C18 UNL     1      39.198 -16.641  27.598  1.00  0.00     0.042 C 
BRANCH  31  36
HETATM   36  C14 UNL     1      37.214 -16.940  28.946  1.00  0.00     0.202 C 
HETATM   37  O3  UNL     1      36.082 -16.397  28.950  1.00  0.00    -0.646 OA
HETATM   38  O4  UNL     1      37.798 -17.169  30.167  1.00  0.00    -0.646 OA
ENDBRANCH  31  36
ENDBRANCH  29  31
ENDBRANCH   1  27
TORSDOF 7
ENDMDL
MODEL 5
REMARK VINA RESULT: -8.118389853      1.457      2.312
REMARK  7 active torsions:
REMARK  status: ('A' for Active; 'I' for Inactive)
REMARK    1  A    between atoms: C2_2  and  C3_3 
REMARK       I    between atoms: C3_3  and  N1_5 
REMARK    2  A    between atoms: N1_5  and  C4_7 
REMARK    3  A    between atoms: C4_7  and  C5_8 
REMARK    4  A    between atoms: C4_7  and  C12_15 
REMARK    5  A    between atoms: C5_8  and  C6_9 
REMARK       I    between atoms: C12_15  and  N2_17 
REMARK    6  A    between atoms: N2_17  and  C13_19 
REMARK    7  A    between atoms: C13_19  and  C14_20 
ROOT
HETATM    1  C4  UNL     1      38.127 -19.662  28.027  1.00  0.00     0.177 C 
ENDROOT
BRANCH   1   2
HETATM    2  N1  UNL     1      37.971 -19.681  26.591  1.00  0.00    -0.347 N 
HETATM    3  C3  UNL     1      37.520 -20.829  25.900  1.00  0.00     0.227 C 
HETATM    4  O1  UNL     1      37.248 -21.855  26.582  1.00  0.00    -0.273 OA
ATOM      5  H1  UNL     1      38.192 -18.839  26.059  1.00  0.00     0.163 HD
BRANCH   3   6
HETATM    6  C2  UNL     1      37.383 -20.809  24.433  1.00  0.00     0.048 C 
HETATM    7  C1  UNL     1      37.820 -22.158  23.906  1.00  0.00     0.026 C 
HETATM    8  C19 UNL     1      35.926 -20.580  24.079  1.00  0.00     0.047 C 
HETATM    9  C20 UNL     1      35.710 -20.482  22.609  1.00  0.00     0.233 C 
HETATM   10  N3  UNL     1      36.660 -19.599  21.957  1.00  0.00    -0.074 N 
HETATM   11  C21 UNL     1      38.013 -19.977  22.244  1.00  0.00     0.243 C 
ATOM     12  H32 UNL     1      36.492 -19.547  20.953  1.00  0.00     0.277 HD
ATOM     13  H31 UNL     1      36.487 -18.622  22.197  1.00  0.00     0.277 HD
HETATM   14  C22 UNL     1      38.226 -19.776  23.751  1.00  0.00    -0.001 C 
HETATM   15  C23 UNL     1      39.705 -19.970  23.980  1.00  0.00     0.012 C 
HETATM   16  C27 UNL     1      37.823 -18.363  24.052  1.00  0.00     0.012 C 
HETATM   17  C24 UNL     1      40.432 -18.688  24.276  1.00  0.00     0.001 C 
HETATM   18  C25 UNL     1      40.086 -17.603  23.265  1.00  0.00     0.000 C 
HETATM   19  C26 UNL     1      38.595 -17.443  23.110  1.00  0.00     0.001 C 
ENDBRANCH   3   6
ENDBRANCH   1   2
BRANCH   1  20
HETATM   20  C5  UNL     1      37.771 -18.372  28.592  1.00  0.00     0.039 C 
BRANCH  20  21
HETATM   21  C6  UNL     1      37.778 -17.125  27.838  1.00  0.00    -0.012 C 
HETATM   22  C7  UNL     1      36.688 -16.127  28.241  1.00  0.00     0.005 C 
HETATM   23  C8  UNL     1      36.842 -14.873  27.396  1.00  0.00     0.000 C 
HETATM   24  C9  UNL     1      37.586 -15.123  26.123  1.00  0.00     0.000 C 
HETATM   25  C10 UNL     1      38.978 -15.647  26.297  1.00  0.00     0.000 C 
HETATM   26  C11 UNL     1      39.039 -16.378  27.650  1.00  0.00     0.005 C 
ENDBRANCH  20  21
ENDBRANCH   1  20
BRANCH   1  27
HETATM   27  C12 UNL     1      39.382 -20.281  28.471  1.00  0.00     0.241 C 
HETATM   28  O2  UNL     1      40.435 -19.621  28.414  1.00  0.00    -0.271 OA
HETATM   29  N2  UNL     1      39.465 -21.596  28.962  1.00  0.00    -0.340 N 
ATOM     30  H2  UNL     1      38.599 -22.132  29.014  1.00  0.00     0.163 HD
BRANCH  29  31
HETATM   31  C13 UNL     1      40.679 -22.250  29.400  1.00  0.00     0.121 C 
HETATM   32  C15 UNL     1      41.611 -22.523  28.245  1.00  0.00     0.042 C 
HETATM   33  C16 UNL     1      41.923 -23.988  28.235  1.00  0.00     0.003 C 
HETATM   34  C17 UNL     1      41.595 -24.446  29.634  1.00  0.00     0.003 C 
HETATM   35  C18 UNL     1      40.353 -23.621  29.943  1.00  0.00     0.042 C 
BRANCH  31  36
HETATM   36  C14 UNL     1      41.403 -21.504  30.446  1.00  0.00     0.202 C 
HETATM   37  O3  UNL     1      40.784 -21.146  31.478  1.00  0.00    -0.646 OA
HETATM   38  O4  UNL     1      42.732 -21.167  30.371  1.00  0.00    -0.646 OA
ENDBRANCH  31  36
ENDBRANCH  29  31
ENDBRANCH   1  27
TORSDOF 7
ENDMDL
