MODEL 1
REMARK VINA RESULT: -7.769399479      0.000      0.000
REMARK  10 active torsions:
REMARK  status: ('A' for Active; 'I' for Inactive)
REMARK    1  A    between atoms: C13_13  and  N1_14 
REMARK       I    between atoms: N1_14  and  C14_16 
REMARK    2  A    between atoms: C14_16  and  C15_18 
REMARK    3  A    between atoms: C15_18  and  C16_19 
REMARK    4  A    between atoms: C16_19  and  C17_20 
REMARK    5  A    between atoms: C18_21  and  C19_22 
REMARK    6  A    between atoms: C19_22  and  C20_23 
REMARK    7  A    between atoms: C20_23  and  O2_24 
REMARK    8  A    between atoms: O2_24  and  C21_25 
REMARK    9  A    between atoms: N2_31  and  N3_33 
REMARK   10  A    between atoms: N3_33  and  C27_35 
ROOT
HETATM    1  C15 UNL     1      40.364 -20.469  27.564  1.00  0.00     0.104 C 
HETATM    2  N2  UNL     1      41.171 -20.947  28.459  1.00  0.00    -0.297 N 
ATOM      3  H2  UNL     1      40.860 -21.735  29.028  1.00  0.00     0.187 HD
ENDROOT
BRANCH   1   4
HETATM    4  C14 UNL     1      39.067 -21.076  27.416  1.00  0.00     0.266 C 
HETATM    5  N1  UNL     1      38.720 -21.774  26.254  1.00  0.00    -0.351 N 
ATOM      6  H1  UNL     1      39.406 -21.848  25.504  1.00  0.00     0.163 HD
HETATM    7  O1  UNL     1      38.231 -20.977  28.347  1.00  0.00    -0.266 OA
BRANCH   5   8
HETATM    8  C13 UNL     1      37.407 -22.406  26.071  1.00  0.00     0.089 C 
HETATM    9  C2  UNL     1      36.709 -21.625  25.016  1.00  0.00     0.008 C 
HETATM   10  C1  UNL     1      37.573 -20.741  24.168  1.00  0.00     0.012 C 
HETATM   11  C3  UNL     1      35.570 -22.300  24.236  1.00  0.00    -0.008 C 
HETATM   12  C4  UNL     1      35.879 -22.591  22.808  1.00  0.00     0.010 C 
HETATM   13  C11 UNL     1      35.549 -23.634  24.960  1.00  0.00     0.010 C 
HETATM   14  C5  UNL     1      35.898 -23.864  22.167  1.00  0.00    -0.014 C 
HETATM   15  C6  UNL     1      34.891 -24.920  22.351  1.00  0.00     0.005 C 
HETATM   16  C9  UNL     1      37.143 -24.770  22.257  1.00  0.00     0.009 C 
HETATM   17  C7  UNL     1      35.519 -25.881  23.360  1.00  0.00     0.005 C 
HETATM   18  C8  UNL     1      36.898 -25.288  23.711  1.00  0.00    -0.010 C 
HETATM   19  C10 UNL     1      36.893 -24.120  24.553  1.00  0.00    -0.008 C 
HETATM   20  C12 UNL     1      37.707 -23.897  25.792  1.00  0.00     0.030 C 
ENDBRANCH   5   8
ENDBRANCH   1   4
BRANCH   1  21
HETATM   21  C16 UNL     1      40.830 -19.324  26.745  1.00  0.00     0.158 C 
BRANCH  21  22
HETATM   22  C17 UNL     1      39.684 -18.494  26.373  1.00  0.00    -0.100 C 
HETATM   23  C18 UNL     1      38.742 -17.792  26.048  1.00  0.00    -0.104 C 
BRANCH  23  24
HETATM   24  C19 UNL     1      37.622 -16.931  25.640  1.00  0.00     0.120 C 
BRANCH  24  25
HETATM   25  C20 UNL     1      37.890 -15.495  26.023  1.00  0.00     0.180 C 
BRANCH  25  26
HETATM   26  O2  UNL     1      38.597 -15.340  27.185  1.00  0.00    -0.385 OA
BRANCH  26  27
HETATM   27  C21 UNL     1      37.980 -14.564  28.142  1.00  0.00     0.121 C 
HETATM   28  C22 UNL     1      36.813 -13.794  27.610  1.00  0.00     0.032 C 
HETATM   29  C23 UNL     1      35.685 -13.637  28.585  1.00  0.00     0.002 C 
HETATM   30  C24 UNL     1      35.251 -14.928  29.219  1.00  0.00     0.000 C 
HETATM   31  C25 UNL     1      36.275 -16.028  29.055  1.00  0.00     0.002 C 
HETATM   32  C26 UNL     1      37.622 -15.407  29.369  1.00  0.00     0.032 C 
ENDBRANCH  26  27
ENDBRANCH  25  26
ENDBRANCH  24  25
ENDBRANCH  23  24
ENDBRANCH  21  22
ENDBRANCH   1  21
BRANCH   2  33
HETATM   33  N3  UNL     1      42.453 -20.423  28.678  1.00  0.00    -0.278 N 
ATOM     34  H3  UNL     1      42.749 -19.617  28.126  1.00  0.00     0.189 HD
BRANCH  33  35
HETATM   35  C27 UNL     1      43.349 -20.958  29.622  1.00  0.00     0.199 C 
HETATM   36  N4  UNL     1      44.452 -20.202  30.065  1.00  0.00    -0.068 NA
HETATM   37  S1  UNL     1      43.113 -22.452  30.203  1.00  0.00    -0.043 SA
ENDBRANCH  33  35
ENDBRANCH   2  33
TORSDOF 10
ENDMDL
MODEL 2
REMARK VINA RESULT: -7.691611274      3.625      7.030
REMARK  10 active torsions:
REMARK  status: ('A' for Active; 'I' for Inactive)
REMARK    1  A    between atoms: C13_13  and  N1_14 
REMARK       I    between atoms: N1_14  and  C14_16 
REMARK    2  A    between atoms: C14_16  and  C15_18 
REMARK    3  A    between atoms: C15_18  and  C16_19 
REMARK    4  A    between atoms: C16_19  and  C17_20 
REMARK    5  A    between atoms: C18_21  and  C19_22 
REMARK    6  A    between atoms: C19_22  and  C20_23 
REMARK    7  A    between atoms: C20_23  and  O2_24 
REMARK    8  A    between atoms: O2_24  and  C21_25 
REMARK    9  A    between atoms: N2_31  and  N3_33 
REMARK   10  A    between atoms: N3_33  and  C27_35 
ROOT
HETATM    1  C15 UNL     1      38.997 -16.999  28.684  1.00  0.00     0.104 C 
HETATM    2  N2  UNL     1      38.260 -16.201  29.391  1.00  0.00    -0.297 N 
ATOM      3  H2  UNL     1      38.043 -16.458  30.354  1.00  0.00     0.187 HD
ENDROOT
BRANCH   1   4
HETATM    4  C14 UNL     1      39.474 -18.213  29.293  1.00  0.00     0.266 C 
HETATM    5  N1  UNL     1      40.016 -19.248  28.524  1.00  0.00    -0.351 N 
ATOM      6  H1  UNL     1      40.068 -19.131  27.512  1.00  0.00     0.163 HD
HETATM    7  O1  UNL     1      39.405 -18.344  30.539  1.00  0.00    -0.266 OA
BRANCH   5   8
HETATM    8  C13 UNL     1      40.513 -20.497  29.114  1.00  0.00     0.089 C 
HETATM    9  C2  UNL     1      39.607 -21.576  28.638  1.00  0.00     0.008 C 
HETATM   10  C1  UNL     1      38.754 -21.245  27.450  1.00  0.00     0.012 C 
HETATM   11  C3  UNL     1      40.125 -23.022  28.636  1.00  0.00    -0.008 C 
HETATM   12  C4  UNL     1      40.353 -23.602  27.283  1.00  0.00     0.010 C 
HETATM   13  C11 UNL     1      41.496 -22.781  29.245  1.00  0.00     0.010 C 
HETATM   14  C5  UNL     1      41.580 -24.087  26.743  1.00  0.00    -0.014 C 
HETATM   15  C6  UNL     1      42.550 -24.927  27.462  1.00  0.00     0.005 C 
HETATM   16  C9  UNL     1      42.599 -23.115  26.113  1.00  0.00     0.009 C 
HETATM   17  C7  UNL     1      43.625 -23.951  27.939  1.00  0.00     0.005 C 
HETATM   18  C8  UNL     1      43.183 -22.558  27.451  1.00  0.00    -0.010 C 
HETATM   19  C10 UNL     1      42.075 -21.961  28.150  1.00  0.00    -0.008 C 
HETATM   20  C12 UNL     1      42.005 -20.573  28.713  1.00  0.00     0.030 C 
ENDBRANCH   5   8
ENDBRANCH   1   4
BRANCH   1  21
HETATM   21  C16 UNL     1      39.304 -16.609  27.286  1.00  0.00     0.158 C 
BRANCH  21  22
HETATM   22  C17 UNL     1      38.394 -17.305  26.376  1.00  0.00    -0.100 C 
HETATM   23  C18 UNL     1      37.632 -17.866  25.608  1.00  0.00    -0.104 C 
BRANCH  23  24
HETATM   24  C19 UNL     1      36.709 -18.519  24.667  1.00  0.00     0.120 C 
BRANCH  24  25
HETATM   25  C20 UNL     1      37.448 -19.515  23.805  1.00  0.00     0.180 C 
BRANCH  25  26
HETATM   26  O2  UNL     1      37.314 -20.818  24.201  1.00  0.00    -0.385 OA
BRANCH  26  27
HETATM   27  C21 UNL     1      36.014 -21.256  24.330  1.00  0.00     0.121 C 
HETATM   28  C22 UNL     1      35.363 -21.558  23.017  1.00  0.00     0.032 C 
HETATM   29  C23 UNL     1      34.410 -22.714  23.055  1.00  0.00     0.002 C 
HETATM   30  C24 UNL     1      34.987 -23.952  23.683  1.00  0.00     0.000 C 
HETATM   31  C25 UNL     1      36.234 -23.666  24.488  1.00  0.00     0.002 C 
HETATM   32  C26 UNL     1      35.936 -22.428  25.311  1.00  0.00     0.032 C 
ENDBRANCH  26  27
ENDBRANCH  25  26
ENDBRANCH  24  25
ENDBRANCH  23  24
ENDBRANCH  21  22
ENDBRANCH   1  21
BRANCH   2  33
HETATM   33  N3  UNL     1      37.749 -14.997  28.886  1.00  0.00    -0.278 N 
ATOM     34  H3  UNL     1      38.404 -14.253  28.645  1.00  0.00     0.189 HD
BRANCH  33  35
HETATM   35  C27 UNL     1      36.374 -14.768  28.694  1.00  0.00     0.199 C 
HETATM   36  N4  UNL     1      35.427 -15.725  29.110  1.00  0.00    -0.068 NA
HETATM   37  S1  UNL     1      35.874 -13.397  27.991  1.00  0.00    -0.043 SA
ENDBRANCH  33  35
ENDBRANCH   2  33
TORSDOF 10
ENDMDL
MODEL 3
REMARK VINA RESULT: -7.673221845      3.380      6.631
REMARK  10 active torsions:
REMARK  status: ('A' for Active; 'I' for Inactive)
REMARK    1  A    between atoms: C13_13  and  N1_14 
REMARK       I    between atoms: N1_14  and  C14_16 
REMARK    2  A    between atoms: C14_16  and  C15_18 
REMARK    3  A    between atoms: C15_18  and  C16_19 
REMARK    4  A    between atoms: C16_19  and  C17_20 
REMARK    5  A    between atoms: C18_21  and  C19_22 
REMARK    6  A    between atoms: C19_22  and  C20_23 
REMARK    7  A    between atoms: C20_23  and  O2_24 
REMARK    8  A    between atoms: O2_24  and  C21_25 
REMARK    9  A    between atoms: N2_31  and  N3_33 
REMARK   10  A    between atoms: N3_33  and  C27_35 
ROOT
HETATM    1  C15 UNL     1      37.921 -17.690  27.659  1.00  0.00     0.104 C 
HETATM    2  N2  UNL     1      36.731 -17.235  27.902  1.00  0.00    -0.297 N 
ATOM      3  H2  UNL     1      35.999 -17.385  27.209  1.00  0.00     0.187 HD
ENDROOT
BRANCH   1   4
HETATM    4  C14 UNL     1      38.149 -18.386  26.420  1.00  0.00     0.266 C 
HETATM    5  N1  UNL     1      37.557 -19.628  26.164  1.00  0.00    -0.351 N 
ATOM      6  H1  UNL     1      36.954 -20.039  26.877  1.00  0.00     0.163 HD
HETATM    7  O1  UNL     1      38.893 -17.869  25.551  1.00  0.00    -0.266 OA
BRANCH   5   8
HETATM    8  C13 UNL     1      37.768 -20.364  24.912  1.00  0.00     0.089 C 
HETATM    9  C2  UNL     1      38.547 -21.581  25.265  1.00  0.00     0.008 C 
HETATM   10  C1  UNL     1      38.560 -21.957  26.716  1.00  0.00     0.012 C 
HETATM   11  C3  UNL     1      38.490 -22.789  24.319  1.00  0.00    -0.008 C 
HETATM   12  C4  UNL     1      37.763 -23.971  24.859  1.00  0.00     0.010 C 
HETATM   13  C11 UNL     1      37.611 -22.194  23.232  1.00  0.00     0.010 C 
HETATM   14  C5  UNL     1      36.604 -24.599  24.317  1.00  0.00    -0.014 C 
HETATM   15  C6  UNL     1      36.387 -24.893  22.892  1.00  0.00     0.005 C 
HETATM   16  C9  UNL     1      35.197 -24.040  24.613  1.00  0.00     0.009 C 
HETATM   17  C7  UNL     1      35.496 -23.755  22.396  1.00  0.00     0.005 C 
HETATM   18  C8  UNL     1      35.255 -22.840  23.612  1.00  0.00    -0.010 C 
HETATM   19  C10 UNL     1      36.368 -22.029  24.029  1.00  0.00    -0.008 C 
HETATM   20  C12 UNL     1      36.356 -20.555  24.308  1.00  0.00     0.030 C 
ENDBRANCH   5   8
ENDBRANCH   1   4
BRANCH   1  21
HETATM   21  C16 UNL     1      38.975 -17.465  28.678  1.00  0.00     0.158 C 
BRANCH  21  22
HETATM   22  C17 UNL     1      39.619 -18.739  28.999  1.00  0.00    -0.100 C 
HETATM   23  C18 UNL     1      40.176 -19.792  29.258  1.00  0.00    -0.104 C 
BRANCH  23  24
HETATM   24  C19 UNL     1      40.870 -21.052  29.560  1.00  0.00     0.120 C 
BRANCH  24  25
HETATM   25  C20 UNL     1      42.223 -21.087  28.889  1.00  0.00     0.180 C 
BRANCH  25  26
HETATM   26  O2  UNL     1      43.165 -20.281  29.470  1.00  0.00    -0.385 OA
BRANCH  26  27
HETATM   27  C21 UNL     1      44.441 -20.801  29.491  1.00  0.00     0.121 C 
HETATM   28  C22 UNL     1      45.446 -19.867  30.087  1.00  0.00     0.032 C 
HETATM   29  C23 UNL     1      46.527 -20.546  30.871  1.00  0.00     0.002 C 
HETATM   30  C24 UNL     1      46.012 -21.524  31.890  1.00  0.00     0.000 C 
HETATM   31  C25 UNL     1      44.571 -21.910  31.645  1.00  0.00     0.002 C 
HETATM   32  C26 UNL     1      44.448 -22.180  30.157  1.00  0.00     0.032 C 
ENDBRANCH  26  27
ENDBRANCH  25  26
ENDBRANCH  24  25
ENDBRANCH  23  24
ENDBRANCH  21  22
ENDBRANCH   1  21
BRANCH   2  33
HETATM   33  N3  UNL     1      36.412 -16.544  29.080  1.00  0.00    -0.278 N 
ATOM     34  H3  UNL     1      36.768 -16.904  29.966  1.00  0.00     0.189 HD
BRANCH  33  35
HETATM   35  C27 UNL     1      35.624 -15.379  29.096  1.00  0.00     0.199 C 
HETATM   36  N4  UNL     1      34.353 -15.386  29.705  1.00  0.00    -0.068 NA
HETATM   37  S1  UNL     1      36.179 -14.019  28.411  1.00  0.00    -0.043 SA
ENDBRANCH  33  35
ENDBRANCH   2  33
TORSDOF 10
ENDMDL
MODEL 4
REMARK VINA RESULT: -7.644385075      2.416      6.685
REMARK  10 active torsions:
REMARK  status: ('A' for Active; 'I' for Inactive)
REMARK    1  A    between atoms: C13_13  and  N1_14 
REMARK       I    between atoms: N1_14  and  C14_16 
REMARK    2  A    between atoms: C14_16  and  C15_18 
REMARK    3  A    between atoms: C15_18  and  C16_19 
REMARK    4  A    between atoms: C16_19  and  C17_20 
REMARK    5  A    between atoms: C18_21  and  C19_22 
REMARK    6  A    between atoms: C19_22  and  C20_23 
REMARK    7  A    between atoms: C20_23  and  O2_24 
REMARK    8  A    between atoms: O2_24  and  C21_25 
REMARK    9  A    between atoms: N2_31  and  N3_33 
REMARK   10  A    between atoms: N3_33  and  C27_35 
ROOT
HETATM    1  C15 UNL     1      37.218 -21.066  26.341  1.00  0.00     0.104 C 
HETATM    2  N2  UNL     1      36.756 -22.244  26.058  1.00  0.00    -0.297 N 
ATOM      3  H2  UNL     1      36.954 -23.014  26.696  1.00  0.00     0.187 HD
ENDROOT
BRANCH   1   4
HETATM    4  C14 UNL     1      37.989 -20.903  27.545  1.00  0.00     0.266 C 
HETATM    5  N1  UNL     1      39.257 -21.479  27.681  1.00  0.00    -0.351 N 
ATOM      6  H1  UNL     1      39.633 -22.024  26.905  1.00  0.00     0.163 HD
HETATM    7  O1  UNL     1      37.516 -20.229  28.493  1.00  0.00    -0.266 OA
BRANCH   5   8
HETATM    8  C13 UNL     1      40.070 -21.331  28.894  1.00  0.00     0.089 C 
HETATM    9  C2  UNL     1      40.519 -22.699  29.268  1.00  0.00     0.008 C 
HETATM   10  C1  UNL     1      40.416 -23.743  28.198  1.00  0.00     0.012 C 
HETATM   11  C3  UNL     1      41.769 -22.845  30.149  1.00  0.00    -0.008 C 
HETATM   12  C4  UNL     1      42.955 -23.422  29.458  1.00  0.00     0.010 C 
HETATM   13  C11 UNL     1      42.068 -21.374  30.378  1.00  0.00     0.010 C 
HETATM   14  C5  UNL     1      44.230 -22.813  29.269  1.00  0.00    -0.014 C 
HETATM   15  C6  UNL     1      44.970 -22.059  30.293  1.00  0.00     0.005 C 
HETATM   16  C9  UNL     1      44.467 -21.832  28.102  1.00  0.00     0.009 C 
HETATM   17  C7  UNL     1      44.683 -20.593  29.974  1.00  0.00     0.005 C 
HETATM   18  C8  UNL     1      43.754 -20.597  28.744  1.00  0.00    -0.010 C 
HETATM   19  C10 UNL     1      42.392 -21.001  28.976  1.00  0.00    -0.008 C 
HETATM   20  C12 UNL     1      41.151 -20.284  28.537  1.00  0.00     0.030 C 
ENDBRANCH   5   8
ENDBRANCH   1   4
BRANCH   1  21
HETATM   21  C16 UNL     1      36.920 -19.957  25.403  1.00  0.00     0.158 C 
BRANCH  21  22
HETATM   22  C17 UNL     1      37.912 -18.895  25.576  1.00  0.00    -0.100 C 
HETATM   23  C18 UNL     1      38.752 -18.025  25.729  1.00  0.00    -0.104 C 
BRANCH  23  24
HETATM   24  C19 UNL     1      39.783 -16.995  25.924  1.00  0.00     0.120 C 
BRANCH  24  25
HETATM   25  C20 UNL     1      39.384 -16.046  27.029  1.00  0.00     0.180 C 
BRANCH  25  26
HETATM   26  O2  UNL     1      38.203 -15.388  26.813  1.00  0.00    -0.385 OA
BRANCH  26  27
HETATM   27  C21 UNL     1      37.799 -14.565  27.842  1.00  0.00     0.121 C 
HETATM   28  C22 UNL     1      36.644 -13.689  27.473  1.00  0.00     0.032 C 
HETATM   29  C23 UNL     1      35.683 -13.435  28.596  1.00  0.00     0.002 C 
HETATM   30  C24 UNL     1      35.226 -14.685  29.293  1.00  0.00     0.000 C 
HETATM   31  C25 UNL     1      36.113 -15.873  28.995  1.00  0.00     0.002 C 
HETATM   32  C26 UNL     1      37.542 -15.379  29.113  1.00  0.00     0.032 C 
ENDBRANCH  26  27
ENDBRANCH  25  26
ENDBRANCH  24  25
ENDBRANCH  23  24
ENDBRANCH  21  22
ENDBRANCH   1  21
BRANCH   2  33
HETATM   33  N3  UNL     1      35.995 -22.501  24.909  1.00  0.00    -0.278 N 
ATOM     34  H3  UNL     1      35.637 -21.709  24.375  1.00  0.00     0.189 HD
BRANCH  33  35
HETATM   35  C27 UNL     1      35.705 -23.802  24.457  1.00  0.00     0.199 C 
HETATM   36  N4  UNL     1      34.477 -24.079  23.824  1.00  0.00    -0.068 NA
HETATM   37  S1  UNL     1      36.787 -24.990  24.665  1.00  0.00    -0.043 SA
ENDBRANCH  33  35
ENDBRANCH   2  33
TORSDOF 10
ENDMDL
MODEL 5
REMARK VINA RESULT: -7.622445796      1.671      2.574
REMARK  10 active torsions:
REMARK  status: ('A' for Active; 'I' for Inactive)
REMARK    1  A    between atoms: C13_13  and  N1_14 
REMARK       I    between atoms: N1_14  and  C14_16 
REMARK    2  A    between atoms: C14_16  and  C15_18 
REMARK    3  A    between atoms: C15_18  and  C16_19 
REMARK    4  A    between atoms: C16_19  and  C17_20 
REMARK    5  A    between atoms: C18_21  and  C19_22 
REMARK    6  A    between atoms: C19_22  and  C20_23 
REMARK    7  A    between atoms: C20_23  and  O2_24 
REMARK    8  A    between atoms: O2_24  and  C21_25 
REMARK    9  A    between atoms: N2_31  and  N3_33 
REMARK   10  A    between atoms: N3_33  and  C27_35 
ROOT
HETATM    1  C15 UNL     1      38.368 -21.055  27.309  1.00  0.00     0.104 C 
HETATM    2  N2  UNL     1      39.236 -21.754  27.971  1.00  0.00    -0.297 N 
ATOM      3  H2  UNL     1      39.583 -22.620  27.559  1.00  0.00     0.187 HD
ENDROOT
BRANCH   1   4
HETATM    4  C14 UNL     1      37.936 -21.536  26.023  1.00  0.00     0.266 C 
HETATM    5  N1  UNL     1      37.817 -22.906  25.762  1.00  0.00    -0.351 N 
ATOM      6  H1  UNL     1      38.045 -23.567  26.504  1.00  0.00     0.163 HD
HETATM    7  O1  UNL     1      37.660 -20.711  25.118  1.00  0.00    -0.266 OA
BRANCH   5   8
HETATM    8  C13 UNL     1      37.379 -23.429  24.463  1.00  0.00     0.089 C 
HETATM    9  C2  UNL     1      38.450 -24.350  23.997  1.00  0.00     0.008 C 
HETATM   10  C1  UNL     1      39.418 -24.817  25.043  1.00  0.00     0.012 C 
HETATM   11  C3  UNL     1      38.092 -25.432  22.966  1.00  0.00    -0.008 C 
HETATM   12  C4  UNL     1      38.114 -26.825  23.491  1.00  0.00     0.010 C 
HETATM   13  C11 UNL     1      36.634 -25.070  22.744  1.00  0.00     0.010 C 
HETATM   14  C5  UNL     1      37.031 -27.751  23.539  1.00  0.00    -0.014 C 
HETATM   15  C6  UNL     1      36.065 -27.983  22.454  1.00  0.00     0.005 C 
HETATM   16  C9  UNL     1      36.011 -27.706  24.696  1.00  0.00     0.009 C 
HETATM   17  C7  UNL     1      34.839 -27.162  22.847  1.00  0.00     0.005 C 
HETATM   18  C8  UNL     1      35.194 -26.476  24.181  1.00  0.00    -0.010 C 
HETATM   19  C10 UNL     1      36.127 -25.383  24.106  1.00  0.00    -0.008 C 
HETATM   20  C12 UNL     1      35.972 -24.021  24.715  1.00  0.00     0.030 C 
ENDBRANCH   5   8
ENDBRANCH   1   4
BRANCH   1  21
HETATM   21  C16 UNL     1      37.875 -19.797  27.920  1.00  0.00     0.158 C 
BRANCH  21  22
HETATM   22  C17 UNL     1      38.551 -18.658  27.299  1.00  0.00    -0.100 C 
HETATM   23  C18 UNL     1      39.134 -17.719  26.785  1.00  0.00    -0.104 C 
BRANCH  23  24
HETATM   24  C19 UNL     1      39.860 -16.599  26.168  1.00  0.00     0.120 C 
BRANCH  24  25
HETATM   25  C20 UNL     1      39.492 -15.295  26.836  1.00  0.00     0.180 C 
BRANCH  25  26
HETATM   26  O2  UNL     1      38.160 -14.984  26.777  1.00  0.00    -0.385 OA
BRANCH  26  27
HETATM   27  C21 UNL     1      37.677 -14.290  27.865  1.00  0.00     0.121 C 
HETATM   28  C22 UNL     1      36.421 -13.533  27.567  1.00  0.00     0.032 C 
HETATM   29  C23 UNL     1      35.454 -13.476  28.711  1.00  0.00     0.002 C 
HETATM   30  C24 UNL     1      35.158 -14.818  29.320  1.00  0.00     0.000 C 
HETATM   31  C25 UNL     1      36.175 -15.867  28.931  1.00  0.00     0.002 C 
HETATM   32  C26 UNL     1      37.537 -15.216  29.075  1.00  0.00     0.032 C 
ENDBRANCH  26  27
ENDBRANCH  25  26
ENDBRANCH  24  25
ENDBRANCH  23  24
ENDBRANCH  21  22
ENDBRANCH   1  21
BRANCH   2  33
HETATM   33  N3  UNL     1      39.717 -21.367  29.230  1.00  0.00    -0.278 N 
ATOM     34  H3  UNL     1      39.058 -21.314  30.006  1.00  0.00     0.189 HD
BRANCH  33  35
HETATM   35  C27 UNL     1      41.066 -21.050  29.471  1.00  0.00     0.199 C 
HETATM   36  N4  UNL     1      41.668 -21.381  30.701  1.00  0.00    -0.068 NA
HETATM   37  S1  UNL     1      41.936 -20.300  28.328  1.00  0.00    -0.043 SA
ENDBRANCH  33  35
ENDBRANCH   2  33
TORSDOF 10
ENDMDL
