MODEL 1
REMARK VINA RESULT: -7.734045766      0.000      0.000
REMARK  11 active torsions:
REMARK  status: ('A' for Active; 'I' for Inactive)
REMARK    1  A    between atoms: O1_2  and  C2_3 
REMARK    2  A    between atoms: C14_16  and  O2_17 
REMARK    3  A    between atoms: C16_21  and  O3_22 
REMARK    4  A    between atoms: C23_31  and  O4_32 
REMARK    5  A    between atoms: O4_32  and  C24_33 
REMARK    6  A    between atoms: C24_33  and  C25_34 
REMARK    7  A    between atoms: C25_34  and  C26_35 
REMARK    8  A    between atoms: C26_35  and  C27_36 
REMARK    9  A    between atoms: C27_36  and  C28_37 
REMARK   10  A    between atoms: C28_37  and  N3_38 
REMARK   11  A    between atoms: C33_43  and  O5_44 
ROOT
HETATM    1  C2  UNL     1       0.698   2.048 -22.534  1.00  0.00     0.104 A 
HETATM    2  C3  UNL     1       1.273   2.360 -21.323  1.00  0.00     0.053 A 
HETATM    3  C4  UNL     1       1.456   3.667 -20.896  1.00  0.00    -0.003 A 
HETATM    4  C5  UNL     1       2.035   3.920 -19.625  1.00  0.00     0.056 C 
HETATM    5  C6  UNL     1       3.509   3.814 -19.490  1.00  0.00     0.006 A 
HETATM    6  C7  UNL     1       4.261   3.914 -20.600  1.00  0.00     0.057 A 
HETATM    7  C8  UNL     1       5.636   3.863 -20.476  1.00  0.00     0.117 A 
HETATM    8  F1  UNL     1       6.396   3.969 -21.621  1.00  0.00    -0.206 F 
HETATM    9  C9  UNL     1       6.246   3.710 -19.243  1.00  0.00     0.043 A 
HETATM   10  C10 UNL     1       5.473   3.604 -18.078  1.00  0.00     0.016 A 
HETATM   11  C11 UNL     1       4.130   3.657 -18.238  1.00  0.00    -0.008 A 
HETATM   12  C12 UNL     1       3.461   3.500 -16.928  1.00  0.00     0.039 A 
HETATM   13  C13 UNL     1       2.187   4.026 -16.653  1.00  0.00     0.031 A 
HETATM   14  C14 UNL     1       1.967   3.650 -15.350  1.00  0.00     0.153 A 
HETATM   15  N1  UNL     1       3.034   2.954 -14.894  1.00  0.00    -0.312 N 
HETATM   16  C15 UNL     1       3.087   2.421 -13.536  1.00  0.00     0.160 C 
HETATM   17  C16 UNL     1       3.966   2.854 -15.865  1.00  0.00     0.155 A 
HETATM   18  C17 UNL     1       1.242   4.778 -17.510  1.00  0.00     0.127 C 
HETATM   19  C18 UNL     1       1.015   6.135 -16.844  1.00  0.00     0.031 C 
HETATM   20  C19 UNL     1       2.407   6.774 -16.718  1.00  0.00     0.007 C 
HETATM   21  C20 UNL     1       2.967   6.973 -18.100  1.00  0.00     0.045 C 
HETATM   22  C21 UNL     1       2.167   6.293 -19.172  1.00  0.00     0.065 C 
HETATM   23  N2  UNL     1       1.663   5.043 -18.829  1.00  0.00    -0.350 N 
HETATM   24  C22 UNL     1       1.033   4.652 -21.743  1.00  0.00     0.053 A 
HETATM   25  C23 UNL     1       0.444   4.373 -22.979  1.00  0.00     0.105 A 
HETATM   26  C33 UNL     1       0.279   3.036 -23.373  1.00  0.00     0.133 A 
ENDROOT
BRANCH   1  27
HETATM   27  O1  UNL     1       0.524   0.714 -22.942  1.00  0.00    -0.353 OA
HETATM   28  C1  UNL     1       1.602  -0.170 -22.703  1.00  0.00     0.210 C 
ENDBRANCH   1  27
BRANCH  25  29
HETATM   29  O4  UNL     1       0.014   5.331 -23.837  1.00  0.00    -0.348 OA
BRANCH  29  30
HETATM   30  C24 UNL     1      -0.778   6.426 -23.764  1.00  0.00     0.176 C 
BRANCH  30  31
HETATM   31  C25 UNL     1      -1.853   6.497 -22.743  1.00  0.00     0.027 C 
BRANCH  31  32
HETATM   32  C26 UNL     1      -1.721   7.582 -21.741  1.00  0.00     0.004 C 
BRANCH  32  33
HETATM   33  C27 UNL     1      -1.242   7.220 -20.391  1.00  0.00     0.030 C 
BRANCH  33  34
HETATM   34  C28 UNL     1      -1.746   8.280 -19.408  1.00  0.00     0.272 C 
BRANCH  34  35
HETATM   35  N3  UNL     1      -0.638   8.727 -18.636  1.00  0.00     0.088 N 
HETATM   36  C29 UNL     1       0.137   9.700 -19.332  1.00  0.00     0.272 C 
HETATM   37  C30 UNL     1       1.142  10.106 -18.249  1.00  0.00     0.032 C 
HETATM   38  C31 UNL     1       0.391   9.871 -16.933  1.00  0.00     0.032 C 
HETATM   39  C32 UNL     1      -0.982   9.393 -17.413  1.00  0.00     0.272 C 
ENDBRANCH  34  35
ENDBRANCH  33  34
ENDBRANCH  32  33
ENDBRANCH  31  32
ENDBRANCH  30  31
ENDBRANCH  29  30
ENDBRANCH  25  29
BRANCH  26  40
HETATM   40  O5  UNL     1      -0.313   2.755 -24.620  1.00  0.00    -0.356 OA
ATOM     41  H5  UNL     1      -1.252   2.804 -24.753  1.00  0.00     0.218 HD
ENDBRANCH  26  40
BRANCH  17  42
HETATM   42  O3  UNL     1       5.156   2.201 -15.715  1.00  0.00    -0.345 OA
ATOM     43  H3  UNL     1       6.035   2.547 -15.612  1.00  0.00     0.219 HD
ENDBRANCH  17  42
BRANCH  14  44
HETATM   44  O2  UNL     1       0.814   3.956 -14.639  1.00  0.00    -0.345 OA
ATOM     45  H2  UNL     1       0.804   4.182 -13.716  1.00  0.00     0.219 HD
ENDBRANCH  14  44
TORSDOF 11
ENDMDL
MODEL 2
REMARK VINA RESULT: -7.540366449      1.829      2.295
REMARK  11 active torsions:
REMARK  status: ('A' for Active; 'I' for Inactive)
REMARK    1  A    between atoms: O1_2  and  C2_3 
REMARK    2  A    between atoms: C14_16  and  O2_17 
REMARK    3  A    between atoms: C16_21  and  O3_22 
REMARK    4  A    between atoms: C23_31  and  O4_32 
REMARK    5  A    between atoms: O4_32  and  C24_33 
REMARK    6  A    between atoms: C24_33  and  C25_34 
REMARK    7  A    between atoms: C25_34  and  C26_35 
REMARK    8  A    between atoms: C26_35  and  C27_36 
REMARK    9  A    between atoms: C27_36  and  C28_37 
REMARK   10  A    between atoms: C28_37  and  N3_38 
REMARK   11  A    between atoms: C33_43  and  O5_44 
ROOT
HETATM    1  C2  UNL     1       0.732   2.093 -22.515  1.00  0.00     0.104 A 
HETATM    2  C3  UNL     1       1.297   2.401 -21.298  1.00  0.00     0.053 A 
HETATM    3  C4  UNL     1       1.460   3.706 -20.858  1.00  0.00    -0.003 A 
HETATM    4  C5  UNL     1       2.031   3.955 -19.582  1.00  0.00     0.056 C 
HETATM    5  C6  UNL     1       3.506   3.868 -19.443  1.00  0.00     0.006 A 
HETATM    6  C7  UNL     1       4.261   3.990 -20.549  1.00  0.00     0.057 A 
HETATM    7  C8  UNL     1       5.636   3.956 -20.420  1.00  0.00     0.117 A 
HETATM    8  F1  UNL     1       6.399   4.085 -21.561  1.00  0.00    -0.206 F 
HETATM    9  C9  UNL     1       6.243   3.801 -19.185  1.00  0.00     0.043 A 
HETATM   10  C10 UNL     1       5.468   3.672 -18.024  1.00  0.00     0.016 A 
HETATM   11  C11 UNL     1       4.125   3.708 -18.190  1.00  0.00    -0.008 A 
HETATM   12  C12 UNL     1       3.452   3.529 -16.885  1.00  0.00     0.039 A 
HETATM   13  C13 UNL     1       2.170   4.034 -16.610  1.00  0.00     0.031 A 
HETATM   14  C14 UNL     1       1.950   3.643 -15.311  1.00  0.00     0.153 A 
HETATM   15  N1  UNL     1       3.025   2.957 -14.858  1.00  0.00    -0.312 N 
HETATM   16  C15 UNL     1       3.081   2.412 -13.504  1.00  0.00     0.160 C 
HETATM   17  C16 UNL     1       3.962   2.879 -15.825  1.00  0.00     0.155 A 
HETATM   18  C17 UNL     1       1.218   4.781 -17.462  1.00  0.00     0.127 C 
HETATM   19  C18 UNL     1       0.969   6.128 -16.785  1.00  0.00     0.031 C 
HETATM   20  C19 UNL     1       2.351   6.785 -16.647  1.00  0.00     0.007 C 
HETATM   21  C20 UNL     1       2.914   7.005 -18.025  1.00  0.00     0.045 C 
HETATM   22  C21 UNL     1       2.128   6.325 -19.107  1.00  0.00     0.065 C 
HETATM   23  N2  UNL     1       1.640   5.065 -18.777  1.00  0.00    -0.350 N 
HETATM   24  C22 UNL     1       1.027   4.693 -21.697  1.00  0.00     0.053 A 
HETATM   25  C23 UNL     1       0.447   4.417 -22.939  1.00  0.00     0.105 A 
HETATM   26  C33 UNL     1       0.302   3.083 -23.346  1.00  0.00     0.133 A 
ENDROOT
BRANCH   1  27
HETATM   27  O1  UNL     1       0.578   0.761 -22.937  1.00  0.00    -0.353 OA
HETATM   28  C1  UNL     1       1.576  -0.155 -22.528  1.00  0.00     0.210 C 
ENDBRANCH   1  27
BRANCH  25  29
HETATM   29  O4  UNL     1       0.007   5.378 -23.789  1.00  0.00    -0.348 OA
BRANCH  29  30
HETATM   30  C24 UNL     1      -0.613   6.576 -23.676  1.00  0.00     0.176 C 
BRANCH  30  31
HETATM   31  C25 UNL     1      -1.777   6.726 -22.767  1.00  0.00     0.027 C 
BRANCH  31  32
HETATM   32  C26 UNL     1      -1.700   7.847 -21.800  1.00  0.00     0.004 C 
BRANCH  32  33
HETATM   33  C27 UNL     1      -2.160   9.178 -22.249  1.00  0.00     0.030 C 
BRANCH  33  34
HETATM   34  C28 UNL     1      -2.769   9.901 -21.045  1.00  0.00     0.272 C 
BRANCH  34  35
HETATM   35  N3  UNL     1      -3.871  10.674 -21.507  1.00  0.00     0.088 N 
HETATM   36  C29 UNL     1      -4.973  10.620 -20.605  1.00  0.00     0.272 C 
HETATM   37  C30 UNL     1      -5.931  11.628 -21.249  1.00  0.00     0.032 C 
HETATM   38  C31 UNL     1      -5.007  12.612 -21.975  1.00  0.00     0.032 C 
HETATM   39  C32 UNL     1      -3.614  12.080 -21.630  1.00  0.00     0.272 C 
ENDBRANCH  34  35
ENDBRANCH  33  34
ENDBRANCH  32  33
ENDBRANCH  31  32
ENDBRANCH  30  31
ENDBRANCH  29  30
ENDBRANCH  25  29
BRANCH  26  40
HETATM   40  O5  UNL     1      -0.281   2.805 -24.598  1.00  0.00    -0.356 OA
ATOM     41  H5  UNL     1      -0.750   3.467 -25.092  1.00  0.00     0.218 HD
ENDBRANCH  26  40
BRANCH  17  42
HETATM   42  O3  UNL     1       5.160   2.242 -15.677  1.00  0.00    -0.345 OA
ATOM     43  H3  UNL     1       5.369   1.423 -15.244  1.00  0.00     0.219 HD
ENDBRANCH  17  42
BRANCH  14  44
HETATM   44  O2  UNL     1       0.790   3.925 -14.602  1.00  0.00    -0.345 OA
ATOM     45  H2  UNL     1       0.240   3.262 -14.200  1.00  0.00     0.219 HD
ENDBRANCH  14  44
TORSDOF 11
ENDMDL
MODEL 3
REMARK VINA RESULT: -7.504902313      1.006      1.373
REMARK  11 active torsions:
REMARK  status: ('A' for Active; 'I' for Inactive)
REMARK    1  A    between atoms: O1_2  and  C2_3 
REMARK    2  A    between atoms: C14_16  and  O2_17 
REMARK    3  A    between atoms: C16_21  and  O3_22 
REMARK    4  A    between atoms: C23_31  and  O4_32 
REMARK    5  A    between atoms: O4_32  and  C24_33 
REMARK    6  A    between atoms: C24_33  and  C25_34 
REMARK    7  A    between atoms: C25_34  and  C26_35 
REMARK    8  A    between atoms: C26_35  and  C27_36 
REMARK    9  A    between atoms: C27_36  and  C28_37 
REMARK   10  A    between atoms: C28_37  and  N3_38 
REMARK   11  A    between atoms: C33_43  and  O5_44 
ROOT
HETATM    1  C2  UNL     1       0.679   2.071 -22.562  1.00  0.00     0.104 A 
HETATM    2  C3  UNL     1       1.249   2.385 -21.349  1.00  0.00     0.053 A 
HETATM    3  C4  UNL     1       1.428   3.693 -20.923  1.00  0.00    -0.003 A 
HETATM    4  C5  UNL     1       2.002   3.949 -19.650  1.00  0.00     0.056 C 
HETATM    5  C6  UNL     1       3.476   3.845 -19.510  1.00  0.00     0.006 A 
HETATM    6  C7  UNL     1       4.232   3.946 -20.617  1.00  0.00     0.057 A 
HETATM    7  C8  UNL     1       5.606   3.897 -20.488  1.00  0.00     0.117 A 
HETATM    8  F1  UNL     1       6.370   4.004 -21.631  1.00  0.00    -0.206 F 
HETATM    9  C9  UNL     1       6.212   3.748 -19.252  1.00  0.00     0.043 A 
HETATM   10  C10 UNL     1       5.435   3.641 -18.090  1.00  0.00     0.016 A 
HETATM   11  C11 UNL     1       4.093   3.691 -18.255  1.00  0.00    -0.008 A 
HETATM   12  C12 UNL     1       3.419   3.534 -16.948  1.00  0.00     0.039 A 
HETATM   13  C13 UNL     1       2.143   4.058 -16.678  1.00  0.00     0.031 A 
HETATM   14  C14 UNL     1       1.919   3.683 -15.375  1.00  0.00     0.153 A 
HETATM   15  N1  UNL     1       2.986   2.989 -14.915  1.00  0.00    -0.312 N 
HETATM   16  C15 UNL     1       3.035   2.458 -13.556  1.00  0.00     0.160 C 
HETATM   17  C16 UNL     1       3.921   2.890 -15.882  1.00  0.00     0.155 A 
HETATM   18  C17 UNL     1       1.199   4.807 -17.538  1.00  0.00     0.127 C 
HETATM   19  C18 UNL     1       0.968   6.164 -16.875  1.00  0.00     0.031 C 
HETATM   20  C19 UNL     1       2.358   6.806 -16.745  1.00  0.00     0.007 C 
HETATM   21  C20 UNL     1       2.922   7.005 -18.125  1.00  0.00     0.045 C 
HETATM   22  C21 UNL     1       2.127   6.322 -19.199  1.00  0.00     0.065 C 
HETATM   23  N2  UNL     1       1.624   5.071 -18.856  1.00  0.00    -0.350 N 
HETATM   24  C22 UNL     1       1.006   4.676 -21.772  1.00  0.00     0.053 A 
HETATM   25  C23 UNL     1       0.422   4.395 -23.011  1.00  0.00     0.105 A 
HETATM   26  C33 UNL     1       0.261   3.058 -23.403  1.00  0.00     0.133 A 
ENDROOT
BRANCH   1  27
HETATM   27  O1  UNL     1       0.509   0.737 -22.969  1.00  0.00    -0.353 OA
HETATM   28  C1  UNL     1       1.686  -0.007 -23.219  1.00  0.00     0.210 C 
ENDBRANCH   1  27
BRANCH  25  29
HETATM   29  O4  UNL     1      -0.007   5.351 -23.871  1.00  0.00    -0.348 OA
BRANCH  29  30
HETATM   30  C24 UNL     1      -0.810   6.439 -23.804  1.00  0.00     0.176 C 
BRANCH  30  31
HETATM   31  C25 UNL     1      -1.825   6.547 -22.726  1.00  0.00     0.027 C 
BRANCH  31  32
HETATM   32  C26 UNL     1      -1.693   7.720 -21.830  1.00  0.00     0.004 C 
BRANCH  32  33
HETATM   33  C27 UNL     1      -1.241   7.482 -20.443  1.00  0.00     0.030 C 
BRANCH  33  34
HETATM   34  C28 UNL     1      -2.086   8.356 -19.513  1.00  0.00     0.272 C 
BRANCH  34  35
HETATM   35  N3  UNL     1      -2.294   9.609 -20.153  1.00  0.00     0.088 N 
HETATM   36  C29 UNL     1      -3.601  10.121 -19.909  1.00  0.00     0.272 C 
HETATM   37  C30 UNL     1      -3.506  11.502 -20.566  1.00  0.00     0.032 C 
HETATM   38  C31 UNL     1      -2.022  11.868 -20.455  1.00  0.00     0.032 C 
HETATM   39  C32 UNL     1      -1.436  10.668 -19.705  1.00  0.00     0.272 C 
ENDBRANCH  34  35
ENDBRANCH  33  34
ENDBRANCH  32  33
ENDBRANCH  31  32
ENDBRANCH  30  31
ENDBRANCH  29  30
ENDBRANCH  25  29
BRANCH  26  40
HETATM   40  O5  UNL     1      -0.326   2.774 -24.652  1.00  0.00    -0.356 OA
ATOM     41  H5  UNL     1      -0.943   3.367 -25.064  1.00  0.00     0.218 HD
ENDBRANCH  26  40
BRANCH  17  42
HETATM   42  O3  UNL     1       5.112   2.240 -15.727  1.00  0.00    -0.345 OA
ATOM     43  H3  UNL     1       5.483   1.516 -16.218  1.00  0.00     0.219 HD
ENDBRANCH  17  42
BRANCH  14  44
HETATM   44  O2  UNL     1       0.763   3.987 -14.669  1.00  0.00    -0.345 OA
ATOM     45  H2  UNL     1       0.757   4.310 -13.775  1.00  0.00     0.219 HD
ENDBRANCH  14  44
TORSDOF 11
ENDMDL
MODEL 4
REMARK VINA RESULT: -7.307657193      3.045      7.412
REMARK  11 active torsions:
REMARK  status: ('A' for Active; 'I' for Inactive)
REMARK    1  A    between atoms: O1_2  and  C2_3 
REMARK    2  A    between atoms: C14_16  and  O2_17 
REMARK    3  A    between atoms: C16_21  and  O3_22 
REMARK    4  A    between atoms: C23_31  and  O4_32 
REMARK    5  A    between atoms: O4_32  and  C24_33 
REMARK    6  A    between atoms: C24_33  and  C25_34 
REMARK    7  A    between atoms: C25_34  and  C26_35 
REMARK    8  A    between atoms: C26_35  and  C27_36 
REMARK    9  A    between atoms: C27_36  and  C28_37 
REMARK   10  A    between atoms: C28_37  and  N3_38 
REMARK   11  A    between atoms: C33_43  and  O5_44 
ROOT
HETATM    1  C2  UNL     1      -2.765   9.514 -19.564  1.00  0.00     0.104 A 
HETATM    2  C3  UNL     1      -1.953   8.656 -20.272  1.00  0.00     0.053 A 
HETATM    3  C4  UNL     1      -0.831   8.059 -19.716  1.00  0.00    -0.003 A 
HETATM    4  C5  UNL     1      -0.047   7.166 -20.493  1.00  0.00     0.056 C 
HETATM    5  C6  UNL     1       0.910   7.740 -21.471  1.00  0.00     0.006 A 
HETATM    6  C7  UNL     1       1.317   9.010 -21.298  1.00  0.00     0.057 A 
HETATM    7  C8  UNL     1       2.244   9.535 -22.178  1.00  0.00     0.117 A 
HETATM    8  F1  UNL     1       2.655  10.837 -21.988  1.00  0.00    -0.206 F 
HETATM    9  C9  UNL     1       2.754   8.784 -23.224  1.00  0.00     0.043 A 
HETATM   10  C10 UNL     1       2.338   7.459 -23.416  1.00  0.00     0.016 A 
HETATM   11  C11 UNL     1       1.428   6.980 -22.536  1.00  0.00    -0.008 A 
HETATM   12  C12 UNL     1       1.070   5.589 -22.890  1.00  0.00     0.039 A 
HETATM   13  C13 UNL     1       0.614   4.653 -21.946  1.00  0.00     0.031 A 
HETATM   14  C14 UNL     1       0.408   3.522 -22.699  1.00  0.00     0.153 A 
HETATM   15  N1  UNL     1       0.720   3.778 -23.991  1.00  0.00    -0.312 N 
HETATM   16  C15 UNL     1       0.599   2.760 -25.031  1.00  0.00     0.160 C 
HETATM   17  C16 UNL     1       1.130   5.056 -24.121  1.00  0.00     0.155 A 
HETATM   18  C17 UNL     1       0.359   4.785 -20.493  1.00  0.00     0.127 C 
HETATM   19  C18 UNL     1       1.275   3.786 -19.785  1.00  0.00     0.031 C 
HETATM   20  C19 UNL     1       2.703   4.152 -20.218  1.00  0.00     0.007 C 
HETATM   21  C20 UNL     1       3.004   5.545 -19.738  1.00  0.00     0.045 C 
HETATM   22  C21 UNL     1       1.799   6.270 -19.214  1.00  0.00     0.065 C 
HETATM   23  N2  UNL     1       0.622   6.046 -19.920  1.00  0.00    -0.350 N 
HETATM   24  C22 UNL     1      -0.560   8.362 -18.412  1.00  0.00     0.053 A 
HETATM   25  C23 UNL     1      -1.363   9.228 -17.663  1.00  0.00     0.105 A 
HETATM   26  C33 UNL     1      -2.488   9.811 -18.265  1.00  0.00     0.133 A 
ENDROOT
BRANCH   1  27
HETATM   27  O1  UNL     1      -3.896  10.105 -20.153  1.00  0.00    -0.353 OA
HETATM   28  C1  UNL     1      -3.667  10.952 -21.262  1.00  0.00     0.210 C 
ENDBRANCH   1  27
BRANCH  25  29
HETATM   29  O4  UNL     1      -1.117   9.543 -16.367  1.00  0.00    -0.348 OA
BRANCH  29  30
HETATM   30  C24 UNL     1      -0.619   8.905 -15.282  1.00  0.00     0.176 C 
BRANCH  30  31
HETATM   31  C25 UNL     1       0.782   9.151 -14.855  1.00  0.00     0.027 C 
BRANCH  31  32
HETATM   32  C26 UNL     1       1.812   8.304 -15.502  1.00  0.00     0.004 C 
BRANCH  32  33
HETATM   33  C27 UNL     1       1.551   6.852 -15.595  1.00  0.00     0.030 C 
BRANCH  33  34
HETATM   34  C28 UNL     1       2.347   6.155 -14.489  1.00  0.00     0.272 C 
BRANCH  34  35
HETATM   35  N3  UNL     1       2.691   4.852 -14.946  1.00  0.00     0.088 N 
HETATM   36  C29 UNL     1       1.538   4.085 -15.282  1.00  0.00     0.272 C 
HETATM   37  C30 UNL     1       2.182   2.824 -15.868  1.00  0.00     0.032 C 
HETATM   38  C31 UNL     1       3.517   3.316 -16.438  1.00  0.00     0.032 C 
HETATM   39  C32 UNL     1       3.471   4.819 -16.150  1.00  0.00     0.272 C 
ENDBRANCH  34  35
ENDBRANCH  33  34
ENDBRANCH  32  33
ENDBRANCH  31  32
ENDBRANCH  30  31
ENDBRANCH  29  30
ENDBRANCH  25  29
BRANCH  26  40
HETATM   40  O5  UNL     1      -3.296  10.684 -17.510  1.00  0.00    -0.356 OA
ATOM     41  H5  UNL     1      -2.950  11.183 -16.780  1.00  0.00     0.218 HD
ENDBRANCH  26  40
BRANCH  17  42
HETATM   42  O3  UNL     1       1.508   5.619 -25.306  1.00  0.00    -0.345 OA
ATOM     43  H3  UNL     1       1.473   6.524 -25.593  1.00  0.00     0.219 HD
ENDBRANCH  17  42
BRANCH  14  44
HETATM   44  O2  UNL     1      -0.051   2.319 -22.181  1.00  0.00    -0.345 OA
ATOM     45  H2  UNL     1       0.517   1.605 -21.915  1.00  0.00     0.219 HD
ENDBRANCH  14  44
TORSDOF 11
ENDMDL
MODEL 5
REMARK VINA RESULT: -7.193734374      4.034      6.494
REMARK  11 active torsions:
REMARK  status: ('A' for Active; 'I' for Inactive)
REMARK    1  A    between atoms: O1_2  and  C2_3 
REMARK    2  A    between atoms: C14_16  and  O2_17 
REMARK    3  A    between atoms: C16_21  and  O3_22 
REMARK    4  A    between atoms: C23_31  and  O4_32 
REMARK    5  A    between atoms: O4_32  and  C24_33 
REMARK    6  A    between atoms: C24_33  and  C25_34 
REMARK    7  A    between atoms: C25_34  and  C26_35 
REMARK    8  A    between atoms: C26_35  and  C27_36 
REMARK    9  A    between atoms: C27_36  and  C28_37 
REMARK   10  A    between atoms: C28_37  and  N3_38 
REMARK   11  A    between atoms: C33_43  and  O5_44 
ROOT
HETATM    1  C2  UNL     1      -2.543  10.169 -20.258  1.00  0.00     0.104 A 
HETATM    2  C3  UNL     1      -1.709   9.831 -19.216  1.00  0.00     0.053 A 
HETATM    3  C4  UNL     1      -0.333   9.997 -19.275  1.00  0.00    -0.003 A 
HETATM    4  C5  UNL     1       0.468   9.648 -18.156  1.00  0.00     0.056 C 
HETATM    5  C6  UNL     1       0.787   8.215 -17.938  1.00  0.00     0.006 A 
HETATM    6  C7  UNL     1       0.695   7.374 -18.982  1.00  0.00     0.057 A 
HETATM    7  C8  UNL     1       1.034   6.048 -18.797  1.00  0.00     0.117 A 
HETATM    8  F1  UNL     1       0.937   5.195 -19.877  1.00  0.00    -0.206 F 
HETATM    9  C9  UNL     1       1.462   5.576 -17.568  1.00  0.00     0.043 A 
HETATM   10  C10 UNL     1       1.563   6.442 -16.471  1.00  0.00     0.016 A 
HETATM   11  C11 UNL     1       1.220   7.733 -16.689  1.00  0.00    -0.008 A 
HETATM   12  C12 UNL     1       1.349   8.507 -15.435  1.00  0.00     0.039 A 
HETATM   13  C13 UNL     1       1.599   9.890 -15.412  1.00  0.00     0.031 A 
HETATM   14  C14 UNL     1       1.639  10.179 -14.069  1.00  0.00     0.153 A 
HETATM   15  N1  UNL     1       1.428   9.048 -13.357  1.00  0.00    -0.312 N 
HETATM   16  C15 UNL     1       1.413   9.045 -11.897  1.00  0.00     0.160 C 
HETATM   17  C16 UNL     1       1.245   8.006 -14.193  1.00  0.00     0.155 A 
HETATM   18  C17 UNL     1       1.757  10.866 -16.514  1.00  0.00     0.127 C 
HETATM   19  C18 UNL     1       3.156  11.468 -16.383  1.00  0.00     0.031 C 
HETATM   20  C19 UNL     1       4.127  10.279 -16.441  1.00  0.00     0.007 C 
HETATM   21  C20 UNL     1       3.985   9.612 -17.781  1.00  0.00     0.045 C 
HETATM   22  C21 UNL     1       2.807  10.103 -18.571  1.00  0.00     0.065 C 
HETATM   23  N2  UNL     1       1.661  10.356 -17.825  1.00  0.00    -0.350 N 
HETATM   24  C22 UNL     1       0.171  10.520 -20.431  1.00  0.00     0.053 A 
HETATM   25  C23 UNL     1      -0.645  10.876 -21.509  1.00  0.00     0.105 A 
HETATM   26  C33 UNL     1      -2.032  10.691 -21.408  1.00  0.00     0.133 A 
ENDROOT
BRANCH   1  27
HETATM   27  O1  UNL     1      -3.935   9.991 -20.172  1.00  0.00    -0.353 OA
HETATM   28  C1  UNL     1      -4.658  10.971 -19.454  1.00  0.00     0.210 C 
ENDBRANCH   1  27
BRANCH  25  29
HETATM   29  O4  UNL     1      -0.171  11.399 -22.667  1.00  0.00    -0.348 OA
BRANCH  29  30
HETATM   30  C24 UNL     1       0.989  11.341 -23.363  1.00  0.00     0.176 C 
BRANCH  30  31
HETATM   31  C25 UNL     1       1.152  10.343 -24.450  1.00  0.00     0.027 C 
BRANCH  31  32
HETATM   32  C26 UNL     1      -0.101   9.863 -25.079  1.00  0.00     0.004 C 
BRANCH  32  33
HETATM   33  C27 UNL     1      -0.711   8.626 -24.546  1.00  0.00     0.030 C 
BRANCH  33  34
HETATM   34  C28 UNL     1       0.416   7.715 -24.054  1.00  0.00     0.272 C 
BRANCH  34  35
HETATM   35  N3  UNL     1      -0.107   6.883 -23.025  1.00  0.00     0.088 N 
HETATM   36  C29 UNL     1      -1.356   7.364 -22.536  1.00  0.00     0.272 C 
HETATM   37  C30 UNL     1      -1.751   6.235 -21.577  1.00  0.00     0.032 C 
HETATM   38  C31 UNL     1      -1.079   4.990 -22.166  1.00  0.00     0.032 C 
HETATM   39  C32 UNL     1      -0.404   5.539 -23.427  1.00  0.00     0.272 C 
ENDBRANCH  34  35
ENDBRANCH  33  34
ENDBRANCH  32  33
ENDBRANCH  31  32
ENDBRANCH  30  31
ENDBRANCH  29  30
ENDBRANCH  25  29
BRANCH  26  40
HETATM   40  O5  UNL     1      -2.855  11.048 -22.495  1.00  0.00    -0.356 OA
ATOM     41  H5  UNL     1      -2.531  11.056 -23.388  1.00  0.00     0.218 HD
ENDBRANCH  26  40
BRANCH  17  42
HETATM   42  O3  UNL     1       1.002   6.728 -13.778  1.00  0.00    -0.345 OA
ATOM     43  H3  UNL     1       1.446   6.202 -13.124  1.00  0.00     0.219 HD
ENDBRANCH  17  42
BRANCH  14  44
HETATM   44  O2  UNL     1       1.866  11.450 -13.557  1.00  0.00    -0.345 OA
ATOM     45  H2  UNL     1       1.824  12.246 -14.075  1.00  0.00     0.219 HD
ENDBRANCH  14  44
TORSDOF 11
ENDMDL
