MODEL 1
REMARK VINA RESULT: -8.894161930      0.000      0.000
REMARK  16 active torsions:
REMARK  status: ('A' for Active; 'I' for Inactive)
REMARK    1  A    between atoms: N1_1  and  C1_4 
REMARK    2  A    between atoms: C2_7  and  O1_8 
REMARK    3  A    between atoms: C3_10  and  O2_11 
REMARK    4  A    between atoms: C4_13  and  C5_14 
REMARK    5  A    between atoms: N5_19  and  C6_20 
REMARK    6  A    between atoms: C6_20  and  C7_21 
REMARK    7  A    between atoms: C7_21  and  O3_22 
REMARK    8  A    between atoms: C7_21  and  C8_24 
REMARK    9  A    between atoms: C8_24  and  O4_25 
REMARK   10  A    between atoms: C9_27  and  O5_28 
REMARK   11  A    between atoms: C10_30  and  N6_31 
REMARK   12  A    between atoms: N6_31  and  C11_33 
REMARK   13  A    between atoms: C11_33  and  O6_34 
REMARK   14  A    between atoms: C11_33  and  C12_36 
REMARK   15  A    between atoms: C13_41  and  S1_42 
REMARK   16  A    between atoms: S1_42  and  N9_43 
ROOT
HETATM    1  C1  UNL     1      19.913  -4.726   1.389  1.00  0.00     0.129 A 
HETATM    2  N2  UNL     1      20.613  -4.701   0.243  1.00  0.00    -0.319 N 
ATOM      3  H2  UNL     1      20.854  -5.588  -0.199  1.00  0.00     0.169 HD
HETATM    4  C2  UNL     1      21.007  -3.568  -0.345  1.00  0.00     0.176 A 
HETATM    5  C3  UNL     1      20.695  -2.366   0.231  1.00  0.00     0.132 A 
HETATM    6  C4  UNL     1      19.965  -2.326   1.432  1.00  0.00     0.064 A 
HETATM    7  C10 UNL     1      19.587  -3.504   1.993  1.00  0.00     0.090 A 
ENDROOT
BRANCH   7   8
HETATM    8  N6  UNL     1      18.849  -3.581   3.175  1.00  0.00    -0.355 N 
ATOM      9  H6  UNL     1      17.957  -3.089   3.223  1.00  0.00     0.162 HD
BRANCH   8  10
HETATM   10  C11 UNL     1      19.279  -4.309   4.310  1.00  0.00     0.278 C 
BRANCH  10  11
HETATM   11  O6  UNL     1      19.908  -3.548   5.271  1.00  0.00    -0.370 OA
ATOM     12  H6  UNL     1      19.920  -3.940   6.137  1.00  0.00     0.212 HD
ENDBRANCH  10  11
BRANCH  10  13
HETATM   13  C12 UNL     1      18.167  -5.095   4.943  1.00  0.00     0.117 A 
HETATM   14  N7  UNL     1      17.247  -4.749   5.827  1.00  0.00    -0.292 N 
HETATM   15  N8  UNL     1      16.399  -5.600   6.219  1.00  0.00    -0.282 N 
ATOM     16  H7  UNL     1      17.222  -3.797   6.193  1.00  0.00     0.187 HD
HETATM   17  C13 UNL     1      16.430  -6.841   5.746  1.00  0.00     0.207 A 
ATOM     18  H8  UNL     1      15.689  -5.334   6.902  1.00  0.00     0.188 HD
HETATM   19  S2  UNL     1      17.781  -6.729   4.672  1.00  0.00    -0.038 SA
BRANCH  17  20
HETATM   20  S1  UNL     1      15.385  -8.206   6.114  1.00  0.00     0.280 S 
HETATM   21  O7  UNL     1      14.140  -7.773   6.806  1.00  0.00    -0.199 OA
HETATM   22  O8  UNL     1      16.173  -9.094   7.066  1.00  0.00    -0.199 OA
BRANCH  20  23
HETATM   23  N9  UNL     1      15.018  -9.135   4.733  1.00  0.00    -0.323 N 
ATOM     24  H92 UNL     1      15.725  -9.429   4.059  1.00  0.00     0.169 HD
ATOM     25  H91 UNL     1      14.025  -9.356   4.666  1.00  0.00     0.169 HD
ENDBRANCH  20  23
ENDBRANCH  17  20
ENDBRANCH  10  13
ENDBRANCH   8  10
ENDBRANCH   7   8
BRANCH   1  26
HETATM   26  N1  UNL     1      19.554  -5.845   1.881  1.00  0.00    -0.384 N 
ATOM     27  H12 UNL     1      20.171  -6.405   2.469  1.00  0.00     0.157 HD
ATOM     28  H11 UNL     1      18.613  -6.196   1.698  1.00  0.00     0.157 HD
ENDBRANCH   1  26
BRANCH   6  29
HETATM   29  C5  UNL     1      19.588  -1.052   1.990  1.00  0.00     0.117 A 
HETATM   30  N3  UNL     1      20.071  -0.585   3.167  1.00  0.00    -0.281 N 
HETATM   31  N4  UNL     1      19.535   0.577   3.462  1.00  0.00    -0.238 N 
ATOM     32  H3  UNL     1      20.756  -1.071   3.746  1.00  0.00     0.188 HD
HETATM   33  N5  UNL     1      18.676   0.906   2.473  1.00  0.00    -0.252 N 
ATOM     34  H4  UNL     1      19.733   1.135   4.292  1.00  0.00     0.208 HD
HETATM   35  C9  UNL     1      18.702  -0.073   1.580  1.00  0.00     0.188 A 
BRANCH  33  36
HETATM   36  C6  UNL     1      17.929   2.126   2.524  1.00  0.00     0.186 C 
BRANCH  36  37
HETATM   37  C7  UNL     1      18.426   3.200   1.622  1.00  0.00     0.161 C 
BRANCH  37  38
HETATM   38  O3  UNL     1      18.136   2.938   0.278  1.00  0.00    -0.392 OA
ATOM     39  H3  UNL     1      17.453   3.506  -0.059  1.00  0.00     0.210 HD
ENDBRANCH  37  38
BRANCH  37  40
HETATM   40  C8  UNL     1      19.867   3.580   1.789  1.00  0.00     0.197 C 
BRANCH  40  41
HETATM   41  O4  UNL     1      20.271   3.695   3.096  1.00  0.00    -0.398 OA
ATOM     42  H4  UNL     1      21.214   3.718   3.212  1.00  0.00     0.209 HD
ENDBRANCH  40  41
ENDBRANCH  37  40
ENDBRANCH  36  37
ENDBRANCH  33  36
BRANCH  35  43
HETATM   43  O5  UNL     1      17.980  -0.140   0.417  1.00  0.00    -0.343 OA
ATOM     44  H5  UNL     1      17.050  -0.334   0.385  1.00  0.00     0.219 HD
ENDBRANCH  35  43
ENDBRANCH   6  29
BRANCH   5  45
HETATM   45  O2  UNL     1      21.069  -1.141  -0.320  1.00  0.00    -0.356 OA
ATOM     46  H2  UNL     1      21.370  -0.409   0.205  1.00  0.00     0.218 HD
ENDBRANCH   5  45
BRANCH   4  47
HETATM   47  O1  UNL     1      21.738  -3.574  -1.543  1.00  0.00    -0.344 OA
ATOM     48  H1  UNL     1      22.687  -3.627  -1.550  1.00  0.00     0.219 HD
ENDBRANCH   4  47
TORSDOF 16
ENDMDL
MODEL 2
REMARK VINA RESULT: -8.682494370      4.060      9.724
REMARK  16 active torsions:
REMARK  status: ('A' for Active; 'I' for Inactive)
REMARK    1  A    between atoms: N1_1  and  C1_4 
REMARK    2  A    between atoms: C2_7  and  O1_8 
REMARK    3  A    between atoms: C3_10  and  O2_11 
REMARK    4  A    between atoms: C4_13  and  C5_14 
REMARK    5  A    between atoms: N5_19  and  C6_20 
REMARK    6  A    between atoms: C6_20  and  C7_21 
REMARK    7  A    between atoms: C7_21  and  O3_22 
REMARK    8  A    between atoms: C7_21  and  C8_24 
REMARK    9  A    between atoms: C8_24  and  O4_25 
REMARK   10  A    between atoms: C9_27  and  O5_28 
REMARK   11  A    between atoms: C10_30  and  N6_31 
REMARK   12  A    between atoms: N6_31  and  C11_33 
REMARK   13  A    between atoms: C11_33  and  O6_34 
REMARK   14  A    between atoms: C11_33  and  C12_36 
REMARK   15  A    between atoms: C13_41  and  S1_42 
REMARK   16  A    between atoms: S1_42  and  N9_43 
ROOT
HETATM    1  C1  UNL     1      17.295  -5.851   5.893  1.00  0.00     0.129 A 
HETATM    2  N2  UNL     1      16.129  -6.185   6.468  1.00  0.00    -0.319 N 
ATOM      3  H2  UNL     1      15.700  -5.525   7.117  1.00  0.00     0.169 HD
HETATM    4  C2  UNL     1      15.504  -7.342   6.230  1.00  0.00     0.176 A 
HETATM    5  C3  UNL     1      16.063  -8.243   5.364  1.00  0.00     0.132 A 
HETATM    6  C4  UNL     1      17.284  -7.951   4.730  1.00  0.00     0.064 A 
HETATM    7  C10 UNL     1      17.882  -6.763   5.005  1.00  0.00     0.090 A 
ENDROOT
BRANCH   7   8
HETATM    8  N6  UNL     1      19.086  -6.366   4.423  1.00  0.00    -0.355 N 
ATOM      9  H6  UNL     1      19.930  -6.382   4.994  1.00  0.00     0.162 HD
BRANCH   8  10
HETATM   10  C11 UNL     1      19.192  -5.943   3.076  1.00  0.00     0.278 C 
BRANCH  10  11
HETATM   11  O6  UNL     1      18.083  -6.212   2.304  1.00  0.00    -0.370 OA
ATOM     12  H6  UNL     1      17.260  -5.933   2.687  1.00  0.00     0.212 HD
ENDBRANCH  10  11
BRANCH  10  13
HETATM   13  C12 UNL     1      19.542  -4.487   2.958  1.00  0.00     0.117 A 
HETATM   14  N7  UNL     1      19.928  -3.606   3.864  1.00  0.00    -0.292 N 
HETATM   15  N8  UNL     1      20.170  -2.414   3.520  1.00  0.00    -0.282 N 
ATOM     16  H7  UNL     1      20.031  -3.887   4.839  1.00  0.00     0.187 HD
HETATM   17  C13 UNL     1      20.036  -2.044   2.252  1.00  0.00     0.207 A 
ATOM     18  H8  UNL     1      20.470  -1.733   4.219  1.00  0.00     0.188 HD
HETATM   19  S2  UNL     1      19.528  -3.539   1.546  1.00  0.00    -0.038 SA
BRANCH  17  20
HETATM   20  S1  UNL     1      20.303  -0.474   1.509  1.00  0.00     0.280 S 
HETATM   21  O7  UNL     1      21.087   0.428   2.398  1.00  0.00    -0.199 OA
HETATM   22  O8  UNL     1      18.924   0.138   1.311  1.00  0.00    -0.199 OA
BRANCH  20  23
HETATM   23  N9  UNL     1      21.033  -0.595  -0.025  1.00  0.00    -0.323 N 
ATOM     24  H92 UNL     1      22.037  -0.482  -0.173  1.00  0.00     0.169 HD
ATOM     25  H91 UNL     1      20.358  -0.793  -0.763  1.00  0.00     0.169 HD
ENDBRANCH  20  23
ENDBRANCH  17  20
ENDBRANCH  10  13
ENDBRANCH   8  10
ENDBRANCH   7   8
BRANCH   1  26
HETATM   26  N1  UNL     1      17.822  -4.720   6.153  1.00  0.00    -0.384 N 
ATOM     27  H12 UNL     1      17.491  -4.127   6.914  1.00  0.00     0.157 HD
ATOM     28  H11 UNL     1      18.612  -4.394   5.597  1.00  0.00     0.157 HD
ENDBRANCH   1  26
BRANCH   6  29
HETATM   29  C5  UNL     1      17.824  -8.882   3.772  1.00  0.00     0.117 A 
HETATM   30  N3  UNL     1      17.132  -9.324   2.694  1.00  0.00    -0.281 N 
HETATM   31  N4  UNL     1      17.841 -10.193   2.010  1.00  0.00    -0.238 N 
ATOM     32  H3  UNL     1      16.190  -9.022   2.447  1.00  0.00     0.188 HD
HETATM   33  N5  UNL     1      19.030 -10.345   2.631  1.00  0.00    -0.252 N 
ATOM     34  H4  UNL     1      17.545 -10.669   1.158  1.00  0.00     0.208 HD
HETATM   35  C9  UNL     1      19.029  -9.557   3.696  1.00  0.00     0.188 A 
BRANCH  33  36
HETATM   36  C6  UNL     1      20.017 -11.247   2.117  1.00  0.00     0.186 C 
BRANCH  36  37
HETATM   37  C7  UNL     1      19.585 -12.032   0.929  1.00  0.00     0.161 C 
BRANCH  37  38
HETATM   38  O3  UNL     1      20.052 -13.351   0.968  1.00  0.00    -0.392 OA
ATOM     39  H3  UNL     1      20.386 -13.639   0.127  1.00  0.00     0.210 HD
ENDBRANCH  37  38
BRANCH  37  40
HETATM   40  C8  UNL     1      19.868 -11.409  -0.405  1.00  0.00     0.197 C 
BRANCH  40  41
HETATM   41  O4  UNL     1      18.787 -10.782  -0.975  1.00  0.00    -0.398 OA
ATOM     42  H4  UNL     1      18.892  -9.844  -1.081  1.00  0.00     0.209 HD
ENDBRANCH  40  41
ENDBRANCH  37  40
ENDBRANCH  36  37
ENDBRANCH  33  36
BRANCH  35  43
HETATM   43  O5  UNL     1      20.044  -9.405   4.605  1.00  0.00    -0.343 OA
ATOM     44  H5  UNL     1      20.225 -10.026   5.301  1.00  0.00     0.219 HD
ENDBRANCH  35  43
ENDBRANCH   6  29
BRANCH   5  45
HETATM   45  O2  UNL     1      15.474  -9.470   5.062  1.00  0.00    -0.356 OA
ATOM     46  H2  UNL     1      15.498  -9.856   4.195  1.00  0.00     0.218 HD
ENDBRANCH   5  45
BRANCH   4  47
HETATM   47  O1  UNL     1      14.286  -7.664   6.847  1.00  0.00    -0.344 OA
ATOM     48  H1  UNL     1      13.451  -7.469   6.437  1.00  0.00     0.219 HD
ENDBRANCH   4  47
TORSDOF 16
ENDMDL
MODEL 3
REMARK VINA RESULT: -8.619617747      2.612      3.635
REMARK  16 active torsions:
REMARK  status: ('A' for Active; 'I' for Inactive)
REMARK    1  A    between atoms: N1_1  and  C1_4 
REMARK    2  A    between atoms: C2_7  and  O1_8 
REMARK    3  A    between atoms: C3_10  and  O2_11 
REMARK    4  A    between atoms: C4_13  and  C5_14 
REMARK    5  A    between atoms: N5_19  and  C6_20 
REMARK    6  A    between atoms: C6_20  and  C7_21 
REMARK    7  A    between atoms: C7_21  and  O3_22 
REMARK    8  A    between atoms: C7_21  and  C8_24 
REMARK    9  A    between atoms: C8_24  and  O4_25 
REMARK   10  A    between atoms: C9_27  and  O5_28 
REMARK   11  A    between atoms: C10_30  and  N6_31 
REMARK   12  A    between atoms: N6_31  and  C11_33 
REMARK   13  A    between atoms: C11_33  and  O6_34 
REMARK   14  A    between atoms: C11_33  and  C12_36 
REMARK   15  A    between atoms: C13_41  and  S1_42 
REMARK   16  A    between atoms: S1_42  and  N9_43 
ROOT
HETATM    1  C1  UNL     1      20.156  -2.123  -0.276  1.00  0.00     0.129 A 
HETATM    2  N2  UNL     1      19.357  -2.391  -1.321  1.00  0.00    -0.319 N 
ATOM      3  H2  UNL     1      19.488  -3.272  -1.818  1.00  0.00     0.169 HD
HETATM    4  C2  UNL     1      18.401  -1.558  -1.740  1.00  0.00     0.176 A 
HETATM    5  C3  UNL     1      18.209  -0.370  -1.088  1.00  0.00     0.132 A 
HETATM    6  C4  UNL     1      19.013  -0.031   0.015  1.00  0.00     0.064 A 
HETATM    7  C10 UNL     1      19.974  -0.909   0.403  1.00  0.00     0.090 A 
ENDROOT
BRANCH   7   8
HETATM    8  N6  UNL     1      20.818  -0.681   1.490  1.00  0.00    -0.355 N 
ATOM      9  H6  UNL     1      21.766  -0.351   1.308  1.00  0.00     0.162 HD
BRANCH   8  10
HETATM   10  C11 UNL     1      20.422  -0.885   2.833  1.00  0.00     0.278 C 
BRANCH  10  11
HETATM   11  O6  UNL     1      19.681   0.143   3.372  1.00  0.00    -0.370 OA
ATOM     12  H6  UNL     1      19.194  -0.090   4.154  1.00  0.00     0.212 HD
ENDBRANCH  10  11
BRANCH  10  13
HETATM   13  C12 UNL     1      19.691  -2.182   3.025  1.00  0.00     0.117 A 
HETATM   14  N7  UNL     1      18.522  -2.601   2.573  1.00  0.00    -0.292 N 
HETATM   15  N8  UNL     1      18.106  -3.756   2.874  1.00  0.00    -0.282 N 
ATOM     16  H7  UNL     1      17.956  -1.993   1.981  1.00  0.00     0.187 HD
HETATM   17  C13 UNL     1      18.841  -4.550   3.646  1.00  0.00     0.207 A 
ATOM     18  H8  UNL     1      17.204  -4.080   2.524  1.00  0.00     0.188 HD
HETATM   19  S2  UNL     1      20.206  -3.527   3.930  1.00  0.00    -0.038 SA
BRANCH  17  20
HETATM   20  S1  UNL     1      18.508  -6.180   4.211  1.00  0.00     0.280 S 
HETATM   21  O7  UNL     1      17.273  -6.232   5.041  1.00  0.00    -0.199 OA
HETATM   22  O8  UNL     1      19.687  -6.569   5.092  1.00  0.00    -0.199 OA
BRANCH  20  23
HETATM   23  N9  UNL     1      18.429  -7.307   2.936  1.00  0.00    -0.323 N 
ATOM     24  H92 UNL     1      19.154  -7.390   2.222  1.00  0.00     0.169 HD
ATOM     25  H91 UNL     1      17.584  -7.878   2.973  1.00  0.00     0.169 HD
ENDBRANCH  20  23
ENDBRANCH  17  20
ENDBRANCH  10  13
ENDBRANCH   8  10
ENDBRANCH   7   8
BRANCH   1  26
HETATM   26  N1  UNL     1      21.034  -2.975   0.079  1.00  0.00    -0.384 N 
ATOM     27  H12 UNL     1      22.034  -2.782   0.021  1.00  0.00     0.157 HD
ATOM     28  H11 UNL     1      20.738  -3.878   0.449  1.00  0.00     0.157 HD
ENDBRANCH   1  26
BRANCH   6  29
HETATM   29  C5  UNL     1      18.755   1.193   0.730  1.00  0.00     0.117 A 
HETATM   30  N3  UNL     1      17.785   1.314   1.669  1.00  0.00    -0.281 N 
HETATM   31  N4  UNL     1      17.737   2.541   2.133  1.00  0.00    -0.238 N 
ATOM     32  H3  UNL     1      17.175   0.555   1.972  1.00  0.00     0.188 HD
HETATM   33  N5  UNL     1      18.686   3.266   1.502  1.00  0.00    -0.252 N 
ATOM     34  H4  UNL     1      17.095   2.888   2.846  1.00  0.00     0.208 HD
HETATM   35  C9  UNL     1      19.306   2.459   0.653  1.00  0.00     0.188 A 
BRANCH  33  36
HETATM   36  C6  UNL     1      18.865   4.655   1.795  1.00  0.00     0.186 C 
BRANCH  36  37
HETATM   37  C7  UNL     1      20.267   5.052   2.098  1.00  0.00     0.161 C 
BRANCH  37  38
HETATM   38  O3  UNL     1      21.071   3.951   2.415  1.00  0.00    -0.392 OA
ATOM     39  H3  UNL     1      20.678   3.400   3.082  1.00  0.00     0.210 HD
ENDBRANCH  37  38
BRANCH  37  40
HETATM   40  C8  UNL     1      20.435   6.142   3.114  1.00  0.00     0.197 C 
BRANCH  40  41
HETATM   41  O4  UNL     1      19.325   6.932   3.281  1.00  0.00    -0.398 OA
ATOM     42  H4  UNL     1      19.089   7.086   4.188  1.00  0.00     0.209 HD
ENDBRANCH  40  41
ENDBRANCH  37  40
ENDBRANCH  36  37
ENDBRANCH  33  36
BRANCH  35  43
HETATM   43  O5  UNL     1      20.337   2.789  -0.187  1.00  0.00    -0.343 OA
ATOM     44  H5  UNL     1      20.274   3.454  -0.863  1.00  0.00     0.219 HD
ENDBRANCH  35  43
ENDBRANCH   6  29
BRANCH   5  45
HETATM   45  O2  UNL     1      17.232   0.551  -1.462  1.00  0.00    -0.356 OA
ATOM     46  H2  UNL     1      16.312   0.328  -1.535  1.00  0.00     0.218 HD
ENDBRANCH   5  45
BRANCH   4  47
HETATM   47  O1  UNL     1      17.582  -1.867  -2.837  1.00  0.00    -0.344 OA
ATOM     48  H1  UNL     1      16.737  -2.289  -2.728  1.00  0.00     0.219 HD
ENDBRANCH   4  47
TORSDOF 16
ENDMDL
MODEL 4
REMARK VINA RESULT: -8.493921099      4.150      9.996
REMARK  16 active torsions:
REMARK  status: ('A' for Active; 'I' for Inactive)
REMARK    1  A    between atoms: N1_1  and  C1_4 
REMARK    2  A    between atoms: C2_7  and  O1_8 
REMARK    3  A    between atoms: C3_10  and  O2_11 
REMARK    4  A    between atoms: C4_13  and  C5_14 
REMARK    5  A    between atoms: N5_19  and  C6_20 
REMARK    6  A    between atoms: C6_20  and  C7_21 
REMARK    7  A    between atoms: C7_21  and  O3_22 
REMARK    8  A    between atoms: C7_21  and  C8_24 
REMARK    9  A    between atoms: C8_24  and  O4_25 
REMARK   10  A    between atoms: C9_27  and  O5_28 
REMARK   11  A    between atoms: C10_30  and  N6_31 
REMARK   12  A    between atoms: N6_31  and  C11_33 
REMARK   13  A    between atoms: C11_33  and  O6_34 
REMARK   14  A    between atoms: C11_33  and  C12_36 
REMARK   15  A    between atoms: C13_41  and  S1_42 
REMARK   16  A    between atoms: S1_42  and  N9_43 
ROOT
HETATM    1  C1  UNL     1      17.268  -5.853   5.865  1.00  0.00     0.129 A 
HETATM    2  N2  UNL     1      16.097  -6.198   6.422  1.00  0.00    -0.319 N 
ATOM      3  H2  UNL     1      15.644  -5.535   7.051  1.00  0.00     0.169 HD
HETATM    4  C2  UNL     1      15.496  -7.369   6.191  1.00  0.00     0.176 A 
HETATM    5  C3  UNL     1      16.086  -8.274   5.350  1.00  0.00     0.132 A 
HETATM    6  C4  UNL     1      17.314  -7.971   4.735  1.00  0.00     0.064 A 
HETATM    7  C10 UNL     1      17.887  -6.769   5.002  1.00  0.00     0.090 A 
ENDROOT
BRANCH   7   8
HETATM    8  N6  UNL     1      19.096  -6.361   4.437  1.00  0.00    -0.355 N 
ATOM      9  H6  UNL     1      19.930  -6.361   5.023  1.00  0.00     0.162 HD
BRANCH   8  10
HETATM   10  C11 UNL     1      19.219  -5.948   3.089  1.00  0.00     0.278 C 
BRANCH  10  11
HETATM   11  O6  UNL     1      18.125  -6.231   2.303  1.00  0.00    -0.370 OA
ATOM     12  H6  UNL     1      18.111  -5.777   1.469  1.00  0.00     0.212 HD
ENDBRANCH  10  11
BRANCH  10  13
HETATM   13  C12 UNL     1      19.561  -4.491   2.964  1.00  0.00     0.117 A 
HETATM   14  N7  UNL     1      19.943  -3.603   3.866  1.00  0.00    -0.292 N 
HETATM   15  N8  UNL     1      20.178  -2.411   3.517  1.00  0.00    -0.282 N 
ATOM     16  H7  UNL     1      20.048  -3.880   4.842  1.00  0.00     0.187 HD
HETATM   17  C13 UNL     1      20.040  -2.048   2.246  1.00  0.00     0.207 A 
ATOM     18  H8  UNL     1      20.474  -1.726   4.212  1.00  0.00     0.188 HD
HETATM   19  S2  UNL     1      19.540  -3.550   1.548  1.00  0.00    -0.038 SA
BRANCH  17  20
HETATM   20  S1  UNL     1      20.297  -0.480   1.497  1.00  0.00     0.280 S 
HETATM   21  O7  UNL     1      21.081   0.429   2.379  1.00  0.00    -0.199 OA
HETATM   22  O8  UNL     1      18.914   0.126   1.301  1.00  0.00    -0.199 OA
BRANCH  20  23
HETATM   23  N9  UNL     1      21.023  -0.604  -0.040  1.00  0.00    -0.323 N 
ATOM     24  H92 UNL     1      21.961  -0.258  -0.241  1.00  0.00     0.169 HD
ATOM     25  H91 UNL     1      20.415  -1.060  -0.721  1.00  0.00     0.169 HD
ENDBRANCH  20  23
ENDBRANCH  17  20
ENDBRANCH  10  13
ENDBRANCH   8  10
ENDBRANCH   7   8
BRANCH   1  26
HETATM   26  N1  UNL     1      17.771  -4.710   6.116  1.00  0.00    -0.384 N 
ATOM     27  H12 UNL     1      17.313  -4.037   6.730  1.00  0.00     0.157 HD
ATOM     28  H11 UNL     1      18.670  -4.454   5.707  1.00  0.00     0.157 HD
ENDBRANCH   1  26
BRANCH   6  29
HETATM   29  C5  UNL     1      17.889  -8.907   3.802  1.00  0.00     0.117 A 
HETATM   30  N3  UNL     1      17.224  -9.380   2.720  1.00  0.00    -0.281 N 
HETATM   31  N4  UNL     1      17.961 -10.247   2.064  1.00  0.00    -0.238 N 
ATOM     32  H3  UNL     1      16.281  -9.101   2.453  1.00  0.00     0.188 HD
HETATM   33  N5  UNL     1      19.142 -10.367   2.708  1.00  0.00    -0.252 N 
ATOM     34  H4  UNL     1      17.689 -10.744   1.216  1.00  0.00     0.208 HD
HETATM   35  C9  UNL     1      19.107  -9.561   3.759  1.00  0.00     0.188 A 
BRANCH  33  36
HETATM   36  C6  UNL     1      20.154 -11.258   2.227  1.00  0.00     0.186 C 
BRANCH  36  37
HETATM   37  C7  UNL     1      19.641 -12.531   1.652  1.00  0.00     0.161 C 
BRANCH  37  38
HETATM   38  O3  UNL     1      18.621 -13.090   2.430  1.00  0.00    -0.392 OA
ATOM     39  H3  UNL     1      18.395 -13.970   2.149  1.00  0.00     0.210 HD
ENDBRANCH  37  38
BRANCH  37  40
HETATM   40  C8  UNL     1      20.676 -13.562   1.315  1.00  0.00     0.197 C 
BRANCH  40  41
HETATM   41  O4  UNL     1      21.108 -14.299   2.390  1.00  0.00    -0.398 OA
ATOM     42  H4  UNL     1      20.451 -14.428   3.064  1.00  0.00     0.209 HD
ENDBRANCH  40  41
ENDBRANCH  37  40
ENDBRANCH  36  37
ENDBRANCH  33  36
BRANCH  35  43
HETATM   43  O5  UNL     1      20.103  -9.375   4.682  1.00  0.00    -0.343 OA
ATOM     44  H5  UNL     1      21.019  -9.261   4.454  1.00  0.00     0.219 HD
ENDBRANCH  35  43
ENDBRANCH   6  29
BRANCH   5  45
HETATM   45  O2  UNL     1      15.524  -9.515   5.057  1.00  0.00    -0.356 OA
ATOM     46  H2  UNL     1      15.615  -9.937   4.210  1.00  0.00     0.218 HD
ENDBRANCH   5  45
BRANCH   4  47
HETATM   47  O1  UNL     1      14.271  -7.701   6.789  1.00  0.00    -0.344 OA
ATOM     48  H1  UNL     1      13.446  -7.605   6.326  1.00  0.00     0.219 HD
ENDBRANCH   4  47
TORSDOF 16
ENDMDL
MODEL 5
REMARK VINA RESULT: -8.458220366      3.807      9.765
REMARK  16 active torsions:
REMARK  status: ('A' for Active; 'I' for Inactive)
REMARK    1  A    between atoms: N1_1  and  C1_4 
REMARK    2  A    between atoms: C2_7  and  O1_8 
REMARK    3  A    between atoms: C3_10  and  O2_11 
REMARK    4  A    between atoms: C4_13  and  C5_14 
REMARK    5  A    between atoms: N5_19  and  C6_20 
REMARK    6  A    between atoms: C6_20  and  C7_21 
REMARK    7  A    between atoms: C7_21  and  O3_22 
REMARK    8  A    between atoms: C7_21  and  C8_24 
REMARK    9  A    between atoms: C8_24  and  O4_25 
REMARK   10  A    between atoms: C9_27  and  O5_28 
REMARK   11  A    between atoms: C10_30  and  N6_31 
REMARK   12  A    between atoms: N6_31  and  C11_33 
REMARK   13  A    between atoms: C11_33  and  O6_34 
REMARK   14  A    between atoms: C11_33  and  C12_36 
REMARK   15  A    between atoms: C13_41  and  S1_42 
REMARK   16  A    between atoms: S1_42  and  N9_43 
ROOT
HETATM    1  C1  UNL     1      16.581  -6.083   6.378  1.00  0.00     0.129 A 
HETATM    2  N2  UNL     1      15.408  -6.547   6.837  1.00  0.00    -0.319 N 
ATOM      3  H2  UNL     1      14.897  -5.986   7.519  1.00  0.00     0.169 HD
HETATM    4  C2  UNL     1      14.880  -7.709   6.444  1.00  0.00     0.176 A 
HETATM    5  C3  UNL     1      15.550  -8.479   5.531  1.00  0.00     0.132 A 
HETATM    6  C4  UNL     1      16.783  -8.047   5.012  1.00  0.00     0.064 A 
HETATM    7  C10 UNL     1      17.281  -6.859   5.443  1.00  0.00     0.090 A 
ENDROOT
BRANCH   7   8
HETATM    8  N6  UNL     1      18.487  -6.329   4.985  1.00  0.00    -0.355 N 
ATOM      9  H6  UNL     1      19.234  -6.973   4.728  1.00  0.00     0.162 HD
BRANCH   8  10
HETATM   10  C11 UNL     1      18.724  -4.939   4.859  1.00  0.00     0.278 C 
BRANCH  10  11
HETATM   11  O6  UNL     1      19.608  -4.425   5.782  1.00  0.00    -0.370 OA
ATOM     12  H6  UNL     1      19.534  -3.488   5.919  1.00  0.00     0.212 HD
ENDBRANCH  10  11
BRANCH  10  13
HETATM   13  C12 UNL     1      19.165  -4.555   3.477  1.00  0.00     0.117 A 
HETATM   14  N7  UNL     1      19.622  -5.282   2.472  1.00  0.00    -0.292 N 
HETATM   15  N8  UNL     1      19.935  -4.724   1.382  1.00  0.00    -0.282 N 
ATOM     16  H7  UNL     1      19.721  -6.292   2.576  1.00  0.00     0.187 HD
HETATM   17  C13 UNL     1      19.808  -3.409   1.244  1.00  0.00     0.207 A 
ATOM     18  H8  UNL     1      20.287  -5.286   0.606  1.00  0.00     0.188 HD
HETATM   19  S2  UNL     1      19.195  -2.992   2.806  1.00  0.00    -0.038 SA
BRANCH  17  20
HETATM   20  S1  UNL     1      20.165  -2.390  -0.143  1.00  0.00     0.280 S 
HETATM   21  O7  UNL     1      20.554  -1.014   0.272  1.00  0.00    -0.199 OA
HETATM   22  O8  UNL     1      18.873  -2.298  -0.942  1.00  0.00    -0.199 OA
BRANCH  20  23
HETATM   23  N9  UNL     1      21.348  -3.072  -1.163  1.00  0.00    -0.323 N 
ATOM     24  H92 UNL     1      22.254  -2.633  -1.334  1.00  0.00     0.169 HD
ATOM     25  H91 UNL     1      21.046  -3.955  -1.573  1.00  0.00     0.169 HD
ENDBRANCH  20  23
ENDBRANCH  17  20
ENDBRANCH  10  13
ENDBRANCH   8  10
ENDBRANCH   7   8
BRANCH   1  26
HETATM   26  N1  UNL     1      17.012  -4.955   6.784  1.00  0.00    -0.384 N 
ATOM     27  H12 UNL     1      17.962  -4.635   6.594  1.00  0.00     0.157 HD
ATOM     28  H11 UNL     1      16.390  -4.335   7.304  1.00  0.00     0.157 HD
ENDBRANCH   1  26
BRANCH   6  29
HETATM   29  C5  UNL     1      17.443  -8.837   4.003  1.00  0.00     0.117 A 
HETATM   30  N3  UNL     1      16.825  -9.270   2.878  1.00  0.00    -0.281 N 
HETATM   31  N4  UNL     1      17.639 -10.001   2.152  1.00  0.00    -0.238 N 
ATOM     32  H3  UNL     1      15.859  -9.057   2.629  1.00  0.00     0.188 HD
HETATM   33  N5  UNL     1      18.826 -10.068   2.792  1.00  0.00    -0.252 N 
ATOM     34  H4  UNL     1      17.415 -10.442   1.260  1.00  0.00     0.208 HD
HETATM   35  C9  UNL     1      18.717  -9.367   3.911  1.00  0.00     0.188 A 
BRANCH  33  36
HETATM   36  C6  UNL     1      19.918 -10.813   2.241  1.00  0.00     0.186 C 
BRANCH  36  37
HETATM   37  C7  UNL     1      19.528 -12.078   1.561  1.00  0.00     0.161 C 
BRANCH  37  38
HETATM   38  O3  UNL     1      20.244 -13.180   2.045  1.00  0.00    -0.392 OA
ATOM     39  H3  UNL     1      21.056 -12.924   2.467  1.00  0.00     0.210 HD
ENDBRANCH  37  38
BRANCH  37  40
HETATM   40  C8  UNL     1      19.547 -12.051   0.063  1.00  0.00     0.197 C 
BRANCH  40  41
HETATM   41  O4  UNL     1      18.646 -11.179  -0.496  1.00  0.00    -0.398 OA
ATOM     42  H4  UNL     1      19.043 -10.453  -0.963  1.00  0.00     0.209 HD
ENDBRANCH  40  41
ENDBRANCH  37  40
ENDBRANCH  36  37
ENDBRANCH  33  36
BRANCH  35  43
HETATM   43  O5  UNL     1      19.691  -9.173   4.855  1.00  0.00    -0.343 OA
ATOM     44  H5  UNL     1      20.410  -8.560   4.752  1.00  0.00     0.219 HD
ENDBRANCH  35  43
ENDBRANCH   6  29
BRANCH   5  45
HETATM   45  O2  UNL     1      15.066  -9.702   5.070  1.00  0.00    -0.356 OA
ATOM     46  H2  UNL     1      14.874  -9.870   4.155  1.00  0.00     0.218 HD
ENDBRANCH   5  45
BRANCH   4  47
HETATM   47  O1  UNL     1      13.652  -8.169   6.943  1.00  0.00    -0.344 OA
ATOM     48  H1  UNL     1      12.845  -7.684   6.811  1.00  0.00     0.219 HD
ENDBRANCH   4  47
TORSDOF 16
ENDMDL
