MODEL 1
REMARK VINA RESULT: -8.524216476      0.000      0.000
REMARK  10 active torsions:
REMARK  status: ('A' for Active; 'I' for Inactive)
REMARK    1  A    between atoms: C1_4  and  C2_6 
REMARK    2  A    between atoms: C4_9  and  C5_10 
REMARK    3  A    between atoms: C5_10  and  N4_11 
REMARK    4  A    between atoms: C5_10  and  N5_15 
REMARK    5  A    between atoms: N6_19  and  N7_20 
REMARK    6  A    between atoms: N7_20  and  C6_22 
REMARK    7  A    between atoms: C8_24  and  O1_25 
REMARK    8  A    between atoms: C12_36  and  N11_37 
REMARK    9  A    between atoms: C13_42  and  C14_43 
REMARK   10  A    between atoms: C15_46  and  N15_47 
ROOT
HETATM    1  C2  UNL     1      18.703 -12.324  -0.187  1.00  0.00     0.079 A 
HETATM    2  C3  UNL     1      19.694 -13.190  -0.632  1.00  0.00     0.092 A 
HETATM    3  N3  UNL     1      19.752 -13.888  -1.879  1.00  0.00    -0.099 NA
HETATM    4  C4  UNL     1      20.619 -13.244   0.369  1.00  0.00     0.118 A 
HETATM    5  N6  UNL     1      20.226 -12.433   1.426  1.00  0.00    -0.235 N 
HETATM    6  C12 UNL     1      19.069 -11.875   1.093  1.00  0.00     0.168 A 
ENDROOT
BRANCH   5   7
HETATM    7  N7  UNL     1      20.932 -12.429   2.610  1.00  0.00    -0.290 N 
ATOM      8  H7  UNL     1      20.678 -13.213   3.209  1.00  0.00     0.187 HD
BRANCH   7   9
HETATM    9  C6  UNL     1      21.901 -11.623   3.188  1.00  0.00     0.078 A 
HETATM   10  C7  UNL     1      22.891 -10.899   2.590  1.00  0.00     0.072 A 
HETATM   11  C8  UNL     1      23.761 -10.043   3.228  1.00  0.00     0.099 A 
HETATM   12  C9  UNL     1      23.639  -9.891   4.585  1.00  0.00     0.120 A 
HETATM   13  N8  UNL     1      24.294  -9.167   5.478  1.00  0.00    -0.237 N 
HETATM   14  C10 UNL     1      22.669 -10.585   5.260  1.00  0.00     0.114 A 
HETATM   15  O2  UNL     1      23.776  -9.389   6.636  1.00  0.00    -0.156 OA
ATOM     16  H8  UNL     1      25.076  -8.541   5.283  1.00  0.00     0.197 HD
HETATM   17  N9  UNL     1      22.786 -10.242   6.556  1.00  0.00    -0.237 N 
ATOM     18  H9  UNL     1      22.213 -10.582   7.329  1.00  0.00     0.197 HD
HETATM   19  C11 UNL     1      21.825 -11.426   4.583  1.00  0.00     0.105 A 
HETATM   20  N10 UNL     1      20.837 -12.121   5.311  1.00  0.00    -0.097 NA
BRANCH  11  21
HETATM   21  O1  UNL     1      24.744  -9.347   2.494  1.00  0.00    -0.358 OA
ATOM     22  H1  UNL     1      25.643  -9.319   2.802  1.00  0.00     0.217 HD
ENDBRANCH  11  21
ENDBRANCH   7   9
ENDBRANCH   5   7
BRANCH   4  23
HETATM   23  C5  UNL     1      21.853 -14.072   0.253  1.00  0.00     0.431 C 
BRANCH  23  24
HETATM   24  N4  UNL     1      21.425 -15.466   0.248  1.00  0.00    -0.045 N 
ATOM     25  H43 UNL     1      21.299 -15.852   1.185  1.00  0.00     0.277 HD
ATOM     26  H42 UNL     1      20.464 -15.591  -0.071  1.00  0.00     0.277 HD
ATOM     27  H41 UNL     1      22.105 -15.980  -0.311  1.00  0.00     0.277 HD
ENDBRANCH  23  24
BRANCH  23  28
HETATM   28  N5  UNL     1      22.530 -13.806  -1.018  1.00  0.00    -0.045 N 
ATOM     29  H53 UNL     1      23.479 -14.180  -1.028  1.00  0.00     0.277 HD
ATOM     30  H52 UNL     1      22.140 -14.362  -1.779  1.00  0.00     0.277 HD
ATOM     31  H51 UNL     1      22.513 -12.808  -1.229  1.00  0.00     0.277 HD
ENDBRANCH  23  28
ENDBRANCH   4  23
BRANCH   6  32
HETATM   32  N11 UNL     1      18.181 -11.012   1.782  1.00  0.00    -0.198 N 
HETATM   33  N12 UNL     1      18.294  -9.725   2.004  1.00  0.00    -0.232 N 
HETATM   34  N13 UNL     1      17.329  -9.219   2.664  1.00  0.00    -0.277 N 
ATOM     35  H12 UNL     1      19.088  -9.176   1.676  1.00  0.00     0.209 HD
HETATM   36  C13 UNL     1      16.441 -10.232   2.942  1.00  0.00     0.167 A 
ATOM     37  H13 UNL     1      17.233  -8.241   2.937  1.00  0.00     0.189 HD
HETATM   38  C15 UNL     1      16.979 -11.366   2.382  1.00  0.00     0.231 A 
BRANCH  36  39
HETATM   39  C14 UNL     1      15.223 -10.057   3.671  1.00  0.00     0.286 C 
HETATM   40  N14 UNL     1      15.300  -9.308   4.920  1.00  0.00    -0.056 NA
HETATM   41  O3  UNL     1      14.115 -10.468   3.360  1.00  0.00    -0.269 OA
ENDBRANCH  36  39
BRANCH  38  42
HETATM   42  N15 UNL     1      16.456 -12.671   2.313  1.00  0.00    -0.093 N 
HETATM   43  O4  UNL     1      15.454 -12.882   1.568  1.00  0.00    -0.530 OA
HETATM   44  O5  UNL     1      16.941 -13.708   3.028  1.00  0.00    -0.530 OA
ENDBRANCH  38  42
ENDBRANCH   6  32
BRANCH   1  45
HETATM   45  C1  UNL     1      17.545 -12.030  -0.995  1.00  0.00     0.126 C 
HETATM   46  N1  UNL     1      16.745 -13.009  -1.334  1.00  0.00    -0.387 N 
ATOM     47  H12 UNL     1      15.926 -12.802  -1.906  1.00  0.00     0.157 HD
ATOM     48  H11 UNL     1      16.983 -13.948  -1.015  1.00  0.00     0.157 HD
HETATM   49  N2  UNL     1      17.218 -10.740  -1.434  1.00  0.00    -0.082 NA
ENDBRANCH   1  45
TORSDOF 10
ENDMDL
MODEL 2
REMARK VINA RESULT: -8.148628216      3.879      6.634
REMARK  10 active torsions:
REMARK  status: ('A' for Active; 'I' for Inactive)
REMARK    1  A    between atoms: C1_4  and  C2_6 
REMARK    2  A    between atoms: C4_9  and  C5_10 
REMARK    3  A    between atoms: C5_10  and  N4_11 
REMARK    4  A    between atoms: C5_10  and  N5_15 
REMARK    5  A    between atoms: N6_19  and  N7_20 
REMARK    6  A    between atoms: N7_20  and  C6_22 
REMARK    7  A    between atoms: C8_24  and  O1_25 
REMARK    8  A    between atoms: C12_36  and  N11_37 
REMARK    9  A    between atoms: C13_42  and  C14_43 
REMARK   10  A    between atoms: C15_46  and  N15_47 
ROOT
HETATM    1  C2  UNL     1      17.069 -15.365   1.070  1.00  0.00     0.079 A 
HETATM    2  C3  UNL     1      15.878 -15.998   1.407  1.00  0.00     0.092 A 
HETATM    3  N3  UNL     1      15.582 -17.395   1.347  1.00  0.00    -0.099 NA
HETATM    4  C4  UNL     1      15.033 -15.008   1.814  1.00  0.00     0.118 A 
HETATM    5  N6  UNL     1      15.669 -13.775   1.739  1.00  0.00    -0.235 N 
HETATM    6  C12 UNL     1      16.900 -13.988   1.289  1.00  0.00     0.168 A 
ENDROOT
BRANCH   5   7
HETATM    7  N7  UNL     1      14.974 -12.609   1.971  1.00  0.00    -0.290 N 
ATOM      8  H7  UNL     1      14.120 -12.555   1.415  1.00  0.00     0.187 HD
BRANCH   7   9
HETATM    9  C6  UNL     1      15.145 -11.489   2.771  1.00  0.00     0.078 A 
HETATM   10  C7  UNL     1      16.103 -10.519   2.705  1.00  0.00     0.072 A 
HETATM   11  C8  UNL     1      16.152  -9.381   3.480  1.00  0.00     0.099 A 
HETATM   12  C9  UNL     1      15.160  -9.187   4.405  1.00  0.00     0.120 A 
HETATM   13  N8  UNL     1      14.917  -8.229   5.284  1.00  0.00    -0.237 N 
HETATM   14  C10 UNL     1      14.162 -10.118   4.535  1.00  0.00     0.114 A 
HETATM   15  O2  UNL     1      13.841  -8.532   5.924  1.00  0.00    -0.156 OA
ATOM     16  H8  UNL     1      15.483  -7.393   5.430  1.00  0.00     0.197 HD
HETATM   17  N9  UNL     1      13.345  -9.669   5.505  1.00  0.00    -0.237 N 
ATOM     18  H9  UNL     1      12.501 -10.127   5.849  1.00  0.00     0.197 HD
HETATM   19  C11 UNL     1      14.154 -11.235   3.742  1.00  0.00     0.105 A 
HETATM   20  N10 UNL     1      13.109 -12.168   3.901  1.00  0.00    -0.097 NA
BRANCH  11  21
HETATM   21  O1  UNL     1      17.197  -8.450   3.313  1.00  0.00    -0.358 OA
ATOM     22  H1  UNL     1      17.287  -7.717   3.910  1.00  0.00     0.217 HD
ENDBRANCH  11  21
ENDBRANCH   7   9
ENDBRANCH   5   7
BRANCH   4  23
HETATM   23  C5  UNL     1      13.645 -15.300   2.273  1.00  0.00     0.431 C 
BRANCH  23  24
HETATM   24  N4  UNL     1      12.934 -15.859   1.130  1.00  0.00    -0.045 N 
ATOM     25  H43 UNL     1      12.410 -15.160   0.601  1.00  0.00     0.277 HD
ATOM     26  H42 UNL     1      13.553 -16.152   0.374  1.00  0.00     0.277 HD
ATOM     27  H41 UNL     1      12.350 -16.615   1.488  1.00  0.00     0.277 HD
ENDBRANCH  23  24
BRANCH  23  28
HETATM   28  N5  UNL     1      13.659 -16.313   3.331  1.00  0.00    -0.045 N 
ATOM     29  H53 UNL     1      14.597 -16.458   3.706  1.00  0.00     0.277 HD
ATOM     30  H52 UNL     1      13.206 -15.979   4.182  1.00  0.00     0.277 HD
ATOM     31  H51 UNL     1      13.245 -17.184   2.997  1.00  0.00     0.277 HD
ENDBRANCH  23  28
ENDBRANCH   4  23
BRANCH   6  32
HETATM   32  N11 UNL     1      17.972 -13.119   0.966  1.00  0.00    -0.198 N 
HETATM   33  N12 UNL     1      19.126 -12.979   1.571  1.00  0.00    -0.232 N 
HETATM   34  N13 UNL     1      19.892 -12.106   1.048  1.00  0.00    -0.277 N 
ATOM     35  H12 UNL     1      19.388 -13.523   2.393  1.00  0.00     0.209 HD
HETATM   36  C13 UNL     1      19.230 -11.570  -0.032  1.00  0.00     0.167 A 
ATOM     37  H13 UNL     1      20.825 -11.851   1.370  1.00  0.00     0.189 HD
HETATM   38  C15 UNL     1      18.017 -12.213  -0.086  1.00  0.00     0.231 A 
BRANCH  36  39
HETATM   39  C14 UNL     1      19.768 -10.553  -0.882  1.00  0.00     0.286 C 
HETATM   40  N14 UNL     1      21.152 -10.713  -1.314  1.00  0.00    -0.056 NA
HETATM   41  O3  UNL     1      19.192  -9.556  -1.291  1.00  0.00    -0.269 OA
ENDBRANCH  36  39
BRANCH  38  42
HETATM   42  N15 UNL     1      16.976 -12.098  -1.027  1.00  0.00    -0.093 N 
HETATM   43  O4  UNL     1      16.063 -11.246  -0.818  1.00  0.00    -0.530 OA
HETATM   44  O5  UNL     1      16.875 -12.876  -2.126  1.00  0.00    -0.530 OA
ENDBRANCH  38  42
ENDBRANCH   6  32
BRANCH   1  45
HETATM   45  C1  UNL     1      18.202 -16.112   0.582  1.00  0.00     0.126 C 
HETATM   46  N1  UNL     1      18.101 -16.742  -0.561  1.00  0.00    -0.387 N 
ATOM     47  H12 UNL     1      18.901 -17.270  -0.907  1.00  0.00     0.157 HD
ATOM     48  H11 UNL     1      17.211 -16.684  -1.057  1.00  0.00     0.157 HD
HETATM   49  N2  UNL     1      19.424 -16.192   1.264  1.00  0.00    -0.082 NA
ENDBRANCH   1  45
TORSDOF 10
ENDMDL
MODEL 3
REMARK VINA RESULT: -7.935994723      4.453      6.508
REMARK  10 active torsions:
REMARK  status: ('A' for Active; 'I' for Inactive)
REMARK    1  A    between atoms: C1_4  and  C2_6 
REMARK    2  A    between atoms: C4_9  and  C5_10 
REMARK    3  A    between atoms: C5_10  and  N4_11 
REMARK    4  A    between atoms: C5_10  and  N5_15 
REMARK    5  A    between atoms: N6_19  and  N7_20 
REMARK    6  A    between atoms: N7_20  and  C6_22 
REMARK    7  A    between atoms: C8_24  and  O1_25 
REMARK    8  A    between atoms: C12_36  and  N11_37 
REMARK    9  A    between atoms: C13_42  and  C14_43 
REMARK   10  A    between atoms: C15_46  and  N15_47 
ROOT
HETATM    1  C2  UNL     1      16.466 -13.681  -0.241  1.00  0.00     0.079 A 
HETATM    2  C3  UNL     1      17.146 -12.609  -0.805  1.00  0.00     0.092 A 
HETATM    3  N3  UNL     1      17.694 -12.515  -2.123  1.00  0.00    -0.099 NA
HETATM    4  C4  UNL     1      17.188 -11.646   0.160  1.00  0.00     0.118 A 
HETATM    5  N6  UNL     1      16.550 -12.093   1.310  1.00  0.00    -0.235 N 
HETATM    6  C12 UNL     1      16.113 -13.323   1.071  1.00  0.00     0.168 A 
ENDROOT
BRANCH   5   7
HETATM    7  N7  UNL     1      16.582 -11.347   2.468  1.00  0.00    -0.290 N 
ATOM      8  H7  UNL     1      17.535 -11.184   2.792  1.00  0.00     0.187 HD
BRANCH   7   9
HETATM    9  C6  UNL     1      15.641 -10.763   3.302  1.00  0.00     0.078 A 
HETATM   10  C7  UNL     1      14.477 -11.284   3.788  1.00  0.00     0.072 A 
HETATM   11  C8  UNL     1      13.637 -10.672   4.693  1.00  0.00     0.099 A 
HETATM   12  C9  UNL     1      13.983  -9.431   5.158  1.00  0.00     0.120 A 
HETATM   13  N8  UNL     1      13.414  -8.592   6.009  1.00  0.00    -0.237 N 
HETATM   14  C10 UNL     1      15.137  -8.838   4.716  1.00  0.00     0.114 A 
HETATM   15  O2  UNL     1      14.157  -7.543   6.098  1.00  0.00    -0.156 OA
ATOM     16  H8  UNL     1      12.539  -8.748   6.509  1.00  0.00     0.197 HD
HETATM   17  N9  UNL     1      15.214  -7.644   5.332  1.00  0.00    -0.237 N 
ATOM     18  H9  UNL     1      15.954  -6.951   5.224  1.00  0.00     0.197 HD
HETATM   19  C11 UNL     1      15.942  -9.484   3.815  1.00  0.00     0.105 A 
HETATM   20  N10 UNL     1      17.123  -8.845   3.386  1.00  0.00    -0.097 NA
BRANCH  11  21
HETATM   21  O1  UNL     1      12.459 -11.319   5.121  1.00  0.00    -0.358 OA
ATOM     22  H1  UNL     1      11.873 -10.892   5.735  1.00  0.00     0.217 HD
ENDBRANCH  11  21
ENDBRANCH   7   9
ENDBRANCH   5   7
BRANCH   4  23
HETATM   23  C5  UNL     1      17.834 -10.324  -0.079  1.00  0.00     0.431 C 
BRANCH  23  24
HETATM   24  N4  UNL     1      19.265 -10.573  -0.205  1.00  0.00    -0.045 N 
ATOM     25  H43 UNL     1      19.702 -10.862   0.671  1.00  0.00     0.277 HD
ATOM     26  H42 UNL     1      19.482 -11.413  -0.740  1.00  0.00     0.277 HD
ATOM     27  H41 UNL     1      19.677  -9.727  -0.600  1.00  0.00     0.277 HD
ENDBRANCH  23  24
BRANCH  23  28
HETATM   28  N5  UNL     1      17.367  -9.746  -1.341  1.00  0.00    -0.045 N 
ATOM     29  H53 UNL     1      17.594 -10.341  -2.139  1.00  0.00     0.277 HD
ATOM     30  H52 UNL     1      16.350  -9.773  -1.417  1.00  0.00     0.277 HD
ATOM     31  H51 UNL     1      17.732  -8.800  -1.457  1.00  0.00     0.277 HD
ENDBRANCH  23  28
ENDBRANCH   4  23
BRANCH   6  32
HETATM   32  N11 UNL     1      15.449 -14.283   1.874  1.00  0.00    -0.198 N 
HETATM   33  N12 UNL     1      14.164 -14.421   2.095  1.00  0.00    -0.232 N 
HETATM   34  N13 UNL     1      13.865 -15.383   2.875  1.00  0.00    -0.277 N 
ATOM     35  H12 UNL     1      13.463 -13.810   1.678  1.00  0.00     0.209 HD
HETATM   36  C13 UNL     1      15.040 -15.993   3.248  1.00  0.00     0.167 A 
ATOM     37  H13 UNL     1      12.926 -15.652   3.169  1.00  0.00     0.189 HD
HETATM   38  C15 UNL     1      16.042 -15.299   2.613  1.00  0.00     0.231 A 
BRANCH  36  39
HETATM   39  C14 UNL     1      15.118 -17.122   4.123  1.00  0.00     0.286 C 
HETATM   40  N14 UNL     1      14.095 -18.151   3.972  1.00  0.00    -0.056 NA
HETATM   41  O3  UNL     1      15.954 -17.323   4.991  1.00  0.00    -0.269 OA
ENDBRANCH  36  39
BRANCH  38  42
HETATM   42  N15 UNL     1      17.429 -15.535   2.593  1.00  0.00    -0.093 N 
HETATM   43  O4  UNL     1      18.153 -14.959   3.458  1.00  0.00    -0.530 OA
HETATM   44  O5  UNL     1      18.041 -16.314   1.676  1.00  0.00    -0.530 OA
ENDBRANCH  38  42
ENDBRANCH   6  32
BRANCH   1  45
HETATM   45  C1  UNL     1      16.238 -14.898  -0.982  1.00  0.00     0.126 C 
HETATM   46  N1  UNL     1      17.253 -15.686  -1.232  1.00  0.00    -0.387 N 
ATOM     47  H12 UNL     1      17.093 -16.546  -1.755  1.00  0.00     0.157 HD
ATOM     48  H11 UNL     1      18.172 -15.398  -0.896  1.00  0.00     0.157 HD
HETATM   49  N2  UNL     1      14.976 -15.294  -1.444  1.00  0.00    -0.082 NA
ENDBRANCH   1  45
TORSDOF 10
ENDMDL
MODEL 4
REMARK VINA RESULT: -7.913721783      2.124      6.674
REMARK  10 active torsions:
REMARK  status: ('A' for Active; 'I' for Inactive)
REMARK    1  A    between atoms: C1_4  and  C2_6 
REMARK    2  A    between atoms: C4_9  and  C5_10 
REMARK    3  A    between atoms: C5_10  and  N4_11 
REMARK    4  A    between atoms: C5_10  and  N5_15 
REMARK    5  A    between atoms: N6_19  and  N7_20 
REMARK    6  A    between atoms: N7_20  and  C6_22 
REMARK    7  A    between atoms: C8_24  and  O1_25 
REMARK    8  A    between atoms: C12_36  and  N11_37 
REMARK    9  A    between atoms: C13_42  and  C14_43 
REMARK   10  A    between atoms: C15_46  and  N15_47 
ROOT
HETATM    1  C2  UNL     1      20.496 -11.217   0.893  1.00  0.00     0.079 A 
HETATM    2  C3  UNL     1      19.619 -11.183  -0.184  1.00  0.00     0.092 A 
HETATM    3  N3  UNL     1      19.903 -11.474  -1.555  1.00  0.00    -0.099 NA
HETATM    4  C4  UNL     1      18.411 -10.813   0.332  1.00  0.00     0.118 A 
HETATM    5  N6  UNL     1      18.518 -10.616   1.703  1.00  0.00    -0.235 N 
HETATM    6  C12 UNL     1      19.777 -10.859   2.045  1.00  0.00     0.168 A 
ENDROOT
BRANCH   5   7
HETATM    7  N7  UNL     1      17.460 -10.107   2.424  1.00  0.00    -0.290 N 
ATOM      8  H7  UNL     1      17.614  -9.136   2.694  1.00  0.00     0.187 HD
BRANCH   7   9
HETATM    9  C6  UNL     1      16.239 -10.586   2.874  1.00  0.00     0.078 A 
HETATM   10  C7  UNL     1      15.656 -11.801   2.658  1.00  0.00     0.072 A 
HETATM   11  C8  UNL     1      14.477 -12.240   3.221  1.00  0.00     0.099 A 
HETATM   12  C9  UNL     1      13.816 -11.397   4.075  1.00  0.00     0.120 A 
HETATM   13  N8  UNL     1      12.693 -11.506   4.766  1.00  0.00    -0.237 N 
HETATM   14  C10 UNL     1      14.337 -10.158   4.343  1.00  0.00     0.114 A 
HETATM   15  O2  UNL     1      12.515 -10.412   5.423  1.00  0.00    -0.156 OA
ATOM     16  H8  UNL     1      12.073 -12.316   4.776  1.00  0.00     0.197 HD
HETATM   17  N9  UNL     1      13.486  -9.563   5.200  1.00  0.00    -0.237 N 
ATOM     18  H9  UNL     1      13.580  -8.629   5.599  1.00  0.00     0.197 HD
HETATM   19  C11 UNL     1      15.513  -9.763   3.761  1.00  0.00     0.105 A 
HETATM   20  N10 UNL     1      16.020  -8.483   4.063  1.00  0.00    -0.097 NA
BRANCH  11  21
HETATM   21  O1  UNL     1      13.978 -13.524   2.918  1.00  0.00    -0.358 OA
ATOM     22  H1  UNL     1      13.223 -13.623   2.349  1.00  0.00     0.217 HD
ENDBRANCH  11  21
ENDBRANCH   7   9
ENDBRANCH   5   7
BRANCH   4  23
HETATM   23  C5  UNL     1      17.200 -10.679  -0.526  1.00  0.00     0.431 C 
BRANCH  23  24
HETATM   24  N4  UNL     1      17.540  -9.740  -1.589  1.00  0.00    -0.045 N 
ATOM     25  H43 UNL     1      17.479  -8.764  -1.298  1.00  0.00     0.277 HD
ATOM     26  H42 UNL     1      18.532  -9.741  -1.825  1.00  0.00     0.277 HD
ATOM     27  H41 UNL     1      16.938  -9.963  -2.381  1.00  0.00     0.277 HD
ENDBRANCH  23  24
BRANCH  23  28
HETATM   28  N5  UNL     1      16.870 -11.962  -1.150  1.00  0.00    -0.045 N 
ATOM     29  H53 UNL     1      17.081 -11.965  -2.148  1.00  0.00     0.277 HD
ATOM     30  H52 UNL     1      17.509 -12.702  -0.858  1.00  0.00     0.277 HD
ATOM     31  H51 UNL     1      15.896 -12.208  -0.967  1.00  0.00     0.277 HD
ENDBRANCH  23  28
ENDBRANCH   4  23
BRANCH   6  32
HETATM   32  N11 UNL     1      20.476 -10.772   3.274  1.00  0.00    -0.198 N 
HETATM   33  N12 UNL     1      20.808  -9.703   3.956  1.00  0.00    -0.232 N 
HETATM   34  N13 UNL     1      21.444  -9.942   5.033  1.00  0.00    -0.277 N 
ATOM     35  H12 UNL     1      20.576  -8.758   3.649  1.00  0.00     0.209 HD
HETATM   36  C13 UNL     1      21.581 -11.307   5.138  1.00  0.00     0.167 A 
ATOM     37  H13 UNL     1      21.788  -9.249   5.697  1.00  0.00     0.189 HD
HETATM   38  C15 UNL     1      20.967 -11.832   4.026  1.00  0.00     0.231 A 
BRANCH  36  39
HETATM   39  C14 UNL     1      22.242 -11.968   6.219  1.00  0.00     0.286 C 
HETATM   40  N14 UNL     1      21.564 -11.969   7.511  1.00  0.00    -0.056 NA
HETATM   41  O3  UNL     1      23.322 -12.539   6.183  1.00  0.00    -0.269 OA
ENDBRANCH  36  39
BRANCH  38  42
HETATM   42  N15 UNL     1      20.759 -13.176   3.662  1.00  0.00    -0.093 N 
HETATM   43  O4  UNL     1      21.745 -13.846   3.235  1.00  0.00    -0.530 OA
HETATM   44  O5  UNL     1      19.554 -13.783   3.705  1.00  0.00    -0.530 OA
ENDBRANCH  38  42
ENDBRANCH   6  32
BRANCH   1  45
HETATM   45  C1  UNL     1      21.885 -11.565   0.717  1.00  0.00     0.126 C 
HETATM   46  N1  UNL     1      22.187 -12.742   0.231  1.00  0.00    -0.387 N 
ATOM     47  H12 UNL     1      23.168 -12.989   0.106  1.00  0.00     0.157 HD
ATOM     48  H11 UNL     1      21.418 -13.373   0.003  1.00  0.00     0.157 HD
HETATM   49  N2  UNL     1      22.942 -10.699   1.029  1.00  0.00    -0.082 NA
ENDBRANCH   1  45
TORSDOF 10
ENDMDL
MODEL 5
REMARK VINA RESULT: -7.888172645      1.832      6.777
REMARK  10 active torsions:
REMARK  status: ('A' for Active; 'I' for Inactive)
REMARK    1  A    between atoms: C1_4  and  C2_6 
REMARK    2  A    between atoms: C4_9  and  C5_10 
REMARK    3  A    between atoms: C5_10  and  N4_11 
REMARK    4  A    between atoms: C5_10  and  N5_15 
REMARK    5  A    between atoms: N6_19  and  N7_20 
REMARK    6  A    between atoms: N7_20  and  C6_22 
REMARK    7  A    between atoms: C8_24  and  O1_25 
REMARK    8  A    between atoms: C12_36  and  N11_37 
REMARK    9  A    between atoms: C13_42  and  C14_43 
REMARK   10  A    between atoms: C15_46  and  N15_47 
ROOT
HETATM    1  C2  UNL     1      20.109 -12.721   0.765  1.00  0.00     0.079 A 
HETATM    2  C3  UNL     1      19.270 -12.345  -0.277  1.00  0.00     0.092 A 
HETATM    3  N3  UNL     1      19.461 -12.562  -1.678  1.00  0.00    -0.099 NA
HETATM    4  C4  UNL     1      18.209 -11.718   0.307  1.00  0.00     0.118 A 
HETATM    5  N6  UNL     1      18.368 -11.695   1.687  1.00  0.00    -0.235 N 
HETATM    6  C12 UNL     1      19.516 -12.301   1.967  1.00  0.00     0.168 A 
ENDROOT
BRANCH   5   7
HETATM    7  N7  UNL     1      17.490 -10.995   2.485  1.00  0.00    -0.290 N 
ATOM      8  H7  UNL     1      17.886 -10.112   2.807  1.00  0.00     0.187 HD
BRANCH   7   9
HETATM    9  C6  UNL     1      16.202 -11.192   2.959  1.00  0.00     0.078 A 
HETATM   10  C7  UNL     1      15.421 -12.310   2.899  1.00  0.00     0.072 A 
HETATM   11  C8  UNL     1      14.181 -12.459   3.480  1.00  0.00     0.099 A 
HETATM   12  C9  UNL     1      13.667 -11.403   4.185  1.00  0.00     0.120 A 
HETATM   13  N8  UNL     1      12.537 -11.220   4.848  1.00  0.00    -0.237 N 
HETATM   14  C10 UNL     1      14.390 -10.242   4.291  1.00  0.00     0.114 A 
HETATM   15  O2  UNL     1      12.544 -10.028   5.337  1.00  0.00    -0.156 OA
ATOM     16  H8  UNL     1      11.788 -11.905   4.953  1.00  0.00     0.197 HD
HETATM   17  N9  UNL     1      13.647  -9.396   5.027  1.00  0.00    -0.237 N 
ATOM     18  H9  UNL     1      13.896  -8.443   5.293  1.00  0.00     0.197 HD
HETATM   19  C11 UNL     1      15.620 -10.139   3.697  1.00  0.00     0.105 A 
HETATM   20  N10 UNL     1      16.335  -8.932   3.830  1.00  0.00    -0.097 NA
BRANCH  11  21
HETATM   21  O1  UNL     1      13.472 -13.671   3.347  1.00  0.00    -0.358 OA
ATOM     22  H1  UNL     1      12.707 -13.841   3.883  1.00  0.00     0.217 HD
ENDBRANCH  11  21
ENDBRANCH   7   9
ENDBRANCH   5   7
BRANCH   4  23
HETATM   23  C5  UNL     1      17.077 -11.178  -0.498  1.00  0.00     0.431 C 
BRANCH  23  24
HETATM   24  N4  UNL     1      17.606 -10.060  -1.270  1.00  0.00    -0.045 N 
ATOM     25  H43 UNL     1      18.496  -9.710  -0.914  1.00  0.00     0.277 HD
ATOM     26  H42 UNL     1      17.938 -10.332  -2.196  1.00  0.00     0.277 HD
ATOM     27  H41 UNL     1      16.875  -9.349  -1.297  1.00  0.00     0.277 HD
ENDBRANCH  23  24
BRANCH  23  28
HETATM   28  N5  UNL     1      16.592 -12.187  -1.442  1.00  0.00    -0.045 N 
ATOM     29  H53 UNL     1      16.433 -11.794  -2.370  1.00  0.00     0.277 HD
ATOM     30  H52 UNL     1      17.320 -12.859  -1.685  1.00  0.00     0.277 HD
ATOM     31  H51 UNL     1      15.758 -12.647  -1.076  1.00  0.00     0.277 HD
ENDBRANCH  23  28
ENDBRANCH   4  23
BRANCH   6  32
HETATM   32  N11 UNL     1      20.216 -12.528   3.178  1.00  0.00    -0.198 N 
HETATM   33  N12 UNL     1      20.400 -13.655   3.820  1.00  0.00    -0.232 N 
HETATM   34  N13 UNL     1      21.073 -13.544   4.896  1.00  0.00    -0.277 N 
ATOM     35  H12 UNL     1      20.035 -14.547   3.487  1.00  0.00     0.209 HD
HETATM   36  C13 UNL     1      21.404 -12.217   5.041  1.00  0.00     0.167 A 
ATOM     37  H13 UNL     1      21.321 -14.301   5.533  1.00  0.00     0.189 HD
HETATM   38  C15 UNL     1      20.864 -11.574   3.953  1.00  0.00     0.231 A 
BRANCH  36  39
HETATM   39  C14 UNL     1      22.163 -11.692   6.133  1.00  0.00     0.286 C 
HETATM   40  N14 UNL     1      21.612 -10.534   6.828  1.00  0.00    -0.056 NA
HETATM   41  O3  UNL     1      23.232 -12.108   6.553  1.00  0.00    -0.269 OA
ENDBRANCH  36  39
BRANCH  38  42
HETATM   42  N15 UNL     1      20.953 -10.223   3.568  1.00  0.00    -0.093 N 
HETATM   43  O4  UNL     1      22.050  -9.800   3.098  1.00  0.00    -0.530 OA
HETATM   44  O5  UNL     1      19.942  -9.339   3.707  1.00  0.00    -0.530 OA
ENDBRANCH  38  42
ENDBRANCH   6  32
BRANCH   1  45
HETATM   45  C1  UNL     1      21.351 -13.410   0.515  1.00  0.00     0.126 C 
HETATM   46  N1  UNL     1      22.228 -12.864  -0.288  1.00  0.00    -0.387 N 
ATOM     47  H12 UNL     1      23.107 -13.351  -0.465  1.00  0.00     0.157 HD
ATOM     48  H11 UNL     1      21.988 -11.969  -0.715  1.00  0.00     0.157 HD
HETATM   49  N2  UNL     1      21.681 -14.640   1.101  1.00  0.00    -0.082 NA
ENDBRANCH   1  45
TORSDOF 10
ENDMDL
