MODEL 1
REMARK VINA RESULT: -6.315208049      0.000      0.000
REMARK  3 active torsions:
REMARK  status: ('A' for Active; 'I' for Inactive)
REMARK    1  A    between atoms: C3_3  and  N1_4 
REMARK    2  A    between atoms: N2_7  and  C6_8 
REMARK    3  A    between atoms: C13_15  and  O1_16 
ROOT
HETATM    1  C1  UNL     1      15.926  -0.009   8.750  1.00  0.00     0.013 C 
HETATM    2  C2  UNL     1      15.691  -0.412   7.638  1.00  0.00    -0.087 C 
HETATM    3  C3  UNL     1      15.406  -0.920   6.317  1.00  0.00     0.365 C 
ENDROOT
BRANCH   3   4
HETATM    4  N1  UNL     1      14.217  -1.790   6.312  1.00  0.00     0.105 N 
HETATM    5  C4  UNL     1      14.686  -3.097   5.936  1.00  0.00     0.293 C 
HETATM    6  C5  UNL     1      14.444  -3.323   4.456  1.00  0.00     0.150 C 
HETATM    7  N2  UNL     1      13.035  -3.330   4.246  1.00  0.00    -0.380 N 
HETATM    8  C13 UNL     1      12.403  -2.134   4.646  1.00  0.00     0.244 C 
HETATM    9  C14 UNL     1      13.280  -1.185   5.419  1.00  0.00     0.326 C 
BRANCH   7  10
HETATM   10  C6  UNL     1      12.407  -4.560   4.533  1.00  0.00     0.081 C 
HETATM   11  C7  UNL     1      11.193  -4.438   5.429  1.00  0.00     0.025 C 
HETATM   12  C8  UNL     1       9.976  -5.113   4.882  1.00  0.00     0.002 C 
HETATM   13  C9  UNL     1      10.079  -6.536   4.574  1.00  0.00     0.000 C 
HETATM   14  C10 UNL     1      11.432  -7.131   4.378  1.00  0.00     0.000 C 
HETATM   15  C11 UNL     1      12.405  -6.829   5.462  1.00  0.00     0.002 C 
HETATM   16  C12 UNL     1      13.284  -5.643   5.071  1.00  0.00     0.025 C 
ENDBRANCH   7  10
BRANCH   8  17
HETATM   17  O1  UNL     1      12.056  -1.444   3.451  1.00  0.00    -0.375 OA
ATOM     18  H1  UNL     1      11.670  -0.618   3.720  1.00  0.00     0.212 HD
ENDBRANCH   8  17
ENDBRANCH   3   4
TORSDOF 3
ENDMDL
MODEL 2
REMARK VINA RESULT: -6.052658952      3.890      6.196
REMARK  3 active torsions:
REMARK  status: ('A' for Active; 'I' for Inactive)
REMARK    1  A    between atoms: C3_3  and  N1_4 
REMARK    2  A    between atoms: N2_7  and  C6_8 
REMARK    3  A    between atoms: C13_15  and  O1_16 
ROOT
HETATM    1  C1  UNL     1       5.749  -0.429   7.190  1.00  0.00     0.013 C 
HETATM    2  C2  UNL     1       5.670  -1.360   6.427  1.00  0.00    -0.087 C 
HETATM    3  C3  UNL     1       5.602  -2.472   5.508  1.00  0.00     0.365 C 
ENDROOT
BRANCH   3   4
HETATM    4  N1  UNL     1       6.714  -3.416   5.712  1.00  0.00     0.105 N 
HETATM    5  C4  UNL     1       7.907  -2.708   5.330  1.00  0.00     0.293 C 
HETATM    6  C5  UNL     1       8.293  -3.080   3.912  1.00  0.00     0.150 C 
HETATM    7  N2  UNL     1       8.632  -4.463   3.906  1.00  0.00    -0.380 N 
HETATM    8  C13 UNL     1       7.582  -5.300   4.339  1.00  0.00     0.244 C 
HETATM    9  C14 UNL     1       6.405  -4.575   4.937  1.00  0.00     0.326 C 
BRANCH   7  10
HETATM   10  C6  UNL     1       9.946  -4.745   4.334  1.00  0.00     0.081 C 
HETATM   11  C7  UNL     1      10.025  -5.739   5.473  1.00  0.00     0.025 C 
HETATM   12  C8  UNL     1      10.960  -6.877   5.211  1.00  0.00     0.002 C 
HETATM   13  C9  UNL     1      12.347  -6.546   4.899  1.00  0.00     0.000 C 
HETATM   14  C10 UNL     1      12.666  -5.172   4.418  1.00  0.00     0.000 C 
HETATM   15  C11 UNL     1      12.116  -4.076   5.260  1.00  0.00     0.002 C 
HETATM   16  C12 UNL     1      10.800  -3.568   4.676  1.00  0.00     0.025 C 
ENDBRANCH   7  10
BRANCH   8  17
HETATM   17  O1  UNL     1       7.080  -5.949   3.178  1.00  0.00    -0.375 OA
ATOM     18  H1  UNL     1       6.876  -6.841   3.436  1.00  0.00     0.212 HD
ENDBRANCH   8  17
ENDBRANCH   3   4
TORSDOF 3
ENDMDL
MODEL 3
REMARK VINA RESULT: -6.047051609      3.143      6.496
REMARK  3 active torsions:
REMARK  status: ('A' for Active; 'I' for Inactive)
REMARK    1  A    between atoms: C3_3  and  N1_4 
REMARK    2  A    between atoms: N2_7  and  C6_8 
REMARK    3  A    between atoms: C13_15  and  O1_16 
ROOT
HETATM    1  C1  UNL     1       5.659  -5.277   1.421  1.00  0.00     0.013 C 
HETATM    2  C2  UNL     1       5.902  -4.719   2.462  1.00  0.00    -0.087 C 
HETATM    3  C3  UNL     1       6.217  -4.065   3.710  1.00  0.00     0.365 C 
ENDROOT
BRANCH   3   4
HETATM    4  N1  UNL     1       7.609  -3.583   3.737  1.00  0.00     0.105 N 
HETATM    5  C4  UNL     1       8.429  -4.757   3.880  1.00  0.00     0.293 C 
HETATM    6  C5  UNL     1       8.816  -4.937   5.335  1.00  0.00     0.150 C 
HETATM    7  N2  UNL     1       9.635  -3.832   5.704  1.00  0.00    -0.380 N 
HETATM    8  C13 UNL     1       8.998  -2.584   5.542  1.00  0.00     0.244 C 
HETATM    9  C14 UNL     1       7.686  -2.637   4.804  1.00  0.00     0.326 C 
BRANCH   7  10
HETATM   10  C6  UNL     1      10.990  -3.957   5.331  1.00  0.00     0.081 C 
HETATM   11  C7  UNL     1      11.397  -3.067   4.177  1.00  0.00     0.025 C 
HETATM   12  C8  UNL     1      12.612  -2.241   4.458  1.00  0.00     0.002 C 
HETATM   13  C9  UNL     1      13.830  -2.949   4.840  1.00  0.00     0.000 C 
HETATM   14  C10 UNL     1      13.717  -4.339   5.364  1.00  0.00     0.000 C 
HETATM   15  C11 UNL     1      12.905  -5.256   4.520  1.00  0.00     0.002 C 
HETATM   16  C12 UNL     1      11.477  -5.342   5.053  1.00  0.00     0.025 C 
ENDBRANCH   7  10
BRANCH   8  17
HETATM   17  O1  UNL     1       8.682  -2.121   6.849  1.00  0.00    -0.375 OA
ATOM     18  H1  UNL     1       7.842  -1.681   6.782  1.00  0.00     0.212 HD
ENDBRANCH   8  17
ENDBRANCH   3   4
TORSDOF 3
ENDMDL
MODEL 4
REMARK VINA RESULT: -6.039355626      5.156      7.190
REMARK  3 active torsions:
REMARK  status: ('A' for Active; 'I' for Inactive)
REMARK    1  A    between atoms: C3_3  and  N1_4 
REMARK    2  A    between atoms: N2_7  and  C6_8 
REMARK    3  A    between atoms: C13_15  and  O1_16 
ROOT
HETATM    1  C1  UNL     1       3.534  -1.215   9.461  1.00  0.00     0.013 C 
HETATM    2  C2  UNL     1       4.251  -1.115   8.496  1.00  0.00    -0.087 C 
HETATM    3  C3  UNL     1       5.129  -1.005   7.356  1.00  0.00     0.365 C 
ENDROOT
BRANCH   3   4
HETATM    4  N1  UNL     1       5.918  -2.233   7.155  1.00  0.00     0.105 N 
HETATM    5  C4  UNL     1       7.125  -1.822   6.487  1.00  0.00     0.293 C 
HETATM    6  C5  UNL     1       6.993  -2.062   4.996  1.00  0.00     0.150 C 
HETATM    7  N2  UNL     1       6.886  -3.468   4.794  1.00  0.00    -0.380 N 
HETATM    8  C13 UNL     1       5.785  -4.047   5.459  1.00  0.00     0.244 C 
HETATM    9  C14 UNL     1       5.081  -3.133   6.427  1.00  0.00     0.326 C 
BRANCH   7  10
HETATM   10  C6  UNL     1       8.118  -4.155   4.793  1.00  0.00     0.081 C 
HETATM   11  C7  UNL     1       9.149  -3.572   3.852  1.00  0.00     0.025 C 
HETATM   12  C8  UNL     1      10.468  -3.300   4.502  1.00  0.00     0.002 C 
HETATM   13  C9  UNL     1      11.138  -4.422   5.153  1.00  0.00     0.000 C 
HETATM   14  C10 UNL     1      10.332  -5.615   5.536  1.00  0.00     0.000 C 
HETATM   15  C11 UNL     1       9.480  -6.165   4.448  1.00  0.00     0.002 C 
HETATM   16  C12 UNL     1       8.054  -5.631   4.568  1.00  0.00     0.025 C 
ENDBRANCH   7  10
BRANCH   8  17
HETATM   17  O1  UNL     1       4.824  -4.352   4.456  1.00  0.00    -0.375 OA
ATOM     18  H1  UNL     1       4.133  -3.705   4.540  1.00  0.00     0.212 HD
ENDBRANCH   8  17
ENDBRANCH   3   4
TORSDOF 3
ENDMDL
MODEL 5
REMARK VINA RESULT: -5.889947118      5.946      7.911
REMARK  3 active torsions:
REMARK  status: ('A' for Active; 'I' for Inactive)
REMARK    1  A    between atoms: C3_3  and  N1_4 
REMARK    2  A    between atoms: N2_7  and  C6_8 
REMARK    3  A    between atoms: C13_15  and  O1_16 
ROOT
HETATM    1  C1  UNL     1       1.683  -0.012   8.251  1.00  0.00     0.013 C 
HETATM    2  C2  UNL     1       2.752  -0.530   8.461  1.00  0.00    -0.087 C 
HETATM    3  C3  UNL     1       4.025  -1.169   8.695  1.00  0.00     0.365 C 
ENDROOT
BRANCH   3   4
HETATM    4  N1  UNL     1       4.712  -1.491   7.432  1.00  0.00     0.105 N 
HETATM    5  C4  UNL     1       5.466  -2.690   7.688  1.00  0.00     0.293 C 
HETATM    6  C5  UNL     1       6.908  -2.335   7.993  1.00  0.00     0.150 C 
HETATM    7  N2  UNL     1       7.467  -1.757   6.818  1.00  0.00    -0.380 N 
HETATM    8  C13 UNL     1       6.784  -0.602   6.381  1.00  0.00     0.244 C 
HETATM    9  C14 UNL     1       5.480  -0.337   7.086  1.00  0.00     0.326 C 
BRANCH   7  10
HETATM   10  C6  UNL     1       7.904  -2.692   5.857  1.00  0.00     0.081 C 
HETATM   11  C7  UNL     1       9.397  -2.672   5.610  1.00  0.00     0.025 C 
HETATM   12  C8  UNL     1      10.040  -4.018   5.717  1.00  0.00     0.002 C 
HETATM   13  C9  UNL     1       9.526  -5.076   4.853  1.00  0.00     0.000 C 
HETATM   14  C10 UNL     1       8.163  -4.928   4.270  1.00  0.00     0.000 C 
HETATM   15  C11 UNL     1       7.917  -3.628   3.590  1.00  0.00     0.002 C 
HETATM   16  C12 UNL     1       7.207  -2.661   4.535  1.00  0.00     0.025 C 
ENDBRANCH   7  10
BRANCH   8  17
HETATM   17  O1  UNL     1       7.620   0.504   6.698  1.00  0.00    -0.375 OA
ATOM     18  H1  UNL     1       7.090   1.103   7.210  1.00  0.00     0.212 HD
ENDBRANCH   8  17
ENDBRANCH   3   4
TORSDOF 3
ENDMDL
