MODEL 1
REMARK VINA RESULT: -6.873779269      0.000      0.000
REMARK  1 active torsions:
REMARK  status: ('A' for Active; 'I' for Inactive)
REMARK    1  A    between atoms: C1_2  and  N1_3 
ROOT
HETATM    1  N1  UNL     1     -25.545  -2.654 -10.807  1.00  0.00    -0.326 N 
ATOM      2  H1  UNL     1     -25.545  -1.691 -11.143  1.00  0.00     0.168 HD
HETATM    3  C2  UNL     1     -24.440  -3.142 -10.387  1.00  0.00     0.141 C 
HETATM    4  C3  UNL     1     -24.073  -4.445  -9.850  1.00  0.00     0.080 C 
HETATM    5  C4  UNL     1     -24.680  -5.640 -10.480  1.00  0.00     0.014 C 
HETATM    6  C5  UNL     1     -23.595  -6.708 -10.290  1.00  0.00     0.004 C 
HETATM    7  C6  UNL     1     -22.322  -5.945  -9.899  1.00  0.00     0.034 C 
HETATM    8  C7  UNL     1     -22.629  -4.581 -10.374  1.00  0.00     0.153 C 
HETATM    9  O2  UNL     1     -21.921  -3.541  -9.854  1.00  0.00    -0.265 OA
HETATM   10  S1  UNL     1     -22.928  -2.248 -10.357  1.00  0.00     0.310 S 
HETATM   11  O3  UNL     1     -22.935  -1.154  -9.361  1.00  0.00    -0.192 OA
HETATM   12  O4  UNL     1     -22.529  -1.797 -11.734  1.00  0.00    -0.192 OA
ENDROOT
BRANCH   1  13
HETATM   13  C1  UNL     1     -26.769  -3.364 -10.836  1.00  0.00     0.353 C 
HETATM   14  O1  UNL     1     -27.677  -2.961 -11.616  1.00  0.00    -0.283 OA
ENDBRANCH   1  13
TORSDOF 1
ENDMDL
MODEL 2
REMARK VINA RESULT: -6.054306076      1.112      1.183
REMARK  1 active torsions:
REMARK  status: ('A' for Active; 'I' for Inactive)
REMARK    1  A    between atoms: C1_2  and  N1_3 
ROOT
HETATM    1  N1  UNL     1     -24.704  -2.693 -10.281  1.00  0.00    -0.326 N 
ATOM      2  H1  UNL     1     -24.353  -1.753 -10.460  1.00  0.00     0.168 HD
HETATM    3  C2  UNL     1     -23.849  -3.625 -10.091  1.00  0.00     0.141 C 
HETATM    4  C3  UNL     1     -23.980  -5.049  -9.817  1.00  0.00     0.080 C 
HETATM    5  C4  UNL     1     -25.038  -5.791 -10.540  1.00  0.00     0.014 C 
HETATM    6  C5  UNL     1     -24.440  -7.198 -10.663  1.00  0.00     0.004 C 
HETATM    7  C6  UNL     1     -22.950  -7.048 -10.328  1.00  0.00     0.034 C 
HETATM    8  C7  UNL     1     -22.736  -5.603 -10.541  1.00  0.00     0.153 C 
HETATM    9  O2  UNL     1     -21.651  -5.018  -9.962  1.00  0.00    -0.265 OA
HETATM   10  S1  UNL     1     -22.110  -3.375 -10.121  1.00  0.00     0.310 S 
HETATM   11  O3  UNL     1     -21.633  -2.570  -8.975  1.00  0.00    -0.192 OA
HETATM   12  O4  UNL     1     -21.654  -2.844 -11.452  1.00  0.00    -0.192 OA
ENDROOT
BRANCH   1  13
HETATM   13  C1  UNL     1     -26.106  -2.884 -10.259  1.00  0.00     0.353 C 
HETATM   14  O1  UNL     1     -26.734  -2.840 -11.355  1.00  0.00    -0.283 OA
ENDBRANCH   1  13
TORSDOF 1
ENDMDL
MODEL 3
REMARK VINA RESULT: -6.018464443      2.027      3.737
REMARK  1 active torsions:
REMARK  status: ('A' for Active; 'I' for Inactive)
REMARK    1  A    between atoms: C1_2  and  N1_3 
ROOT
HETATM    1  N1  UNL     1     -23.123  -3.051  -9.958  1.00  0.00    -0.326 N 
ATOM      2  H1  UNL     1     -23.489  -2.180  -9.576  1.00  0.00     0.168 HD
HETATM    3  C2  UNL     1     -23.960  -3.968 -10.266  1.00  0.00     0.141 C 
HETATM    4  C3  UNL     1     -23.804  -5.306 -10.819  1.00  0.00     0.080 C 
HETATM    5  C4  UNL     1     -22.671  -6.122 -10.327  1.00  0.00     0.014 C 
HETATM    6  C5  UNL     1     -23.213  -7.553 -10.438  1.00  0.00     0.004 C 
HETATM    7  C6  UNL     1     -24.728  -7.411 -10.635  1.00  0.00     0.034 C 
HETATM    8  C7  UNL     1     -24.972  -6.044 -10.132  1.00  0.00     0.153 C 
HETATM    9  O2  UNL     1     -26.116  -5.411 -10.511  1.00  0.00    -0.265 OA
HETATM   10  S1  UNL     1     -25.699  -3.808 -10.069  1.00  0.00     0.310 S 
HETATM   11  O3  UNL     1     -26.287  -2.823 -11.002  1.00  0.00    -0.192 OA
HETATM   12  O4  UNL     1     -26.069  -3.563  -8.632  1.00  0.00    -0.192 OA
ENDROOT
BRANCH   1  13
HETATM   13  C1  UNL     1     -21.722  -3.169 -10.112  1.00  0.00     0.353 C 
HETATM   14  O1  UNL     1     -21.000  -3.130  -9.076  1.00  0.00    -0.283 OA
ENDBRANCH   1  13
TORSDOF 1
ENDMDL
MODEL 4
REMARK VINA RESULT: -5.449981408      2.084      3.645
REMARK  1 active torsions:
REMARK  status: ('A' for Active; 'I' for Inactive)
REMARK    1  A    between atoms: C1_2  and  N1_3 
ROOT
HETATM    1  N1  UNL     1     -22.305  -5.921 -10.034  1.00  0.00    -0.326 N 
ATOM      2  H1  UNL     1     -21.323  -5.849  -9.770  1.00  0.00     0.168 HD
HETATM    3  C2  UNL     1     -22.923  -4.843 -10.338  1.00  0.00     0.141 C 
HETATM    4  C3  UNL     1     -24.293  -4.570 -10.750  1.00  0.00     0.080 C 
HETATM    5  C4  UNL     1     -25.374  -5.326 -10.077  1.00  0.00     0.014 C 
HETATM    6  C5  UNL     1     -26.548  -4.339 -10.111  1.00  0.00     0.004 C 
HETATM    7  C6  UNL     1     -25.937  -2.977 -10.468  1.00  0.00     0.034 C 
HETATM    8  C7  UNL     1     -24.517  -3.181 -10.118  1.00  0.00     0.153 C 
HETATM    9  O2  UNL     1     -23.591  -2.346 -10.663  1.00  0.00    -0.265 OA
HETATM   10  S1  UNL     1     -22.176  -3.253 -10.328  1.00  0.00     0.310 S 
HETATM   11  O3  UNL     1     -21.169  -3.093 -11.401  1.00  0.00    -0.192 OA
HETATM   12  O4  UNL     1     -21.653  -2.900  -8.963  1.00  0.00    -0.192 OA
ENDROOT
BRANCH   1  13
HETATM   13  C1  UNL     1     -22.897  -7.206 -10.038  1.00  0.00     0.353 C 
HETATM   14  O1  UNL     1     -23.088  -7.773 -11.151  1.00  0.00    -0.283 OA
ENDBRANCH   1  13
TORSDOF 1
ENDMDL
MODEL 5
REMARK VINA RESULT: -5.403776026      2.586      4.051
REMARK  1 active torsions:
REMARK  status: ('A' for Active; 'I' for Inactive)
REMARK    1  A    between atoms: C1_2  and  N1_3 
ROOT
HETATM    1  N1  UNL     1     -24.456  -6.298 -10.361  1.00  0.00    -0.326 N 
ATOM      2  H1  UNL     1     -25.367  -6.746 -10.453  1.00  0.00     0.168 HD
HETATM    3  C2  UNL     1     -24.426  -5.065 -10.024  1.00  0.00     0.141 C 
HETATM    4  C3  UNL     1     -23.336  -4.124  -9.805  1.00  0.00     0.080 C 
HETATM    5  C4  UNL     1     -22.184  -4.184 -10.734  1.00  0.00     0.014 C 
HETATM    6  C5  UNL     1     -21.698  -2.729 -10.762  1.00  0.00     0.004 C 
HETATM    7  C6  UNL     1     -22.830  -1.899 -10.141  1.00  0.00     0.034 C 
HETATM    8  C7  UNL     1     -23.985  -2.809 -10.283  1.00  0.00     0.153 C 
HETATM    9  O2  UNL     1     -25.074  -2.598  -9.494  1.00  0.00    -0.265 OA
HETATM   10  S1  UNL     1     -25.863  -4.104  -9.711  1.00  0.00     0.310 S 
HETATM   11  O3  UNL     1     -26.568  -4.524  -8.480  1.00  0.00    -0.192 OA
HETATM   12  O4  UNL     1     -26.757  -4.043 -10.918  1.00  0.00    -0.192 OA
ENDROOT
BRANCH   1  13
HETATM   13  C1  UNL     1     -23.305  -7.082 -10.616  1.00  0.00     0.353 C 
HETATM   14  O1  UNL     1     -23.466  -8.268 -11.020  1.00  0.00    -0.283 OA
ENDBRANCH   1  13
TORSDOF 1
ENDMDL
