MODEL 1
REMARK VINA RESULT: -7.023709790      0.000      0.000
REMARK  9 active torsions:
REMARK  status: ('A' for Active; 'I' for Inactive)
REMARK    1  A    between atoms: C2_2  and  C3_3 
REMARK    2  A    between atoms: C5_6  and  C6_7 
REMARK    3  A    between atoms: C6_7  and  C7_8 
REMARK    4  A    between atoms: C7_8  and  O2_9 
REMARK    5  A    between atoms: O2_9  and  C8_10 
REMARK    6  A    between atoms: C13_15  and  O3_16 
REMARK    7  A    between atoms: C16_20  and  O4_21 
REMARK    8  A    between atoms: C17_23  and  O5_24 
REMARK    9  A    between atoms: C22_30  and  C23_31 
ROOT
HETATM    1  C3  UNL     1      62.886  78.948  82.164  1.00  0.00     0.116 C 
HETATM    2  O1  UNL     1      64.131  78.813  82.743  1.00  0.00    -0.372 OA
HETATM    3  C4  UNL     1      64.862  79.945  82.939  1.00  0.00     0.183 C 
HETATM    4  C5  UNL     1      64.229  80.808  84.024  1.00  0.00     0.026 C 
HETATM    5  C10 UNL     1      65.030  82.071  84.186  1.00  0.00    -0.009 C 
HETATM    6  C11 UNL     1      64.680  82.788  85.508  1.00  0.00     0.018 C 
HETATM    7  C12 UNL     1      66.506  81.948  84.192  1.00  0.00     0.018 C 
HETATM    8  C13 UNL     1      64.715  83.125  83.141  1.00  0.00     0.127 C 
HETATM    9  C14 UNL     1      63.303  83.538  83.316  1.00  0.00     0.035 C 
HETATM   10  C15 UNL     1      62.324  82.453  83.536  1.00  0.00     0.044 C 
HETATM   11  C16 UNL     1      62.810  81.051  83.556  1.00  0.00     0.102 C 
HETATM   12  C17 UNL     1      62.348  80.326  82.307  1.00  0.00     0.124 C 
HETATM   13  C18 UNL     1      62.285  81.155  81.073  1.00  0.00     0.045 C 
HETATM   14  C19 UNL     1      62.925  80.536  79.831  1.00  0.00     0.009 C 
HETATM   15  C20 UNL     1      62.352  79.155  79.705  1.00  0.00    -0.001 C 
HETATM   16  C21 UNL     1      62.490  78.569  78.368  1.00  0.00     0.027 C 
HETATM   17  C22 UNL     1      61.555  77.416  78.094  1.00  0.00     0.162 C 
HETATM   18  C24 UNL     1      62.710  76.689  77.514  1.00  0.00     0.150 C 
HETATM   19  O8  UNL     1      62.811  75.677  76.857  1.00  0.00    -0.296 OA
HETATM   20  C25 UNL     1      63.636  77.705  78.072  1.00  0.00     0.023 C 
HETATM   21  C26 UNL     1      64.546  78.206  76.945  1.00  0.00     0.024 C 
HETATM   22  C27 UNL     1      64.385  77.157  79.234  1.00  0.00     0.018 C 
HETATM   23  C28 UNL     1      64.415  78.025  80.432  1.00  0.00     0.009 C 
HETATM   24  C29 UNL     1      62.957  78.360  80.812  1.00  0.00     0.032 C 
ENDROOT
BRANCH   4  25
HETATM   25  C6  UNL     1      64.287  80.075  85.330  1.00  0.00     0.042 C 
BRANCH  25  26
HETATM   26  C7  UNL     1      65.388  79.162  85.644  1.00  0.00     0.168 C 
BRANCH  26  27
HETATM   27  O2  UNL     1      64.764  77.950  86.098  1.00  0.00    -0.391 OA
BRANCH  27  28
HETATM   28  C8  UNL     1      64.692  77.948  87.469  1.00  0.00     0.163 C 
HETATM   29  C9  UNL     1      63.302  77.537  87.866  1.00  0.00     0.033 C 
ENDBRANCH  27  28
ENDBRANCH  26  27
ENDBRANCH  25  26
ENDBRANCH   4  25
BRANCH  11  30
HETATM   30  O4  UNL     1      62.034  80.453  84.609  1.00  0.00    -0.386 OA
ATOM     31  H4  UNL     1      61.210  80.921  84.544  1.00  0.00     0.210 HD
ENDBRANCH  11  30
BRANCH   8  32
HETATM   32  O3  UNL     1      65.570  84.188  83.353  1.00  0.00    -0.395 OA
ATOM     33  H3  UNL     1      65.964  84.409  82.518  1.00  0.00     0.210 HD
ENDBRANCH   8  32
BRANCH  12  34
HETATM   34  O5  UNL     1      60.940  80.113  82.561  1.00  0.00    -0.383 OA
ATOM     35  H5  UNL     1      60.888  80.086  83.509  1.00  0.00     0.210 HD
ENDBRANCH  12  34
BRANCH   1  36
HETATM   36  C2  UNL     1      61.987  78.017  82.960  1.00  0.00     0.004 C 
HETATM   37  C1  UNL     1      62.476  77.140  83.822  1.00  0.00     0.010 C 
ENDBRANCH   1  36
BRANCH  17  38
HETATM   38  C23 UNL     1      60.488  77.663  77.119  1.00  0.00     0.184 C 
HETATM   39  O6  UNL     1      59.271  77.657  77.455  1.00  0.00    -0.647 OA
HETATM   40  O7  UNL     1      60.801  77.911  75.784  1.00  0.00    -0.647 OA
ENDBRANCH  17  38
TORSDOF 9
ENDMDL
MODEL 2
REMARK VINA RESULT: -7.003995413      0.784      1.040
REMARK  9 active torsions:
REMARK  status: ('A' for Active; 'I' for Inactive)
REMARK    1  A    between atoms: C2_2  and  C3_3 
REMARK    2  A    between atoms: C5_6  and  C6_7 
REMARK    3  A    between atoms: C6_7  and  C7_8 
REMARK    4  A    between atoms: C7_8  and  O2_9 
REMARK    5  A    between atoms: O2_9  and  C8_10 
REMARK    6  A    between atoms: C13_15  and  O3_16 
REMARK    7  A    between atoms: C16_20  and  O4_21 
REMARK    8  A    between atoms: C17_23  and  O5_24 
REMARK    9  A    between atoms: C22_30  and  C23_31 
ROOT
HETATM    1  C3  UNL     1      63.038  78.960  82.193  1.00  0.00     0.116 C 
HETATM    2  O1  UNL     1      64.307  78.838  82.722  1.00  0.00    -0.372 OA
HETATM    3  C4  UNL     1      65.031  79.979  82.893  1.00  0.00     0.183 C 
HETATM    4  C5  UNL     1      64.431  80.831  84.005  1.00  0.00     0.026 C 
HETATM    5  C10 UNL     1      65.221  82.103  84.140  1.00  0.00    -0.009 C 
HETATM    6  C11 UNL     1      64.914  82.811  85.478  1.00  0.00     0.018 C 
HETATM    7  C12 UNL     1      66.698  81.999  84.088  1.00  0.00     0.018 C 
HETATM    8  C13 UNL     1      64.852  83.156  83.113  1.00  0.00     0.127 C 
HETATM    9  C14 UNL     1      63.443  83.551  83.345  1.00  0.00     0.035 C 
HETATM   10  C15 UNL     1      62.487  82.453  83.598  1.00  0.00     0.044 C 
HETATM   11  C16 UNL     1      62.991  81.057  83.594  1.00  0.00     0.102 C 
HETATM   12  C17 UNL     1      62.490  80.331  82.362  1.00  0.00     0.124 C 
HETATM   13  C18 UNL     1      62.368  81.162  81.134  1.00  0.00     0.045 C 
HETATM   14  C19 UNL     1      62.967  80.555  79.866  1.00  0.00     0.009 C 
HETATM   15  C20 UNL     1      62.406  79.168  79.757  1.00  0.00    -0.001 C 
HETATM   16  C21 UNL     1      62.498  78.588  78.414  1.00  0.00     0.027 C 
HETATM   17  C22 UNL     1      61.568  77.424  78.172  1.00  0.00     0.162 C 
HETATM   18  C24 UNL     1      62.708  76.713  77.544  1.00  0.00     0.150 C 
HETATM   19  O8  UNL     1      62.796  75.706  76.880  1.00  0.00    -0.296 OA
HETATM   20  C25 UNL     1      63.643  77.740  78.069  1.00  0.00     0.023 C 
HETATM   21  C26 UNL     1      64.501  78.256  76.910  1.00  0.00     0.024 C 
HETATM   22  C27 UNL     1      64.444  77.198  79.199  1.00  0.00     0.018 C 
HETATM   23  C28 UNL     1      64.510  78.062  80.399  1.00  0.00     0.009 C 
HETATM   24  C29 UNL     1      63.064  78.377  80.836  1.00  0.00     0.032 C 
ENDROOT
BRANCH   4  25
HETATM   25  C6  UNL     1      64.549  80.094  85.305  1.00  0.00     0.042 C 
BRANCH  25  26
HETATM   26  C7  UNL     1      65.579  79.075  85.513  1.00  0.00     0.168 C 
BRANCH  26  27
HETATM   27  O2  UNL     1      65.784  79.021  86.934  1.00  0.00    -0.391 OA
BRANCH  27  28
HETATM   28  C8  UNL     1      66.659  80.007  87.317  1.00  0.00     0.163 C 
HETATM   29  C9  UNL     1      67.999  79.709  86.703  1.00  0.00     0.033 C 
ENDBRANCH  27  28
ENDBRANCH  26  27
ENDBRANCH  25  26
ENDBRANCH   4  25
BRANCH  11  30
HETATM   30  O4  UNL     1      62.264  80.445  84.674  1.00  0.00    -0.386 OA
ATOM     31  H4  UNL     1      61.367  80.496  84.368  1.00  0.00     0.210 HD
ENDBRANCH  11  30
BRANCH   8  32
HETATM   32  O3  UNL     1      65.701  84.230  83.295  1.00  0.00    -0.395 OA
ATOM     33  H3  UNL     1      65.210  84.910  83.740  1.00  0.00     0.210 HD
ENDBRANCH   8  32
BRANCH  12  34
HETATM   34  O5  UNL     1      61.095  80.098  82.670  1.00  0.00    -0.383 OA
ATOM     35  H5  UNL     1      61.120  79.755  83.555  1.00  0.00     0.210 HD
ENDBRANCH  12  34
BRANCH   1  36
HETATM   36  C2  UNL     1      62.183  78.014  83.020  1.00  0.00     0.004 C 
HETATM   37  C1  UNL     1      62.713  77.184  83.904  1.00  0.00     0.010 C 
ENDBRANCH   1  36
BRANCH  17  38
HETATM   38  C23 UNL     1      60.461  77.660  77.240  1.00  0.00     0.184 C 
HETATM   39  O6  UNL     1      59.259  77.655  77.628  1.00  0.00    -0.647 OA
HETATM   40  O7  UNL     1      60.717  77.900  75.892  1.00  0.00    -0.647 OA
ENDBRANCH  17  38
TORSDOF 9
ENDMDL
MODEL 3
REMARK VINA RESULT: -6.427288685      2.424      4.076
REMARK  9 active torsions:
REMARK  status: ('A' for Active; 'I' for Inactive)
REMARK    1  A    between atoms: C2_2  and  C3_3 
REMARK    2  A    between atoms: C5_6  and  C6_7 
REMARK    3  A    between atoms: C6_7  and  C7_8 
REMARK    4  A    between atoms: C7_8  and  O2_9 
REMARK    5  A    between atoms: O2_9  and  C8_10 
REMARK    6  A    between atoms: C13_15  and  O3_16 
REMARK    7  A    between atoms: C16_20  and  O4_21 
REMARK    8  A    between atoms: C17_23  and  O5_24 
REMARK    9  A    between atoms: C22_30  and  C23_31 
ROOT
HETATM    1  C3  UNL     1      61.705  78.311  81.472  1.00  0.00     0.116 C 
HETATM    2  O1  UNL     1      62.116  79.431  82.165  1.00  0.00    -0.372 OA
HETATM    3  C4  UNL     1      61.383  80.569  82.016  1.00  0.00     0.183 C 
HETATM    4  C5  UNL     1      60.018  80.416  82.676  1.00  0.00     0.026 C 
HETATM    5  C10 UNL     1      59.214  81.668  82.455  1.00  0.00    -0.009 C 
HETATM    6  C11 UNL     1      58.003  81.729  83.412  1.00  0.00     0.018 C 
HETATM    7  C12 UNL     1      59.909  82.965  82.629  1.00  0.00     0.018 C 
HETATM    8  C13 UNL     1      58.563  81.735  81.087  1.00  0.00     0.127 C 
HETATM    9  C14 UNL     1      57.585  80.627  80.988  1.00  0.00     0.035 C 
HETATM   10  C15 UNL     1      58.033  79.311  81.487  1.00  0.00     0.044 C 
HETATM   11  C16 UNL     1      59.407  79.188  82.035  1.00  0.00     0.102 C 
HETATM   12  C17 UNL     1      60.273  78.388  81.081  1.00  0.00     0.124 C 
HETATM   13  C18 UNL     1      59.980  78.582  79.635  1.00  0.00     0.045 C 
HETATM   14  C19 UNL     1      61.197  78.830  78.745  1.00  0.00     0.009 C 
HETATM   15  C20 UNL     1      62.178  77.740  79.059  1.00  0.00    -0.001 C 
HETATM   16  C21 UNL     1      63.199  77.537  78.026  1.00  0.00     0.027 C 
HETATM   17  C22 UNL     1      63.895  76.200  78.091  1.00  0.00     0.162 C 
HETATM   18  C24 UNL     1      65.178  76.919  77.900  1.00  0.00     0.150 C 
HETATM   19  O8  UNL     1      66.305  76.558  77.647  1.00  0.00    -0.296 OA
HETATM   20  C25 UNL     1      64.494  78.213  78.146  1.00  0.00     0.023 C 
HETATM   21  C26 UNL     1      64.831  79.169  76.997  1.00  0.00     0.024 C 
HETATM   22  C27 UNL     1      64.850  78.754  79.485  1.00  0.00     0.018 C 
HETATM   23  C28 UNL     1      63.707  79.214  80.305  1.00  0.00     0.009 C 
HETATM   24  C29 UNL     1      62.706  78.046  80.420  1.00  0.00     0.032 C 
ENDROOT
BRANCH   4  25
HETATM   25  C6  UNL     1      60.202  80.261  84.155  1.00  0.00     0.042 C 
BRANCH  25  26
HETATM   26  C7  UNL     1      61.376  80.808  84.838  1.00  0.00     0.168 C 
BRANCH  26  27
HETATM   27  O2  UNL     1      61.713  79.847  85.852  1.00  0.00    -0.391 OA
BRANCH  27  28
HETATM   28  C8  UNL     1      63.022  80.008  86.231  1.00  0.00     0.163 C 
HETATM   29  C9  UNL     1      63.771  80.622  85.082  1.00  0.00     0.033 C 
ENDBRANCH  27  28
ENDBRANCH  26  27
ENDBRANCH  25  26
ENDBRANCH   4  25
BRANCH  11  30
HETATM   30  O4  UNL     1      59.231  78.309  83.160  1.00  0.00    -0.386 OA
ATOM     31  H4  UNL     1      59.545  77.480  82.821  1.00  0.00     0.210 HD
ENDBRANCH  11  30
BRANCH   8  32
HETATM   32  O3  UNL     1      57.932  82.960  80.988  1.00  0.00    -0.395 OA
ATOM     33  H3  UNL     1      57.272  82.887  80.309  1.00  0.00     0.210 HD
ENDBRANCH   8  32
BRANCH  12  34
HETATM   34  O5  UNL     1      59.799  77.035  81.274  1.00  0.00    -0.383 OA
ATOM     35  H5  UNL     1      60.436  76.661  81.871  1.00  0.00     0.210 HD
ENDBRANCH  12  34
BRANCH   1  36
HETATM   36  C2  UNL     1      61.852  77.168  82.464  1.00  0.00     0.004 C 
HETATM   37  C1  UNL     1      62.522  77.307  83.596  1.00  0.00     0.010 C 
ENDBRANCH   1  36
BRANCH  17  38
HETATM   38  C23 UNL     1      63.601  75.261  77.005  1.00  0.00     0.184 C 
HETATM   39  O6  UNL     1      62.622  75.436  76.226  1.00  0.00    -0.647 OA
HETATM   40  O7  UNL     1      64.406  74.141  76.808  1.00  0.00    -0.647 OA
ENDBRANCH  17  38
TORSDOF 9
ENDMDL
MODEL 4
REMARK VINA RESULT: -6.361877863      1.787      4.457
REMARK  9 active torsions:
REMARK  status: ('A' for Active; 'I' for Inactive)
REMARK    1  A    between atoms: C2_2  and  C3_3 
REMARK    2  A    between atoms: C5_6  and  C6_7 
REMARK    3  A    between atoms: C6_7  and  C7_8 
REMARK    4  A    between atoms: C7_8  and  O2_9 
REMARK    5  A    between atoms: O2_9  and  C8_10 
REMARK    6  A    between atoms: C13_15  and  O3_16 
REMARK    7  A    between atoms: C16_20  and  O4_21 
REMARK    8  A    between atoms: C17_23  and  O5_24 
REMARK    9  A    between atoms: C22_30  and  C23_31 
ROOT
HETATM    1  C3  UNL     1      65.080  79.744  82.799  1.00  0.00     0.116 C 
HETATM    2  O1  UNL     1      64.598  80.961  83.236  1.00  0.00    -0.372 OA
HETATM    3  C4  UNL     1      63.723  80.956  84.279  1.00  0.00     0.183 C 
HETATM    4  C5  UNL     1      64.429  80.547  85.566  1.00  0.00     0.026 C 
HETATM    5  C10 UNL     1      63.430  80.505  86.690  1.00  0.00    -0.009 C 
HETATM    6  C11 UNL     1      64.137  80.484  88.064  1.00  0.00     0.018 C 
HETATM    7  C12 UNL     1      62.451  81.614  86.776  1.00  0.00     0.018 C 
HETATM    8  C13 UNL     1      62.606  79.232  86.719  1.00  0.00     0.127 C 
HETATM    9  C14 UNL     1      63.522  78.097  86.974  1.00  0.00     0.035 C 
HETATM   10  C15 UNL     1      64.790  78.093  86.217  1.00  0.00     0.044 C 
HETATM   11  C16 UNL     1      65.051  79.201  85.263  1.00  0.00     0.102 C 
HETATM   12  C17 UNL     1      64.959  78.688  83.839  1.00  0.00     0.124 C 
HETATM   13  C18 UNL     1      63.943  77.627  83.605  1.00  0.00     0.045 C 
HETATM   14  C19 UNL     1      63.039  77.837  82.392  1.00  0.00     0.009 C 
HETATM   15  C20 UNL     1      63.948  78.119  81.232  1.00  0.00    -0.001 C 
HETATM   16  C21 UNL     1      63.327  77.914  79.920  1.00  0.00     0.027 C 
HETATM   17  C22 UNL     1      64.308  77.750  78.785  1.00  0.00     0.162 C 
HETATM   18  C24 UNL     1      63.470  78.687  77.997  1.00  0.00     0.150 C 
HETATM   19  O8  UNL     1      63.446  79.000  76.829  1.00  0.00    -0.296 OA
HETATM   20  C25 UNL     1      62.716  79.049  79.223  1.00  0.00     0.023 C 
HETATM   21  C26 UNL     1      61.219  78.899  78.936  1.00  0.00     0.024 C 
HETATM   22  C27 UNL     1      63.092  80.409  79.694  1.00  0.00     0.018 C 
HETATM   23  C28 UNL     1      63.397  80.517  81.138  1.00  0.00     0.009 C 
HETATM   24  C29 UNL     1      64.497  79.486  81.468  1.00  0.00     0.032 C 
ENDROOT
BRANCH   4  25
HETATM   25  C6  UNL     1      65.450  81.587  85.917  1.00  0.00     0.042 C 
BRANCH  25  26
HETATM   26  C7  UNL     1      65.427  82.915  85.302  1.00  0.00     0.168 C 
BRANCH  26  27
HETATM   27  O2  UNL     1      66.699  83.057  84.649  1.00  0.00    -0.391 OA
BRANCH  27  28
HETATM   28  C8  UNL     1      66.679  84.151  83.820  1.00  0.00     0.163 C 
HETATM   29  C9  UNL     1      65.300  84.269  83.232  1.00  0.00     0.033 C 
ENDBRANCH  27  28
ENDBRANCH  26  27
ENDBRANCH  25  26
ENDBRANCH   4  25
BRANCH  11  30
HETATM   30  O4  UNL     1      66.454  79.463  85.445  1.00  0.00    -0.386 OA
ATOM     31  H4  UNL     1      66.524  79.547  86.388  1.00  0.00     0.210 HD
ENDBRANCH  11  30
BRANCH   8  32
HETATM   32  O3  UNL     1      61.682  79.359  87.738  1.00  0.00    -0.395 OA
ATOM     33  H3  UNL     1      62.020  80.002  88.351  1.00  0.00     0.210 HD
ENDBRANCH   8  32
BRANCH  12  34
HETATM   34  O5  UNL     1      66.182  77.929  83.690  1.00  0.00    -0.383 OA
ATOM     35  H5  UNL     1      65.996  77.120  84.151  1.00  0.00     0.210 HD
ENDBRANCH  12  34
BRANCH   1  36
HETATM   36  C2  UNL     1      66.560  79.981  82.551  1.00  0.00     0.004 C 
HETATM   37  C1  UNL     1      66.990  80.963  81.775  1.00  0.00     0.010 C 
ENDBRANCH   1  36
BRANCH  17  38
HETATM   38  C23 UNL     1      64.389  76.415  78.184  1.00  0.00     0.184 C 
HETATM   39  O6  UNL     1      65.432  75.709  78.281  1.00  0.00    -0.647 OA
HETATM   40  O7  UNL     1      63.303  75.892  77.485  1.00  0.00    -0.647 OA
ENDBRANCH  17  38
TORSDOF 9
ENDMDL
MODEL 5
REMARK VINA RESULT: -6.331700434      1.677      2.068
REMARK  9 active torsions:
REMARK  status: ('A' for Active; 'I' for Inactive)
REMARK    1  A    between atoms: C2_2  and  C3_3 
REMARK    2  A    between atoms: C5_6  and  C6_7 
REMARK    3  A    between atoms: C6_7  and  C7_8 
REMARK    4  A    between atoms: C7_8  and  O2_9 
REMARK    5  A    between atoms: O2_9  and  C8_10 
REMARK    6  A    between atoms: C13_15  and  O3_16 
REMARK    7  A    between atoms: C16_20  and  O4_21 
REMARK    8  A    between atoms: C17_23  and  O5_24 
REMARK    9  A    between atoms: C22_30  and  C23_31 
ROOT
HETATM    1  C3  UNL     1      61.190  78.233  82.063  1.00  0.00     0.116 C 
HETATM    2  O1  UNL     1      62.263  78.086  82.919  1.00  0.00    -0.372 OA
HETATM    3  C4  UNL     1      62.781  79.213  83.480  1.00  0.00     0.183 C 
HETATM    4  C5  UNL     1      61.803  79.808  84.486  1.00  0.00     0.026 C 
HETATM    5  C10 UNL     1      62.381  81.076  85.053  1.00  0.00    -0.009 C 
HETATM    6  C11 UNL     1      61.634  81.504  86.336  1.00  0.00     0.018 C 
HETATM    7  C12 UNL     1      63.815  81.065  85.427  1.00  0.00     0.018 C 
HETATM    8  C13 UNL     1      62.207  82.279  84.147  1.00  0.00     0.127 C 
HETATM    9  C14 UNL     1      60.756  82.545  84.010  1.00  0.00     0.035 C 
HETATM   10  C15 UNL     1      59.891  81.368  83.787  1.00  0.00     0.044 C 
HETATM   11  C16 UNL     1      60.523  80.027  83.707  1.00  0.00     0.102 C 
HETATM   12  C17 UNL     1      60.472  79.516  82.281  1.00  0.00     0.124 C 
HETATM   13  C18 UNL     1      60.614  80.554  81.224  1.00  0.00     0.045 C 
HETATM   14  C19 UNL     1      61.608  80.227  80.110  1.00  0.00     0.009 C 
HETATM   15  C20 UNL     1      61.254  78.856  79.617  1.00  0.00    -0.001 C 
HETATM   16  C21 UNL     1      61.784  78.541  78.287  1.00  0.00     0.027 C 
HETATM   17  C22 UNL     1      61.092  77.394  77.594  1.00  0.00     0.162 C 
HETATM   18  C24 UNL     1      62.432  76.876  77.228  1.00  0.00     0.150 C 
HETATM   19  O8  UNL     1      62.812  76.016  76.467  1.00  0.00    -0.296 OA
HETATM   20  C25 UNL     1      63.063  77.837  78.166  1.00  0.00     0.023 C 
HETATM   21  C26 UNL     1      64.154  78.607  77.414  1.00  0.00     0.024 C 
HETATM   22  C27 UNL     1      63.566  77.140  79.380  1.00  0.00     0.018 C 
HETATM   23  C28 UNL     1      63.196  77.768  80.668  1.00  0.00     0.009 C 
HETATM   24  C29 UNL     1      61.661  77.915  80.701  1.00  0.00     0.032 C 
ENDROOT
BRANCH   4  25
HETATM   25  C6  UNL     1      61.627  78.851  85.624  1.00  0.00     0.042 C 
BRANCH  25  26
HETATM   26  C7  UNL     1      62.719  77.980  86.065  1.00  0.00     0.168 C 
BRANCH  26  27
HETATM   27  O2  UNL     1      62.455  77.703  87.449  1.00  0.00    -0.391 OA
BRANCH  27  28
HETATM   28  C8  UNL     1      63.620  77.776  88.171  1.00  0.00     0.163 C 
HETATM   29  C9  UNL     1      64.761  77.934  87.205  1.00  0.00     0.033 C 
ENDBRANCH  27  28
ENDBRANCH  26  27
ENDBRANCH  25  26
ENDBRANCH   4  25
BRANCH  11  30
HETATM   30  O4  UNL     1      59.590  79.186  84.408  1.00  0.00    -0.386 OA
ATOM     31  H4  UNL     1      59.280  78.610  83.720  1.00  0.00     0.210 HD
ENDBRANCH  11  30
BRANCH   8  32
HETATM   32  O3  UNL     1      62.849  83.345  84.745  1.00  0.00    -0.395 OA
ATOM     33  H3  UNL     1      62.191  84.002  84.941  1.00  0.00     0.210 HD
ENDBRANCH   8  32
BRANCH  12  34
HETATM   34  O5  UNL     1      59.080  79.153  82.118  1.00  0.00    -0.383 OA
ATOM     35  H5  UNL     1      59.108  78.208  82.032  1.00  0.00     0.210 HD
ENDBRANCH  12  34
BRANCH   1  36
HETATM   36  C2  UNL     1      60.242  77.104  82.434  1.00  0.00     0.004 C 
HETATM   37  C1  UNL     1      60.593  76.145  83.277  1.00  0.00     0.010 C 
ENDBRANCH   1  36
BRANCH  17  38
HETATM   38  C23 UNL     1      60.274  77.737  76.427  1.00  0.00     0.184 C 
HETATM   39  O6  UNL     1      59.015  77.638  76.449  1.00  0.00    -0.647 OA
HETATM   40  O7  UNL     1      60.879  78.187  75.254  1.00  0.00    -0.647 OA
ENDBRANCH  17  38
TORSDOF 9
ENDMDL
