MODEL 1
REMARK VINA RESULT: -8.494885696      0.000      0.000
REMARK  8 active torsions:
REMARK  status: ('A' for Active; 'I' for Inactive)
REMARK    1  A    between atoms: O1_2  and  C2_3 
REMARK    2  A    between atoms: C3_4  and  O2_5 
REMARK    3  A    between atoms: C5_7  and  C6_8 
REMARK    4  A    between atoms: C10_13  and  O4_14 
REMARK    5  A    between atoms: C14_18  and  N1_19 
REMARK    6  A    between atoms: C17_26  and  N4_27 
REMARK    7  A    between atoms: N4_27  and  C18_29 
REMARK    8  A    between atoms: C21_32  and  O5_33 
ROOT
HETATM    1  C2  UNL     1       7.335  35.989  78.607  1.00  0.00     0.137 A 
HETATM    2  C3  UNL     1       7.598  35.943  79.955  1.00  0.00     0.118 A 
HETATM    3  C5  UNL     1       8.793  36.431  80.427  1.00  0.00     0.053 A 
HETATM    4  C8  UNL     1       9.712  36.965  79.556  1.00  0.00    -0.027 A 
HETATM    5  C9  UNL     1       9.415  37.006  78.203  1.00  0.00     0.018 A 
HETATM    6  C10 UNL     1       8.253  36.525  77.680  1.00  0.00     0.116 A 
HETATM    7  C12 UNL     1      10.228  37.648  77.165  1.00  0.00    -0.011 A 
HETATM    8  C13 UNL     1       9.427  38.166  76.196  1.00  0.00     0.045 A 
HETATM    9  C14 UNL     1      10.029  38.567  75.008  1.00  0.00     0.076 A 
HETATM   10  C16 UNL     1      11.405  38.429  74.836  1.00  0.00     0.170 A 
HETATM   11  F1  UNL     1      11.929  38.831  73.662  1.00  0.00    -0.201 F 
HETATM   12  C17 UNL     1      12.204  37.894  75.858  1.00  0.00     0.078 A 
HETATM   13  C23 UNL     1      11.620  37.518  77.031  1.00  0.00    -0.013 A 
HETATM   14  C24 UNL     1      12.597  37.399  78.159  1.00  0.00     0.022 C 
HETATM   15  C25 UNL     1      13.658  38.518  77.938  1.00  0.00     0.015 C 
HETATM   16  C26 UNL     1      11.989  37.990  79.434  1.00  0.00    -0.006 C 
HETATM   17  C27 UNL     1      11.596  39.460  79.185  1.00  0.00     0.011 C 
HETATM   18  C28 UNL     1      11.004  37.293  80.206  1.00  0.00     0.045 C 
ENDROOT
BRANCH  12  19
HETATM   19  N4  UNL     1      13.559  37.520  75.589  1.00  0.00    -0.360 N 
ATOM     20  H4  UNL     1      14.252  37.893  76.239  1.00  0.00     0.161 HD
BRANCH  19  21
HETATM   21  C18 UNL     1      14.081  36.702  74.545  1.00  0.00     0.284 C 
HETATM   22  C19 UNL     1      14.724  35.416  74.997  1.00  0.00     0.057 C 
HETATM   23  C20 UNL     1      16.244  35.499  74.918  1.00  0.00     0.037 C 
HETATM   24  C21 UNL     1      16.735  35.748  73.524  1.00  0.00     0.144 C 
HETATM   25  C22 UNL     1      15.724  36.651  72.814  1.00  0.00     0.266 C 
HETATM   26  N5  UNL     1      15.129  37.467  73.855  1.00  0.00    -0.052 N 
ATOM     27  H52 UNL     1      14.783  38.356  73.495  1.00  0.00     0.279 HD
ATOM     28  H51 UNL     1      15.828  37.833  74.502  1.00  0.00     0.279 HD
BRANCH  24  29
HETATM   29  O5  UNL     1      17.920  36.483  73.623  1.00  0.00    -0.394 OA
ATOM     30  H5  UNL     1      17.935  37.098  72.899  1.00  0.00     0.210 HD
ENDBRANCH  24  29
ENDBRANCH  19  21
ENDBRANCH  12  19
BRANCH   9  31
HETATM   31  N1  UNL     1       9.156  39.130  74.059  1.00  0.00    -0.330 N 
HETATM   32  C15 UNL     1       8.662  38.547  73.063  1.00  0.00     0.201 C 
HETATM   33  N2  UNL     1       7.786  39.314  72.220  1.00  0.00    -0.066 NA
HETATM   34  N3  UNL     1       8.957  37.214  72.738  1.00  0.00    -0.066 NA
ATOM     35  H1  UNL     1       8.900  40.108  74.193  1.00  0.00     0.168 HD
ENDBRANCH   9  31
BRANCH   6  36
HETATM   36  O4  UNL     1       7.911  36.502  76.351  1.00  0.00    -0.352 OA
HETATM   37  C11 UNL     1       8.046  35.299  75.564  1.00  0.00     0.210 C 
ENDBRANCH   6  36
BRANCH   3  38
HETATM   38  C6  UNL     1       9.138  36.412  81.831  1.00  0.00     0.159 C 
HETATM   39  C7  UNL     1       9.285  37.671  82.574  1.00  0.00     0.097 C 
HETATM   40  O3  UNL     1       9.310  35.324  82.409  1.00  0.00    -0.293 OA
ENDBRANCH   3  38
BRANCH   1  41
HETATM   41  O1  UNL     1       6.140  35.493  78.176  1.00  0.00    -0.351 OA
HETATM   42  C1  UNL     1       5.765  34.163  78.001  1.00  0.00     0.210 C 
ENDBRANCH   1  41
BRANCH   2  43
HETATM   43  O2  UNL     1       6.677  35.410  80.864  1.00  0.00    -0.352 OA
HETATM   44  C4  UNL     1       5.622  36.165  81.405  1.00  0.00     0.210 C 
ENDBRANCH   2  43
TORSDOF 8
ENDMDL
MODEL 2
REMARK VINA RESULT: -7.956339536      3.716      7.425
REMARK  8 active torsions:
REMARK  status: ('A' for Active; 'I' for Inactive)
REMARK    1  A    between atoms: O1_2  and  C2_3 
REMARK    2  A    between atoms: C3_4  and  O2_5 
REMARK    3  A    between atoms: C5_7  and  C6_8 
REMARK    4  A    between atoms: C10_13  and  O4_14 
REMARK    5  A    between atoms: C14_18  and  N1_19 
REMARK    6  A    between atoms: C17_26  and  N4_27 
REMARK    7  A    between atoms: N4_27  and  C18_29 
REMARK    8  A    between atoms: C21_32  and  O5_33 
ROOT
HETATM    1  C2  UNL     1      10.898  38.064  73.067  1.00  0.00     0.137 A 
HETATM    2  C3  UNL     1      11.949  37.552  72.344  1.00  0.00     0.118 A 
HETATM    3  C5  UNL     1      13.093  37.164  73.000  1.00  0.00     0.053 A 
HETATM    4  C8  UNL     1      13.179  37.284  74.366  1.00  0.00    -0.027 A 
HETATM    5  C9  UNL     1      12.099  37.794  75.069  1.00  0.00     0.018 A 
HETATM    6  C10 UNL     1      10.948  38.205  74.469  1.00  0.00     0.116 A 
HETATM    7  C12 UNL     1      11.985  37.872  76.529  1.00  0.00    -0.011 A 
HETATM    8  C13 UNL     1      10.692  37.690  76.907  1.00  0.00     0.045 A 
HETATM    9  C14 UNL     1      10.355  38.001  78.221  1.00  0.00     0.076 A 
HETATM   10  C16 UNL     1      11.323  38.484  79.099  1.00  0.00     0.170 A 
HETATM   11  F1  UNL     1      10.935  38.772  80.356  1.00  0.00    -0.201 F 
HETATM   12  C17 UNL     1      12.650  38.657  78.677  1.00  0.00     0.078 A 
HETATM   13  C23 UNL     1      12.988  38.334  77.396  1.00  0.00    -0.013 A 
HETATM   14  C24 UNL     1      14.459  38.134  77.212  1.00  0.00     0.022 C 
HETATM   15  C25 UNL     1      14.980  37.482  78.528  1.00  0.00     0.015 C 
HETATM   16  C26 UNL     1      14.708  36.921  76.311  1.00  0.00    -0.006 C 
HETATM   17  C27 UNL     1      14.046  35.674  76.931  1.00  0.00     0.011 C 
HETATM   18  C28 UNL     1      14.531  36.975  74.890  1.00  0.00     0.045 C 
ENDROOT
BRANCH  12  19
HETATM   19  N4  UNL     1      13.575  39.384  79.492  1.00  0.00    -0.360 N 
ATOM     20  H4  UNL     1      14.445  38.897  79.705  1.00  0.00     0.161 HD
BRANCH  19  21
HETATM   21  C18 UNL     1      13.454  40.690  80.050  1.00  0.00     0.284 C 
HETATM   22  C19 UNL     1      14.622  41.608  79.793  1.00  0.00     0.057 C 
HETATM   23  C20 UNL     1      15.481  41.774  81.041  1.00  0.00     0.037 C 
HETATM   24  C21 UNL     1      14.722  42.368  82.188  1.00  0.00     0.144 C 
HETATM   25  C22 UNL     1      13.280  41.862  82.122  1.00  0.00     0.266 C 
HETATM   26  N5  UNL     1      13.354  40.550  81.509  1.00  0.00    -0.052 N 
ATOM     27  H52 UNL     1      12.574  39.953  81.785  1.00  0.00     0.279 HD
ATOM     28  H51 UNL     1      14.112  39.988  81.895  1.00  0.00     0.279 HD
BRANCH  24  29
HETATM   29  O5  UNL     1      15.270  41.850  83.366  1.00  0.00    -0.394 OA
ATOM     30  H5  UNL     1      14.903  42.343  84.090  1.00  0.00     0.210 HD
ENDBRANCH  24  29
ENDBRANCH  19  21
ENDBRANCH  12  19
BRANCH   9  31
HETATM   31  N1  UNL     1       9.012  37.757  78.565  1.00  0.00    -0.330 N 
HETATM   32  C15 UNL     1       8.601  36.962  79.444  1.00  0.00     0.201 C 
HETATM   33  N2  UNL     1       7.180  36.870  79.636  1.00  0.00    -0.066 NA
HETATM   34  N3  UNL     1       9.464  36.157  80.205  1.00  0.00    -0.066 NA
ATOM     35  H1  UNL     1       8.304  38.277  78.048  1.00  0.00     0.168 HD
ENDBRANCH   9  31
BRANCH   6  36
HETATM   36  O4  UNL     1       9.857  38.751  75.100  1.00  0.00    -0.352 OA
HETATM   37  C11 UNL     1       9.321  40.029  74.695  1.00  0.00     0.210 C 
ENDBRANCH   6  36
BRANCH   3  38
HETATM   38  C6  UNL     1      14.239  36.621  72.304  1.00  0.00     0.159 C 
HETATM   39  C7  UNL     1      15.315  37.510  71.845  1.00  0.00     0.097 C 
HETATM   40  O3  UNL     1      14.311  35.397  72.097  1.00  0.00    -0.293 OA
ENDBRANCH   3  38
BRANCH   1  41
HETATM   41  O1  UNL     1       9.780  38.439  72.382  1.00  0.00    -0.351 OA
HETATM   42  C1  UNL     1       8.709  37.649  71.970  1.00  0.00     0.210 C 
ENDBRANCH   1  41
BRANCH   2  43
HETATM   43  O2  UNL     1      11.885  37.415  70.953  1.00  0.00    -0.352 OA
HETATM   44  C4  UNL     1      12.234  38.454  70.072  1.00  0.00     0.210 C 
ENDBRANCH   2  43
TORSDOF 8
ENDMDL
MODEL 3
REMARK VINA RESULT: -7.427133982      1.006      1.165
REMARK  8 active torsions:
REMARK  status: ('A' for Active; 'I' for Inactive)
REMARK    1  A    between atoms: O1_2  and  C2_3 
REMARK    2  A    between atoms: C3_4  and  O2_5 
REMARK    3  A    between atoms: C5_7  and  C6_8 
REMARK    4  A    between atoms: C10_13  and  O4_14 
REMARK    5  A    between atoms: C14_18  and  N1_19 
REMARK    6  A    between atoms: C17_26  and  N4_27 
REMARK    7  A    between atoms: N4_27  and  C18_29 
REMARK    8  A    between atoms: C21_32  and  O5_33 
ROOT
HETATM    1  C2  UNL     1       7.161  35.688  77.730  1.00  0.00     0.137 A 
HETATM    2  C3  UNL     1       7.251  35.829  79.094  1.00  0.00     0.118 A 
HETATM    3  C5  UNL     1       8.370  36.412  79.639  1.00  0.00     0.053 A 
HETATM    4  C8  UNL     1       9.385  36.852  78.825  1.00  0.00    -0.027 A 
HETATM    5  C9  UNL     1       9.262  36.704  77.452  1.00  0.00     0.018 A 
HETATM    6  C10 UNL     1       8.181  36.123  76.860  1.00  0.00     0.116 A 
HETATM    7  C12 UNL     1      10.192  37.227  76.446  1.00  0.00    -0.011 A 
HETATM    8  C13 UNL     1       9.513  37.587  75.324  1.00  0.00     0.045 A 
HETATM    9  C14 UNL     1      10.256  37.844  74.177  1.00  0.00     0.076 A 
HETATM   10  C16 UNL     1      11.644  37.726  74.197  1.00  0.00     0.170 A 
HETATM   11  F1  UNL     1      12.308  37.983  73.053  1.00  0.00    -0.201 F 
HETATM   12  C17 UNL     1      12.314  37.355  75.373  1.00  0.00     0.078 A 
HETATM   13  C23 UNL     1      11.591  37.122  76.504  1.00  0.00    -0.013 A 
HETATM   14  C24 UNL     1      12.418  37.184  77.751  1.00  0.00     0.022 C 
HETATM   15  C25 UNL     1      13.484  38.295  77.513  1.00  0.00     0.015 C 
HETATM   16  C26 UNL     1      11.645  37.921  78.849  1.00  0.00    -0.006 C 
HETATM   17  C27 UNL     1      11.269  39.332  78.355  1.00  0.00     0.011 C 
HETATM   18  C28 UNL     1      10.579  37.303  79.579  1.00  0.00     0.045 C 
ENDROOT
BRANCH  12  19
HETATM   19  N4  UNL     1      13.697  36.991  75.328  1.00  0.00    -0.360 N 
ATOM     20  H4  UNL     1      14.247  37.260  76.144  1.00  0.00     0.161 HD
BRANCH  19  21
HETATM   21  C18 UNL     1      14.418  36.305  74.307  1.00  0.00     0.284 C 
HETATM   22  C19 UNL     1      15.146  35.064  74.757  1.00  0.00     0.057 C 
HETATM   23  C20 UNL     1      16.647  35.309  74.860  1.00  0.00     0.037 C 
HETATM   24  C21 UNL     1      17.257  35.703  73.550  1.00  0.00     0.144 C 
HETATM   25  C22 UNL     1      16.236  36.543  72.779  1.00  0.00     0.266 C 
HETATM   26  N5  UNL     1      15.444  37.219  73.788  1.00  0.00    -0.052 N 
ATOM     27  H52 UNL     1      15.043  38.090  73.441  1.00  0.00     0.279 HD
ATOM     28  H51 UNL     1      16.023  37.610  74.532  1.00  0.00     0.279 HD
BRANCH  24  29
HETATM   29  O5  UNL     1      18.335  36.549  73.827  1.00  0.00    -0.394 OA
ATOM     30  H5  UNL     1      17.983  37.415  73.991  1.00  0.00     0.210 HD
ENDBRANCH  24  29
ENDBRANCH  19  21
ENDBRANCH  12  19
BRANCH   9  31
HETATM   31  N1  UNL     1       9.504  38.250  73.058  1.00  0.00    -0.330 N 
HETATM   32  C15 UNL     1       9.472  39.400  72.559  1.00  0.00     0.201 C 
HETATM   33  N2  UNL     1       8.634  39.595  71.408  1.00  0.00    -0.066 NA
HETATM   34  N3  UNL     1      10.188  40.482  73.094  1.00  0.00    -0.066 NA
ATOM     35  H1  UNL     1       8.927  37.538  72.610  1.00  0.00     0.168 HD
ENDBRANCH   9  31
BRANCH   6  36
HETATM   36  O4  UNL     1       8.012  35.914  75.514  1.00  0.00    -0.352 OA
HETATM   37  C11 UNL     1       8.299  34.633  74.914  1.00  0.00     0.210 C 
ENDBRANCH   6  36
BRANCH   3  38
HETATM   38  C6  UNL     1       8.534  36.591  81.066  1.00  0.00     0.159 C 
HETATM   39  C7  UNL     1       8.983  35.472  81.904  1.00  0.00     0.097 C 
HETATM   40  O3  UNL     1       8.294  37.698  81.580  1.00  0.00    -0.293 OA
ENDBRANCH   3  38
BRANCH   1  41
HETATM   41  O1  UNL     1       6.036  35.104  77.225  1.00  0.00    -0.351 OA
HETATM   42  C1  UNL     1       5.703  33.752  77.188  1.00  0.00     0.210 C 
ENDBRANCH   1  41
BRANCH   2  43
HETATM   43  O2  UNL     1       6.229  35.395  79.946  1.00  0.00    -0.352 OA
HETATM   44  C4  UNL     1       5.128  36.202  80.282  1.00  0.00     0.210 C 
ENDBRANCH   2  43
TORSDOF 8
ENDMDL
MODEL 4
REMARK VINA RESULT: -6.899066778      3.332      5.285
REMARK  8 active torsions:
REMARK  status: ('A' for Active; 'I' for Inactive)
REMARK    1  A    between atoms: O1_2  and  C2_3 
REMARK    2  A    between atoms: C3_4  and  O2_5 
REMARK    3  A    between atoms: C5_7  and  C6_8 
REMARK    4  A    between atoms: C10_13  and  O4_14 
REMARK    5  A    between atoms: C14_18  and  N1_19 
REMARK    6  A    between atoms: C17_26  and  N4_27 
REMARK    7  A    between atoms: N4_27  and  C18_29 
REMARK    8  A    between atoms: C21_32  and  O5_33 
ROOT
HETATM    1  C2  UNL     1      10.910  38.132  77.955  1.00  0.00     0.137 A 
HETATM    2  C3  UNL     1      12.210  38.365  78.335  1.00  0.00     0.118 A 
HETATM    3  C5  UNL     1      13.229  38.097  77.451  1.00  0.00     0.053 A 
HETATM    4  C8  UNL     1      12.946  37.607  76.200  1.00  0.00    -0.027 A 
HETATM    5  C9  UNL     1      11.624  37.391  75.842  1.00  0.00     0.018 A 
HETATM    6  C10 UNL     1      10.578  37.627  76.682  1.00  0.00     0.116 A 
HETATM    7  C12 UNL     1      11.148  36.991  74.514  1.00  0.00    -0.011 A 
HETATM    8  C13 UNL     1       9.937  37.554  74.261  1.00  0.00     0.045 A 
HETATM    9  C14 UNL     1       9.217  37.071  73.174  1.00  0.00     0.076 A 
HETATM   10  C16 UNL     1       9.734  36.043  72.389  1.00  0.00     0.170 A 
HETATM   11  F1  UNL     1       8.986  35.614  71.353  1.00  0.00    -0.201 F 
HETATM   12  C17 UNL     1      10.989  35.486  72.676  1.00  0.00     0.078 A 
HETATM   13  C23 UNL     1      11.707  35.970  73.728  1.00  0.00    -0.013 A 
HETATM   14  C24 UNL     1      13.162  35.626  73.652  1.00  0.00     0.022 C 
HETATM   15  C25 UNL     1      13.541  35.663  72.141  1.00  0.00     0.015 C 
HETATM   16  C26 UNL     1      14.002  36.836  74.069  1.00  0.00    -0.006 C 
HETATM   17  C27 UNL     1      13.662  38.037  73.163  1.00  0.00     0.011 C 
HETATM   18  C28 UNL     1      14.159  37.222  75.440  1.00  0.00     0.045 C 
ENDROOT
BRANCH  12  19
HETATM   19  N4  UNL     1      11.401  34.274  72.034  1.00  0.00    -0.360 N 
ATOM     20  H4  UNL     1      12.148  34.376  71.346  1.00  0.00     0.161 HD
BRANCH  19  21
HETATM   21  C18 UNL     1      10.919  32.945  72.217  1.00  0.00     0.284 C 
HETATM   22  C19 UNL     1      10.397  32.636  73.597  1.00  0.00     0.057 C 
HETATM   23  C20 UNL     1      11.382  31.778  74.382  1.00  0.00     0.037 C 
HETATM   24  C21 UNL     1      11.647  30.457  73.726  1.00  0.00     0.144 C 
HETATM   25  C22 UNL     1      11.603  30.659  72.209  1.00  0.00     0.266 C 
HETATM   26  N5  UNL     1      12.039  32.023  71.983  1.00  0.00    -0.052 N 
ATOM     27  H52 UNL     1      12.451  32.147  71.059  1.00  0.00     0.279 HD
ATOM     28  H51 UNL     1      12.857  32.263  72.543  1.00  0.00     0.279 HD
BRANCH  24  29
HETATM   29  O5  UNL     1      12.958  30.089  74.038  1.00  0.00    -0.394 OA
ATOM     30  H5  UNL     1      13.337  29.698  73.260  1.00  0.00     0.210 HD
ENDBRANCH  24  29
ENDBRANCH  19  21
ENDBRANCH  12  19
BRANCH   9  31
HETATM   31  N1  UNL     1       7.989  37.718  72.939  1.00  0.00    -0.330 N 
HETATM   32  C15 UNL     1       7.776  38.631  72.105  1.00  0.00     0.201 C 
HETATM   33  N2  UNL     1       6.438  39.151  72.026  1.00  0.00    -0.066 NA
HETATM   34  N3  UNL     1       8.784  39.169  71.290  1.00  0.00    -0.066 NA
ATOM     35  H1  UNL     1       7.194  37.415  73.502  1.00  0.00     0.168 HD
ENDBRANCH   9  31
BRANCH   6  36
HETATM   36  O4  UNL     1       9.252  37.403  76.405  1.00  0.00    -0.352 OA
HETATM   37  C11 UNL     1       8.586  36.203  76.854  1.00  0.00     0.210 C 
ENDBRANCH   6  36
BRANCH   3  38
HETATM   38  C6  UNL     1      14.620  38.314  77.783  1.00  0.00     0.159 C 
HETATM   39  C7  UNL     1      15.410  37.238  78.396  1.00  0.00     0.097 C 
HETATM   40  O3  UNL     1      15.146  39.416  77.547  1.00  0.00    -0.293 OA
ENDBRANCH   3  38
BRANCH   1  41
HETATM   41  O1  UNL     1       9.926  38.409  78.859  1.00  0.00    -0.351 OA
HETATM   42  C1  UNL     1       9.488  37.632  79.928  1.00  0.00     0.210 C 
ENDBRANCH   1  41
BRANCH   2  43
HETATM   43  O2  UNL     1      12.526  38.869  79.601  1.00  0.00    -0.352 OA
HETATM   44  C4  UNL     1      12.596  40.247  79.873  1.00  0.00     0.210 C 
ENDBRANCH   2  43
TORSDOF 8
ENDMDL
MODEL 5
REMARK VINA RESULT: -6.765449764      2.970      8.703
REMARK  8 active torsions:
REMARK  status: ('A' for Active; 'I' for Inactive)
REMARK    1  A    between atoms: O1_2  and  C2_3 
REMARK    2  A    between atoms: C3_4  and  O2_5 
REMARK    3  A    between atoms: C5_7  and  C6_8 
REMARK    4  A    between atoms: C10_13  and  O4_14 
REMARK    5  A    between atoms: C14_18  and  N1_19 
REMARK    6  A    between atoms: C17_26  and  N4_27 
REMARK    7  A    between atoms: N4_27  and  C18_29 
REMARK    8  A    between atoms: C21_32  and  O5_33 
ROOT
HETATM    1  C2  UNL     1      14.227  35.900  72.469  1.00  0.00     0.137 A 
HETATM    2  C3  UNL     1      13.542  35.988  71.281  1.00  0.00     0.118 A 
HETATM    3  C5  UNL     1      12.318  36.613  71.253  1.00  0.00     0.053 A 
HETATM    4  C8  UNL     1      11.790  37.147  72.403  1.00  0.00    -0.027 A 
HETATM    5  C9  UNL     1      12.509  37.051  73.584  1.00  0.00     0.018 A 
HETATM    6  C10 UNL     1      13.719  36.432  73.671  1.00  0.00     0.116 A 
HETATM    7  C12 UNL     1      12.145  37.671  74.863  1.00  0.00    -0.011 A 
HETATM    8  C13 UNL     1      13.266  38.037  75.540  1.00  0.00     0.045 A 
HETATM    9  C14 UNL     1      13.123  38.387  76.879  1.00  0.00     0.076 A 
HETATM   10  C16 UNL     1      11.870  38.352  77.485  1.00  0.00     0.170 A 
HETATM   11  F1  UNL     1      11.796  38.697  78.786  1.00  0.00    -0.201 F 
HETATM   12  C17 UNL     1      10.733  37.972  76.756  1.00  0.00     0.078 A 
HETATM   13  C23 UNL     1      10.865  37.647  75.439  1.00  0.00    -0.013 A 
HETATM   14  C24 UNL     1       9.571  37.705  74.689  1.00  0.00     0.022 C 
HETATM   15  C25 UNL     1       8.762  38.887  75.303  1.00  0.00     0.015 C 
HETATM   16  C26 UNL     1       9.796  38.347  73.317  1.00  0.00    -0.006 C 
HETATM   17  C27 UNL     1      10.401  39.753  73.499  1.00  0.00     0.011 C 
HETATM   18  C28 UNL     1      10.401  37.636  72.231  1.00  0.00     0.045 C 
ENDROOT
BRANCH  12  19
HETATM   19  N4  UNL     1       9.503  37.693  77.435  1.00  0.00    -0.360 N 
ATOM     20  H4  UNL     1       8.719  38.293  77.182  1.00  0.00     0.161 HD
BRANCH  19  21
HETATM   21  C18 UNL     1       9.218  36.696  78.414  1.00  0.00     0.284 C 
HETATM   22  C19 UNL     1       7.953  35.910  78.180  1.00  0.00     0.057 C 
HETATM   23  C20 UNL     1       6.845  36.349  79.130  1.00  0.00     0.037 C 
HETATM   24  C21 UNL     1       7.207  36.146  80.570  1.00  0.00     0.144 C 
HETATM   25  C22 UNL     1       8.709  36.396  80.726  1.00  0.00     0.266 C 
HETATM   26  N5  UNL     1       9.051  37.370  79.708  1.00  0.00    -0.052 N 
ATOM     27  H52 UNL     1       9.871  37.920  79.964  1.00  0.00     0.279 HD
ATOM     28  H51 UNL     1       8.373  38.131  79.661  1.00  0.00     0.279 HD
BRANCH  24  29
HETATM   29  O5  UNL     1       6.562  37.142  81.308  1.00  0.00    -0.394 OA
ATOM     30  H5  UNL     1       5.655  37.163  81.028  1.00  0.00     0.210 HD
ENDBRANCH  24  29
ENDBRANCH  19  21
ENDBRANCH  12  19
BRANCH   9  31
HETATM   31  N1  UNL     1      14.310  38.795  77.517  1.00  0.00    -0.330 N 
HETATM   32  C15 UNL     1      14.985  38.122  78.334  1.00  0.00     0.201 C 
HETATM   33  N2  UNL     1      16.172  38.733  78.865  1.00  0.00    -0.066 NA
HETATM   34  N3  UNL     1      14.608  36.838  78.758  1.00  0.00    -0.066 NA
ATOM     35  H1  UNL     1      14.655  39.728  77.294  1.00  0.00     0.168 HD
ENDBRANCH   9  31
BRANCH   6  36
HETATM   36  O4  UNL     1      14.465  36.271  74.813  1.00  0.00    -0.352 OA
HETATM   37  C11 UNL     1      14.617  34.975  75.429  1.00  0.00     0.210 C 
ENDBRANCH   6  36
BRANCH   3  38
HETATM   38  C6  UNL     1      11.539  36.740  70.040  1.00  0.00     0.159 C 
HETATM   39  C7  UNL     1      11.677  37.932  69.195  1.00  0.00     0.097 C 
HETATM   40  O3  UNL     1      10.753  35.832  69.715  1.00  0.00    -0.293 OA
ENDBRANCH   3  38
BRANCH   1  41
HETATM   41  O1  UNL     1      15.438  35.272  72.458  1.00  0.00    -0.351 OA
HETATM   42  C1  UNL     1      16.700  35.824  72.252  1.00  0.00     0.210 C 
ENDBRANCH   1  41
BRANCH   2  43
HETATM   43  O2  UNL     1      14.059  35.457  70.094  1.00  0.00    -0.352 OA
HETATM   44  C4  UNL     1      13.946  34.096  69.759  1.00  0.00     0.210 C 
ENDBRANCH   2  43
TORSDOF 8
ENDMDL
