MODEL 1
REMARK VINA RESULT: -5.019788754      0.000      0.000
REMARK  15 active torsions:
REMARK  status: ('A' for Active; 'I' for Inactive)
REMARK    1  A    between atoms: C2_2  and  C3_3 
REMARK    2  A    between atoms: C3_3  and  N1_4 
REMARK    3  A    between atoms: N1_4  and  C4_5 
REMARK    4  A    between atoms: N1_4  and  C7_8 
REMARK    5  A    between atoms: C4_5  and  C5_6 
REMARK    6  A    between atoms: C7_8  and  C8_10 
REMARK    7  A    between atoms: C9_11  and  O1_12 
REMARK       I    between atoms: N2_15  and  C11_16 
REMARK    8  A    between atoms: C11_16  and  C12_18 
REMARK    9  A    between atoms: C12_18  and  N3_19 
REMARK   10  A    between atoms: C12_18  and  C18_28 
REMARK       I    between atoms: N3_19  and  C13_21 
REMARK   11  A    between atoms: C13_21  and  O4_23 
REMARK   12  A    between atoms: O4_23  and  C14_24 
REMARK   13  A    between atoms: C22_32  and  C23_33 
REMARK   14  A    between atoms: C23_33  and  O5_34 
REMARK   15  A    between atoms: N4_36  and  O6_38 
ROOT
HETATM    1  C8  UNL     1      -2.860 -14.568  -8.684  1.00  0.00     0.108 C 
HETATM    2  C9  UNL     1      -2.879 -14.347 -10.157  1.00  0.00     0.149 C 
HETATM    3  C10 UNL     1      -3.360 -15.633 -10.771  1.00  0.00     0.159 C 
HETATM    4  N2  UNL     1      -3.639 -16.516  -9.658  1.00  0.00    -0.335 N 
HETATM    5  C11 UNL     1      -4.580 -17.559  -9.609  1.00  0.00     0.244 C 
HETATM    6  O2  UNL     1      -4.821 -18.270  -8.589  1.00  0.00    -0.271 OA
HETATM    7  C22 UNL     1      -2.730 -16.098  -8.579  1.00  0.00     0.176 C 
ENDROOT
BRANCH   5   8
HETATM    8  C12 UNL     1      -5.391 -17.915 -10.802  1.00  0.00     0.186 C 
BRANCH   8   9
HETATM    9  N3  UNL     1      -6.814 -17.919 -10.524  1.00  0.00    -0.323 N 
HETATM   10  C13 UNL     1      -7.622 -16.737 -10.712  1.00  0.00     0.362 C 
HETATM   11  O3  UNL     1      -7.129 -15.657 -11.124  1.00  0.00    -0.238 OA
ATOM     12  H3  UNL     1      -7.255 -18.775 -10.188  1.00  0.00     0.165 HD
BRANCH  10  13
HETATM   13  O4  UNL     1      -8.980 -16.754 -10.444  1.00  0.00    -0.294 OA
BRANCH  13  14
HETATM   14  C14 UNL     1      -9.614 -16.196  -9.340  1.00  0.00     0.061 C 
HETATM   15  C15 UNL     1      -8.855 -16.233  -8.058  1.00  0.00     0.046 C 
HETATM   16  C16 UNL     1     -10.110 -14.787  -9.590  1.00  0.00     0.046 C 
HETATM   17  C17 UNL     1     -10.880 -17.040  -9.115  1.00  0.00     0.046 C 
ENDBRANCH  13  14
ENDBRANCH  10  13
ENDBRANCH   8   9
BRANCH   8  18
HETATM   18  C18 UNL     1      -5.082 -19.340 -11.258  1.00  0.00    -0.022 C 
HETATM   19  C19 UNL     1      -5.358 -19.429 -12.749  1.00  0.00     0.017 C 
HETATM   20  C20 UNL     1      -5.940 -20.340 -10.545  1.00  0.00     0.017 C 
HETATM   21  C21 UNL     1      -3.642 -19.724 -11.052  1.00  0.00     0.017 C 
ENDBRANCH   8  18
ENDBRANCH   5   8
BRANCH   7  22
HETATM   22  C23 UNL     1      -3.080 -16.577  -7.253  1.00  0.00     0.159 C 
HETATM   23  N4  UNL     1      -2.315 -17.430  -6.658  1.00  0.00    -0.249 N 
ATOM     24  H4  UNL     1      -1.474 -17.754  -7.137  1.00  0.00     0.196 HD
BRANCH  22  25
HETATM   25  O5  UNL     1      -4.224 -16.130  -6.614  1.00  0.00    -0.347 OA
ATOM     26  H5  UNL     1      -4.782 -16.731  -6.135  1.00  0.00     0.219 HD
ENDBRANCH  22  25
BRANCH  23  27
HETATM   27  O6  UNL     1      -2.593 -17.920  -5.403  1.00  0.00    -0.288 OA
ATOM     28  H6  UNL     1      -2.308 -18.780  -5.117  1.00  0.00     0.244 HD
ENDBRANCH  23  27
ENDBRANCH   7  22
BRANCH   2  29
HETATM   29  O1  UNL     1      -1.569 -14.050 -10.631  1.00  0.00    -0.393 OA
ATOM     30  H1  UNL     1      -1.603 -13.752 -11.532  1.00  0.00     0.210 HD
ENDBRANCH   2  29
BRANCH   1  31
HETATM   31  C7  UNL     1      -1.781 -13.897  -7.951  1.00  0.00     0.084 C 
HETATM   32  S1  UNL     1      -0.257 -14.509  -7.875  1.00  0.00    -0.065 SA
BRANCH  31  33
HETATM   33  N1  UNL     1      -2.011 -12.681  -7.272  1.00  0.00    -0.375 N 
BRANCH  33  34
HETATM   34  C3  UNL     1      -3.164 -12.492  -6.433  1.00  0.00     0.123 C 
BRANCH  34  35
HETATM   35  C2  UNL     1      -4.077 -11.395  -6.922  1.00  0.00     0.015 C 
HETATM   36  C1  UNL     1      -4.295 -10.451  -5.752  1.00  0.00     0.006 C 
ENDBRANCH  34  35
ENDBRANCH  33  34
BRANCH  33  37
HETATM   37  C4  UNL     1      -1.091 -11.549  -7.386  1.00  0.00     0.123 C 
BRANCH  37  38
HETATM   38  C5  UNL     1      -0.490 -11.204  -6.040  1.00  0.00     0.015 C 
HETATM   39  C6  UNL     1      -0.600  -9.731  -5.745  1.00  0.00     0.006 C 
ENDBRANCH  37  38
ENDBRANCH  33  37
ENDBRANCH  31  33
ENDBRANCH   1  31
TORSDOF 15
ENDMDL
MODEL 2
REMARK VINA RESULT: -4.997925072      8.782     13.294
REMARK  15 active torsions:
REMARK  status: ('A' for Active; 'I' for Inactive)
REMARK    1  A    between atoms: C2_2  and  C3_3 
REMARK    2  A    between atoms: C3_3  and  N1_4 
REMARK    3  A    between atoms: N1_4  and  C4_5 
REMARK    4  A    between atoms: N1_4  and  C7_8 
REMARK    5  A    between atoms: C4_5  and  C5_6 
REMARK    6  A    between atoms: C7_8  and  C8_10 
REMARK    7  A    between atoms: C9_11  and  O1_12 
REMARK       I    between atoms: N2_15  and  C11_16 
REMARK    8  A    between atoms: C11_16  and  C12_18 
REMARK    9  A    between atoms: C12_18  and  N3_19 
REMARK   10  A    between atoms: C12_18  and  C18_28 
REMARK       I    between atoms: N3_19  and  C13_21 
REMARK   11  A    between atoms: C13_21  and  O4_23 
REMARK   12  A    between atoms: O4_23  and  C14_24 
REMARK   13  A    between atoms: C22_32  and  C23_33 
REMARK   14  A    between atoms: C23_33  and  O5_34 
REMARK   15  A    between atoms: N4_36  and  O6_38 
ROOT
HETATM    1  C8  UNL     1       8.091  -8.537  -6.295  1.00  0.00     0.108 C 
HETATM    2  C9  UNL     1       7.272  -7.553  -5.534  1.00  0.00     0.149 C 
HETATM    3  C10 UNL     1       6.056  -7.275  -6.376  1.00  0.00     0.159 C 
HETATM    4  N2  UNL     1       6.189  -8.122  -7.543  1.00  0.00    -0.335 N 
HETATM    5  C11 UNL     1       5.157  -8.664  -8.327  1.00  0.00     0.244 C 
HETATM    6  O2  UNL     1       5.327  -9.444  -9.311  1.00  0.00    -0.271 OA
HETATM    7  C22 UNL     1       7.636  -8.299  -7.745  1.00  0.00     0.176 C 
ENDROOT
BRANCH   5   8
HETATM    8  C12 UNL     1       3.733  -8.347  -8.044  1.00  0.00     0.186 C 
BRANCH   8   9
HETATM    9  N3  UNL     1       2.844  -9.445  -8.372  1.00  0.00    -0.323 N 
HETATM   10  C13 UNL     1       1.876  -9.940  -7.422  1.00  0.00     0.362 C 
HETATM   11  O3  UNL     1       1.761  -9.442  -6.275  1.00  0.00    -0.238 OA
ATOM     12  H3  UNL     1       2.904  -9.878  -9.294  1.00  0.00     0.165 HD
BRANCH  10  13
HETATM   13  O4  UNL     1       1.032 -10.988  -7.748  1.00  0.00    -0.294 OA
BRANCH  13  14
HETATM   14  C14 UNL     1       1.274 -12.342  -7.541  1.00  0.00     0.061 C 
HETATM   15  C15 UNL     1       2.427 -12.924  -8.284  1.00  0.00     0.046 C 
HETATM   16  C16 UNL     1       1.384 -12.707  -6.075  1.00  0.00     0.046 C 
HETATM   17  C17 UNL     1       0.020 -13.073  -8.051  1.00  0.00     0.046 C 
ENDBRANCH  13  14
ENDBRANCH  10  13
ENDBRANCH   8   9
BRANCH   8  18
HETATM   18  C18 UNL     1       3.255  -7.189  -8.919  1.00  0.00    -0.022 C 
HETATM   19  C19 UNL     1       2.259  -6.371  -8.116  1.00  0.00     0.017 C 
HETATM   20  C20 UNL     1       2.586  -7.684 -10.165  1.00  0.00     0.017 C 
HETATM   21  C21 UNL     1       4.367  -6.258  -9.322  1.00  0.00     0.017 C 
ENDBRANCH   8  18
ENDBRANCH   5   8
BRANCH   7  22
HETATM   22  C23 UNL     1       8.010  -9.402  -8.613  1.00  0.00     0.159 C 
HETATM   23  N4  UNL     1       8.456  -9.160  -9.801  1.00  0.00    -0.249 N 
ATOM     24  H4  UNL     1       8.536  -8.190 -10.106  1.00  0.00     0.196 HD
BRANCH  22  25
HETATM   25  O5  UNL     1       7.896 -10.714  -8.186  1.00  0.00    -0.347 OA
ATOM     26  H5  UNL     1       8.137 -11.436  -8.755  1.00  0.00     0.219 HD
ENDBRANCH  22  25
BRANCH  23  27
HETATM   27  O6  UNL     1       8.826 -10.161 -10.668  1.00  0.00    -0.288 OA
ATOM     28  H6  UNL     1       9.407 -10.868 -10.412  1.00  0.00     0.244 HD
ENDBRANCH  23  27
ENDBRANCH   7  22
BRANCH   2  29
HETATM   29  O1  UNL     1       8.003  -6.348  -5.335  1.00  0.00    -0.393 OA
ATOM     30  H1  UNL     1       8.266  -5.978  -6.170  1.00  0.00     0.210 HD
ENDBRANCH   2  29
BRANCH   1  31
HETATM   31  C7  UNL     1       9.545  -8.391  -6.168  1.00  0.00     0.084 C 
HETATM   32  S1  UNL     1      10.438  -7.533  -7.249  1.00  0.00    -0.065 SA
BRANCH  31  33
HETATM   33  N1  UNL     1      10.246  -8.990  -5.099  1.00  0.00    -0.375 N 
BRANCH  33  34
HETATM   34  C3  UNL     1      10.034 -10.365  -4.734  1.00  0.00     0.123 C 
BRANCH  34  35
HETATM   35  C2  UNL     1      10.388 -11.330  -5.836  1.00  0.00     0.015 C 
HETATM   36  C1  UNL     1       9.462 -12.526  -5.687  1.00  0.00     0.006 C 
ENDBRANCH  34  35
ENDBRANCH  33  34
BRANCH  33  37
HETATM   37  C4  UNL     1      11.222  -8.243  -4.305  1.00  0.00     0.123 C 
BRANCH  37  38
HETATM   38  C5  UNL     1      11.451  -8.910  -2.965  1.00  0.00     0.015 C 
HETATM   39  C6  UNL     1      10.932  -8.067  -1.830  1.00  0.00     0.006 C 
ENDBRANCH  37  38
ENDBRANCH  33  37
ENDBRANCH  31  33
ENDBRANCH   1  31
TORSDOF 15
ENDMDL
MODEL 3
REMARK VINA RESULT: -4.980955435      0.658      1.612
REMARK  15 active torsions:
REMARK  status: ('A' for Active; 'I' for Inactive)
REMARK    1  A    between atoms: C2_2  and  C3_3 
REMARK    2  A    between atoms: C3_3  and  N1_4 
REMARK    3  A    between atoms: N1_4  and  C4_5 
REMARK    4  A    between atoms: N1_4  and  C7_8 
REMARK    5  A    between atoms: C4_5  and  C5_6 
REMARK    6  A    between atoms: C7_8  and  C8_10 
REMARK    7  A    between atoms: C9_11  and  O1_12 
REMARK       I    between atoms: N2_15  and  C11_16 
REMARK    8  A    between atoms: C11_16  and  C12_18 
REMARK    9  A    between atoms: C12_18  and  N3_19 
REMARK   10  A    between atoms: C12_18  and  C18_28 
REMARK       I    between atoms: N3_19  and  C13_21 
REMARK   11  A    between atoms: C13_21  and  O4_23 
REMARK   12  A    between atoms: O4_23  and  C14_24 
REMARK   13  A    between atoms: C22_32  and  C23_33 
REMARK   14  A    between atoms: C23_33  and  O5_34 
REMARK   15  A    between atoms: N4_36  and  O6_38 
ROOT
HETATM    1  C8  UNL     1      -2.426 -14.320  -8.787  1.00  0.00     0.108 C 
HETATM    2  C9  UNL     1      -2.405 -14.142 -10.266  1.00  0.00     0.149 C 
HETATM    3  C10 UNL     1      -2.983 -15.401 -10.852  1.00  0.00     0.159 C 
HETATM    4  N2  UNL     1      -3.352 -16.224  -9.719  1.00  0.00    -0.335 N 
HETATM    5  C11 UNL     1      -4.378 -17.183  -9.657  1.00  0.00     0.244 C 
HETATM    6  O2  UNL     1      -4.693 -17.840  -8.621  1.00  0.00    -0.271 OA
HETATM    7  C22 UNL     1      -2.427 -15.852  -8.637  1.00  0.00     0.176 C 
ENDROOT
BRANCH   5   8
HETATM    8  C12 UNL     1      -5.198 -17.505 -10.853  1.00  0.00     0.186 C 
BRANCH   8   9
HETATM    9  N3  UNL     1      -6.614 -17.586 -10.549  1.00  0.00    -0.323 N 
HETATM   10  C13 UNL     1      -7.504 -16.479 -10.805  1.00  0.00     0.362 C 
HETATM   11  O3  UNL     1      -7.093 -15.401 -11.301  1.00  0.00    -0.238 OA
ATOM     12  H3  UNL     1      -6.989 -18.445 -10.146  1.00  0.00     0.165 HD
BRANCH  10  13
HETATM   13  O4  UNL     1      -8.854 -16.570 -10.512  1.00  0.00    -0.294 OA
BRANCH  13  14
HETATM   14  C14 UNL     1      -9.492 -16.074  -9.381  1.00  0.00     0.061 C 
HETATM   15  C15 UNL     1      -8.676 -16.024  -8.135  1.00  0.00     0.046 C 
HETATM   16  C16 UNL     1     -10.142 -14.725  -9.611  1.00  0.00     0.046 C 
HETATM   17  C17 UNL     1     -10.653 -17.042  -9.097  1.00  0.00     0.046 C 
ENDBRANCH  13  14
ENDBRANCH  10  13
ENDBRANCH   8   9
BRANCH   8  18
HETATM   18  C18 UNL     1      -4.839 -18.887 -11.396  1.00  0.00    -0.022 C 
HETATM   19  C19 UNL     1      -5.058 -18.875 -12.899  1.00  0.00     0.017 C 
HETATM   20  C20 UNL     1      -5.697 -19.954 -10.788  1.00  0.00     0.017 C 
HETATM   21  C21 UNL     1      -3.398 -19.254 -11.164  1.00  0.00     0.017 C 
ENDBRANCH   8  18
ENDBRANCH   5   8
BRANCH   7  22
HETATM   22  C23 UNL     1      -2.836 -16.260  -7.304  1.00  0.00     0.159 C 
HETATM   23  N4  UNL     1      -2.169 -17.173  -6.681  1.00  0.00    -0.249 N 
ATOM     24  H4  UNL     1      -1.362 -17.593  -7.143  1.00  0.00     0.196 HD
BRANCH  22  25
HETATM   25  O5  UNL     1      -3.933 -15.682  -6.687  1.00  0.00    -0.347 OA
ATOM     26  H5  UNL     1      -4.594 -16.217  -6.265  1.00  0.00     0.219 HD
ENDBRANCH  22  25
BRANCH  23  27
HETATM   27  O6  UNL     1      -2.507 -17.601  -5.418  1.00  0.00    -0.288 OA
ATOM     28  H6  UNL     1      -2.318 -17.090  -4.639  1.00  0.00     0.244 HD
ENDBRANCH  23  27
ENDBRANCH   7  22
BRANCH   2  29
HETATM   29  O1  UNL     1      -1.068 -13.969 -10.725  1.00  0.00    -0.393 OA
ATOM     30  H1  UNL     1      -0.908 -13.059 -10.944  1.00  0.00     0.210 HD
ENDBRANCH   2  29
BRANCH   1  31
HETATM   31  C7  UNL     1      -1.306 -13.719  -8.055  1.00  0.00     0.084 C 
HETATM   32  S1  UNL     1       0.190 -14.400  -8.026  1.00  0.00    -0.065 SA
BRANCH  31  33
HETATM   33  N1  UNL     1      -1.470 -12.516  -7.335  1.00  0.00    -0.375 N 
BRANCH  33  34
HETATM   34  C3  UNL     1      -0.509 -12.086  -6.356  1.00  0.00     0.123 C 
BRANCH  34  35
HETATM   35  C2  UNL     1      -0.027 -10.675  -6.582  1.00  0.00     0.015 C 
HETATM   36  C1  UNL     1       1.413 -10.773  -7.059  1.00  0.00     0.006 C 
ENDBRANCH  34  35
ENDBRANCH  33  34
BRANCH  33  37
HETATM   37  C4  UNL     1      -2.626 -11.645  -7.546  1.00  0.00     0.123 C 
BRANCH  37  38
HETATM   38  C5  UNL     1      -3.632 -11.802  -6.425  1.00  0.00     0.015 C 
HETATM   39  C6  UNL     1      -3.941 -10.481  -5.768  1.00  0.00     0.006 C 
ENDBRANCH  37  38
ENDBRANCH  33  37
ENDBRANCH  31  33
ENDBRANCH   1  31
TORSDOF 15
ENDMDL
MODEL 4
REMARK VINA RESULT: -4.885218482      1.308      2.202
REMARK  15 active torsions:
REMARK  status: ('A' for Active; 'I' for Inactive)
REMARK    1  A    between atoms: C2_2  and  C3_3 
REMARK    2  A    between atoms: C3_3  and  N1_4 
REMARK    3  A    between atoms: N1_4  and  C4_5 
REMARK    4  A    between atoms: N1_4  and  C7_8 
REMARK    5  A    between atoms: C4_5  and  C5_6 
REMARK    6  A    between atoms: C7_8  and  C8_10 
REMARK    7  A    between atoms: C9_11  and  O1_12 
REMARK       I    between atoms: N2_15  and  C11_16 
REMARK    8  A    between atoms: C11_16  and  C12_18 
REMARK    9  A    between atoms: C12_18  and  N3_19 
REMARK   10  A    between atoms: C12_18  and  C18_28 
REMARK       I    between atoms: N3_19  and  C13_21 
REMARK   11  A    between atoms: C13_21  and  O4_23 
REMARK   12  A    between atoms: O4_23  and  C14_24 
REMARK   13  A    between atoms: C22_32  and  C23_33 
REMARK   14  A    between atoms: C23_33  and  O5_34 
REMARK   15  A    between atoms: N4_36  and  O6_38 
ROOT
HETATM    1  C8  UNL     1      -2.564 -14.611  -8.811  1.00  0.00     0.108 C 
HETATM    2  C9  UNL     1      -2.792 -14.352 -10.260  1.00  0.00     0.149 C 
HETATM    3  C10 UNL     1      -3.749 -15.413 -10.732  1.00  0.00     0.159 C 
HETATM    4  N2  UNL     1      -4.069 -16.199  -9.559  1.00  0.00    -0.335 N 
HETATM    5  C11 UNL     1      -5.256 -16.907  -9.302  1.00  0.00     0.244 C 
HETATM    6  O2  UNL     1      -5.505 -17.539  -8.233  1.00  0.00    -0.271 OA
HETATM    7  C22 UNL     1      -2.889 -16.110  -8.685  1.00  0.00     0.176 C 
ENDROOT
BRANCH   5   8
HETATM    8  C12 UNL     1      -6.347 -16.964 -10.310  1.00  0.00     0.186 C 
BRANCH   8   9
HETATM    9  N3  UNL     1      -7.619 -16.520  -9.774  1.00  0.00    -0.323 N 
HETATM   10  C13 UNL     1      -8.148 -15.211 -10.076  1.00  0.00     0.362 C 
HETATM   11  O3  UNL     1      -7.531 -14.402 -10.813  1.00  0.00    -0.238 OA
ATOM     12  H3  UNL     1      -8.153 -17.147  -9.172  1.00  0.00     0.165 HD
BRANCH  10  13
HETATM   13  O4  UNL     1      -9.365 -14.799  -9.560  1.00  0.00    -0.294 OA
BRANCH  13  14
HETATM   14  C14 UNL     1     -10.613 -14.959 -10.152  1.00  0.00     0.061 C 
HETATM   15  C15 UNL     1     -11.417 -13.718 -10.336  1.00  0.00     0.046 C 
HETATM   16  C16 UNL     1     -10.554 -15.719 -11.461  1.00  0.00     0.046 C 
HETATM   17  C17 UNL     1     -11.417 -15.856  -9.196  1.00  0.00     0.046 C 
ENDBRANCH  13  14
ENDBRANCH  10  13
ENDBRANCH   8   9
BRANCH   8  18
HETATM   18  C18 UNL     1      -6.595 -18.404 -10.753  1.00  0.00    -0.022 C 
HETATM   19  C19 UNL     1      -7.103 -18.377 -12.184  1.00  0.00     0.017 C 
HETATM   20  C20 UNL     1      -7.618 -19.075  -9.887  1.00  0.00     0.017 C 
HETATM   21  C21 UNL     1      -5.347 -19.246 -10.744  1.00  0.00     0.017 C 
ENDBRANCH   8  18
ENDBRANCH   5   8
BRANCH   7  22
HETATM   22  C23 UNL     1      -3.111 -16.496  -7.302  1.00  0.00     0.159 C 
HETATM   23  N4  UNL     1      -2.489 -17.517  -6.815  1.00  0.00    -0.249 N 
ATOM     24  H4  UNL     1      -1.849 -18.035  -7.417  1.00  0.00     0.196 HD
BRANCH  22  25
HETATM   25  O5  UNL     1      -3.983 -15.784  -6.495  1.00  0.00    -0.347 OA
ATOM     26  H5  UNL     1      -3.679 -15.044  -5.983  1.00  0.00     0.219 HD
ENDBRANCH  22  25
BRANCH  23  27
HETATM   27  O6  UNL     1      -2.657 -17.932  -5.514  1.00  0.00    -0.288 OA
ATOM     28  H6  UNL     1      -2.221 -18.700  -5.164  1.00  0.00     0.244 HD
ENDBRANCH  23  27
ENDBRANCH   7  22
BRANCH   2  29
HETATM   29  O1  UNL     1      -1.569 -14.455 -10.980  1.00  0.00    -0.393 OA
ATOM     30  H1  UNL     1      -1.437 -15.346 -11.283  1.00  0.00     0.210 HD
ENDBRANCH   2  29
BRANCH   1  31
HETATM   31  C7  UNL     1      -1.214 -14.321  -8.315  1.00  0.00     0.084 C 
HETATM   32  S1  UNL     1       0.040 -15.364  -8.523  1.00  0.00    -0.065 SA
BRANCH  31  33
HETATM   33  N1  UNL     1      -0.933 -13.119  -7.631  1.00  0.00    -0.375 N 
BRANCH  33  34
HETATM   34  C3  UNL     1       0.305 -12.413  -7.823  1.00  0.00     0.123 C 
BRANCH  34  35
HETATM   35  C2  UNL     1       0.998 -12.072  -6.528  1.00  0.00     0.015 C 
HETATM   36  C1  UNL     1       1.643 -10.709  -6.720  1.00  0.00     0.006 C 
ENDBRANCH  34  35
ENDBRANCH  33  34
BRANCH  33  37
HETATM   37  C4  UNL     1      -1.886 -12.528  -6.691  1.00  0.00     0.123 C 
BRANCH  37  38
HETATM   38  C5  UNL     1      -2.532 -11.292  -7.281  1.00  0.00     0.015 C 
HETATM   39  C6  UNL     1      -4.009 -11.245  -6.988  1.00  0.00     0.006 C 
ENDBRANCH  37  38
ENDBRANCH  33  37
ENDBRANCH  31  33
ENDBRANCH   1  31
TORSDOF 15
ENDMDL
MODEL 5
REMARK VINA RESULT: -4.876534934      2.859      3.585
REMARK  15 active torsions:
REMARK  status: ('A' for Active; 'I' for Inactive)
REMARK    1  A    between atoms: C2_2  and  C3_3 
REMARK    2  A    between atoms: C3_3  and  N1_4 
REMARK    3  A    between atoms: N1_4  and  C4_5 
REMARK    4  A    between atoms: N1_4  and  C7_8 
REMARK    5  A    between atoms: C4_5  and  C5_6 
REMARK    6  A    between atoms: C7_8  and  C8_10 
REMARK    7  A    between atoms: C9_11  and  O1_12 
REMARK       I    between atoms: N2_15  and  C11_16 
REMARK    8  A    between atoms: C11_16  and  C12_18 
REMARK    9  A    between atoms: C12_18  and  N3_19 
REMARK   10  A    between atoms: C12_18  and  C18_28 
REMARK       I    between atoms: N3_19  and  C13_21 
REMARK   11  A    between atoms: C13_21  and  O4_23 
REMARK   12  A    between atoms: O4_23  and  C14_24 
REMARK   13  A    between atoms: C22_32  and  C23_33 
REMARK   14  A    between atoms: C23_33  and  O5_34 
REMARK   15  A    between atoms: N4_36  and  O6_38 
ROOT
HETATM    1  C8  UNL     1      -3.901 -14.847  -9.323  1.00  0.00     0.108 C 
HETATM    2  C9  UNL     1      -2.934 -14.841 -10.456  1.00  0.00     0.149 C 
HETATM    3  C10 UNL     1      -3.493 -15.779 -11.492  1.00  0.00     0.159 C 
HETATM    4  N2  UNL     1      -4.754 -16.246 -10.955  1.00  0.00    -0.335 N 
HETATM    5  C11 UNL     1      -5.889 -16.658 -11.673  1.00  0.00     0.244 C 
HETATM    6  O2  UNL     1      -6.988 -17.010 -11.151  1.00  0.00    -0.271 OA
HETATM    7  C22 UNL     1      -4.604 -16.205  -9.491  1.00  0.00     0.176 C 
ENDROOT
BRANCH   5   8
HETATM    8  C12 UNL     1      -5.878 -16.711 -13.158  1.00  0.00     0.186 C 
BRANCH   8   9
HETATM    9  N3  UNL     1      -7.134 -16.277 -13.738  1.00  0.00    -0.323 N 
HETATM   10  C13 UNL     1      -7.174 -15.338 -14.834  1.00  0.00     0.362 C 
HETATM   11  O3  UNL     1      -6.126 -14.859 -15.333  1.00  0.00    -0.238 OA
ATOM     12  H3  UNL     1      -8.010 -16.643 -13.363  1.00  0.00     0.165 HD
BRANCH  10  13
HETATM   13  O4  UNL     1      -8.381 -14.934 -15.380  1.00  0.00    -0.294 OA
BRANCH  13  14
HETATM   14  C14 UNL     1      -9.208 -13.924 -14.904  1.00  0.00     0.061 C 
HETATM   15  C15 UNL     1      -9.881 -14.185 -13.600  1.00  0.00     0.046 C 
HETATM   16  C16 UNL     1      -8.527 -12.572 -14.855  1.00  0.00     0.046 C 
HETATM   17  C17 UNL     1     -10.331 -13.777 -15.945  1.00  0.00     0.046 C 
ENDBRANCH  13  14
ENDBRANCH  10  13
ENDBRANCH   8   9
BRANCH   8  18
HETATM   18  C18 UNL     1      -5.703 -18.148 -13.645  1.00  0.00    -0.022 C 
HETATM   19  C19 UNL     1      -4.800 -18.126 -14.866  1.00  0.00     0.017 C 
HETATM   20  C20 UNL     1      -7.017 -18.762 -14.022  1.00  0.00     0.017 C 
HETATM   21  C21 UNL     1      -5.045 -19.038 -12.625  1.00  0.00     0.017 C 
ENDBRANCH   8  18
ENDBRANCH   5   8
BRANCH   7  22
HETATM   22  C23 UNL     1      -5.845 -16.264  -8.739  1.00  0.00     0.159 C 
HETATM   23  N4  UNL     1      -6.574 -15.205  -8.621  1.00  0.00    -0.249 N 
ATOM     24  H4  UNL     1      -6.259 -14.341  -9.063  1.00  0.00     0.196 HD
BRANCH  22  25
HETATM   25  O5  UNL     1      -6.262 -17.444  -8.144  1.00  0.00    -0.347 OA
ATOM     26  H5  UNL     1      -7.173 -17.708  -8.170  1.00  0.00     0.219 HD
ENDBRANCH  22  25
BRANCH  23  27
HETATM   27  O6  UNL     1      -7.758 -15.198  -7.922  1.00  0.00    -0.288 OA
ATOM     28  H6  UNL     1      -7.827 -14.854  -7.039  1.00  0.00     0.244 HD
ENDBRANCH  23  27
ENDBRANCH   7  22
BRANCH   2  29
HETATM   29  O1  UNL     1      -1.661 -15.308 -10.024  1.00  0.00    -0.393 OA
ATOM     30  H1  UNL     1      -1.526 -16.206 -10.301  1.00  0.00     0.210 HD
ENDBRANCH   2  29
BRANCH   1  31
HETATM   31  C7  UNL     1      -3.315 -14.719  -7.984  1.00  0.00     0.084 C 
HETATM   32  S1  UNL     1      -2.954 -16.027  -7.056  1.00  0.00    -0.065 SA
BRANCH  31  33
HETATM   33  N1  UNL     1      -3.035 -13.451  -7.431  1.00  0.00    -0.375 N 
BRANCH  33  34
HETATM   34  C3  UNL     1      -3.943 -12.346  -7.580  1.00  0.00     0.123 C 
BRANCH  34  35
HETATM   35  C2  UNL     1      -3.894 -11.380  -6.422  1.00  0.00     0.015 C 
HETATM   36  C1  UNL     1      -3.560 -10.016  -7.002  1.00  0.00     0.006 C 
ENDBRANCH  34  35
ENDBRANCH  33  34
BRANCH  33  37
HETATM   37  C4  UNL     1      -1.807 -13.193  -6.680  1.00  0.00     0.123 C 
BRANCH  37  38
HETATM   38  C5  UNL     1      -0.696 -12.733  -7.601  1.00  0.00     0.015 C 
HETATM   39  C6  UNL     1       0.080 -11.588  -7.005  1.00  0.00     0.006 C 
ENDBRANCH  37  38
ENDBRANCH  33  37
ENDBRANCH  31  33
ENDBRANCH   1  31
TORSDOF 15
ENDMDL
