MODEL 1
REMARK VINA RESULT: -8.643148485      0.000      0.000
REMARK  9 active torsions:
REMARK  status: ('A' for Active; 'I' for Inactive)
REMARK    1  A    between atoms: C1_2  and  C2_4 
REMARK    2  A    between atoms: C8_10  and  C9_11 
REMARK    3  A    between atoms: C9_11  and  O2_12 
REMARK    4  A    between atoms: C11_15  and  N2_16 
REMARK       I    between atoms: N2_16  and  C12_18 
REMARK    5  A    between atoms: C12_18  and  C13_20 
REMARK    6  A    between atoms: C16_23  and  N3_24 
REMARK    7  A    between atoms: C17_26  and  N4_27 
REMARK    8  A    between atoms: C17_26  and  C18_32 
REMARK    9  A    between atoms: N4_27  and  N5_29 
ROOT
HETATM    1  C13 UNL     1       8.575  -7.036  -0.569  1.00  0.00     0.043 A 
HETATM    2  C14 UNL     1       8.173  -7.162  -1.882  1.00  0.00     0.020 A 
HETATM    3  C15 UNL     1       9.046  -6.860  -2.924  1.00  0.00     0.031 A 
HETATM    4  C16 UNL     1      10.341  -6.426  -2.671  1.00  0.00     0.044 A 
HETATM    5  C23 UNL     1      10.743  -6.303  -1.350  1.00  0.00     0.002 A 
HETATM    6  C24 UNL     1      12.030  -5.907  -1.089  1.00  0.00     0.014 A 
HETATM    7  C25 UNL     1      12.509  -5.789   0.198  1.00  0.00     0.001 A 
HETATM    8  C26 UNL     1      11.618  -6.092   1.213  1.00  0.00     0.001 A 
HETATM    9  C27 UNL     1      10.323  -6.492   0.973  1.00  0.00     0.013 A 
HETATM   10  C28 UNL     1       9.851  -6.610  -0.323  1.00  0.00    -0.008 A 
ENDROOT
BRANCH   1  11
HETATM   11  C12 UNL     1       7.603  -7.284   0.538  1.00  0.00     0.252 C 
HETATM   12  N2  UNL     1       7.235  -8.568   0.891  1.00  0.00    -0.350 N 
ATOM     13  H2  UNL     1       7.721  -9.259   0.320  1.00  0.00     0.163 HD
HETATM   14  O3  UNL     1       7.200  -6.253   1.065  1.00  0.00    -0.268 OA
BRANCH  12  15
HETATM   15  C11 UNL     1       6.375  -9.193   1.822  1.00  0.00     0.112 C 
HETATM   16  C2  UNL     1       6.953 -10.030   2.917  1.00  0.00     0.060 C 
HETATM   17  C3  UNL     1       7.541 -11.331   2.539  1.00  0.00     0.025 C 
HETATM   18  C29 UNL     1       5.715 -10.405   3.813  1.00  0.00     0.025 C 
HETATM   19  C4  UNL     1       6.562 -12.166   1.749  1.00  0.00    -0.012 C 
HETATM   20  C5  UNL     1       5.421 -12.560   2.669  1.00  0.00     0.009 C 
HETATM   21  C10 UNL     1       6.058 -11.343   0.612  1.00  0.00     0.018 C 
HETATM   22  C6  UNL     1       4.755 -11.278   3.097  1.00  0.00    -0.012 C 
HETATM   23  C7  UNL     1       4.208 -10.491   1.943  1.00  0.00     0.018 C 
HETATM   24  C8  UNL     1       5.394 -10.039   1.087  1.00  0.00     0.003 C 
BRANCH  16  25
HETATM   25  C1  UNL     1       7.763  -9.279   3.918  1.00  0.00     0.242 C 
HETATM   26  N1  UNL     1       8.975  -8.698   3.497  1.00  0.00    -0.061 NA
HETATM   27  O1  UNL     1       7.370  -9.170   5.088  1.00  0.00    -0.276 OA
ENDBRANCH  16  25
BRANCH  24  28
HETATM   28  C9  UNL     1       4.776  -9.437  -0.142  1.00  0.00     0.175 C 
BRANCH  28  29
HETATM   29  O2  UNL     1       5.656  -9.838  -1.199  1.00  0.00    -0.400 OA
ATOM     30  H2  UNL     1       5.818 -10.757  -1.021  1.00  0.00     0.209 HD
ENDBRANCH  28  29
ENDBRANCH  24  28
ENDBRANCH  12  15
ENDBRANCH   1  11
BRANCH   4  31
HETATM   31  N3  UNL     1      11.151  -6.129  -3.777  1.00  0.00    -0.344 N 
HETATM   32  C17 UNL     1      11.792  -6.867  -4.560  1.00  0.00     0.106 C 
ATOM     33  H3  UNL     1      11.232  -5.132  -3.980  1.00  0.00     0.167 HD
BRANCH  32  34
HETATM   34  N4  UNL     1      12.560  -6.333  -5.627  1.00  0.00    -0.229 N 
ATOM     35  H4  UNL     1      13.480  -6.735  -5.807  1.00  0.00     0.194 HD
BRANCH  34  36
HETATM   36  N5  UNL     1      12.127  -5.290  -6.445  1.00  0.00    -0.038 N 
HETATM   37  O4  UNL     1      10.974  -4.823  -6.332  1.00  0.00    -0.516 OA
HETATM   38  O5  UNL     1      12.948  -4.733  -7.406  1.00  0.00    -0.516 OA
ENDBRANCH  34  36
ENDBRANCH  32  34
BRANCH  32  39
HETATM   39  C18 UNL     1      11.831  -8.383  -4.483  1.00  0.00     0.061 C 
HETATM   40  C19 UNL     1      12.205  -8.959  -5.809  1.00  0.00     0.018 C 
HETATM   41  C20 UNL     1      13.014 -10.184  -5.516  1.00  0.00     0.080 C 
HETATM   42  C21 UNL     1      13.504 -10.055  -4.112  1.00  0.00     0.244 C 
HETATM   43  F1  UNL     1      13.143 -11.196  -3.398  1.00  0.00    -0.206 F 
HETATM   44  F2  UNL     1      14.900 -10.021  -4.051  1.00  0.00    -0.206 F 
HETATM   45  C22 UNL     1      12.916  -8.806  -3.538  1.00  0.00     0.091 C 
ENDBRANCH  32  39
ENDBRANCH   4  31
TORSDOF 9
ENDMDL
MODEL 2
REMARK VINA RESULT: -8.512961773      4.825     10.708
REMARK  9 active torsions:
REMARK  status: ('A' for Active; 'I' for Inactive)
REMARK    1  A    between atoms: C1_2  and  C2_4 
REMARK    2  A    between atoms: C8_10  and  C9_11 
REMARK    3  A    between atoms: C9_11  and  O2_12 
REMARK    4  A    between atoms: C11_15  and  N2_16 
REMARK       I    between atoms: N2_16  and  C12_18 
REMARK    5  A    between atoms: C12_18  and  C13_20 
REMARK    6  A    between atoms: C16_23  and  N3_24 
REMARK    7  A    between atoms: C17_26  and  N4_27 
REMARK    8  A    between atoms: C17_26  and  C18_32 
REMARK    9  A    between atoms: N4_27  and  N5_29 
ROOT
HETATM    1  C13 UNL     1      14.430  -8.122  -3.361  1.00  0.00     0.043 A 
HETATM    2  C14 UNL     1      15.033  -7.890  -2.143  1.00  0.00     0.020 A 
HETATM    3  C15 UNL     1      14.494  -6.970  -1.247  1.00  0.00     0.031 A 
HETATM    4  C16 UNL     1      13.337  -6.264  -1.554  1.00  0.00     0.044 A 
HETATM    5  C23 UNL     1      12.732  -6.502  -2.778  1.00  0.00     0.002 A 
HETATM    6  C24 UNL     1      11.571  -5.834  -3.078  1.00  0.00     0.014 A 
HETATM    7  C25 UNL     1      10.898  -6.039  -4.262  1.00  0.00     0.001 A 
HETATM    8  C26 UNL     1      11.459  -6.956  -5.135  1.00  0.00     0.001 A 
HETATM    9  C27 UNL     1      12.622  -7.637  -4.853  1.00  0.00     0.013 A 
HETATM   10  C28 UNL     1      13.291  -7.426  -3.659  1.00  0.00    -0.008 A 
ENDROOT
BRANCH   1  11
HETATM   11  C12 UNL     1      15.064  -9.050  -4.346  1.00  0.00     0.252 C 
HETATM   12  N2  UNL     1      16.177  -8.669  -5.071  1.00  0.00    -0.350 N 
ATOM     13  H2  UNL     1      16.473  -7.726  -4.820  1.00  0.00     0.163 HD
HETATM   14  O3  UNL     1      14.499 -10.135  -4.417  1.00  0.00    -0.268 OA
BRANCH  12  15
HETATM   15  C11 UNL     1      17.019  -9.219  -6.063  1.00  0.00     0.112 C 
HETATM   16  C2  UNL     1      18.306  -9.867  -5.664  1.00  0.00     0.060 C 
HETATM   17  C3  UNL     1      19.391  -8.987  -5.187  1.00  0.00     0.025 C 
HETATM   18  C29 UNL     1      18.860 -10.483  -7.002  1.00  0.00     0.025 C 
HETATM   19  C4  UNL     1      19.683  -7.889  -6.181  1.00  0.00    -0.012 C 
HETATM   20  C5  UNL     1      20.277  -8.520  -7.427  1.00  0.00     0.009 C 
HETATM   21  C10 UNL     1      18.401  -7.199  -6.504  1.00  0.00     0.018 C 
HETATM   22  C6  UNL     1      19.221  -9.436  -7.988  1.00  0.00    -0.012 C 
HETATM   23  C7  UNL     1      17.958  -8.713  -8.356  1.00  0.00     0.018 C 
HETATM   24  C8  UNL     1      17.344  -8.166  -7.064  1.00  0.00     0.003 C 
BRANCH  16  25
HETATM   25  C1  UNL     1      18.156 -11.116  -4.864  1.00  0.00     0.242 C 
HETATM   26  N1  UNL     1      17.157 -12.035  -5.241  1.00  0.00    -0.061 NA
HETATM   27  O1  UNL     1      18.897 -11.334  -3.895  1.00  0.00    -0.276 OA
ENDBRANCH  16  25
BRANCH  24  28
HETATM   28  C9  UNL     1      16.208  -7.295  -7.517  1.00  0.00     0.175 C 
BRANCH  28  29
HETATM   29  O2  UNL     1      16.139  -6.275  -6.513  1.00  0.00    -0.400 OA
ATOM     30  H2  UNL     1      15.392  -5.750  -6.774  1.00  0.00     0.209 HD
ENDBRANCH  28  29
ENDBRANCH  24  28
ENDBRANCH  12  15
ENDBRANCH   1  11
BRANCH   4  31
HETATM   31  N3  UNL     1      12.870  -5.345  -0.603  1.00  0.00    -0.344 N 
HETATM   32  C17 UNL     1      11.947  -5.421   0.241  1.00  0.00     0.106 C 
ATOM     33  H3  UNL     1      13.370  -4.456  -0.598  1.00  0.00     0.167 HD
BRANCH  32  34
HETATM   34  N4  UNL     1      11.646  -4.343   1.114  1.00  0.00    -0.229 N 
ATOM     35  H4  UNL     1      10.675  -4.206   1.392  1.00  0.00     0.194 HD
BRANCH  34  36
HETATM   36  N5  UNL     1      12.604  -3.461   1.614  1.00  0.00    -0.038 N 
HETATM   37  O4  UNL     1      12.558  -3.070   2.799  1.00  0.00    -0.516 OA
HETATM   38  O5  UNL     1      13.634  -2.987   0.826  1.00  0.00    -0.516 OA
ENDBRANCH  34  36
ENDBRANCH  32  34
BRANCH  32  39
HETATM   39  C18 UNL     1      11.059  -6.635   0.446  1.00  0.00     0.061 C 
HETATM   40  C19 UNL     1      10.614  -6.717   1.870  1.00  0.00     0.018 C 
HETATM   41  C20 UNL     1       9.228  -7.281   1.841  1.00  0.00     0.080 C 
HETATM   42  C21 UNL     1       8.706  -7.075   0.458  1.00  0.00     0.244 C 
HETATM   43  F1  UNL     1       8.265  -8.296  -0.048  1.00  0.00    -0.206 F 
HETATM   44  F2  UNL     1       7.574  -6.255   0.449  1.00  0.00    -0.206 F 
HETATM   45  C22 UNL     1       9.804  -6.475  -0.360  1.00  0.00     0.091 C 
ENDBRANCH  32  39
ENDBRANCH   4  31
TORSDOF 9
ENDMDL
MODEL 3
REMARK VINA RESULT: -8.276403014      4.592     10.319
REMARK  9 active torsions:
REMARK  status: ('A' for Active; 'I' for Inactive)
REMARK    1  A    between atoms: C1_2  and  C2_4 
REMARK    2  A    between atoms: C8_10  and  C9_11 
REMARK    3  A    between atoms: C9_11  and  O2_12 
REMARK    4  A    between atoms: C11_15  and  N2_16 
REMARK       I    between atoms: N2_16  and  C12_18 
REMARK    5  A    between atoms: C12_18  and  C13_20 
REMARK    6  A    between atoms: C16_23  and  N3_24 
REMARK    7  A    between atoms: C17_26  and  N4_27 
REMARK    8  A    between atoms: C17_26  and  C18_32 
REMARK    9  A    between atoms: N4_27  and  N5_29 
ROOT
HETATM    1  C13 UNL     1      11.746  -7.534  -4.659  1.00  0.00     0.043 A 
HETATM    2  C14 UNL     1      12.280  -8.245  -3.605  1.00  0.00     0.020 A 
HETATM    3  C15 UNL     1      11.839  -8.022  -2.304  1.00  0.00     0.031 A 
HETATM    4  C16 UNL     1      10.854  -7.081  -2.031  1.00  0.00     0.044 A 
HETATM    5  C23 UNL     1      10.317  -6.370  -3.093  1.00  0.00     0.002 A 
HETATM    6  C24 UNL     1       9.320  -5.463  -2.840  1.00  0.00     0.014 A 
HETATM    7  C25 UNL     1       8.720  -4.740  -3.848  1.00  0.00     0.001 A 
HETATM    8  C26 UNL     1       9.180  -4.980  -5.131  1.00  0.00     0.001 A 
HETATM    9  C27 UNL     1      10.178  -5.887  -5.407  1.00  0.00     0.013 A 
HETATM   10  C28 UNL     1      10.774  -6.610  -4.389  1.00  0.00    -0.008 A 
ENDROOT
BRANCH   1  11
HETATM   11  C12 UNL     1      12.285  -7.724  -6.040  1.00  0.00     0.252 C 
HETATM   12  N2  UNL     1      13.351  -6.976  -6.499  1.00  0.00    -0.350 N 
ATOM     13  H2  UNL     1      13.688  -6.337  -5.779  1.00  0.00     0.163 HD
HETATM   14  O3  UNL     1      11.690  -8.588  -6.674  1.00  0.00    -0.268 OA
BRANCH  12  15
HETATM   15  C11 UNL     1      14.107  -6.847  -7.686  1.00  0.00     0.112 C 
HETATM   16  C2  UNL     1      13.434  -6.999  -9.012  1.00  0.00     0.060 C 
HETATM   17  C3  UNL     1      12.999  -8.355  -9.401  1.00  0.00     0.025 C 
HETATM   18  C29 UNL     1      14.550  -6.630 -10.058  1.00  0.00     0.025 C 
HETATM   19  C4  UNL     1      14.137  -9.343  -9.313  1.00  0.00    -0.012 C 
HETATM   20  C5  UNL     1      15.156  -8.990 -10.382  1.00  0.00     0.009 C 
HETATM   21  C10 UNL     1      14.744  -9.235  -7.956  1.00  0.00     0.018 C 
HETATM   22  C6  UNL     1      15.663  -7.610 -10.051  1.00  0.00    -0.012 C 
HETATM   23  C7  UNL     1      16.317  -7.537  -8.703  1.00  0.00     0.018 C 
HETATM   24  C8  UNL     1      15.240  -7.811  -7.650  1.00  0.00     0.003 C 
BRANCH  16  25
HETATM   25  C1  UNL     1      12.437  -5.938  -9.334  1.00  0.00     0.242 C 
HETATM   26  N1  UNL     1      12.745  -5.021 -10.358  1.00  0.00    -0.061 NA
HETATM   27  O1  UNL     1      11.366  -5.874  -8.714  1.00  0.00    -0.276 OA
ENDBRANCH  16  25
BRANCH  24  28
HETATM   28  C9  UNL     1      15.989  -7.921  -6.353  1.00  0.00     0.175 C 
BRANCH  28  29
HETATM   29  O2  UNL     1      16.489  -6.596  -6.134  1.00  0.00    -0.400 OA
ATOM     30  H2  UNL     1      16.961  -6.665  -5.313  1.00  0.00     0.209 HD
ENDBRANCH  28  29
ENDBRANCH  24  28
ENDBRANCH  12  15
ENDBRANCH   1  11
BRANCH   4  31
HETATM   31  N3  UNL     1      10.479  -6.907  -0.691  1.00  0.00    -0.344 N 
HETATM   32  C17 UNL     1      10.841  -6.074   0.172  1.00  0.00     0.106 C 
ATOM     33  H3  UNL     1       9.787  -7.579  -0.359  1.00  0.00     0.167 HD
BRANCH  32  34
HETATM   34  N4  UNL     1      10.317  -6.092   1.491  1.00  0.00    -0.229 N 
ATOM     35  H4  UNL     1      10.920  -5.777   2.252  1.00  0.00     0.194 HD
BRANCH  34  36
HETATM   36  N5  UNL     1       9.027  -6.514   1.805  1.00  0.00    -0.038 N 
HETATM   37  O4  UNL     1       8.156  -6.627   0.918  1.00  0.00    -0.516 OA
HETATM   38  O5  UNL     1       8.659  -6.822   3.100  1.00  0.00    -0.516 OA
ENDBRANCH  34  36
ENDBRANCH  32  34
BRANCH  32  39
HETATM   39  C18 UNL     1      11.849  -4.964  -0.067  1.00  0.00     0.061 C 
HETATM   40  C19 UNL     1      11.798  -3.970   1.047  1.00  0.00     0.018 C 
HETATM   41  C20 UNL     1      13.201  -3.483   1.234  1.00  0.00     0.080 C 
HETATM   42  C21 UNL     1      14.099  -4.496   0.605  1.00  0.00     0.244 C 
HETATM   43  F1  UNL     1      14.936  -3.858  -0.307  1.00  0.00    -0.206 F 
HETATM   44  F2  UNL     1      14.964  -5.074   1.540  1.00  0.00    -0.206 F 
HETATM   45  C22 UNL     1      13.236  -5.536  -0.034  1.00  0.00     0.091 C 
ENDBRANCH  32  39
ENDBRANCH   4  31
TORSDOF 9
ENDMDL
MODEL 4
REMARK VINA RESULT: -8.217645511      3.083      4.298
REMARK  9 active torsions:
REMARK  status: ('A' for Active; 'I' for Inactive)
REMARK    1  A    between atoms: C1_2  and  C2_4 
REMARK    2  A    between atoms: C8_10  and  C9_11 
REMARK    3  A    between atoms: C9_11  and  O2_12 
REMARK    4  A    between atoms: C11_15  and  N2_16 
REMARK       I    between atoms: N2_16  and  C12_18 
REMARK    5  A    between atoms: C12_18  and  C13_20 
REMARK    6  A    between atoms: C16_23  and  N3_24 
REMARK    7  A    between atoms: C17_26  and  N4_27 
REMARK    8  A    between atoms: C17_26  and  C18_32 
REMARK    9  A    between atoms: N4_27  and  N5_29 
ROOT
HETATM    1  C13 UNL     1       8.217  -7.172   0.726  1.00  0.00     0.043 A 
HETATM    2  C14 UNL     1       9.316  -6.536   1.264  1.00  0.00     0.020 A 
HETATM    3  C15 UNL     1      10.467  -6.344   0.505  1.00  0.00     0.031 A 
HETATM    4  C16 UNL     1      10.541  -6.785  -0.811  1.00  0.00     0.044 A 
HETATM    5  C23 UNL     1       9.433  -7.421  -1.349  1.00  0.00     0.002 A 
HETATM    6  C24 UNL     1       9.482  -7.831  -2.658  1.00  0.00     0.014 A 
HETATM    7  C25 UNL     1       8.411  -8.444  -3.270  1.00  0.00     0.001 A 
HETATM    8  C26 UNL     1       7.281  -8.625  -2.490  1.00  0.00     0.001 A 
HETATM    9  C27 UNL     1       7.211  -8.220  -1.176  1.00  0.00     0.013 A 
HETATM   10  C28 UNL     1       8.291  -7.603  -0.570  1.00  0.00    -0.008 A 
ENDROOT
BRANCH   1  11
HETATM   11  C12 UNL     1       7.019  -7.444   1.577  1.00  0.00     0.252 C 
HETATM   12  N2  UNL     1       6.714  -8.726   1.991  1.00  0.00    -0.350 N 
ATOM     13  H2  UNL     1       7.408  -9.395   1.655  1.00  0.00     0.163 HD
HETATM   14  O3  UNL     1       6.380  -6.434   1.846  1.00  0.00    -0.268 OA
BRANCH  12  15
HETATM   15  C11 UNL     1       5.712  -9.373   2.749  1.00  0.00     0.112 C 
HETATM   16  C2  UNL     1       6.104 -10.327   3.831  1.00  0.00     0.060 C 
HETATM   17  C3  UNL     1       6.672 -11.625   3.419  1.00  0.00     0.025 C 
HETATM   18  C29 UNL     1       4.744 -10.698   4.531  1.00  0.00     0.025 C 
HETATM   19  C4  UNL     1       5.766 -12.336   2.444  1.00  0.00    -0.012 C 
HETATM   20  C5  UNL     1       4.497 -12.735   3.177  1.00  0.00     0.009 C 
HETATM   21  C10 UNL     1       5.452 -11.397   1.329  1.00  0.00     0.018 C 
HETATM   22  C6  UNL     1       3.843 -11.454   3.628  1.00  0.00    -0.012 C 
HETATM   23  C7  UNL     1       3.489 -10.547   2.486  1.00  0.00     0.018 C 
HETATM   24  C8  UNL     1       4.796 -10.099   1.828  1.00  0.00     0.003 C 
BRANCH  16  25
HETATM   25  C1  UNL     1       6.812  -9.706   4.987  1.00  0.00     0.242 C 
HETATM   26  N1  UNL     1       6.253  -9.856   6.272  1.00  0.00    -0.061 NA
HETATM   27  O1  UNL     1       7.866  -9.079   4.814  1.00  0.00    -0.276 OA
ENDBRANCH  16  25
BRANCH  24  28
HETATM   28  C9  UNL     1       4.371  -9.366   0.587  1.00  0.00     0.175 C 
BRANCH  28  29
HETATM   29  O2  UNL     1       3.852  -8.126   1.084  1.00  0.00    -0.400 OA
ATOM     30  H2  UNL     1       3.766  -7.589   0.305  1.00  0.00     0.209 HD
ENDBRANCH  28  29
ENDBRANCH  24  28
ENDBRANCH  12  15
ENDBRANCH   1  11
BRANCH   4  31
HETATM   31  N3  UNL     1      11.742  -6.566  -1.500  1.00  0.00    -0.344 N 
HETATM   32  C17 UNL     1      12.834  -6.074  -1.131  1.00  0.00     0.106 C 
ATOM     33  H3  UNL     1      11.724  -6.861  -2.476  1.00  0.00     0.167 HD
BRANCH  32  34
HETATM   34  N4  UNL     1      13.932  -5.947  -2.021  1.00  0.00    -0.229 N 
ATOM     35  H4  UNL     1      14.595  -5.188  -1.861  1.00  0.00     0.194 HD
BRANCH  34  36
HETATM   36  N5  UNL     1      14.156  -6.800  -3.101  1.00  0.00    -0.038 N 
HETATM   37  O4  UNL     1      13.608  -6.593  -4.204  1.00  0.00    -0.516 OA
HETATM   38  O5  UNL     1      14.984  -7.900  -2.997  1.00  0.00    -0.516 OA
ENDBRANCH  34  36
ENDBRANCH  32  34
BRANCH  32  39
HETATM   39  C18 UNL     1      13.125  -5.568   0.270  1.00  0.00     0.061 C 
HETATM   40  C19 UNL     1      14.596  -5.585   0.531  1.00  0.00     0.018 C 
HETATM   41  C20 UNL     1      14.876  -4.406   1.411  1.00  0.00     0.080 C 
HETATM   42  C21 UNL     1      13.720  -3.473   1.266  1.00  0.00     0.244 C 
HETATM   43  F1  UNL     1      13.211  -3.179   2.528  1.00  0.00    -0.206 F 
HETATM   44  F2  UNL     1      14.115  -2.237   0.743  1.00  0.00    -0.206 F 
HETATM   45  C22 UNL     1      12.713  -4.129   0.376  1.00  0.00     0.091 C 
ENDBRANCH  32  39
ENDBRANCH   4  31
TORSDOF 9
ENDMDL
MODEL 5
REMARK VINA RESULT: -8.206229092      3.529      4.515
REMARK  9 active torsions:
REMARK  status: ('A' for Active; 'I' for Inactive)
REMARK    1  A    between atoms: C1_2  and  C2_4 
REMARK    2  A    between atoms: C8_10  and  C9_11 
REMARK    3  A    between atoms: C9_11  and  O2_12 
REMARK    4  A    between atoms: C11_15  and  N2_16 
REMARK       I    between atoms: N2_16  and  C12_18 
REMARK    5  A    between atoms: C12_18  and  C13_20 
REMARK    6  A    between atoms: C16_23  and  N3_24 
REMARK    7  A    between atoms: C17_26  and  N4_27 
REMARK    8  A    between atoms: C17_26  and  C18_32 
REMARK    9  A    between atoms: N4_27  and  N5_29 
ROOT
HETATM    1  C13 UNL     1       8.256  -8.402   2.263  1.00  0.00     0.043 A 
HETATM    2  C14 UNL     1       9.048  -7.770   3.198  1.00  0.00     0.020 A 
HETATM    3  C15 UNL     1       9.892  -6.727   2.824  1.00  0.00     0.031 A 
HETATM    4  C16 UNL     1       9.959  -6.296   1.505  1.00  0.00     0.044 A 
HETATM    5  C23 UNL     1       9.159  -6.932   0.568  1.00  0.00     0.002 A 
HETATM    6  C24 UNL     1       9.192  -6.493  -0.731  1.00  0.00     0.014 A 
HETATM    7  C25 UNL     1       8.405  -7.057  -1.711  1.00  0.00     0.001 A 
HETATM    8  C26 UNL     1       7.579  -8.093  -1.312  1.00  0.00     0.001 A 
HETATM    9  C27 UNL     1       7.529  -8.548  -0.013  1.00  0.00     0.013 A 
HETATM   10  C28 UNL     1       8.322  -7.975   0.965  1.00  0.00    -0.008 A 
ENDROOT
BRANCH   1  11
HETATM   11  C12 UNL     1       7.417  -9.573   2.662  1.00  0.00     0.252 C 
HETATM   12  N2  UNL     1       6.089  -9.414   3.010  1.00  0.00    -0.350 N 
ATOM     13  H2  UNL     1       5.804  -8.437   2.935  1.00  0.00     0.163 HD
HETATM   14  O3  UNL     1       8.028 -10.634   2.636  1.00  0.00    -0.268 OA
BRANCH  12  15
HETATM   15  C11 UNL     1       5.015 -10.223   3.443  1.00  0.00     0.112 C 
HETATM   16  C2  UNL     1       5.279 -11.375   4.358  1.00  0.00     0.060 C 
HETATM   17  C3  UNL     1       5.974 -12.548   3.790  1.00  0.00     0.025 C 
HETATM   18  C29 UNL     1       3.846 -11.910   4.730  1.00  0.00     0.025 C 
HETATM   19  C4  UNL     1       5.273 -13.055   2.553  1.00  0.00    -0.012 C 
HETATM   20  C5  UNL     1       3.927 -13.622   2.967  1.00  0.00     0.009 C 
HETATM   21  C10 UNL     1       5.092 -11.909   1.617  1.00  0.00     0.018 C 
HETATM   22  C6  UNL     1       3.143 -12.477   3.554  1.00  0.00    -0.012 C 
HETATM   23  C7  UNL     1       2.927 -11.357   2.579  1.00  0.00     0.018 C 
HETATM   24  C8  UNL     1       4.296 -10.756   2.253  1.00  0.00     0.003 C 
BRANCH  16  25
HETATM   25  C1  UNL     1       5.760 -10.998   5.717  1.00  0.00     0.242 C 
HETATM   26  N1  UNL     1       5.509 -11.883   6.784  1.00  0.00    -0.061 NA
HETATM   27  O1  UNL     1       6.368  -9.933   5.895  1.00  0.00    -0.276 OA
ENDBRANCH  16  25
BRANCH  24  28
HETATM   28  C9  UNL     1       4.036  -9.788   1.135  1.00  0.00     0.175 C 
BRANCH  28  29
HETATM   29  O2  UNL     1       3.475  -8.647   1.795  1.00  0.00    -0.400 OA
ATOM     30  H2  UNL     1       3.819  -7.910   1.304  1.00  0.00     0.209 HD
ENDBRANCH  28  29
ENDBRANCH  24  28
ENDBRANCH  12  15
ENDBRANCH   1  11
BRANCH   4  31
HETATM   31  N3  UNL     1      10.846  -5.251   1.211  1.00  0.00    -0.344 N 
HETATM   32  C17 UNL     1      12.005  -5.254   0.735  1.00  0.00     0.106 C 
ATOM     33  H3  UNL     1      10.483  -4.321   1.422  1.00  0.00     0.167 HD
BRANCH  32  34
HETATM   34  N4  UNL     1      12.727  -4.050   0.523  1.00  0.00    -0.229 N 
ATOM     35  H4  UNL     1      12.893  -3.752  -0.438  1.00  0.00     0.194 HD
BRANCH  34  36
HETATM   36  N5  UNL     1      13.220  -3.252   1.553  1.00  0.00    -0.038 N 
HETATM   37  O4  UNL     1      12.594  -3.132   2.627  1.00  0.00    -0.516 OA
HETATM   38  O5  UNL     1      14.412  -2.566   1.433  1.00  0.00    -0.516 OA
ENDBRANCH  34  36
ENDBRANCH  32  34
BRANCH  32  39
HETATM   39  C18 UNL     1      12.770  -6.500   0.328  1.00  0.00     0.061 C 
HETATM   40  C19 UNL     1      12.673  -6.709  -1.148  1.00  0.00     0.018 C 
HETATM   41  C20 UNL     1      13.982  -7.300  -1.571  1.00  0.00     0.080 C 
HETATM   42  C21 UNL     1      14.965  -6.995  -0.491  1.00  0.00     0.244 C 
HETATM   43  F1  UNL     1      15.568  -8.180  -0.076  1.00  0.00    -0.206 F 
HETATM   44  F2  UNL     1      16.018  -6.202  -0.958  1.00  0.00    -0.206 F 
HETATM   45  C22 UNL     1      14.230  -6.304   0.613  1.00  0.00     0.091 C 
ENDBRANCH  32  39
ENDBRANCH   4  31
TORSDOF 9
ENDMDL
