MODEL 1
REMARK VINA RESULT: -7.089698786      0.000      0.000
REMARK  7 active torsions:
REMARK  status: ('A' for Active; 'I' for Inactive)
REMARK    1  A    between atoms: C2_2  and  C6_14 
REMARK    2  A    between atoms: N1_3  and  N2_5 
REMARK    3  A    between atoms: N2_5  and  C3_7 
REMARK    4  A    between atoms: N5_16  and  N6_18 
REMARK    5  A    between atoms: C8_19  and  N7_20 
REMARK    6  A    between atoms: N9_25  and  C9_26 
REMARK    7  A    between atoms: C10_32  and  N12_33 
ROOT
HETATM    1  N6  UNL     1      19.116  41.110   2.640  1.00  0.00    -0.029 N 
HETATM    2  C8  UNL     1      18.485  40.167   1.921  1.00  0.00     0.716 A 
HETATM    3  N8  UNL     1      17.825  39.393   2.824  1.00  0.00    -0.118 N 
ATOM      4  H8  UNL     1      17.247  38.585   2.594  1.00  0.00     0.206 HD
HETATM    5  N9  UNL     1      18.046  39.848   4.039  1.00  0.00    -0.167 N 
HETATM    6  C11 UNL     1      18.846  40.916   3.942  1.00  0.00     0.384 A 
HETATM    7  O2  UNL     1      19.258  41.596   4.902  1.00  0.00    -0.242 OA
ENDROOT
BRANCH   1   8
HETATM    8  N5  UNL     1      19.921  42.130   2.117  1.00  0.00    -0.278 N 
HETATM    9  C6  UNL     1      21.208  42.074   2.144  1.00  0.00     0.046 C 
HETATM   10  C7  UNL     1      21.933  40.913   2.735  1.00  0.00     0.072 C 
ATOM     11  H5  UNL     1      19.473  42.947   1.702  1.00  0.00     0.188 HD
BRANCH   9  12
HETATM   12  C2  UNL     1      21.969  43.177   1.580  1.00  0.00     0.045 C 
HETATM   13  C1  UNL     1      22.844  44.000   2.463  1.00  0.00     0.072 C 
HETATM   14  N1  UNL     1      21.883  43.436   0.333  1.00  0.00    -0.301 N 
ATOM     15  H1  UNL     1      21.283  42.871  -0.268  1.00  0.00     0.186 HD
BRANCH  14  16
HETATM   16  N2  UNL     1      22.612  44.491  -0.203  1.00  0.00    -0.271 N 
ATOM     17  H2  UNL     1      22.345  45.450   0.018  1.00  0.00     0.190 HD
BRANCH  16  18
HETATM   18  C3  UNL     1      23.740  44.249  -1.066  1.00  0.00     0.190 C 
HETATM   19  N3  UNL     1      24.344  43.124  -1.226  1.00  0.00    -0.360 N 
HETATM   20  C4  UNL     1      25.427  43.257  -2.167  1.00  0.00     0.142 C 
ATOM     21  H3  UNL     1      24.091  42.257  -0.752  1.00  0.00     0.162 HD
HETATM   22  C5  UNL     1      25.655  44.749  -2.212  1.00  0.00     0.142 C 
HETATM   23  N4  UNL     1      24.344  45.252  -1.866  1.00  0.00    -0.360 N 
ATOM     24  H4  UNL     1      23.937  46.146  -2.141  1.00  0.00     0.162 HD
ENDBRANCH  16  18
ENDBRANCH  14  16
ENDBRANCH   9  12
ENDBRANCH   1   8
BRANCH   2  25
HETATM   25  N7  UNL     1      18.515  40.040   0.627  1.00  0.00    -0.231 N 
ATOM     26  H72 UNL     1      19.266  40.298  -0.013  1.00  0.00     0.174 HD
ATOM     27  H71 UNL     1      17.774  39.653   0.043  1.00  0.00     0.174 HD
ENDBRANCH   2  25
BRANCH   5  28
HETATM   28  C9  UNL     1      17.545  39.329   5.266  1.00  0.00     0.200 A 
HETATM   29  N10 UNL     1      17.219  39.972   6.381  1.00  0.00    -0.220 N 
HETATM   30  O1  UNL     1      16.808  39.116   7.245  1.00  0.00    -0.153 OA
ATOM     31  H10 UNL     1      17.284  40.979   6.528  1.00  0.00     0.198 HD
HETATM   32  N11 UNL     1      16.844  37.929   6.759  1.00  0.00    -0.222 N 
HETATM   33  C10 UNL     1      17.303  37.999   5.506  1.00  0.00     0.169 A 
ATOM     34  H11 UNL     1      16.569  37.076   7.246  1.00  0.00     0.198 HD
BRANCH  33  35
HETATM   35  N12 UNL     1      17.457  36.971   4.744  1.00  0.00    -0.381 N 
ATOM     36 2H12 UNL     1      17.198  36.956   3.758  1.00  0.00     0.157 HD
ATOM     37 1H12 UNL     1      17.835  36.047   4.951  1.00  0.00     0.157 HD
ENDBRANCH  33  35
ENDBRANCH   5  28
TORSDOF 7
ENDMDL
MODEL 2
REMARK VINA RESULT: -6.929066276      2.498      3.149
REMARK  7 active torsions:
REMARK  status: ('A' for Active; 'I' for Inactive)
REMARK    1  A    between atoms: C2_2  and  C6_14 
REMARK    2  A    between atoms: N1_3  and  N2_5 
REMARK    3  A    between atoms: N2_5  and  C3_7 
REMARK    4  A    between atoms: N5_16  and  N6_18 
REMARK    5  A    between atoms: C8_19  and  N7_20 
REMARK    6  A    between atoms: N9_25  and  C9_26 
REMARK    7  A    between atoms: C10_32  and  N12_33 
ROOT
HETATM    1  N6  UNL     1      18.105  40.621   2.817  1.00  0.00    -0.029 N 
HETATM    2  C8  UNL     1      17.387  39.862   1.975  1.00  0.00     0.716 A 
HETATM    3  N8  UNL     1      16.870  38.857   2.732  1.00  0.00    -0.118 N 
ATOM      4  H8  UNL     1      16.273  38.107   2.384  1.00  0.00     0.206 HD
HETATM    5  N9  UNL     1      17.260  39.002   3.981  1.00  0.00    -0.167 N 
HETATM    6  C11 UNL     1      18.028  40.096   4.051  1.00  0.00     0.384 A 
HETATM    7  O2  UNL     1      18.567  40.531   5.087  1.00  0.00    -0.242 OA
ENDROOT
BRANCH   1   8
HETATM    8  N5  UNL     1      18.819  41.776   2.467  1.00  0.00    -0.278 N 
HETATM    9  C6  UNL     1      20.085  41.759   2.233  1.00  0.00     0.046 C 
HETATM   10  C7  UNL     1      20.884  40.503   2.319  1.00  0.00     0.072 C 
ATOM     11  H5  UNL     1      18.317  42.661   2.395  1.00  0.00     0.188 HD
BRANCH   9  12
HETATM   12  C2  UNL     1      20.748  43.002   1.876  1.00  0.00     0.045 C 
HETATM   13  C1  UNL     1      21.792  43.569   2.777  1.00  0.00     0.072 C 
HETATM   14  N1  UNL     1      20.433  43.603   0.795  1.00  0.00    -0.301 N 
ATOM     15  H1  UNL     1      19.717  43.213   0.181  1.00  0.00     0.186 HD
BRANCH  14  16
HETATM   16  N2  UNL     1      21.069  44.791   0.457  1.00  0.00    -0.271 N 
ATOM     17  H2  UNL     1      22.047  44.774   0.169  1.00  0.00     0.190 HD
BRANCH  16  18
HETATM   18  C3  UNL     1      20.366  46.048   0.506  1.00  0.00     0.190 C 
HETATM   19  N3  UNL     1      20.526  46.970   1.389  1.00  0.00    -0.360 N 
HETATM   20  C4  UNL     1      19.655  48.087   1.122  1.00  0.00     0.142 C 
ATOM     21  H3  UNL     1      21.179  46.919   2.171  1.00  0.00     0.162 HD
HETATM   22  C5  UNL     1      18.626  47.497   0.186  1.00  0.00     0.142 C 
HETATM   23  N4  UNL     1      19.380  46.432  -0.437  1.00  0.00    -0.360 N 
ATOM     24  H4  UNL     1      19.233  46.038  -1.366  1.00  0.00     0.162 HD
ENDBRANCH  16  18
ENDBRANCH  14  16
ENDBRANCH   9  12
ENDBRANCH   1   8
BRANCH   2  25
HETATM   25  N7  UNL     1      17.232  40.065   0.699  1.00  0.00    -0.231 N 
ATOM     26  H72 UNL     1      17.147  40.956   0.210  1.00  0.00     0.174 HD
ATOM     27  H71 UNL     1      17.169  39.346  -0.022  1.00  0.00     0.174 HD
ENDBRANCH   2  25
BRANCH   5  28
HETATM   28  C9  UNL     1      16.944  38.170   5.091  1.00  0.00     0.200 A 
HETATM   29  N10 UNL     1      16.887  38.474   6.383  1.00  0.00    -0.220 N 
HETATM   30  O1  UNL     1      16.564  37.421   7.041  1.00  0.00    -0.153 OA
ATOM     31  H10 UNL     1      17.071  39.393   6.785  1.00  0.00     0.198 HD
HETATM   32  N11 UNL     1      16.400  36.425   6.249  1.00  0.00    -0.222 N 
HETATM   33  C10 UNL     1      16.628  36.837   4.999  1.00  0.00     0.169 A 
ATOM     34  H11 UNL     1      16.141  35.478   6.527  1.00  0.00     0.198 HD
BRANCH  33  35
HETATM   35  N12 UNL     1      16.545  36.068   3.968  1.00  0.00    -0.381 N 
ATOM     36 2H12 UNL     1      16.360  36.407   3.024  1.00  0.00     0.157 HD
ATOM     37 1H12 UNL     1      16.638  35.055   3.890  1.00  0.00     0.157 HD
ENDBRANCH  33  35
ENDBRANCH   5  28
TORSDOF 7
ENDMDL
MODEL 3
REMARK VINA RESULT: -6.927291226      1.181      1.277
REMARK  7 active torsions:
REMARK  status: ('A' for Active; 'I' for Inactive)
REMARK    1  A    between atoms: C2_2  and  C6_14 
REMARK    2  A    between atoms: N1_3  and  N2_5 
REMARK    3  A    between atoms: N2_5  and  C3_7 
REMARK    4  A    between atoms: N5_16  and  N6_18 
REMARK    5  A    between atoms: C8_19  and  N7_20 
REMARK    6  A    between atoms: N9_25  and  C9_26 
REMARK    7  A    between atoms: C10_32  and  N12_33 
ROOT
HETATM    1  N6  UNL     1      18.142  40.535   2.764  1.00  0.00    -0.029 N 
HETATM    2  C8  UNL     1      17.379  39.793   1.946  1.00  0.00     0.716 A 
HETATM    3  N8  UNL     1      16.841  38.817   2.726  1.00  0.00    -0.118 N 
ATOM      4  H8  UNL     1      16.210  38.085   2.400  1.00  0.00     0.206 HD
HETATM    5  N9  UNL     1      17.261  38.962   3.965  1.00  0.00    -0.167 N 
HETATM    6  C11 UNL     1      18.070  40.027   4.006  1.00  0.00     0.384 A 
HETATM    7  O2  UNL     1      18.646  40.454   5.026  1.00  0.00    -0.242 OA
ENDROOT
BRANCH   1   8
HETATM    8  N5  UNL     1      18.889  41.659   2.386  1.00  0.00    -0.278 N 
HETATM    9  C6  UNL     1      20.165  41.611   2.214  1.00  0.00     0.046 C 
HETATM   10  C7  UNL     1      20.939  40.352   2.408  1.00  0.00     0.072 C 
ATOM     11  H5  UNL     1      18.406  42.545   2.241  1.00  0.00     0.188 HD
BRANCH   9  12
HETATM   12  C2  UNL     1      20.864  42.824   1.821  1.00  0.00     0.045 C 
HETATM   13  C1  UNL     1      20.394  44.145   2.328  1.00  0.00     0.072 C 
HETATM   14  N1  UNL     1      21.875  42.752   1.046  1.00  0.00    -0.301 N 
ATOM     15  H1  UNL     1      22.193  41.846   0.701  1.00  0.00     0.186 HD
BRANCH  14  16
HETATM   16  N2  UNL     1      22.541  43.913   0.673  1.00  0.00    -0.271 N 
ATOM     17  H2  UNL     1      22.444  44.753   1.243  1.00  0.00     0.190 HD
BRANCH  16  18
HETATM   18  C3  UNL     1      23.365  43.947  -0.508  1.00  0.00     0.190 C 
HETATM   19  N3  UNL     1      23.901  42.931  -1.087  1.00  0.00    -0.360 N 
HETATM   20  C4  UNL     1      24.658  43.344  -2.242  1.00  0.00     0.142 C 
ATOM     21  H3  UNL     1      23.804  41.966  -0.773  1.00  0.00     0.162 HD
HETATM   22  C5  UNL     1      24.854  44.823  -2.007  1.00  0.00     0.142 C 
HETATM   23  N4  UNL     1      23.701  45.142  -1.195  1.00  0.00    -0.360 N 
ATOM     24  H4  UNL     1      23.226  46.042  -1.130  1.00  0.00     0.162 HD
ENDBRANCH  16  18
ENDBRANCH  14  16
ENDBRANCH   9  12
ENDBRANCH   1   8
BRANCH   2  25
HETATM   25  N7  UNL     1      17.205  39.986   0.671  1.00  0.00    -0.231 N 
ATOM     26  H72 UNL     1      16.870  40.829   0.204  1.00  0.00     0.174 HD
ATOM     27  H71 UNL     1      17.381  39.309  -0.070  1.00  0.00     0.174 HD
ENDBRANCH   2  25
BRANCH   5  28
HETATM   28  C9  UNL     1      16.938  38.155   5.092  1.00  0.00     0.200 A 
HETATM   29  N10 UNL     1      16.877  38.487   6.376  1.00  0.00    -0.220 N 
HETATM   30  O1  UNL     1      16.547  37.449   7.056  1.00  0.00    -0.153 OA
ATOM     31  H10 UNL     1      17.062  39.414   6.759  1.00  0.00     0.198 HD
HETATM   32  N11 UNL     1      16.384  36.437   6.285  1.00  0.00    -0.222 N 
HETATM   33  C10 UNL     1      16.618  36.821   5.027  1.00  0.00     0.169 A 
ATOM     34  H11 UNL     1      16.121  35.497   6.581  1.00  0.00     0.198 HD
BRANCH  33  35
HETATM   35  N12 UNL     1      16.537  36.030   4.012  1.00  0.00    -0.381 N 
ATOM     36 2H12 UNL     1      17.099  36.136   3.168  1.00  0.00     0.157 HD
ATOM     37 1H12 UNL     1      15.949  35.211   3.859  1.00  0.00     0.157 HD
ENDBRANCH  33  35
ENDBRANCH   5  28
TORSDOF 7
ENDMDL
MODEL 4
REMARK VINA RESULT: -6.792012363      1.616      2.018
REMARK  7 active torsions:
REMARK  status: ('A' for Active; 'I' for Inactive)
REMARK    1  A    between atoms: C2_2  and  C6_14 
REMARK    2  A    between atoms: N1_3  and  N2_5 
REMARK    3  A    between atoms: N2_5  and  C3_7 
REMARK    4  A    between atoms: N5_16  and  N6_18 
REMARK    5  A    between atoms: C8_19  and  N7_20 
REMARK    6  A    between atoms: N9_25  and  C9_26 
REMARK    7  A    between atoms: C10_32  and  N12_33 
ROOT
HETATM    1  N6  UNL     1      18.604  40.952   3.140  1.00  0.00    -0.029 N 
HETATM    2  C8  UNL     1      17.329  41.367   3.070  1.00  0.00     0.716 A 
HETATM    3  N8  UNL     1      16.589  40.387   3.654  1.00  0.00    -0.118 N 
ATOM      4  H8  UNL     1      15.574  40.401   3.760  1.00  0.00     0.206 HD
HETATM    5  N9  UNL     1      17.382  39.419   4.061  1.00  0.00    -0.167 N 
HETATM    6  C11 UNL     1      18.639  39.756   3.750  1.00  0.00     0.384 A 
HETATM    7  O2  UNL     1      19.649  39.066   3.991  1.00  0.00    -0.242 OA
ENDROOT
BRANCH   1   8
HETATM    8  N5  UNL     1      19.717  41.654   2.658  1.00  0.00    -0.278 N 
HETATM    9  C6  UNL     1      20.393  42.464   3.396  1.00  0.00     0.046 C 
HETATM   10  C7  UNL     1      20.036  42.714   4.822  1.00  0.00     0.072 C 
ATOM     11  H5  UNL     1      20.003  41.517   1.688  1.00  0.00     0.188 HD
BRANCH   9  12
HETATM   12  C2  UNL     1      21.535  43.152   2.816  1.00  0.00     0.045 C 
HETATM   13  C1  UNL     1      22.875  43.033   3.460  1.00  0.00     0.072 C 
HETATM   14  N1  UNL     1      21.386  43.854   1.760  1.00  0.00    -0.301 N 
ATOM     15  H1  UNL     1      20.468  43.933   1.323  1.00  0.00     0.186 HD
BRANCH  14  16
HETATM   16  N2  UNL     1      22.480  44.509   1.209  1.00  0.00    -0.271 N 
ATOM     17  H2  UNL     1      22.908  45.286   1.713  1.00  0.00     0.190 HD
BRANCH  16  18
HETATM   18  C3  UNL     1      23.018  44.108  -0.066  1.00  0.00     0.190 C 
HETATM   19  N3  UNL     1      23.138  42.899  -0.491  1.00  0.00    -0.360 N 
HETATM   20  C4  UNL     1      23.716  42.880  -1.811  1.00  0.00     0.142 C 
ATOM     21  H3  UNL     1      22.862  42.070   0.034  1.00  0.00     0.162 HD
HETATM   22  C5  UNL     1      24.334  44.252  -1.931  1.00  0.00     0.142 C 
HETATM   23  N4  UNL     1      23.500  45.023  -1.036  1.00  0.00    -0.360 N 
ATOM     24  H4  UNL     1      23.300  46.022  -1.091  1.00  0.00     0.162 HD
ENDBRANCH  16  18
ENDBRANCH  14  16
ENDBRANCH   9  12
ENDBRANCH   1   8
BRANCH   2  25
HETATM   25  N7  UNL     1      16.912  42.482   2.545  1.00  0.00    -0.231 N 
ATOM     26  H72 UNL     1      16.668  42.666   1.572  1.00  0.00     0.174 HD
ATOM     27  H71 UNL     1      16.762  43.361   3.039  1.00  0.00     0.174 HD
ENDBRANCH   2  25
BRANCH   5  28
HETATM   28  C9  UNL     1      17.013  38.212   4.719  1.00  0.00     0.200 A 
HETATM   29  N10 UNL     1      16.723  37.025   4.200  1.00  0.00    -0.220 N 
HETATM   30  O1  UNL     1      16.442  36.215   5.156  1.00  0.00    -0.153 OA
ATOM     31  H10 UNL     1      16.724  36.794   3.207  1.00  0.00     0.198 HD
HETATM   32  N11 UNL     1      16.531  36.806   6.291  1.00  0.00    -0.222 N 
HETATM   33  C10 UNL     1      16.889  38.075   6.080  1.00  0.00     0.169 A 
ATOM     34  H11 UNL     1      16.357  36.379   7.201  1.00  0.00     0.198 HD
BRANCH  33  35
HETATM   35  N12 UNL     1      17.062  38.935   7.025  1.00  0.00    -0.381 N 
ATOM     36 2H12 UNL     1      17.913  38.997   7.582  1.00  0.00     0.157 HD
ATOM     37 1H12 UNL     1      16.440  39.663   7.377  1.00  0.00     0.157 HD
ENDBRANCH  33  35
ENDBRANCH   5  28
TORSDOF 7
ENDMDL
MODEL 5
REMARK VINA RESULT: -6.767663155      1.883      2.171
REMARK  7 active torsions:
REMARK  status: ('A' for Active; 'I' for Inactive)
REMARK    1  A    between atoms: C2_2  and  C6_14 
REMARK    2  A    between atoms: N1_3  and  N2_5 
REMARK    3  A    between atoms: N2_5  and  C3_7 
REMARK    4  A    between atoms: N5_16  and  N6_18 
REMARK    5  A    between atoms: C8_19  and  N7_20 
REMARK    6  A    between atoms: N9_25  and  C9_26 
REMARK    7  A    between atoms: C10_32  and  N12_33 
ROOT
HETATM    1  N6  UNL     1      18.585  40.036   2.620  1.00  0.00    -0.029 N 
HETATM    2  C8  UNL     1      17.311  40.398   2.406  1.00  0.00     0.716 A 
HETATM    3  N8  UNL     1      16.571  39.703   3.310  1.00  0.00    -0.118 N 
ATOM      4  H8  UNL     1      15.557  39.757   3.406  1.00  0.00     0.206 HD
HETATM    5  N9  UNL     1      17.365  38.951   4.043  1.00  0.00    -0.167 N 
HETATM    6  C11 UNL     1      18.621  39.147   3.627  1.00  0.00     0.384 A 
HETATM    7  O2  UNL     1      19.631  38.592   4.102  1.00  0.00    -0.242 OA
ENDROOT
BRANCH   1   8
HETATM    8  N5  UNL     1      19.698  40.509   1.911  1.00  0.00    -0.278 N 
HETATM    9  C6  UNL     1      20.359  41.551   2.282  1.00  0.00     0.046 C 
HETATM   10  C7  UNL     1      19.985  42.329   3.497  1.00  0.00     0.072 C 
ATOM     11  H5  UNL     1      19.995  40.011   1.072  1.00  0.00     0.188 HD
BRANCH   9  12
HETATM   12  C2  UNL     1      21.502  41.974   1.489  1.00  0.00     0.045 C 
HETATM   13  C1  UNL     1      22.407  43.040   2.006  1.00  0.00     0.072 C 
HETATM   14  N1  UNL     1      21.724  41.432   0.355  1.00  0.00    -0.301 N 
ATOM     15  H1  UNL     1      21.102  40.703   0.004  1.00  0.00     0.186 HD
BRANCH  14  16
HETATM   16  N2  UNL     1      22.817  41.838  -0.400  1.00  0.00    -0.271 N 
ATOM     17  H2  UNL     1      23.760  41.628  -0.074  1.00  0.00     0.190 HD
BRANCH  16  18
HETATM   18  C3  UNL     1      22.638  42.552  -1.638  1.00  0.00     0.190 C 
HETATM   19  N3  UNL     1      21.954  43.631  -1.798  1.00  0.00    -0.360 N 
HETATM   20  C4  UNL     1      21.999  44.063  -3.173  1.00  0.00     0.142 C 
ATOM     21  H3  UNL     1      21.449  44.114  -1.055  1.00  0.00     0.162 HD
HETATM   22  C5  UNL     1      22.458  42.823  -3.902  1.00  0.00     0.142 C 
HETATM   23  N4  UNL     1      23.207  42.141  -2.870  1.00  0.00    -0.360 N 
ATOM     24  H4  UNL     1      23.986  41.496  -3.002  1.00  0.00     0.162 HD
ENDBRANCH  16  18
ENDBRANCH  14  16
ENDBRANCH   9  12
ENDBRANCH   1   8
BRANCH   2  25
HETATM   25  N7  UNL     1      16.893  41.244   1.509  1.00  0.00    -0.231 N 
ATOM     26  H72 UNL     1      17.419  41.651   0.736  1.00  0.00     0.174 HD
ATOM     27  H71 UNL     1      15.954  41.635   1.442  1.00  0.00     0.174 HD
ENDBRANCH   2  25
BRANCH   5  28
HETATM   28  C9  UNL     1      16.996  38.071   5.099  1.00  0.00     0.200 A 
HETATM   29  N10 UNL     1      16.902  38.313   6.402  1.00  0.00    -0.220 N 
HETATM   30  O1  UNL     1      16.536  37.235   6.996  1.00  0.00    -0.153 OA
ATOM     31  H10 UNL     1      17.089  39.207   6.855  1.00  0.00     0.198 HD
HETATM   32  N11 UNL     1      16.381  36.282   6.150  1.00  0.00    -0.222 N 
HETATM   33  C10 UNL     1      16.658  36.751   4.930  1.00  0.00     0.169 A 
ATOM     34  H11 UNL     1      16.095  35.329   6.371  1.00  0.00     0.198 HD
BRANCH  33  35
HETATM   35  N12 UNL     1      16.596  36.036   3.860  1.00  0.00    -0.381 N 
ATOM     36 2H12 UNL     1      16.466  36.426   2.927  1.00  0.00     0.157 HD
ATOM     37 1H12 UNL     1      16.658  35.025   3.736  1.00  0.00     0.157 HD
ENDBRANCH  33  35
ENDBRANCH   5  28
TORSDOF 7
ENDMDL
