MODEL 1
REMARK VINA RESULT: -7.451452352      0.000      0.000
REMARK  10 active torsions:
REMARK  status: ('A' for Active; 'I' for Inactive)
REMARK    1  A    between atoms: C5_14  and  N5_15 
REMARK    2  A    between atoms: N6_18  and  C6_19 
REMARK    3  A    between atoms: C6_19  and  C7_20 
REMARK    4  A    between atoms: C7_20  and  O1_21 
REMARK    5  A    between atoms: C7_20  and  C8_23 
REMARK    6  A    between atoms: C8_23  and  O3_25 
REMARK    7  A    between atoms: O3_25  and  N7_26 
REMARK    8  A    between atoms: N7_26  and  O4_27 
REMARK    9  A    between atoms: N8_29  and  N9_31 
REMARK   10  A    between atoms: N9_31  and  N10_33 
ROOT
HETATM    1  C1  UNL     1      10.178  40.693   7.846  1.00  0.00     0.177 C 
HETATM    2  N1  UNL     1       9.352  41.805   7.502  1.00  0.00    -0.170 N 
HETATM    3  C2  UNL     1       8.046  41.578   7.161  1.00  0.00     0.680 A 
HETATM    4  N2  UNL     1       7.580  40.375   7.189  1.00  0.00    -0.234 N 
ATOM      5  H21 UNL     1       6.607  40.206   6.936  1.00  0.00     0.174 HD
ATOM      6  H22 UNL     1       8.211  39.624   7.470  1.00  0.00     0.174 HD
HETATM    7  N3  UNL     1       7.229  42.550   6.799  1.00  0.00    -0.179 N 
ATOM      8  H3  UNL     1       6.262  42.337   6.551  1.00  0.00     0.185 HD
HETATM    9  C3  UNL     1       7.661  43.795   6.756  1.00  0.00     0.147 A 
HETATM   10  S1  UNL     1       6.719  45.060   6.319  1.00  0.00    -0.057 SA
HETATM   11  C4  UNL     1       8.978  44.054   7.096  1.00  0.00     0.133 A 
HETATM   12  N4  UNL     1       9.658  45.176   7.128  1.00  0.00    -0.185 N 
ATOM     13  H4  UNL     1       9.293  46.100   6.896  1.00  0.00     0.184 HD
HETATM   14  C5  UNL     1      10.913  44.902   7.516  1.00  0.00     0.680 A 
HETATM   15  N6  UNL     1      11.066  43.574   7.747  1.00  0.00    -0.162 N 
HETATM   16  C9  UNL     1       9.847  43.035   7.479  1.00  0.00     0.171 A 
ENDROOT
BRANCH  15  17
HETATM   17  C6  UNL     1      12.233  42.917   8.189  1.00  0.00     0.191 C 
BRANCH  17  18
HETATM   18  C7  UNL     1      12.644  43.230   9.636  1.00  0.00     0.238 C 
BRANCH  18  19
HETATM   19  O1  UNL     1      13.537  44.279   9.639  1.00  0.00    -0.384 OA
ATOM     20  H1  UNL     1      13.302  44.889  10.329  1.00  0.00     0.210 HD
ENDBRANCH  18  19
BRANCH  18  21
HETATM   21  C8  UNL     1      13.339  42.008  10.107  1.00  0.00     0.315 C 
HETATM   22  O2  UNL     1      12.751  40.905  10.256  1.00  0.00    -0.260 OA
BRANCH  21  23
HETATM   23  O3  UNL     1      14.690  42.080  10.397  1.00  0.00    -0.153 OA
BRANCH  23  24
HETATM   24  N7  UNL     1      15.649  41.818   9.447  1.00  0.00    -0.030 N 
HETATM   25  N8  UNL     1      16.081  42.783   8.770  1.00  0.00    -0.180 N 
ATOM     26  H8  UNL     1      15.724  43.725   8.931  1.00  0.00     0.214 HD
BRANCH  24  27
HETATM   27  O4  UNL     1      16.111  40.565   9.246  1.00  0.00    -0.247 OA
ATOM     28  H4  UNL     1      16.684  40.363   8.516  1.00  0.00     0.249 HD
ENDBRANCH  24  27
BRANCH  25  29
HETATM   29  N9  UNL     1      17.054  42.557   7.798  1.00  0.00    -0.231 N 
ATOM     30  H9  UNL     1      17.090  41.636   7.361  1.00  0.00     0.209 HD
BRANCH  29  31
HETATM   31  N10 UNL     1      17.982  43.514   7.386  1.00  0.00    -0.330 N 
ATOM     32 2H10 UNL     1      18.806  43.642   7.974  1.00  0.00     0.178 HD
ATOM     33 1H10 UNL     1      17.882  44.081   6.544  1.00  0.00     0.178 HD
ENDBRANCH  29  31
ENDBRANCH  25  29
ENDBRANCH  23  24
ENDBRANCH  21  23
ENDBRANCH  18  21
ENDBRANCH  17  18
ENDBRANCH  15  17
BRANCH  14  34
HETATM   34  N5  UNL     1      11.837  45.787   7.629  1.00  0.00    -0.234 N 
ATOM     35  H52 UNL     1      12.322  46.236   6.852  1.00  0.00     0.174 HD
ATOM     36  H51 UNL     1      12.172  46.149   8.521  1.00  0.00     0.174 HD
ENDBRANCH  14  34
TORSDOF 10
ENDMDL
MODEL 2
REMARK VINA RESULT: -6.772337889      7.818      9.636
REMARK  10 active torsions:
REMARK  status: ('A' for Active; 'I' for Inactive)
REMARK    1  A    between atoms: C5_14  and  N5_15 
REMARK    2  A    between atoms: N6_18  and  C6_19 
REMARK    3  A    between atoms: C6_19  and  C7_20 
REMARK    4  A    between atoms: C7_20  and  O1_21 
REMARK    5  A    between atoms: C7_20  and  C8_23 
REMARK    6  A    between atoms: C8_23  and  O3_25 
REMARK    7  A    between atoms: O3_25  and  N7_26 
REMARK    8  A    between atoms: N7_26  and  O4_27 
REMARK    9  A    between atoms: N8_29  and  N9_31 
REMARK   10  A    between atoms: N9_31  and  N10_33 
ROOT
HETATM    1  C1  UNL     1      16.905  44.358   4.544  1.00  0.00     0.177 C 
HETATM    2  N1  UNL     1      18.169  44.274   3.888  1.00  0.00    -0.170 N 
HETATM    3  C2  UNL     1      18.767  45.426   3.452  1.00  0.00     0.680 A 
HETATM    4  N2  UNL     1      18.195  46.562   3.672  1.00  0.00    -0.234 N 
ATOM      5  H21 UNL     1      18.641  47.420   3.348  1.00  0.00     0.174 HD
ATOM      6  H22 UNL     1      17.305  46.561   4.170  1.00  0.00     0.174 HD
HETATM    7  N3  UNL     1      19.919  45.427   2.808  1.00  0.00    -0.179 N 
ATOM      8  H3  UNL     1      20.330  46.308   2.500  1.00  0.00     0.185 HD
HETATM    9  C3  UNL     1      20.540  44.289   2.563  1.00  0.00     0.147 A 
HETATM   10  S1  UNL     1      21.969  44.197   1.771  1.00  0.00    -0.057 SA
HETATM   11  C4  UNL     1      19.958  43.108   2.992  1.00  0.00     0.133 A 
HETATM   12  N4  UNL     1      20.347  41.860   2.872  1.00  0.00    -0.185 N 
ATOM     13  H4  UNL     1      21.203  41.544   2.417  1.00  0.00     0.184 HD
HETATM   14  C5  UNL     1      19.427  41.071   3.450  1.00  0.00     0.680 A 
HETATM   15  N6  UNL     1      18.413  41.811   3.963  1.00  0.00    -0.162 N 
HETATM   16  C9  UNL     1      18.743  43.098   3.672  1.00  0.00     0.171 A 
ENDROOT
BRANCH  15  17
HETATM   17  C6  UNL     1      17.283  41.336   4.661  1.00  0.00     0.191 C 
BRANCH  17  18
HETATM   18  C7  UNL     1      17.434  41.299   6.189  1.00  0.00     0.238 C 
BRANCH  18  19
HETATM   19  O1  UNL     1      18.685  41.758   6.534  1.00  0.00    -0.384 OA
ATOM     20  H1  UNL     1      18.597  42.531   7.080  1.00  0.00     0.210 HD
ENDBRANCH  18  19
BRANCH  18  21
HETATM   21  C8  UNL     1      17.336  39.863   6.546  1.00  0.00     0.315 C 
HETATM   22  O2  UNL     1      16.759  39.459   7.590  1.00  0.00    -0.260 OA
BRANCH  21  23
HETATM   23  O3  UNL     1      17.901  38.926   5.700  1.00  0.00    -0.153 OA
BRANCH  23  24
HETATM   24  N7  UNL     1      17.288  37.722   5.442  1.00  0.00    -0.030 N 
HETATM   25  N8  UNL     1      16.913  37.498   4.265  1.00  0.00    -0.180 N 
ATOM     26  H8  UNL     1      17.063  38.194   3.536  1.00  0.00     0.214 HD
BRANCH  24  27
HETATM   27  O4  UNL     1      17.096  36.811   6.419  1.00  0.00    -0.247 OA
ATOM     28  H4  UNL     1      16.271  36.348   6.506  1.00  0.00     0.249 HD
ENDBRANCH  24  27
BRANCH  25  29
HETATM   29  N9  UNL     1      16.289  36.288   3.963  1.00  0.00    -0.231 N 
ATOM     30  H9  UNL     1      15.269  36.273   3.922  1.00  0.00     0.209 HD
BRANCH  29  31
HETATM   31  N10 UNL     1      16.972  35.099   3.714  1.00  0.00    -0.330 N 
ATOM     32 2H10 UNL     1      17.889  35.176   3.274  1.00  0.00     0.178 HD
ATOM     33 1H10 UNL     1      16.610  34.173   3.944  1.00  0.00     0.178 HD
ENDBRANCH  29  31
ENDBRANCH  25  29
ENDBRANCH  23  24
ENDBRANCH  21  23
ENDBRANCH  18  21
ENDBRANCH  17  18
ENDBRANCH  15  17
BRANCH  14  34
HETATM   34  N5  UNL     1      19.504  39.790   3.485  1.00  0.00    -0.234 N 
ATOM     35  H52 UNL     1      18.950  39.149   2.918  1.00  0.00     0.174 HD
ATOM     36  H51 UNL     1      20.151  39.275   4.083  1.00  0.00     0.174 HD
ENDBRANCH  14  34
TORSDOF 10
ENDMDL
MODEL 3
REMARK VINA RESULT: -6.711067708      1.584      3.127
REMARK  10 active torsions:
REMARK  status: ('A' for Active; 'I' for Inactive)
REMARK    1  A    between atoms: C5_14  and  N5_15 
REMARK    2  A    between atoms: N6_18  and  C6_19 
REMARK    3  A    between atoms: C6_19  and  C7_20 
REMARK    4  A    between atoms: C7_20  and  O1_21 
REMARK    5  A    between atoms: C7_20  and  C8_23 
REMARK    6  A    between atoms: C8_23  and  O3_25 
REMARK    7  A    between atoms: O3_25  and  N7_26 
REMARK    8  A    between atoms: N7_26  and  O4_27 
REMARK    9  A    between atoms: N8_29  and  N9_31 
REMARK   10  A    between atoms: N9_31  and  N10_33 
ROOT
HETATM    1  C1  UNL     1      13.104  45.498   6.229  1.00  0.00     0.177 C 
HETATM    2  N1  UNL     1      11.810  45.084   5.793  1.00  0.00    -0.170 N 
HETATM    3  C2  UNL     1      11.151  45.841   4.862  1.00  0.00     0.680 A 
HETATM    4  N2  UNL     1      11.723  46.891   4.376  1.00  0.00    -0.234 N 
ATOM      5  H21 UNL     1      11.233  47.455   3.682  1.00  0.00     0.174 HD
ATOM      6  H22 UNL     1      12.660  47.122   4.706  1.00  0.00     0.174 HD
HETATM    7  N3  UNL     1       9.939  45.541   4.434  1.00  0.00    -0.179 N 
ATOM      8  H3  UNL     1       9.483  46.134   3.740  1.00  0.00     0.185 HD
HETATM    9  C3  UNL     1       9.316  44.477   4.904  1.00  0.00     0.147 A 
HETATM   10  S1  UNL     1       7.815  44.032   4.430  1.00  0.00    -0.057 SA
HETATM   11  C4  UNL     1       9.959  43.692   5.846  1.00  0.00     0.133 A 
HETATM   12  N4  UNL     1       9.573  42.607   6.475  1.00  0.00    -0.185 N 
ATOM     13  H4  UNL     1       8.677  42.136   6.354  1.00  0.00     0.184 HD
HETATM   14  C5  UNL     1      10.556  42.224   7.304  1.00  0.00     0.680 A 
HETATM   15  N6  UNL     1      11.613  43.070   7.221  1.00  0.00    -0.162 N 
HETATM   16  C9  UNL     1      11.238  44.001   6.303  1.00  0.00     0.171 A 
ENDROOT
BRANCH  15  17
HETATM   17  C6  UNL     1      12.834  42.978   7.922  1.00  0.00     0.191 C 
BRANCH  17  18
HETATM   18  C7  UNL     1      12.738  43.263   9.428  1.00  0.00     0.238 C 
BRANCH  18  19
HETATM   19  O1  UNL     1      13.475  44.387   9.726  1.00  0.00    -0.384 OA
ATOM     20  H1  UNL     1      12.913  45.030  10.144  1.00  0.00     0.210 HD
ENDBRANCH  18  19
BRANCH  18  21
HETATM   21  C8  UNL     1      13.371  42.090  10.078  1.00  0.00     0.315 C 
HETATM   22  O2  UNL     1      12.735  41.039  10.356  1.00  0.00    -0.260 OA
BRANCH  21  23
HETATM   23  O3  UNL     1      14.717  42.149  10.395  1.00  0.00    -0.153 OA
BRANCH  23  24
HETATM   24  N7  UNL     1      15.692  41.881   9.463  1.00  0.00    -0.030 N 
HETATM   25  N8  UNL     1      16.163  42.848   8.816  1.00  0.00    -0.180 N 
ATOM     26  H8  UNL     1      15.825  43.795   8.986  1.00  0.00     0.214 HD
BRANCH  24  27
HETATM   27  O4  UNL     1      16.129  40.622   9.249  1.00  0.00    -0.247 OA
ATOM     28  H4  UNL     1      16.874  40.448   8.687  1.00  0.00     0.249 HD
ENDBRANCH  24  27
BRANCH  25  29
HETATM   29  N9  UNL     1      17.154  42.617   7.863  1.00  0.00    -0.231 N 
ATOM     30  H9  UNL     1      17.233  41.678   7.472  1.00  0.00     0.209 HD
BRANCH  29  31
HETATM   31  N10 UNL     1      18.043  43.592   7.410  1.00  0.00    -0.330 N 
ATOM     32 2H10 UNL     1      18.605  44.068   8.115  1.00  0.00     0.178 HD
ATOM     33 1H10 UNL     1      18.157  43.848   6.429  1.00  0.00     0.178 HD
ENDBRANCH  29  31
ENDBRANCH  25  29
ENDBRANCH  23  24
ENDBRANCH  21  23
ENDBRANCH  18  21
ENDBRANCH  17  18
ENDBRANCH  15  17
BRANCH  14  34
HETATM   34  N5  UNL     1      10.481  41.203   8.079  1.00  0.00    -0.234 N 
ATOM     35  H52 UNL     1       9.736  41.026   8.753  1.00  0.00     0.174 HD
ATOM     36  H51 UNL     1      11.163  40.445   8.089  1.00  0.00     0.174 HD
ENDBRANCH  14  34
TORSDOF 10
ENDMDL
MODEL 4
REMARK VINA RESULT: -6.644290431      2.907      4.486
REMARK  10 active torsions:
REMARK  status: ('A' for Active; 'I' for Inactive)
REMARK    1  A    between atoms: C5_14  and  N5_15 
REMARK    2  A    between atoms: N6_18  and  C6_19 
REMARK    3  A    between atoms: C6_19  and  C7_20 
REMARK    4  A    between atoms: C7_20  and  O1_21 
REMARK    5  A    between atoms: C7_20  and  C8_23 
REMARK    6  A    between atoms: C8_23  and  O3_25 
REMARK    7  A    between atoms: O3_25  and  N7_26 
REMARK    8  A    between atoms: N7_26  and  O4_27 
REMARK    9  A    between atoms: N8_29  and  N9_31 
REMARK   10  A    between atoms: N9_31  and  N10_33 
ROOT
HETATM    1  C1  UNL     1      14.270  46.179   6.437  1.00  0.00     0.177 C 
HETATM    2  N1  UNL     1      12.975  45.635   6.688  1.00  0.00    -0.170 N 
HETATM    3  C2  UNL     1      11.888  46.210   6.086  1.00  0.00     0.680 A 
HETATM    4  N2  UNL     1      12.058  47.206   5.283  1.00  0.00    -0.234 N 
ATOM      5  H21 UNL     1      11.248  47.634   4.835  1.00  0.00     0.174 HD
ATOM      6  H22 UNL     1      13.010  47.534   5.122  1.00  0.00     0.174 HD
HETATM    7  N3  UNL     1      10.656  45.785   6.294  1.00  0.00    -0.179 N 
ATOM      8  H3  UNL     1       9.873  46.242   5.826  1.00  0.00     0.185 HD
HETATM    9  C3  UNL     1      10.435  44.769   7.106  1.00  0.00     0.147 A 
HETATM   10  S1  UNL     1       8.942  44.178   7.422  1.00  0.00    -0.057 SA
HETATM   11  C4  UNL     1      11.516  44.168   7.729  1.00  0.00     0.133 A 
HETATM   12  N4  UNL     1      11.578  43.168   8.576  1.00  0.00    -0.185 N 
ATOM     13  H4  UNL     1      10.784  42.635   8.929  1.00  0.00     0.184 HD
HETATM   14  C5  UNL     1      12.865  42.965   8.900  1.00  0.00     0.680 A 
HETATM   15  N6  UNL     1      13.669  43.846   8.252  1.00  0.00    -0.162 N 
HETATM   16  C9  UNL     1      12.819  44.609   7.515  1.00  0.00     0.171 A 
ENDROOT
BRANCH  15  17
HETATM   17  C6  UNL     1      15.075  43.924   8.323  1.00  0.00     0.191 C 
BRANCH  17  18
HETATM   18  C7  UNL     1      15.821  43.226   7.177  1.00  0.00     0.238 C 
BRANCH  18  19
HETATM   19  O1  UNL     1      14.915  42.823   6.222  1.00  0.00    -0.384 OA
ATOM     20  H1  UNL     1      14.971  41.881   6.112  1.00  0.00     0.210 HD
ENDBRANCH  18  19
BRANCH  18  21
HETATM   21  C8  UNL     1      16.429  42.023   7.795  1.00  0.00     0.315 C 
HETATM   22  O2  UNL     1      16.122  41.621   8.948  1.00  0.00    -0.260 OA
BRANCH  21  23
HETATM   23  O3  UNL     1      17.375  41.311   7.079  1.00  0.00    -0.153 OA
BRANCH  23  24
HETATM   24  N7  UNL     1      17.189  39.988   6.751  1.00  0.00    -0.030 N 
HETATM   25  N8  UNL     1      17.335  39.658   5.549  1.00  0.00    -0.180 N 
ATOM     26  H8  UNL     1      17.582  40.358   4.850  1.00  0.00     0.214 HD
BRANCH  24  27
HETATM   27  O4  UNL     1      16.862  39.074   7.689  1.00  0.00    -0.247 OA
ATOM     28  H4  UNL     1      16.682  38.171   7.456  1.00  0.00     0.249 HD
ENDBRANCH  24  27
BRANCH  25  29
HETATM   29  N9  UNL     1      17.156  38.326   5.178  1.00  0.00    -0.231 N 
ATOM     30  H9  UNL     1      16.372  38.101   4.565  1.00  0.00     0.209 HD
BRANCH  29  31
HETATM   31  N10 UNL     1      17.983  37.283   5.592  1.00  0.00    -0.330 N 
ATOM     32 2H10 UNL     1      18.573  36.850   4.881  1.00  0.00     0.178 HD
ATOM     33 1H10 UNL     1      18.029  36.937   6.551  1.00  0.00     0.178 HD
ENDBRANCH  29  31
ENDBRANCH  25  29
ENDBRANCH  23  24
ENDBRANCH  21  23
ENDBRANCH  18  21
ENDBRANCH  17  18
ENDBRANCH  15  17
BRANCH  14  34
HETATM   34  N5  UNL     1      13.262  42.067   9.727  1.00  0.00    -0.234 N 
ATOM     35  H52 UNL     1      14.138  41.548   9.661  1.00  0.00     0.174 HD
ATOM     36  H51 UNL     1      12.739  41.787  10.557  1.00  0.00     0.174 HD
ENDBRANCH  14  34
TORSDOF 10
ENDMDL
MODEL 5
REMARK VINA RESULT: -6.586813621      6.703      8.807
REMARK  10 active torsions:
REMARK  status: ('A' for Active; 'I' for Inactive)
REMARK    1  A    between atoms: C5_14  and  N5_15 
REMARK    2  A    between atoms: N6_18  and  C6_19 
REMARK    3  A    between atoms: C6_19  and  C7_20 
REMARK    4  A    between atoms: C7_20  and  O1_21 
REMARK    5  A    between atoms: C7_20  and  C8_23 
REMARK    6  A    between atoms: C8_23  and  O3_25 
REMARK    7  A    between atoms: O3_25  and  N7_26 
REMARK    8  A    between atoms: N7_26  and  O4_27 
REMARK    9  A    between atoms: N8_29  and  N9_31 
REMARK   10  A    between atoms: N9_31  and  N10_33 
ROOT
HETATM    1  C1  UNL     1      19.794  41.873   3.993  1.00  0.00     0.177 C 
HETATM    2  N1  UNL     1      19.429  43.224   3.715  1.00  0.00    -0.170 N 
HETATM    3  C2  UNL     1      19.915  43.821   2.583  1.00  0.00     0.680 A 
HETATM    4  N2  UNL     1      20.662  43.145   1.777  1.00  0.00    -0.234 N 
ATOM      5  H21 UNL     1      21.024  43.590   0.934  1.00  0.00     0.174 HD
ATOM      6  H22 UNL     1      20.867  42.175   2.015  1.00  0.00     0.174 HD
HETATM    7  N3  UNL     1      19.649  45.077   2.275  1.00  0.00    -0.179 N 
ATOM      8  H3  UNL     1      20.033  45.485   1.422  1.00  0.00     0.185 HD
HETATM    9  C3  UNL     1      18.889  45.806   3.070  1.00  0.00     0.147 A 
HETATM   10  S1  UNL     1      18.509  47.369   2.766  1.00  0.00    -0.057 SA
HETATM   11  C4  UNL     1      18.383  45.227   4.221  1.00  0.00     0.133 A 
HETATM   12  N4  UNL     1      17.626  45.718   5.174  1.00  0.00    -0.185 N 
ATOM     13  H4  UNL     1      17.260  46.669   5.214  1.00  0.00     0.184 HD
HETATM   14  C5  UNL     1      17.414  44.757   6.086  1.00  0.00     0.680 A 
HETATM   15  N6  UNL     1      18.042  43.608   5.730  1.00  0.00    -0.162 N 
HETATM   16  C9  UNL     1      18.658  43.903   4.554  1.00  0.00     0.171 A 
ENDROOT
BRANCH  15  17
HETATM   17  C6  UNL     1      18.030  42.381   6.425  1.00  0.00     0.191 C 
BRANCH  17  18
HETATM   18  C7  UNL     1      16.770  41.529   6.212  1.00  0.00     0.238 C 
BRANCH  18  19
HETATM   19  O1  UNL     1      15.747  42.026   6.988  1.00  0.00    -0.384 OA
ATOM     20  H1  UNL     1      14.957  42.088   6.464  1.00  0.00     0.210 HD
ENDBRANCH  18  19
BRANCH  18  21
HETATM   21  C8  UNL     1      17.135  40.180   6.709  1.00  0.00     0.315 C 
HETATM   22  O2  UNL     1      16.778  39.750   7.837  1.00  0.00    -0.260 OA
BRANCH  21  23
HETATM   23  O3  UNL     1      17.899  39.357   5.901  1.00  0.00    -0.153 OA
BRANCH  23  24
HETATM   24  N7  UNL     1      17.574  38.036   5.700  1.00  0.00    -0.030 N 
HETATM   25  N8  UNL     1      18.039  37.468   4.682  1.00  0.00    -0.180 N 
ATOM     26  H8  UNL     1      18.636  37.982   4.034  1.00  0.00     0.214 HD
BRANCH  24  27
HETATM   27  O4  UNL     1      16.783  37.370   6.568  1.00  0.00    -0.247 OA
ATOM     28  H4  UNL     1      16.678  36.428   6.515  1.00  0.00     0.249 HD
ENDBRANCH  24  27
BRANCH  25  29
HETATM   29  N9  UNL     1      17.733  36.130   4.443  1.00  0.00    -0.231 N 
ATOM     30  H9  UNL     1      18.422  35.426   4.710  1.00  0.00     0.209 HD
BRANCH  29  31
HETATM   31  N10 UNL     1      16.542  35.693   3.863  1.00  0.00    -0.330 N 
ATOM     32 2H10 UNL     1      16.499  35.690   2.844  1.00  0.00     0.178 HD
ATOM     33 1H10 UNL     1      15.729  35.381   4.395  1.00  0.00     0.178 HD
ENDBRANCH  29  31
ENDBRANCH  25  29
ENDBRANCH  23  24
ENDBRANCH  21  23
ENDBRANCH  18  21
ENDBRANCH  17  18
ENDBRANCH  15  17
BRANCH  14  34
HETATM   34  N5  UNL     1      16.725  44.925   7.156  1.00  0.00    -0.234 N 
ATOM     35  H52 UNL     1      15.855  44.442   7.381  1.00  0.00     0.174 HD
ATOM     36  H51 UNL     1      16.991  45.559   7.910  1.00  0.00     0.174 HD
ENDBRANCH  14  34
TORSDOF 10
ENDMDL
