MODEL 1
REMARK VINA RESULT: -3.872635651      0.000      0.000
REMARK  3 active torsions:
REMARK  status: ('A' for Active; 'I' for Inactive)
REMARK    1  A    between atoms: C2_2  and  C3_3 
REMARK    2  A    between atoms: C3_3  and  N1_4 
REMARK    3  A    between atoms: N1_4  and  C4_6 
ROOT
HETATM    1  C4  UNL     1     -16.739  26.705  27.543  1.00  0.00     0.706 A 
HETATM    2  N2  UNL     1     -17.407  25.550  27.567  1.00  0.00    -0.118 N 
ATOM      3  H2  UNL     1     -18.423  25.467  27.557  1.00  0.00     0.207 HD
HETATM    4  N3  UNL     1     -16.585  24.547  27.607  1.00  0.00    -0.212 N 
ATOM      5  H3  UNL     1     -16.823  23.556  27.633  1.00  0.00     0.206 HD
HETATM    6  N4  UNL     1     -15.374  25.075  27.608  1.00  0.00     0.009 NA
HETATM    7  N5  UNL     1     -15.443  26.393  27.568  1.00  0.00    -0.114 N 
ATOM      8  H5  UNL     1     -14.658  27.045  27.559  1.00  0.00     0.203 HD
ENDROOT
BRANCH   1   9
HETATM    9  N1  UNL     1     -17.309  27.835  27.502  1.00  0.00    -0.224 N 
ATOM     10  H1  UNL     1     -17.662  28.135  26.593  1.00  0.00     0.177 HD
BRANCH   9  11
HETATM   11  C3  UNL     1     -17.511  28.737  28.596  1.00  0.00     0.138 C 
BRANCH  11  12
HETATM   12  C2  UNL     1     -19.014  28.702  28.906  1.00  0.00     0.016 C 
HETATM   13  C1  UNL     1     -19.806  29.542  27.963  1.00  0.00     0.006 C 
ENDBRANCH  11  12
ENDBRANCH   9  11
ENDBRANCH   1   9
TORSDOF 3
ENDMDL
MODEL 2
REMARK VINA RESULT: -3.795750425      0.955      1.121
REMARK  3 active torsions:
REMARK  status: ('A' for Active; 'I' for Inactive)
REMARK    1  A    between atoms: C2_2  and  C3_3 
REMARK    2  A    between atoms: C3_3  and  N1_4 
REMARK    3  A    between atoms: N1_4  and  C4_6 
ROOT
HETATM    1  C4  UNL     1     -16.807  26.709  27.604  1.00  0.00     0.706 A 
HETATM    2  N2  UNL     1     -17.430  25.529  27.614  1.00  0.00    -0.118 N 
ATOM      3  H2  UNL     1     -18.443  25.407  27.618  1.00  0.00     0.207 HD
HETATM    4  N3  UNL     1     -16.569  24.558  27.618  1.00  0.00    -0.212 N 
ATOM      5  H3  UNL     1     -16.770  23.557  27.625  1.00  0.00     0.206 HD
HETATM    6  N4  UNL     1     -15.380  25.131  27.611  1.00  0.00     0.009 NA
HETATM    7  N5  UNL     1     -15.499  26.446  27.602  1.00  0.00    -0.114 N 
ATOM      8  H5  UNL     1     -14.741  27.128  27.594  1.00  0.00     0.203 HD
ENDROOT
BRANCH   1   9
HETATM    9  N1  UNL     1     -17.420  27.817  27.599  1.00  0.00    -0.224 N 
ATOM     10  H1  UNL     1     -18.235  27.890  28.208  1.00  0.00     0.177 HD
BRANCH   9  11
HETATM   11  C3  UNL     1     -17.091  28.978  26.829  1.00  0.00     0.138 C 
BRANCH  11  12
HETATM   12  C2  UNL     1     -18.427  29.586  26.380  1.00  0.00     0.016 C 
HETATM   13  C1  UNL     1     -19.415  29.664  27.493  1.00  0.00     0.006 C 
ENDBRANCH  11  12
ENDBRANCH   9  11
ENDBRANCH   1   9
TORSDOF 3
ENDMDL
MODEL 3
REMARK VINA RESULT: -3.756264476      0.840      1.338
REMARK  3 active torsions:
REMARK  status: ('A' for Active; 'I' for Inactive)
REMARK    1  A    between atoms: C2_2  and  C3_3 
REMARK    2  A    between atoms: C3_3  and  N1_4 
REMARK    3  A    between atoms: N1_4  and  C4_6 
ROOT
HETATM    1  C4  UNL     1     -16.682  26.702  27.445  1.00  0.00     0.706 A 
HETATM    2  N2  UNL     1     -17.369  25.564  27.561  1.00  0.00    -0.118 N 
ATOM      3  H2  UNL     1     -18.386  25.497  27.560  1.00  0.00     0.207 HD
HETATM    4  N3  UNL     1     -16.563  24.553  27.674  1.00  0.00    -0.212 N 
ATOM      5  H3  UNL     1     -16.818  23.571  27.777  1.00  0.00     0.206 HD
HETATM    6  N4  UNL     1     -15.344  25.059  27.630  1.00  0.00     0.009 NA
HETATM    7  N5  UNL     1     -15.391  26.371  27.489  1.00  0.00    -0.114 N 
ATOM      8  H5  UNL     1     -14.596  27.007  27.427  1.00  0.00     0.203 HD
ENDROOT
BRANCH   1   9
HETATM    9  N1  UNL     1     -17.233  27.835  27.319  1.00  0.00    -0.224 N 
ATOM     10  H1  UNL     1     -17.146  28.286  26.408  1.00  0.00     0.177 HD
BRANCH   9  11
HETATM   11  C3  UNL     1     -17.966  28.551  28.320  1.00  0.00     0.138 C 
BRANCH  11  12
HETATM   12  C2  UNL     1     -16.932  29.375  29.100  1.00  0.00     0.016 C 
HETATM   13  C1  UNL     1     -17.523  30.034  30.299  1.00  0.00     0.006 C 
ENDBRANCH  11  12
ENDBRANCH   9  11
ENDBRANCH   1   9
TORSDOF 3
ENDMDL
MODEL 4
REMARK VINA RESULT: -3.704487980      1.517      2.021
REMARK  3 active torsions:
REMARK  status: ('A' for Active; 'I' for Inactive)
REMARK    1  A    between atoms: C2_2  and  C3_3 
REMARK    2  A    between atoms: C3_3  and  N1_4 
REMARK    3  A    between atoms: N1_4  and  C4_6 
ROOT
HETATM    1  C4  UNL     1     -16.809  26.692  27.599  1.00  0.00     0.706 A 
HETATM    2  N2  UNL     1     -17.433  25.512  27.617  1.00  0.00    -0.118 N 
ATOM      3  H2  UNL     1     -18.445  25.391  27.626  1.00  0.00     0.207 HD
HETATM    4  N3  UNL     1     -16.573  24.541  27.620  1.00  0.00    -0.212 N 
ATOM      5  H3  UNL     1     -16.774  23.540  27.632  1.00  0.00     0.206 HD
HETATM    6  N4  UNL     1     -15.383  25.114  27.605  1.00  0.00     0.009 NA
HETATM    7  N5  UNL     1     -15.502  26.428  27.591  1.00  0.00    -0.114 N 
ATOM      8  H5  UNL     1     -14.743  27.110  27.577  1.00  0.00     0.203 HD
ENDROOT
BRANCH   1   9
HETATM    9  N1  UNL     1     -17.421  27.800  27.592  1.00  0.00    -0.224 N 
ATOM     10  H1  UNL     1     -18.429  27.763  27.437  1.00  0.00     0.177 HD
BRANCH   9  11
HETATM   11  C3  UNL     1     -16.850  29.100  27.778  1.00  0.00     0.138 C 
BRANCH  11  12
HETATM   12  C2  UNL     1     -16.855  29.771  26.398  1.00  0.00     0.016 C 
HETATM   13  C1  UNL     1     -15.497  29.810  25.784  1.00  0.00     0.006 C 
ENDBRANCH  11  12
ENDBRANCH   9  11
ENDBRANCH   1   9
TORSDOF 3
ENDMDL
MODEL 5
REMARK VINA RESULT: -3.643713461      1.131      1.777
REMARK  3 active torsions:
REMARK  status: ('A' for Active; 'I' for Inactive)
REMARK    1  A    between atoms: C2_2  and  C3_3 
REMARK    2  A    between atoms: C3_3  and  N1_4 
REMARK    3  A    between atoms: N1_4  and  C4_6 
ROOT
HETATM    1  C4  UNL     1     -16.145  26.952  27.206  1.00  0.00     0.706 A 
HETATM    2  N2  UNL     1     -15.506  27.712  26.314  1.00  0.00    -0.118 N 
ATOM      3  H2  UNL     1     -15.816  28.634  26.008  1.00  0.00     0.207 HD
HETATM    4  N3  UNL     1     -14.435  27.115  25.890  1.00  0.00    -0.212 N 
ATOM      5  H3  UNL     1     -13.763  27.467  25.208  1.00  0.00     0.206 HD
HETATM    6  N4  UNL     1     -14.394  25.957  26.523  1.00  0.00     0.009 NA
HETATM    7  N5  UNL     1     -15.429  25.835  27.334  1.00  0.00    -0.114 N 
ATOM      8  H5  UNL     1     -15.639  25.042  27.940  1.00  0.00     0.203 HD
ENDROOT
BRANCH   1   9
HETATM    9  N1  UNL     1     -17.221  27.305  27.774  1.00  0.00    -0.224 N 
ATOM     10  H1  UNL     1     -17.964  26.608  27.814  1.00  0.00     0.177 HD
BRANCH   9  11
HETATM   11  C3  UNL     1     -17.504  28.578  28.366  1.00  0.00     0.138 C 
BRANCH  11  12
HETATM   12  C2  UNL     1     -18.941  28.490  28.901  1.00  0.00     0.016 C 
HETATM   13  C1  UNL     1     -19.847  29.478  28.250  1.00  0.00     0.006 C 
ENDBRANCH  11  12
ENDBRANCH   9  11
ENDBRANCH   1   9
TORSDOF 3
ENDMDL
