MODEL 1
REMARK VINA RESULT: -7.565771331      0.000      0.000
REMARK  4 active torsions:
REMARK  status: ('A' for Active; 'I' for Inactive)
REMARK    1  A    between atoms: C3_4  and  C4_5 
REMARK       I    between atoms: C4_5  and  N2_7 
REMARK    2  A    between atoms: N2_7  and  N3_9 
REMARK    3  A    between atoms: N6_19  and  C10_20 
REMARK    4  A    between atoms: C11_26  and  N9_27 
ROOT
HETATM    1  N1  UNL     1     -17.372 -98.840  -7.174  1.00  0.00    -0.190 NA
HETATM    2  C1  UNL     1     -18.003 -98.990  -6.237  1.00  0.00     0.122 C 
HETATM    3  C2  UNL     1     -18.801 -99.193  -5.052  1.00  0.00     0.170 A 
HETATM    4  C3  UNL     1     -18.359 -99.564  -3.800  1.00  0.00     0.155 A 
HETATM    5  N4  UNL     1     -19.470 -99.621  -3.042  1.00  0.00    -0.276 N 
ATOM      6  H4  UNL     1     -19.500 -99.867  -2.053  1.00  0.00     0.184 HD
HETATM    7  N5  UNL     1     -20.517 -99.303  -3.789  1.00  0.00    -0.012 NA
HETATM    8  N6  UNL     1     -20.149 -99.033  -5.031  1.00  0.00    -0.206 N 
ENDROOT
BRANCH   4   9
HETATM    9  C4  UNL     1     -16.978 -99.832  -3.412  1.00  0.00     0.290 C 
HETATM   10  O1  UNL     1     -16.631 -99.682  -2.216  1.00  0.00    -0.264 OA
HETATM   11  N2  UNL     1     -16.017-100.257  -4.351  1.00  0.00    -0.265 N 
ATOM     12  H2  UNL     1     -16.283-100.383  -5.327  1.00  0.00     0.190 HD
BRANCH  11  13
HETATM   13  N3  UNL     1     -14.711-100.505  -3.953  1.00  0.00    -0.306 N 
HETATM   14  C5  UNL     1     -14.275-101.686  -3.732  1.00  0.00     0.004 C 
HETATM   15  C6  UNL     1     -12.917-102.079  -3.308  1.00  0.00     0.054 C 
HETATM   16  C9  UNL     1     -15.062-102.927  -3.860  1.00  0.00     0.054 C 
HETATM   17  C7  UNL     1     -13.063-103.495  -2.756  1.00  0.00     0.006 C 
HETATM   18  C8  UNL     1     -14.577-103.722  -2.652  1.00  0.00     0.006 C 
ATOM     19  H3  UNL     1     -14.075 -99.715  -3.833  1.00  0.00     0.186 HD
ENDBRANCH  11  13
ENDBRANCH   4   9
BRANCH   8  20
HETATM   20  C10 UNL     1     -20.969 -98.652  -6.140  1.00  0.00     0.194 A 
HETATM   21  N7  UNL     1     -20.610 -97.973  -7.245  1.00  0.00    -0.221 N 
HETATM   22  O2  UNL     1     -21.673 -97.848  -7.988  1.00  0.00    -0.153 OA
ATOM     23  H7  UNL     1     -19.677 -97.621  -7.462  1.00  0.00     0.198 HD
HETATM   24  N8  UNL     1     -22.693 -98.408  -7.424  1.00  0.00    -0.222 N 
HETATM   25  C11 UNL     1     -22.319 -98.939  -6.246  1.00  0.00     0.169 A 
ATOM     26  H8  UNL     1     -23.636 -98.441  -7.813  1.00  0.00     0.198 HD
BRANCH  25  27
HETATM   27  N9  UNL     1     -23.030 -99.578  -5.385  1.00  0.00    -0.381 N 
ATOM     28  H92 UNL     1     -23.501 -99.224  -4.552  1.00  0.00     0.157 HD
ATOM     29  H91 UNL     1     -23.243-100.576  -5.401  1.00  0.00     0.157 HD
ENDBRANCH  25  27
ENDBRANCH   8  20
TORSDOF 4
ENDMDL
MODEL 2
REMARK VINA RESULT: -6.783166896      2.913      7.559
REMARK  4 active torsions:
REMARK  status: ('A' for Active; 'I' for Inactive)
REMARK    1  A    between atoms: C3_4  and  C4_5 
REMARK       I    between atoms: C4_5  and  N2_7 
REMARK    2  A    between atoms: N2_7  and  N3_9 
REMARK    3  A    between atoms: N6_19  and  C10_20 
REMARK    4  A    between atoms: C11_26  and  N9_27 
ROOT
HETATM    1  N1  UNL     1     -17.252-101.054  -3.464  1.00  0.00    -0.190 NA
HETATM    2  C1  UNL     1     -17.519-100.387  -4.349  1.00  0.00     0.122 C 
HETATM    3  C2  UNL     1     -17.861 -99.554  -5.477  1.00  0.00     0.170 A 
HETATM    4  C3  UNL     1     -19.124 -99.250  -5.940  1.00  0.00     0.155 A 
HETATM    5  N4  UNL     1     -18.921 -98.449  -7.001  1.00  0.00    -0.276 N 
ATOM      6  H4  UNL     1     -19.652 -98.039  -7.582  1.00  0.00     0.184 HD
HETATM    7  N5  UNL     1     -17.618 -98.278  -7.169  1.00  0.00    -0.012 NA
HETATM    8  N6  UNL     1     -16.932 -98.941  -6.252  1.00  0.00    -0.206 N 
ENDROOT
BRANCH   4   9
HETATM    9  C4  UNL     1     -20.388 -99.716  -5.378  1.00  0.00     0.290 C 
HETATM   10  O1  UNL     1     -20.581 -99.638  -4.141  1.00  0.00    -0.264 OA
HETATM   11  N2  UNL     1     -21.404-100.252  -6.193  1.00  0.00    -0.265 N 
ATOM     12  H2  UNL     1     -21.263-100.322  -7.200  1.00  0.00     0.190 HD
BRANCH  11  13
HETATM   13  N3  UNL     1     -22.597-100.687  -5.631  1.00  0.00    -0.306 N 
HETATM   14  C5  UNL     1     -23.656 -99.972  -5.636  1.00  0.00     0.004 C 
HETATM   15  C6  UNL     1     -24.978-100.317  -5.076  1.00  0.00     0.054 C 
HETATM   16  C9  UNL     1     -23.775 -98.622  -6.221  1.00  0.00     0.054 C 
HETATM   17  C7  UNL     1     -25.715 -98.987  -4.938  1.00  0.00     0.006 C 
HETATM   18  C8  UNL     1     -24.643 -97.916  -5.182  1.00  0.00     0.006 C 
ATOM     19  H3  UNL     1     -22.628-101.610  -5.198  1.00  0.00     0.186 HD
ENDBRANCH  11  13
ENDBRANCH   4   9
BRANCH   8  20
HETATM   20  C10 UNL     1     -15.512 -99.017  -6.084  1.00  0.00     0.194 A 
HETATM   21  N7  UNL     1     -14.823 -99.539  -5.054  1.00  0.00    -0.221 N 
HETATM   22  O2  UNL     1     -13.555 -99.396  -5.319  1.00  0.00    -0.153 OA
ATOM     23  H7  UNL     1     -15.220 -99.970  -4.218  1.00  0.00     0.198 HD
HETATM   24  N8  UNL     1     -13.391 -98.811  -6.461  1.00  0.00    -0.222 N 
HETATM   25  C11 UNL     1     -14.592 -98.541  -7.004  1.00  0.00     0.169 A 
ATOM     26  H8  UNL     1     -12.490 -98.589  -6.884  1.00  0.00     0.198 HD
BRANCH  25  27
HETATM   27  N9  UNL     1     -14.863 -97.970  -8.125  1.00  0.00    -0.381 N 
ATOM     28  H92 UNL     1     -15.392 -97.115  -8.298  1.00  0.00     0.157 HD
ATOM     29  H91 UNL     1     -14.582 -98.294  -9.050  1.00  0.00     0.157 HD
ENDBRANCH  25  27
ENDBRANCH   8  20
TORSDOF 4
ENDMDL
MODEL 3
REMARK VINA RESULT: -6.561438958      2.122      7.616
REMARK  4 active torsions:
REMARK  status: ('A' for Active; 'I' for Inactive)
REMARK    1  A    between atoms: C3_4  and  C4_5 
REMARK       I    between atoms: C4_5  and  N2_7 
REMARK    2  A    between atoms: N2_7  and  N3_9 
REMARK    3  A    between atoms: N6_19  and  C10_20 
REMARK    4  A    between atoms: C11_26  and  N9_27 
ROOT
HETATM    1  N1  UNL     1     -18.916 -99.363  -3.237  1.00  0.00    -0.190 NA
HETATM    2  C1  UNL     1     -18.396 -99.164  -4.232  1.00  0.00     0.122 C 
HETATM    3  C2  UNL     1     -17.745 -98.924  -5.497  1.00  0.00     0.170 A 
HETATM    4  C3  UNL     1     -18.305 -98.389  -6.638  1.00  0.00     0.155 A 
HETATM    5  N4  UNL     1     -17.305 -98.366  -7.538  1.00  0.00    -0.276 N 
ATOM      6  H4  UNL     1     -17.379 -98.027  -8.497  1.00  0.00     0.184 HD
HETATM    7  N5  UNL     1     -16.209 -98.856  -6.977  1.00  0.00    -0.012 NA
HETATM    8  N6  UNL     1     -16.437 -99.210  -5.722  1.00  0.00    -0.206 N 
ENDROOT
BRANCH   4   9
HETATM    9  C4  UNL     1     -19.688 -97.954  -6.802  1.00  0.00     0.290 C 
HETATM   10  O1  UNL     1     -19.960 -96.730  -6.757  1.00  0.00    -0.264 OA
HETATM   11  N2  UNL     1     -20.732 -98.876  -7.012  1.00  0.00    -0.265 N 
ATOM     12  H2  UNL     1     -20.528 -99.874  -7.052  1.00  0.00     0.190 HD
BRANCH  11  13
HETATM   13  N3  UNL     1     -22.039 -98.432  -7.166  1.00  0.00    -0.306 N 
HETATM   14  C5  UNL     1     -22.969 -98.748  -6.348  1.00  0.00     0.004 C 
HETATM   15  C6  UNL     1     -24.388 -98.345  -6.400  1.00  0.00     0.054 C 
HETATM   16  C9  UNL     1     -22.808 -99.603  -5.156  1.00  0.00     0.054 C 
HETATM   17  C7  UNL     1     -25.121 -99.337  -5.500  1.00  0.00     0.006 C 
HETATM   18  C8  UNL     1     -24.088-100.432  -5.199  1.00  0.00     0.006 C 
ATOM     19  H3  UNL     1     -22.264 -97.832  -7.959  1.00  0.00     0.186 HD
ENDBRANCH  11  13
ENDBRANCH   4   9
BRANCH   8  20
HETATM   20  C10 UNL     1     -15.524 -99.776  -4.776  1.00  0.00     0.194 A 
HETATM   21  N7  UNL     1     -15.785-100.225  -3.535  1.00  0.00    -0.221 N 
HETATM   22  O2  UNL     1     -14.662-100.655  -3.032  1.00  0.00    -0.153 OA
ATOM     23  H7  UNL     1     -16.694-100.229  -3.072  1.00  0.00     0.198 HD
HETATM   24  N8  UNL     1     -13.696-100.507  -3.879  1.00  0.00    -0.222 N 
HETATM   25  C11 UNL     1     -14.171 -99.955  -5.010  1.00  0.00     0.169 A 
ATOM     26  H8  UNL     1     -12.724-100.770  -3.715  1.00  0.00     0.198 HD
BRANCH  25  27
HETATM   27  N9  UNL     1     -13.539 -99.647  -6.088  1.00  0.00    -0.381 N 
ATOM     28  H92 UNL     1     -13.630-100.049  -7.022  1.00  0.00     0.157 HD
ATOM     29  H91 UNL     1     -12.823 -98.927  -6.182  1.00  0.00     0.157 HD
ENDBRANCH  25  27
ENDBRANCH   8  20
TORSDOF 4
ENDMDL
MODEL 4
REMARK VINA RESULT: -6.444162705      1.992      3.080
REMARK  4 active torsions:
REMARK  status: ('A' for Active; 'I' for Inactive)
REMARK    1  A    between atoms: C3_4  and  C4_5 
REMARK       I    between atoms: C4_5  and  N2_7 
REMARK    2  A    between atoms: N2_7  and  N3_9 
REMARK    3  A    between atoms: N6_19  and  C10_20 
REMARK    4  A    between atoms: C11_26  and  N9_27 
ROOT
HETATM    1  N1  UNL     1     -20.302-100.331  -3.385  1.00  0.00    -0.190 NA
HETATM    2  C1  UNL     1     -20.362 -99.816  -4.400  1.00  0.00     0.122 C 
HETATM    3  C2  UNL     1     -20.436 -99.151  -5.678  1.00  0.00     0.170 A 
HETATM    4  C3  UNL     1     -19.386 -98.678  -6.437  1.00  0.00     0.155 A 
HETATM    5  N4  UNL     1     -19.960 -98.146  -7.531  1.00  0.00    -0.276 N 
ATOM      6  H4  UNL     1     -19.464 -97.705  -8.305  1.00  0.00     0.184 HD
HETATM    7  N5  UNL     1     -21.274 -98.289  -7.441  1.00  0.00    -0.012 NA
HETATM    8  N6  UNL     1     -21.608 -98.903  -6.317  1.00  0.00    -0.206 N 
ENDROOT
BRANCH   4   9
HETATM    9  C4  UNL     1     -17.969 -98.751  -6.096  1.00  0.00     0.290 C 
HETATM   10  O1  UNL     1     -17.109 -98.470  -6.965  1.00  0.00    -0.264 OA
HETATM   11  N2  UNL     1     -17.538 -99.131  -4.810  1.00  0.00    -0.265 N 
ATOM     12  H2  UNL     1     -18.224 -99.362  -4.092  1.00  0.00     0.190 HD
BRANCH  11  13
HETATM   13  N3  UNL     1     -16.183 -99.192  -4.515  1.00  0.00    -0.306 N 
HETATM   14  C5  UNL     1     -15.569-100.300  -4.344  1.00  0.00     0.004 C 
HETATM   15  C6  UNL     1     -14.140-100.498  -4.029  1.00  0.00     0.054 C 
HETATM   16  C9  UNL     1     -16.180-101.640  -4.432  1.00  0.00     0.054 C 
HETATM   17  C7  UNL     1     -14.042-101.922  -3.489  1.00  0.00     0.006 C 
HETATM   18  C8  UNL     1     -15.496-102.363  -3.275  1.00  0.00     0.006 C 
ATOM     19  H3  UNL     1     -15.659 -98.320  -4.431  1.00  0.00     0.186 HD
ENDBRANCH  11  13
ENDBRANCH   4   9
BRANCH   8  20
HETATM   20  C10 UNL     1     -22.914 -99.247  -5.843  1.00  0.00     0.194 A 
HETATM   21  N7  UNL     1     -23.885 -98.424  -5.407  1.00  0.00    -0.221 N 
HETATM   22  O2  UNL     1     -24.904 -99.164  -5.075  1.00  0.00    -0.153 OA
ATOM     23  H7  UNL     1     -23.832 -97.407  -5.347  1.00  0.00     0.198 HD
HETATM   24  N8  UNL     1     -24.644-100.415  -5.273  1.00  0.00    -0.222 N 
HETATM   25  C11 UNL     1     -23.397-100.542  -5.761  1.00  0.00     0.169 A 
ATOM     26  H8  UNL     1     -25.285-101.186  -5.088  1.00  0.00     0.198 HD
BRANCH  25  27
HETATM   27  N9  UNL     1     -22.761-101.613  -6.089  1.00  0.00    -0.381 N 
ATOM     28  H92 UNL     1     -22.003-102.085  -5.596  1.00  0.00     0.157 HD
ATOM     29  H91 UNL     1     -22.922-102.177  -6.923  1.00  0.00     0.157 HD
ENDBRANCH  25  27
ENDBRANCH   8  20
TORSDOF 4
ENDMDL
MODEL 5
REMARK VINA RESULT: -6.365817137      2.408      7.617
REMARK  4 active torsions:
REMARK  status: ('A' for Active; 'I' for Inactive)
REMARK    1  A    between atoms: C3_4  and  C4_5 
REMARK       I    between atoms: C4_5  and  N2_7 
REMARK    2  A    between atoms: N2_7  and  N3_9 
REMARK    3  A    between atoms: N6_19  and  C10_20 
REMARK    4  A    between atoms: C11_26  and  N9_27 
ROOT
HETATM    1  N1  UNL     1     -14.318 -99.673  -5.766  1.00  0.00    -0.190 NA
HETATM    2  C1  UNL     1     -14.994-100.279  -5.076  1.00  0.00     0.122 C 
HETATM    3  C2  UNL     1     -15.850-101.035  -4.194  1.00  0.00     0.170 A 
HETATM    4  C3  UNL     1     -17.213-100.902  -4.036  1.00  0.00     0.155 A 
HETATM    5  N4  UNL     1     -17.546-101.821  -3.111  1.00  0.00    -0.276 N 
ATOM      6  H4  UNL     1     -18.488-101.990  -2.757  1.00  0.00     0.184 HD
HETATM    7  N5  UNL     1     -16.454-102.469  -2.734  1.00  0.00    -0.012 NA
HETATM    8  N6  UNL     1     -15.390-102.016  -3.377  1.00  0.00    -0.206 N 
ENDROOT
BRANCH   4   9
HETATM    9  C4  UNL     1     -18.079 -99.957  -4.734  1.00  0.00     0.290 C 
HETATM   10  O1  UNL     1     -18.203 -98.790  -4.293  1.00  0.00    -0.264 OA
HETATM   11  N2  UNL     1     -18.782-100.322  -5.899  1.00  0.00    -0.265 N 
ATOM     12  H2  UNL     1     -18.691-101.267  -6.271  1.00  0.00     0.190 HD
BRANCH  11  13
HETATM   13  N3  UNL     1     -19.598 -99.402  -6.543  1.00  0.00    -0.306 N 
HETATM   14  C5  UNL     1     -20.803 -99.183  -6.177  1.00  0.00     0.004 C 
HETATM   15  C6  UNL     1     -21.766 -98.237  -6.774  1.00  0.00     0.054 C 
HETATM   16  C9  UNL     1     -21.491 -99.848  -5.054  1.00  0.00     0.054 C 
HETATM   17  C7  UNL     1     -23.136 -98.696  -6.281  1.00  0.00     0.006 C 
HETATM   18  C8  UNL     1     -22.885-100.066  -5.638  1.00  0.00     0.006 C 
ATOM     19  H3  UNL     1     -19.221 -98.882  -7.336  1.00  0.00     0.186 HD
ENDBRANCH  11  13
ENDBRANCH   4   9
BRANCH   8  20
HETATM   20  C10 UNL     1     -14.029-102.445  -3.261  1.00  0.00     0.194 A 
HETATM   21  N7  UNL     1     -12.916-101.796  -3.647  1.00  0.00    -0.221 N 
HETATM   22  O2  UNL     1     -11.899-102.554  -3.349  1.00  0.00    -0.153 OA
ATOM     23  H7  UNL     1     -12.875-100.879  -4.091  1.00  0.00     0.198 HD
HETATM   24  N8  UNL     1     -12.295-103.653  -2.794  1.00  0.00    -0.222 N 
HETATM   25  C11 UNL     1     -13.637-103.652  -2.706  1.00  0.00     0.169 A 
ATOM     26  H8  UNL     1     -11.684-104.404  -2.473  1.00  0.00     0.198 HD
BRANCH  25  27
HETATM   27  N9  UNL     1     -14.417-104.554  -2.219  1.00  0.00    -0.381 N 
ATOM     28  H92 UNL     1     -15.124-105.115  -2.695  1.00  0.00     0.157 HD
ATOM     29  H91 UNL     1     -14.451-104.860  -1.247  1.00  0.00     0.157 HD
ENDBRANCH  25  27
ENDBRANCH   8  20
TORSDOF 4
ENDMDL
