MODEL 1
REMARK VINA RESULT: -8.452529605      0.000      0.000
REMARK  6 active torsions:
REMARK  status: ('A' for Active; 'I' for Inactive)
REMARK    1  A    between atoms: C3_4  and  S1_5 
REMARK    2  A    between atoms: S1_5  and  C4_6 
REMARK    3  A    between atoms: C4_6  and  C5_8 
REMARK    4  A    between atoms: C5_8  and  O4_10 
REMARK    5  A    between atoms: O4_10  and  N1_11 
REMARK    6  A    between atoms: N1_11  and  C6_13 
ROOT
HETATM    1  C5  UNL     1     -19.274 -98.681  -5.517  1.00  0.00     0.363 C 
HETATM    2  O3  UNL     1     -18.916 -97.919  -6.437  1.00  0.00    -0.253 OA
ENDROOT
BRANCH   1   3
HETATM    3  C4  UNL     1     -18.445 -99.763  -5.032  1.00  0.00     0.292 C 
HETATM    4  O2  UNL     1     -18.298-100.815  -5.735  1.00  0.00    -0.273 OA
BRANCH   3   5
HETATM    5  S1  UNL     1     -17.609 -99.692  -3.477  1.00  0.00    -0.016 SA
BRANCH   5   6
HETATM    6  C3  UNL     1     -16.480-101.055  -3.339  1.00  0.00     0.126 A 
HETATM    7  O1  UNL     1     -16.692-102.252  -2.831  1.00  0.00    -0.307 OA
HETATM    8  C2  UNL     1     -15.617-103.001  -2.900  1.00  0.00     0.057 A 
HETATM    9  C1  UNL     1     -15.497-104.405  -2.422  1.00  0.00     0.077 C 
HETATM   10  C9  UNL     1     -14.612-102.266  -3.492  1.00  0.00    -0.023 A 
HETATM   11  C7  UNL     1     -15.170-101.037  -3.766  1.00  0.00    -0.013 A 
HETATM   12  C10 UNL     1     -13.210-102.680  -3.789  1.00  0.00     0.051 C 
HETATM   13  C8  UNL     1     -14.440 -99.896  -4.418  1.00  0.00     0.052 C 
ENDBRANCH   5   6
ENDBRANCH   3   5
ENDBRANCH   1   3
BRANCH   1  14
HETATM   14  O4  UNL     1     -20.506 -98.467  -4.955  1.00  0.00    -0.177 OA
BRANCH  14  15
HETATM   15  N1  UNL     1     -21.680 -98.437  -5.658  1.00  0.00    -0.085 N 
ATOM     16  H1  UNL     1     -21.929 -97.589  -6.169  1.00  0.00     0.214 HD
BRANCH  15  17
HETATM   17  C6  UNL     1     -22.487 -99.457  -5.696  1.00  0.00     0.734 A 
HETATM   18  N2  UNL     1     -23.801 -99.512  -5.492  1.00  0.00    -0.113 N 
HETATM   19  N3  UNL     1     -24.196-100.766  -5.636  1.00  0.00    -0.213 N 
ATOM     20  H2  UNL     1     -24.402 -98.721  -5.263  1.00  0.00     0.207 HD
HETATM   21  N4  UNL     1     -23.153-101.519  -5.930  1.00  0.00    -0.213 N 
ATOM     22  H3  UNL     1     -25.155-101.098  -5.536  1.00  0.00     0.210 HD
HETATM   23  N5  UNL     1     -22.088-100.709  -5.969  1.00  0.00    -0.113 N 
ATOM     24  H4  UNL     1     -23.158-102.525  -6.096  1.00  0.00     0.210 HD
ATOM     25  H5  UNL     1     -21.131-100.997  -6.171  1.00  0.00     0.207 HD
ENDBRANCH  15  17
ENDBRANCH  14  15
ENDBRANCH   1  14
TORSDOF 6
ENDMDL
MODEL 2
REMARK VINA RESULT: -8.376579118      0.880      1.228
REMARK  6 active torsions:
REMARK  status: ('A' for Active; 'I' for Inactive)
REMARK    1  A    between atoms: C3_4  and  S1_5 
REMARK    2  A    between atoms: S1_5  and  C4_6 
REMARK    3  A    between atoms: C4_6  and  C5_8 
REMARK    4  A    between atoms: C5_8  and  O4_10 
REMARK    5  A    between atoms: O4_10  and  N1_11 
REMARK    6  A    between atoms: N1_11  and  C6_13 
ROOT
HETATM    1  C5  UNL     1     -19.583 -98.221  -6.506  1.00  0.00     0.363 C 
HETATM    2  O3  UNL     1     -18.938 -97.309  -7.060  1.00  0.00    -0.253 OA
ENDROOT
BRANCH   1   3
HETATM    3  C4  UNL     1     -18.948 -99.287  -5.764  1.00  0.00     0.292 C 
HETATM    4  O2  UNL     1     -19.000-100.484  -6.198  1.00  0.00    -0.273 OA
BRANCH   3   5
HETATM    5  S1  UNL     1     -18.082 -99.001  -4.250  1.00  0.00    -0.016 SA
BRANCH   5   6
HETATM    6  C3  UNL     1     -16.900-100.298  -3.980  1.00  0.00     0.126 A 
HETATM    7  O1  UNL     1     -17.052-101.426  -3.315  1.00  0.00    -0.307 OA
HETATM    8  C2  UNL     1     -15.954-102.143  -3.325  1.00  0.00     0.057 A 
HETATM    9  C1  UNL     1     -15.768-103.469  -2.676  1.00  0.00     0.077 C 
HETATM   10  C9  UNL     1     -14.995-101.459  -4.043  1.00  0.00    -0.023 A 
HETATM   11  C7  UNL     1     -15.606-100.294  -4.452  1.00  0.00    -0.013 A 
HETATM   12  C10 UNL     1     -13.589-101.863  -4.335  1.00  0.00     0.051 C 
HETATM   13  C8  UNL     1     -14.939 -99.225  -5.271  1.00  0.00     0.052 C 
ENDBRANCH   5   6
ENDBRANCH   3   5
ENDBRANCH   1   3
BRANCH   1  14
HETATM   14  O4  UNL     1     -20.950 -98.194  -6.618  1.00  0.00    -0.177 OA
BRANCH  14  15
HETATM   15  N1  UNL     1     -21.813 -98.544  -5.615  1.00  0.00    -0.085 N 
ATOM     16  H1  UNL     1     -21.865 -97.959  -4.781  1.00  0.00     0.214 HD
BRANCH  15  17
HETATM   17  C6  UNL     1     -22.567 -99.601  -5.694  1.00  0.00     0.734 A 
HETATM   18  N2  UNL     1     -22.242-100.863  -5.963  1.00  0.00    -0.113 N 
HETATM   19  N3  UNL     1     -23.343-101.597  -5.934  1.00  0.00    -0.213 N 
ATOM     20  H2  UNL     1     -21.302-101.207  -6.160  1.00  0.00     0.207 HD
HETATM   21  N4  UNL     1     -24.372-100.823  -5.649  1.00  0.00    -0.213 N 
ATOM     22  H3  UNL     1     -23.388-102.601  -6.105  1.00  0.00     0.210 HD
HETATM   23  N5  UNL     1     -23.895 -99.581  -5.498  1.00  0.00    -0.113 N 
ATOM     24  H4  UNL     1     -25.345-101.115  -5.560  1.00  0.00     0.210 HD
ATOM     25  H5  UNL     1     -24.450 -98.756  -5.272  1.00  0.00     0.207 HD
ENDBRANCH  15  17
ENDBRANCH  14  15
ENDBRANCH   1  14
TORSDOF 6
ENDMDL
MODEL 3
REMARK VINA RESULT: -8.278224596      0.817      1.084
REMARK  6 active torsions:
REMARK  status: ('A' for Active; 'I' for Inactive)
REMARK    1  A    between atoms: C3_4  and  S1_5 
REMARK    2  A    between atoms: S1_5  and  C4_6 
REMARK    3  A    between atoms: C4_6  and  C5_8 
REMARK    4  A    between atoms: C5_8  and  O4_10 
REMARK    5  A    between atoms: O4_10  and  N1_11 
REMARK    6  A    between atoms: N1_11  and  C6_13 
ROOT
HETATM    1  C5  UNL     1     -19.158 -98.631  -4.696  1.00  0.00     0.363 C 
HETATM    2  O3  UNL     1     -19.694 -97.977  -3.780  1.00  0.00    -0.253 OA
ENDROOT
BRANCH   1   3
HETATM    3  C4  UNL     1     -18.232 -99.712  -4.445  1.00  0.00     0.292 C 
HETATM    4  O2  UNL     1     -18.133-100.672  -5.276  1.00  0.00    -0.273 OA
BRANCH   3   5
HETATM    5  S1  UNL     1     -17.207 -99.765  -3.006  1.00  0.00    -0.016 SA
BRANCH   5   6
HETATM    6  C3  UNL     1     -16.216-101.238  -3.028  1.00  0.00     0.126 A 
HETATM    7  O1  UNL     1     -16.525-102.446  -2.599  1.00  0.00    -0.307 OA
HETATM    8  C2  UNL     1     -15.536-103.289  -2.778  1.00  0.00     0.057 A 
HETATM    9  C1  UNL     1     -15.538-104.730  -2.412  1.00  0.00     0.077 C 
HETATM   10  C9  UNL     1     -14.489-102.611  -3.367  1.00  0.00    -0.023 A 
HETATM   11  C7  UNL     1     -14.932-101.316  -3.520  1.00  0.00    -0.013 A 
HETATM   12  C10 UNL     1     -13.151-103.135  -3.767  1.00  0.00     0.051 C 
HETATM   13  C8  UNL     1     -14.120-100.204  -4.125  1.00  0.00     0.052 C 
ENDBRANCH   5   6
ENDBRANCH   3   5
ENDBRANCH   1   3
BRANCH   1  14
HETATM   14  O4  UNL     1     -19.472 -98.294  -5.988  1.00  0.00    -0.177 OA
BRANCH  14  15
HETATM   15  N1  UNL     1     -20.283 -99.037  -6.803  1.00  0.00    -0.085 N 
ATOM     16  H1  UNL     1     -19.951 -99.290  -7.734  1.00  0.00     0.214 HD
BRANCH  15  17
HETATM   17  C6  UNL     1     -21.465 -99.429  -6.425  1.00  0.00     0.734 A 
HETATM   18  N2  UNL     1     -22.576 -98.724  -6.232  1.00  0.00    -0.113 N 
HETATM   19  N3  UNL     1     -23.538 -99.548  -5.850  1.00  0.00    -0.213 N 
ATOM     20  H2  UNL     1     -22.671 -97.716  -6.357  1.00  0.00     0.207 HD
HETATM   21  N4  UNL     1     -23.058-100.777  -5.795  1.00  0.00    -0.213 N 
ATOM     22  H3  UNL     1     -24.496 -99.278  -5.633  1.00  0.00     0.210 HD
HETATM   23  N5  UNL     1     -21.770-100.708  -6.153  1.00  0.00    -0.113 N 
ATOM     24  H4  UNL     1     -23.572-101.618  -5.532  1.00  0.00     0.210 HD
ATOM     25  H5  UNL     1     -21.127-101.497  -6.208  1.00  0.00     0.207 HD
ENDBRANCH  15  17
ENDBRANCH  14  15
ENDBRANCH   1  14
TORSDOF 6
ENDMDL
MODEL 4
REMARK VINA RESULT: -8.154960808      1.477      2.325
REMARK  6 active torsions:
REMARK  status: ('A' for Active; 'I' for Inactive)
REMARK    1  A    between atoms: C3_4  and  S1_5 
REMARK    2  A    between atoms: S1_5  and  C4_6 
REMARK    3  A    between atoms: C4_6  and  C5_8 
REMARK    4  A    between atoms: C5_8  and  O4_10 
REMARK    5  A    between atoms: O4_10  and  N1_11 
REMARK    6  A    between atoms: N1_11  and  C6_13 
ROOT
HETATM    1  C5  UNL     1     -19.843 -98.259  -6.487  1.00  0.00     0.363 C 
HETATM    2  O3  UNL     1     -19.256 -97.231  -6.878  1.00  0.00    -0.253 OA
ENDROOT
BRANCH   1   3
HETATM    3  C4  UNL     1     -19.145 -99.379  -5.895  1.00  0.00     0.292 C 
HETATM    4  O2  UNL     1     -19.155-100.513  -6.473  1.00  0.00    -0.273 OA
BRANCH   3   5
HETATM    5  S1  UNL     1     -18.258 -99.244  -4.372  1.00  0.00    -0.016 SA
BRANCH   5   6
HETATM    6  C3  UNL     1     -16.558 -99.685  -4.626  1.00  0.00     0.126 A 
HETATM    7  O1  UNL     1     -15.674 -99.131  -5.432  1.00  0.00    -0.307 OA
HETATM    8  C2  UNL     1     -14.509 -99.728  -5.353  1.00  0.00     0.057 A 
HETATM    9  C1  UNL     1     -13.286 -99.366  -6.120  1.00  0.00     0.077 C 
HETATM   10  C9  UNL     1     -14.607-100.753  -4.436  1.00  0.00    -0.023 A 
HETATM   11  C7  UNL     1     -15.907-100.715  -3.983  1.00  0.00    -0.013 A 
HETATM   12  C10 UNL     1     -13.553-101.715  -4.002  1.00  0.00     0.051 C 
HETATM   13  C8  UNL     1     -16.481-101.656  -2.960  1.00  0.00     0.052 C 
ENDBRANCH   5   6
ENDBRANCH   3   5
ENDBRANCH   1   3
BRANCH   1  14
HETATM   14  O4  UNL     1     -21.206 -98.311  -6.633  1.00  0.00    -0.177 OA
BRANCH  14  15
HETATM   15  N1  UNL     1     -22.077 -98.640  -5.630  1.00  0.00    -0.085 N 
ATOM     16  H1  UNL     1     -22.132 -98.041  -4.805  1.00  0.00     0.214 HD
BRANCH  15  17
HETATM   17  C6  UNL     1     -22.837 -99.693  -5.697  1.00  0.00     0.734 A 
HETATM   18  N2  UNL     1     -24.146 -99.815  -5.488  1.00  0.00    -0.113 N 
HETATM   19  N3  UNL     1     -24.486-101.080  -5.671  1.00  0.00    -0.213 N 
ATOM     20  H2  UNL     1     -24.781 -99.060  -5.229  1.00  0.00     0.207 HD
HETATM   21  N4  UNL     1     -23.412-101.775  -5.996  1.00  0.00    -0.213 N 
ATOM     22  H3  UNL     1     -25.428-101.458  -5.577  1.00  0.00     0.210 HD
HETATM   23  N5  UNL     1     -22.385-100.917  -6.013  1.00  0.00    -0.113 N 
ATOM     24  H4  UNL     1     -23.373-102.774  -6.195  1.00  0.00     0.210 HD
ATOM     25  H5  UNL     1     -21.417-101.154  -6.231  1.00  0.00     0.207 HD
ENDBRANCH  15  17
ENDBRANCH  14  15
ENDBRANCH   1  14
TORSDOF 6
ENDMDL
MODEL 5
REMARK VINA RESULT: -8.057630087      1.266      2.241
REMARK  6 active torsions:
REMARK  status: ('A' for Active; 'I' for Inactive)
REMARK    1  A    between atoms: C3_4  and  S1_5 
REMARK    2  A    between atoms: S1_5  and  C4_6 
REMARK    3  A    between atoms: C4_6  and  C5_8 
REMARK    4  A    between atoms: C5_8  and  O4_10 
REMARK    5  A    between atoms: O4_10  and  N1_11 
REMARK    6  A    between atoms: N1_11  and  C6_13 
ROOT
HETATM    1  C5  UNL     1     -19.194 -98.523  -5.883  1.00  0.00     0.363 C 
HETATM    2  O3  UNL     1     -18.238 -98.449  -6.680  1.00  0.00    -0.253 OA
ENDROOT
BRANCH   1   3
HETATM    3  C4  UNL     1     -19.014 -98.766  -4.469  1.00  0.00     0.292 C 
HETATM    4  O2  UNL     1     -19.287 -97.851  -3.626  1.00  0.00    -0.273 OA
BRANCH   3   5
HETATM    5  S1  UNL     1     -18.420-100.307  -3.842  1.00  0.00    -0.016 SA
BRANCH   5   6
HETATM    6  C3  UNL     1     -16.688-100.473  -4.196  1.00  0.00     0.126 A 
HETATM    7  O1  UNL     1     -15.927 -99.715  -4.960  1.00  0.00    -0.307 OA
HETATM    8  C2  UNL     1     -14.689-100.147  -4.986  1.00  0.00     0.057 A 
HETATM    9  C1  UNL     1     -13.564 -99.535  -5.744  1.00  0.00     0.077 C 
HETATM   10  C9  UNL     1     -14.603-101.269  -4.189  1.00  0.00    -0.023 A 
HETATM   11  C7  UNL     1     -15.874-101.464  -3.695  1.00  0.00    -0.013 A 
HETATM   12  C10 UNL     1     -13.409-102.114  -3.900  1.00  0.00     0.051 C 
HETATM   13  C8  UNL     1     -16.265-102.583  -2.769  1.00  0.00     0.052 C 
ENDBRANCH   5   6
ENDBRANCH   3   5
ENDBRANCH   1   3
BRANCH   1  14
HETATM   14  O4  UNL     1     -20.459 -98.364  -6.387  1.00  0.00    -0.177 OA
BRANCH  14  15
HETATM   15  N1  UNL     1     -21.602 -98.415  -5.635  1.00  0.00    -0.085 N 
ATOM     16  H1  UNL     1     -21.823 -97.634  -5.017  1.00  0.00     0.214 HD
BRANCH  15  17
HETATM   17  C6  UNL     1     -22.414 -99.430  -5.685  1.00  0.00     0.734 A 
HETATM   18  N2  UNL     1     -23.726 -99.483  -5.469  1.00  0.00    -0.113 N 
HETATM   19  N3  UNL     1     -24.130-100.732  -5.635  1.00  0.00    -0.213 N 
ATOM     20  H2  UNL     1     -24.321 -98.693  -5.217  1.00  0.00     0.207 HD
HETATM   21  N4  UNL     1     -23.094-101.483  -5.955  1.00  0.00    -0.213 N 
ATOM     22  H3  UNL     1     -25.090-101.061  -5.531  1.00  0.00     0.210 HD
HETATM   23  N5  UNL     1     -22.026-100.678  -5.988  1.00  0.00    -0.113 N 
ATOM     24  H4  UNL     1     -23.106-102.486  -6.142  1.00  0.00     0.210 HD
ATOM     25  H5  UNL     1     -21.072-100.966  -6.207  1.00  0.00     0.207 HD
ENDBRANCH  15  17
ENDBRANCH  14  15
ENDBRANCH   1  14
TORSDOF 6
ENDMDL
