MODEL 1
REMARK VINA RESULT: -8.510511907      0.000      0.000
REMARK  13 active torsions:
REMARK  status: ('A' for Active; 'I' for Inactive)
REMARK    1  A    between atoms: C2_2  and  C3_3 
REMARK    2  A    between atoms: C4_5  and  C5_6 
REMARK    3  A    between atoms: C5_6  and  O2_7 
REMARK    4  A    between atoms: O2_7  and  C6_8 
REMARK    5  A    between atoms: C9_11  and  O3_12 
REMARK    6  A    between atoms: C10_14  and  O4_15 
REMARK    7  A    between atoms: C11_17  and  O5_18 
REMARK    8  A    between atoms: C12_20  and  C13_21 
REMARK    9  A    between atoms: C13_21  and  O6_22 
REMARK   10  A    between atoms: C17_27  and  O7_28 
REMARK   11  A    between atoms: O7_28  and  C18_29 
REMARK   12  A    between atoms: C21_35  and  C22_36 
REMARK   13  A    between atoms: C22_36  and  O8_37 
ROOT
HETATM    1  C3  UNL     1      12.056  -8.459   2.557  1.00  0.00     0.150 C 
HETATM    2  O1  UNL     1      11.648  -7.792   1.404  1.00  0.00    -0.373 OA
HETATM    3  C4  UNL     1      12.732  -7.120   0.876  1.00  0.00     0.159 C 
HETATM    4  C12 UNL     1      13.148  -6.052   1.859  1.00  0.00     0.036 C 
HETATM    5  C14 UNL     1      11.919  -5.464   2.531  1.00  0.00     0.017 C 
HETATM    6  C15 UNL     1      11.660  -6.311   3.758  1.00  0.00     0.011 C 
HETATM    7  C16 UNL     1      12.582  -7.498   3.570  1.00  0.00     0.048 C 
HETATM    8  C17 UNL     1      13.823  -6.751   2.998  1.00  0.00     0.144 C 
ENDROOT
BRANCH   3   9
HETATM    9  C5  UNL     1      12.413  -6.600  -0.498  1.00  0.00     0.201 C 
BRANCH   9  10
HETATM   10  O2  UNL     1      11.780  -7.526  -1.295  1.00  0.00    -0.381 OA
BRANCH  10  11
HETATM   11  C6  UNL     1      11.004  -7.018  -2.292  1.00  0.00     0.153 C 
HETATM   12  C7  UNL     1      11.410  -5.653  -2.727  1.00  0.00     0.037 C 
HETATM   13  C8  UNL     1      10.354  -4.814  -3.332  1.00  0.00     0.037 C 
HETATM   14  C9  UNL     1       9.129  -5.469  -3.831  1.00  0.00     0.149 C 
HETATM   15  C10 UNL     1       8.860  -6.859  -3.368  1.00  0.00     0.178 C 
HETATM   16  C11 UNL     1       9.526  -7.023  -2.011  1.00  0.00     0.178 C 
BRANCH  14  17
HETATM   17  O3  UNL     1       9.199  -5.519  -5.244  1.00  0.00    -0.393 OA
ATOM     18  H3  UNL     1       8.572  -6.164  -5.549  1.00  0.00     0.210 HD
ENDBRANCH  14  17
BRANCH  15  19
HETATM   19  O4  UNL     1       7.490  -7.062  -3.247  1.00  0.00    -0.390 OA
ATOM     20  H4  UNL     1       7.152  -7.474  -4.034  1.00  0.00     0.210 HD
ENDBRANCH  15  19
BRANCH  16  21
HETATM   21  O5  UNL     1       9.096  -5.930  -1.262  1.00  0.00    -0.390 OA
ATOM     22  H5  UNL     1       9.213  -6.041  -0.326  1.00  0.00     0.210 HD
ENDBRANCH  16  21
ENDBRANCH  10  11
ENDBRANCH   9  10
ENDBRANCH   3   9
BRANCH   4  23
HETATM   23  C13 UNL     1      13.957  -4.971   1.232  1.00  0.00     0.178 C 
BRANCH  23  24
HETATM   24  O6  UNL     1      15.296  -5.292   1.221  1.00  0.00    -0.400 OA
ATOM     25  H6  UNL     1      15.836  -4.522   1.359  1.00  0.00     0.209 HD
ENDBRANCH  23  24
ENDBRANCH   4  23
BRANCH   1  26
HETATM   26  C2  UNL     1      10.907  -9.189   3.104  1.00  0.00    -0.005 C 
HETATM   27  C1  UNL     1      10.149 -10.000   2.360  1.00  0.00     0.009 C 
ENDBRANCH   1  26
BRANCH   8  28
HETATM   28  O7  UNL     1      14.235  -5.846   3.941  1.00  0.00    -0.354 OA
BRANCH  28  29
HETATM   29  C18 UNL     1      15.382  -6.222   4.646  1.00  0.00     0.264 C 
HETATM   30  C19 UNL     1      15.020  -6.384   6.093  1.00  0.00     0.088 C 
HETATM   31  C20 UNL     1      16.216  -6.867   6.915  1.00  0.00     0.240 C 
HETATM   32  N1  UNL     1      17.242  -7.352   6.003  1.00  0.00    -0.046 N 
HETATM   33  C21 UNL     1      16.677  -8.136   4.939  1.00  0.00     0.346 C 
ATOM     34  H12 UNL     1      17.810  -6.586   5.640  1.00  0.00     0.280 HD
ATOM     35  H11 UNL     1      17.970  -7.867   6.499  1.00  0.00     0.280 HD
HETATM   36  O9  UNL     1      15.868  -7.416   4.094  1.00  0.00    -0.327 OA
BRANCH  33  37
HETATM   37  C22 UNL     1      17.851  -8.664   4.112  1.00  0.00     0.225 C 
BRANCH  37  38
HETATM   38  O8  UNL     1      18.991  -7.883   4.365  1.00  0.00    -0.397 OA
ATOM     39  H8  UNL     1      19.746  -8.280   3.947  1.00  0.00     0.209 HD
ENDBRANCH  37  38
ENDBRANCH  33  37
ENDBRANCH  28  29
ENDBRANCH   8  28
TORSDOF 13
ENDMDL
MODEL 2
REMARK VINA RESULT: -8.273245545      0.853      1.572
REMARK  13 active torsions:
REMARK  status: ('A' for Active; 'I' for Inactive)
REMARK    1  A    between atoms: C2_2  and  C3_3 
REMARK    2  A    between atoms: C4_5  and  C5_6 
REMARK    3  A    between atoms: C5_6  and  O2_7 
REMARK    4  A    between atoms: O2_7  and  C6_8 
REMARK    5  A    between atoms: C9_11  and  O3_12 
REMARK    6  A    between atoms: C10_14  and  O4_15 
REMARK    7  A    between atoms: C11_17  and  O5_18 
REMARK    8  A    between atoms: C12_20  and  C13_21 
REMARK    9  A    between atoms: C13_21  and  O6_22 
REMARK   10  A    between atoms: C17_27  and  O7_28 
REMARK   11  A    between atoms: O7_28  and  C18_29 
REMARK   12  A    between atoms: C21_35  and  C22_36 
REMARK   13  A    between atoms: C22_36  and  O8_37 
ROOT
HETATM    1  C3  UNL     1      11.967  -8.453   2.796  1.00  0.00     0.150 C 
HETATM    2  O1  UNL     1      11.465  -7.727   1.717  1.00  0.00    -0.373 OA
HETATM    3  C4  UNL     1      12.492  -6.985   1.168  1.00  0.00     0.159 C 
HETATM    4  C12 UNL     1      12.939  -5.970   2.193  1.00  0.00     0.036 C 
HETATM    5  C14 UNL     1      11.738  -5.469   2.979  1.00  0.00     0.017 C 
HETATM    6  C15 UNL     1      11.586  -6.402   4.160  1.00  0.00     0.011 C 
HETATM    7  C16 UNL     1      12.528  -7.542   3.836  1.00  0.00     0.048 C 
HETATM    8  C17 UNL     1      13.707  -6.718   3.238  1.00  0.00     0.144 C 
ENDROOT
BRANCH   3   9
HETATM    9  C5  UNL     1      12.070  -6.388  -0.144  1.00  0.00     0.201 C 
BRANCH   9  10
HETATM   10  O2  UNL     1      11.889  -7.327  -1.134  1.00  0.00    -0.381 OA
BRANCH  10  11
HETATM   11  C6  UNL     1      10.663  -7.335  -1.727  1.00  0.00     0.153 C 
HETATM   12  C7  UNL     1       9.919  -8.611  -1.545  1.00  0.00     0.037 C 
HETATM   13  C8  UNL     1       8.912  -8.940  -2.575  1.00  0.00     0.037 C 
HETATM   14  C9  UNL     1       8.421  -7.859  -3.453  1.00  0.00     0.149 C 
HETATM   15  C10 UNL     1       9.223  -6.605  -3.509  1.00  0.00     0.178 C 
HETATM   16  C11 UNL     1      10.662  -6.972  -3.188  1.00  0.00     0.178 C 
BRANCH  14  17
HETATM   17  O3  UNL     1       7.124  -7.493  -3.020  1.00  0.00    -0.393 OA
ATOM     18  H3  UNL     1       7.073  -6.544  -3.007  1.00  0.00     0.210 HD
ENDBRANCH  14  17
BRANCH  15  19
HETATM   19  O4  UNL     1       9.151  -6.051  -4.782  1.00  0.00    -0.390 OA
ATOM     20  H4  UNL     1       9.851  -6.394  -5.325  1.00  0.00     0.210 HD
ENDBRANCH  15  19
BRANCH  16  21
HETATM   21  O5  UNL     1      10.960  -8.042  -4.029  1.00  0.00    -0.390 OA
ATOM     22  H5  UNL     1      11.258  -8.817  -3.567  1.00  0.00     0.210 HD
ENDBRANCH  16  21
ENDBRANCH  10  11
ENDBRANCH   9  10
ENDBRANCH   3   9
BRANCH   4  23
HETATM   23  C13 UNL     1      13.672  -4.823   1.591  1.00  0.00     0.178 C 
BRANCH  23  24
HETATM   24  O6  UNL     1      15.022  -5.086   1.501  1.00  0.00    -0.400 OA
ATOM     25  H6  UNL     1      15.396  -5.255   2.358  1.00  0.00     0.209 HD
ENDBRANCH  23  24
ENDBRANCH   4  23
BRANCH   1  26
HETATM   26  C2  UNL     1      10.878  -9.256   3.363  1.00  0.00    -0.005 C 
HETATM   27  C1  UNL     1      10.109 -10.054   2.617  1.00  0.00     0.009 C 
ENDBRANCH   1  26
BRANCH   8  28
HETATM   28  O7  UNL     1      14.152  -5.863   4.212  1.00  0.00    -0.354 OA
BRANCH  28  29
HETATM   29  C18 UNL     1      15.325  -6.271   4.854  1.00  0.00     0.264 C 
HETATM   30  C19 UNL     1      15.006  -6.560   6.290  1.00  0.00     0.088 C 
HETATM   31  C20 UNL     1      16.233  -7.084   7.039  1.00  0.00     0.240 C 
HETATM   32  N1  UNL     1      17.243  -7.469   6.062  1.00  0.00    -0.046 N 
HETATM   33  C21 UNL     1      16.664  -8.175   4.952  1.00  0.00     0.346 C 
ATOM     34  H12 UNL     1      17.786  -6.664   5.750  1.00  0.00     0.280 HD
ATOM     35  H11 UNL     1      17.994  -8.008   6.495  1.00  0.00     0.280 HD
HETATM   36  O9  UNL     1      15.818  -7.404   4.191  1.00  0.00    -0.327 OA
BRANCH  33  37
HETATM   37  C22 UNL     1      17.825  -8.605   4.053  1.00  0.00     0.225 C 
BRANCH  37  38
HETATM   38  O8  UNL     1      18.968  -7.851   4.369  1.00  0.00    -0.397 OA
ATOM     39  H8  UNL     1      19.326  -7.471   3.576  1.00  0.00     0.209 HD
ENDBRANCH  37  38
ENDBRANCH  33  37
ENDBRANCH  28  29
ENDBRANCH   8  28
TORSDOF 13
ENDMDL
MODEL 3
REMARK VINA RESULT: -8.269413123      4.472      7.063
REMARK  13 active torsions:
REMARK  status: ('A' for Active; 'I' for Inactive)
REMARK    1  A    between atoms: C2_2  and  C3_3 
REMARK    2  A    between atoms: C4_5  and  C5_6 
REMARK    3  A    between atoms: C5_6  and  O2_7 
REMARK    4  A    between atoms: O2_7  and  C6_8 
REMARK    5  A    between atoms: C9_11  and  O3_12 
REMARK    6  A    between atoms: C10_14  and  O4_15 
REMARK    7  A    between atoms: C11_17  and  O5_18 
REMARK    8  A    between atoms: C12_20  and  C13_21 
REMARK    9  A    between atoms: C13_21  and  O6_22 
REMARK   10  A    between atoms: C17_27  and  O7_28 
REMARK   11  A    between atoms: O7_28  and  C18_29 
REMARK   12  A    between atoms: C21_35  and  C22_36 
REMARK   13  A    between atoms: C22_36  and  O8_37 
ROOT
HETATM    1  C3  UNL     1       9.487  -5.750  -3.497  1.00  0.00     0.150 C 
HETATM    2  O1  UNL     1       9.419  -7.141  -3.543  1.00  0.00    -0.373 OA
HETATM    3  C4  UNL     1       9.551  -7.632  -2.259  1.00  0.00     0.159 C 
HETATM    4  C12 UNL     1      10.935  -7.290  -1.764  1.00  0.00     0.036 C 
HETATM    5  C14 UNL     1      11.930  -7.385  -2.909  1.00  0.00     0.017 C 
HETATM    6  C15 UNL     1      11.964  -6.018  -3.556  1.00  0.00     0.011 C 
HETATM    7  C16 UNL     1      10.789  -5.299  -2.927  1.00  0.00     0.048 C 
HETATM    8  C17 UNL     1      10.939  -5.822  -1.467  1.00  0.00     0.144 C 
ENDROOT
BRANCH   3   9
HETATM    9  C5  UNL     1       9.229  -9.099  -2.219  1.00  0.00     0.201 C 
BRANCH   9  10
HETATM   10  O2  UNL     1       9.323  -9.709  -3.449  1.00  0.00    -0.381 OA
BRANCH  10  11
HETATM   11  C6  UNL     1       9.972 -10.906  -3.470  1.00  0.00     0.153 C 
HETATM   12  C7  UNL     1      11.182 -10.943  -2.604  1.00  0.00     0.037 C 
HETATM   13  C8  UNL     1      12.233 -11.911  -2.983  1.00  0.00     0.037 C 
HETATM   14  C9  UNL     1      11.879 -13.019  -3.892  1.00  0.00     0.149 C 
HETATM   15  C10 UNL     1      10.611 -12.892  -4.665  1.00  0.00     0.178 C 
HETATM   16  C11 UNL     1      10.335 -11.408  -4.841  1.00  0.00     0.178 C 
BRANCH  14  17
HETATM   17  O3  UNL     1      11.768 -14.203  -3.124  1.00  0.00    -0.393 OA
ATOM     18  H3  UNL     1      11.973 -14.941  -3.686  1.00  0.00     0.210 HD
ENDBRANCH  14  17
BRANCH  15  19
HETATM   19  O4  UNL     1      10.751 -13.496  -5.909  1.00  0.00    -0.390 OA
ATOM     20  H4  UNL     1      10.050 -14.123  -6.046  1.00  0.00     0.210 HD
ENDBRANCH  15  19
BRANCH  16  21
HETATM   21  O5  UNL     1      11.523 -10.873  -5.335  1.00  0.00    -0.390 OA
ATOM     22  H5  UNL     1      12.072 -11.510  -5.776  1.00  0.00     0.210 HD
ENDBRANCH  16  21
ENDBRANCH  10  11
ENDBRANCH   9  10
ENDBRANCH   3   9
BRANCH   4  23
HETATM   23  C13 UNL     1      11.374  -8.150  -0.631  1.00  0.00     0.178 C 
BRANCH  23  24
HETATM   24  O6  UNL     1      11.048  -7.582   0.581  1.00  0.00    -0.400 OA
ATOM     25  H6  UNL     1      11.007  -8.237   1.268  1.00  0.00     0.209 HD
ENDBRANCH  23  24
ENDBRANCH   4  23
BRANCH   1  26
HETATM   26  C2  UNL     1       9.325  -5.231  -4.859  1.00  0.00    -0.005 C 
HETATM   27  C1  UNL     1       9.557  -3.953  -5.174  1.00  0.00     0.009 C 
ENDBRANCH   1  26
BRANCH   8  28
HETATM   28  O7  UNL     1      12.169  -5.428  -1.009  1.00  0.00    -0.354 OA
BRANCH  28  29
HETATM   29  C18 UNL     1      12.136  -4.387  -0.077  1.00  0.00     0.264 C 
HETATM   30  C19 UNL     1      12.226  -3.084  -0.814  1.00  0.00     0.088 C 
HETATM   31  C20 UNL     1      12.122  -1.895   0.143  1.00  0.00     0.240 C 
HETATM   32  N1  UNL     1      11.625  -2.373   1.426  1.00  0.00    -0.046 N 
HETATM   33  C21 UNL     1      10.556  -3.319   1.261  1.00  0.00     0.346 C 
ATOM     34  H12 UNL     1      12.378  -2.757   1.997  1.00  0.00     0.280 HD
ATOM     35  H11 UNL     1      11.347  -1.599   2.030  1.00  0.00     0.280 HD
HETATM   36  O9  UNL     1      10.946  -4.490   0.657  1.00  0.00    -0.327 OA
BRANCH  33  37
HETATM   37  C22 UNL     1      10.061  -3.669   2.666  1.00  0.00     0.225 C 
BRANCH  37  38
HETATM   38  O8  UNL     1       8.656  -3.673   2.680  1.00  0.00    -0.397 OA
ATOM     39  H8  UNL     1       8.348  -3.649   3.579  1.00  0.00     0.209 HD
ENDBRANCH  37  38
ENDBRANCH  33  37
ENDBRANCH  28  29
ENDBRANCH   8  28
TORSDOF 13
ENDMDL
MODEL 4
REMARK VINA RESULT: -8.261756890      2.833      8.569
REMARK  13 active torsions:
REMARK  status: ('A' for Active; 'I' for Inactive)
REMARK    1  A    between atoms: C2_2  and  C3_3 
REMARK    2  A    between atoms: C4_5  and  C5_6 
REMARK    3  A    between atoms: C5_6  and  O2_7 
REMARK    4  A    between atoms: O2_7  and  C6_8 
REMARK    5  A    between atoms: C9_11  and  O3_12 
REMARK    6  A    between atoms: C10_14  and  O4_15 
REMARK    7  A    between atoms: C11_17  and  O5_18 
REMARK    8  A    between atoms: C12_20  and  C13_21 
REMARK    9  A    between atoms: C13_21  and  O6_22 
REMARK   10  A    between atoms: C17_27  and  O7_28 
REMARK   11  A    between atoms: O7_28  and  C18_29 
REMARK   12  A    between atoms: C21_35  and  C22_36 
REMARK   13  A    between atoms: C22_36  and  O8_37 
ROOT
HETATM    1  C3  UNL     1      14.682  -4.829  -0.631  1.00  0.00     0.150 C 
HETATM    2  O1  UNL     1      14.948  -4.477   0.691  1.00  0.00    -0.373 OA
HETATM    3  C4  UNL     1      14.494  -5.487   1.516  1.00  0.00     0.159 C 
HETATM    4  C12 UNL     1      12.991  -5.557   1.390  1.00  0.00     0.036 C 
HETATM    5  C14 UNL     1      12.422  -4.158   1.222  1.00  0.00     0.017 C 
HETATM    6  C15 UNL     1      12.405  -3.883  -0.266  1.00  0.00     0.011 C 
HETATM    7  C16 UNL     1      13.218  -5.021  -0.846  1.00  0.00     0.048 C 
HETATM    8  C17 UNL     1      12.697  -6.177   0.059  1.00  0.00     0.144 C 
ENDROOT
BRANCH   3   9
HETATM    9  C5  UNL     1      14.984  -5.280   2.922  1.00  0.00     0.201 C 
BRANCH   9  10
HETATM   10  O2  UNL     1      15.674  -6.361   3.421  1.00  0.00    -0.381 OA
BRANCH  10  11
HETATM   11  C6  UNL     1      15.239  -6.840   4.619  1.00  0.00     0.153 C 
HETATM   12  C7  UNL     1      16.037  -6.359   5.779  1.00  0.00     0.037 C 
HETATM   13  C8  UNL     1      16.043  -7.223   6.979  1.00  0.00     0.037 C 
HETATM   14  C9  UNL     1      14.988  -8.247   7.117  1.00  0.00     0.149 C 
HETATM   15  C10 UNL     1      14.217  -8.604   5.894  1.00  0.00     0.178 C 
HETATM   16  C11 UNL     1      15.115  -8.338   4.697  1.00  0.00     0.178 C 
BRANCH  14  17
HETATM   17  O3  UNL     1      14.048  -7.786   8.069  1.00  0.00    -0.393 OA
ATOM     18  H3  UNL     1      14.408  -7.017   8.494  1.00  0.00     0.210 HD
ENDBRANCH  14  17
BRANCH  15  19
HETATM   19  O4  UNL     1      13.866  -9.949   5.929  1.00  0.00    -0.390 OA
ATOM     20  H4  UNL     1      13.609 -10.240   5.062  1.00  0.00     0.210 HD
ENDBRANCH  15  19
BRANCH  16  21
HETATM   21  O5  UNL     1      16.315  -8.982   4.992  1.00  0.00    -0.390 OA
ATOM     22  H5  UNL     1      16.332  -9.375   5.857  1.00  0.00     0.210 HD
ENDBRANCH  16  21
ENDBRANCH  10  11
ENDBRANCH   9  10
ENDBRANCH   3   9
BRANCH   4  23
HETATM   23  C13 UNL     1      12.344  -6.238   2.545  1.00  0.00     0.178 C 
BRANCH  23  24
HETATM   24  O6  UNL     1      11.126  -5.667   2.842  1.00  0.00    -0.400 OA
ATOM     25  H6  UNL     1      11.108  -5.340   3.734  1.00  0.00     0.209 HD
ENDBRANCH  23  24
ENDBRANCH   4  23
BRANCH   1  26
HETATM   26  C2  UNL     1      15.184  -3.765  -1.507  1.00  0.00    -0.005 C 
HETATM   27  C1  UNL     1      16.430  -3.289  -1.419  1.00  0.00     0.009 C 
ENDBRANCH   1  26
BRANCH   8  28
HETATM   28  O7  UNL     1      11.344  -6.278  -0.134  1.00  0.00    -0.354 OA
BRANCH  28  29
HETATM   29  C18 UNL     1      10.943  -7.402  -0.862  1.00  0.00     0.264 C 
HETATM   30  C19 UNL     1      10.810  -8.559   0.084  1.00  0.00     0.088 C 
HETATM   31  C20 UNL     1      10.302  -9.810  -0.635  1.00  0.00     0.240 C 
HETATM   32  N1  UNL     1       9.776  -9.418  -1.936  1.00  0.00    -0.046 N 
HETATM   33  C21 UNL     1       8.996  -8.214  -1.850  1.00  0.00     0.346 C 
ATOM     34  H12 UNL     1      10.521  -9.331  -2.627  1.00  0.00     0.280 HD
ATOM     35  H11 UNL     1       9.246 -10.175  -2.367  1.00  0.00     0.280 HD
HETATM   36  O9  UNL     1       9.729  -7.107  -1.498  1.00  0.00    -0.327 OA
BRANCH  33  37
HETATM   37  C22 UNL     1       8.425  -7.962  -3.247  1.00  0.00     0.225 C 
BRANCH  37  38
HETATM   38  O8  UNL     1       7.122  -7.450  -3.135  1.00  0.00    -0.397 OA
ATOM     39  H8  UNL     1       6.973  -6.810  -3.822  1.00  0.00     0.209 HD
ENDBRANCH  37  38
ENDBRANCH  33  37
ENDBRANCH  28  29
ENDBRANCH   8  28
TORSDOF 13
ENDMDL
MODEL 5
REMARK VINA RESULT: -8.192344043      4.700      7.339
REMARK  13 active torsions:
REMARK  status: ('A' for Active; 'I' for Inactive)
REMARK    1  A    between atoms: C2_2  and  C3_3 
REMARK    2  A    between atoms: C4_5  and  C5_6 
REMARK    3  A    between atoms: C5_6  and  O2_7 
REMARK    4  A    between atoms: O2_7  and  C6_8 
REMARK    5  A    between atoms: C9_11  and  O3_12 
REMARK    6  A    between atoms: C10_14  and  O4_15 
REMARK    7  A    between atoms: C11_17  and  O5_18 
REMARK    8  A    between atoms: C12_20  and  C13_21 
REMARK    9  A    between atoms: C13_21  and  O6_22 
REMARK   10  A    between atoms: C17_27  and  O7_28 
REMARK   11  A    between atoms: O7_28  and  C18_29 
REMARK   12  A    between atoms: C21_35  and  C22_36 
REMARK   13  A    between atoms: C22_36  and  O8_37 
ROOT
HETATM    1  C3  UNL     1       9.689  -5.017  -4.174  1.00  0.00     0.150 C 
HETATM    2  O1  UNL     1       9.189  -6.302  -4.372  1.00  0.00    -0.373 OA
HETATM    3  C4  UNL     1       8.845  -6.836  -3.146  1.00  0.00     0.159 C 
HETATM    4  C12 UNL     1      10.107  -6.993  -2.332  1.00  0.00     0.036 C 
HETATM    5  C14 UNL     1      11.259  -7.393  -3.238  1.00  0.00     0.017 C 
HETATM    6  C15 UNL     1      11.885  -6.104  -3.722  1.00  0.00     0.011 C 
HETATM    7  C16 UNL     1      10.893  -5.044  -3.293  1.00  0.00     0.048 C 
HETATM    8  C17 UNL     1      10.515  -5.619  -1.896  1.00  0.00     0.144 C 
ENDROOT
BRANCH   3   9
HETATM    9  C5  UNL     1       8.067  -8.109  -3.323  1.00  0.00     0.201 C 
BRANCH   9  10
HETATM   10  O2  UNL     1       6.881  -8.122  -2.625  1.00  0.00    -0.381 OA
BRANCH  10  11
HETATM   11  C6  UNL     1       6.264  -9.332  -2.526  1.00  0.00     0.153 C 
HETATM   12  C7  UNL     1       5.392  -9.461  -1.327  1.00  0.00     0.037 C 
HETATM   13  C8  UNL     1       5.165 -10.831  -0.822  1.00  0.00     0.037 C 
HETATM   14  C9  UNL     1       5.449 -11.970  -1.716  1.00  0.00     0.149 C 
HETATM   15  C10 UNL     1       6.289 -11.704  -2.917  1.00  0.00     0.178 C 
HETATM   16  C11 UNL     1       7.185 -10.521  -2.591  1.00  0.00     0.178 C 
BRANCH  14  17
HETATM   17  O3  UNL     1       4.216 -12.479  -2.189  1.00  0.00    -0.393 OA
ATOM     18  H3  UNL     1       4.254 -13.428  -2.155  1.00  0.00     0.210 HD
ENDBRANCH  14  17
BRANCH  15  19
HETATM   19  O4  UNL     1       7.068 -12.818  -3.209  1.00  0.00    -0.390 OA
ATOM     20  H4  UNL     1       6.876 -13.128  -4.086  1.00  0.00     0.210 HD
ENDBRANCH  15  19
BRANCH  16  21
HETATM   21  O5  UNL     1       7.775 -10.837  -1.369  1.00  0.00    -0.390 OA
ATOM     22  H5  UNL     1       8.382 -10.177  -1.057  1.00  0.00     0.210 HD
ENDBRANCH  16  21
ENDBRANCH  10  11
ENDBRANCH   9  10
ENDBRANCH   3   9
BRANCH   4  23
HETATM   23  C13 UNL     1       9.962  -7.974  -1.222  1.00  0.00     0.178 C 
BRANCH  23  24
HETATM   24  O6  UNL     1      11.177  -8.530  -0.886  1.00  0.00    -0.400 OA
ATOM     25  H6  UNL     1      11.085  -9.448  -0.660  1.00  0.00     0.209 HD
ENDBRANCH  23  24
ENDBRANCH   4  23
BRANCH   1  26
HETATM   26  C2  UNL     1      10.032  -4.444  -5.480  1.00  0.00    -0.005 C 
HETATM   27  C1  UNL     1       9.399  -3.384  -5.989  1.00  0.00     0.009 C 
ENDBRANCH   1  26
BRANCH   8  28
HETATM   28  O7  UNL     1      11.660  -5.673  -1.145  1.00  0.00    -0.354 OA
BRANCH  28  29
HETATM   29  C18 UNL     1      11.819  -4.612  -0.250  1.00  0.00     0.264 C 
HETATM   30  C19 UNL     1      11.976  -3.344  -1.037  1.00  0.00     0.088 C 
HETATM   31  C20 UNL     1      12.082  -2.127  -0.116  1.00  0.00     0.240 C 
HETATM   32  N1  UNL     1      11.657  -2.518   1.222  1.00  0.00    -0.046 N 
HETATM   33  C21 UNL     1      10.486  -3.349   1.184  1.00  0.00     0.346 C 
ATOM     34  H12 UNL     1      12.415  -2.965   1.737  1.00  0.00     0.280 HD
ATOM     35  H11 UNL     1      11.517  -1.704   1.821  1.00  0.00     0.280 HD
HETATM   36  O9  UNL     1      10.696  -4.569   0.589  1.00  0.00    -0.327 OA
BRANCH  33  37
HETATM   37  C22 UNL     1      10.086  -3.609   2.637  1.00  0.00     0.225 C 
BRANCH  37  38
HETATM   38  O8  UNL     1       8.685  -3.628   2.743  1.00  0.00    -0.397 OA
ATOM     39  H8  UNL     1       8.420  -3.151   3.520  1.00  0.00     0.209 HD
ENDBRANCH  37  38
ENDBRANCH  33  37
ENDBRANCH  28  29
ENDBRANCH   8  28
TORSDOF 13
ENDMDL
