MODEL 1
REMARK VINA RESULT: -8.756506319      0.000      0.000
REMARK  12 active torsions:
REMARK  status: ('A' for Active; 'I' for Inactive)
REMARK    1  A    between atoms: C2_2  and  C3_3 
REMARK    2  A    between atoms: C3_3  and  C4_4 
REMARK    3  A    between atoms: C4_4  and  N1_5 
REMARK       I    between atoms: N1_5  and  C5_7 
REMARK       I    between atoms: C5_7  and  N2_9 
REMARK    4  A    between atoms: N2_9  and  N3_11 
REMARK       I    between atoms: N3_11  and  C6_13 
REMARK    5  A    between atoms: C6_13  and  C7_15 
REMARK    6  A    between atoms: C7_15  and  O3_16 
REMARK    7  A    between atoms: O3_16  and  C8_17 
REMARK    8  A    between atoms: C9_18  and  N4_19 
REMARK    9  A    between atoms: C11_24  and  N5_25 
REMARK   10  A    between atoms: C12_29  and  O4_30 
REMARK   11  A    between atoms: O4_30  and  C13_31 
REMARK   12  A    between atoms: C19_37  and  O5_38 
ROOT
HETATM    1  C8  UNL     1      10.967  -9.225  -2.570  1.00  0.00     0.188 C 
HETATM    2  C9  UNL     1      10.050  -8.953  -1.371  1.00  0.00     0.217 C 
HETATM    3  C10 UNL     1       8.879  -8.093  -1.647  1.00  0.00     0.071 C 
HETATM    4  C11 UNL     1       8.815  -7.766  -3.091  1.00  0.00     0.217 C 
HETATM    5  C12 UNL     1      10.070  -7.031  -3.485  1.00  0.00     0.183 C 
HETATM    6  C19 UNL     1      11.261  -7.932  -3.322  1.00  0.00     0.180 C 
ENDROOT
BRANCH   1   7
HETATM    7  O3  UNL     1      10.727 -10.251  -3.262  1.00  0.00    -0.329 OA
BRANCH   7   8
HETATM    8  C7  UNL     1      10.520 -11.302  -3.905  1.00  0.00     0.348 A 
HETATM    9  O6  UNL     1      11.578 -12.319  -4.011  1.00  0.00    -0.260 OA
HETATM   10  C20 UNL     1      11.252 -11.660  -5.151  1.00  0.00     0.336 A 
HETATM   11  O7  UNL     1      11.368 -11.411  -6.377  1.00  0.00    -0.258 OA
BRANCH   8  12
HETATM   12  C6  UNL     1       9.126 -11.898  -4.000  1.00  0.00     0.310 C 
HETATM   13  N3  UNL     1       8.067 -11.148  -3.427  1.00  0.00    -0.261 N 
ATOM     14  H3  UNL     1       8.299 -10.265  -2.973  1.00  0.00     0.190 HD
HETATM   15  O2  UNL     1       8.898 -12.991  -4.556  1.00  0.00    -0.265 OA
BRANCH  13  16
HETATM   16  N2  UNL     1       6.746 -11.537  -3.444  1.00  0.00    -0.249 N 
HETATM   17  C5  UNL     1       6.009 -11.950  -2.275  1.00  0.00     0.338 C 
HETATM   18  N1  UNL     1       4.648 -12.307  -2.405  1.00  0.00    -0.321 N 
HETATM   19  O1  UNL     1       6.573 -11.986  -1.166  1.00  0.00    -0.245 OA
ATOM     20  H1  UNL     1       4.292 -12.263  -3.360  1.00  0.00     0.169 HD
ATOM     21  H2  UNL     1       6.258 -11.532  -4.339  1.00  0.00     0.192 HD
BRANCH  18  22
HETATM   22  C4  UNL     1       3.701 -12.712  -1.450  1.00  0.00     0.065 C 
BRANCH  22  23
HETATM   23  C3  UNL     1       3.682 -12.125  -0.093  1.00  0.00     0.044 C 
BRANCH  23  24
HETATM   24  C2  UNL     1       3.853 -12.999   1.089  1.00  0.00     0.001 C 
HETATM   25  C1  UNL     1       4.957 -12.425   2.008  1.00  0.00     0.005 C 
ENDBRANCH  23  24
ENDBRANCH  22  23
ENDBRANCH  18  22
ENDBRANCH  13  16
ENDBRANCH   8  12
ENDBRANCH   7   8
ENDBRANCH   1   7
BRANCH   2  26
HETATM   26  N4  UNL     1      10.786  -8.539  -0.193  1.00  0.00    -0.072 N 
ATOM     27  H43 UNL     1      11.534  -7.889  -0.436  1.00  0.00     0.274 HD
ATOM     28  H42 UNL     1      10.222  -7.927   0.397  1.00  0.00     0.274 HD
ATOM     29  H41 UNL     1      11.147  -9.331   0.339  1.00  0.00     0.274 HD
ENDBRANCH   2  26
BRANCH   6  30
HETATM   30  O5  UNL     1      11.769  -8.358  -4.576  1.00  0.00    -0.390 OA
ATOM     31  H5  UNL     1      12.362  -7.666  -4.841  1.00  0.00     0.210 HD
ENDBRANCH   6  30
BRANCH   5  32
HETATM   32  O4  UNL     1      10.329  -5.881  -2.792  1.00  0.00    -0.376 OA
BRANCH  32  33
HETATM   33  C13 UNL     1      11.329  -5.070  -3.256  1.00  0.00     0.122 C 
HETATM   34  C14 UNL     1      12.391  -4.701  -2.308  1.00  0.00     0.032 C 
HETATM   35  C15 UNL     1      12.628  -3.267  -2.006  1.00  0.00     0.002 C 
HETATM   36  C16 UNL     1      12.363  -2.420  -3.237  1.00  0.00     0.000 C 
HETATM   37  C17 UNL     1      10.870  -2.583  -3.458  1.00  0.00     0.002 C 
HETATM   38  C18 UNL     1      10.688  -3.959  -4.043  1.00  0.00     0.032 C 
ENDBRANCH  32  33
ENDBRANCH   5  32
BRANCH   4  39
HETATM   39  N5  UNL     1       7.609  -7.099  -3.523  1.00  0.00    -0.072 N 
ATOM     40  H53 UNL     1       6.863  -7.781  -3.661  1.00  0.00     0.274 HD
ATOM     41  H52 UNL     1       7.216  -6.554  -2.755  1.00  0.00     0.274 HD
ATOM     42  H51 UNL     1       7.706  -6.514  -4.353  1.00  0.00     0.274 HD
ENDBRANCH   4  39
TORSDOF 12
ENDMDL
MODEL 2
REMARK VINA RESULT: -8.538511849      4.661      8.411
REMARK  12 active torsions:
REMARK  status: ('A' for Active; 'I' for Inactive)
REMARK    1  A    between atoms: C2_2  and  C3_3 
REMARK    2  A    between atoms: C3_3  and  C4_4 
REMARK    3  A    between atoms: C4_4  and  N1_5 
REMARK       I    between atoms: N1_5  and  C5_7 
REMARK       I    between atoms: C5_7  and  N2_9 
REMARK    4  A    between atoms: N2_9  and  N3_11 
REMARK       I    between atoms: N3_11  and  C6_13 
REMARK    5  A    between atoms: C6_13  and  C7_15 
REMARK    6  A    between atoms: C7_15  and  O3_16 
REMARK    7  A    between atoms: O3_16  and  C8_17 
REMARK    8  A    between atoms: C9_18  and  N4_19 
REMARK    9  A    between atoms: C11_24  and  N5_25 
REMARK   10  A    between atoms: C12_29  and  O4_30 
REMARK   11  A    between atoms: O4_30  and  C13_31 
REMARK   12  A    between atoms: C19_37  and  O5_38 
ROOT
HETATM    1  C8  UNL     1      11.626  -7.852  -1.858  1.00  0.00     0.188 C 
HETATM    2  C9  UNL     1      11.744  -7.184  -3.234  1.00  0.00     0.217 C 
HETATM    3  C10 UNL     1      10.463  -6.807  -3.870  1.00  0.00     0.071 C 
HETATM    4  C11 UNL     1       9.335  -7.086  -2.951  1.00  0.00     0.217 C 
HETATM    5  C12 UNL     1       9.313  -8.560  -2.634  1.00  0.00     0.183 C 
HETATM    6  C19 UNL     1      10.556  -8.938  -1.881  1.00  0.00     0.180 C 
ENDROOT
BRANCH   1   7
HETATM    7  O3  UNL     1      11.663  -7.102  -0.845  1.00  0.00    -0.329 OA
BRANCH   7   8
HETATM    8  C7  UNL     1      11.703  -6.309   0.120  1.00  0.00     0.348 A 
HETATM    9  O6  UNL     1      11.083  -4.979   0.004  1.00  0.00    -0.260 OA
HETATM   10  C20 UNL     1      12.437  -5.014   0.088  1.00  0.00     0.336 A 
HETATM   11  O7  UNL     1      13.574  -4.481   0.125  1.00  0.00    -0.258 OA
BRANCH   8  12
HETATM   12  C6  UNL     1      11.725  -6.820   1.550  1.00  0.00     0.310 C 
HETATM   13  N3  UNL     1      12.220  -8.132   1.755  1.00  0.00    -0.261 N 
ATOM     14  H3  UNL     1      12.518  -8.664   0.937  1.00  0.00     0.190 HD
HETATM   15  O2  UNL     1      11.337  -6.133   2.516  1.00  0.00    -0.265 OA
BRANCH  13  16
HETATM   16  N2  UNL     1      12.326  -8.737   2.988  1.00  0.00    -0.249 N 
HETATM   17  C5  UNL     1      13.392  -8.482   3.926  1.00  0.00     0.338 C 
HETATM   18  N1  UNL     1      13.388  -9.144   5.174  1.00  0.00    -0.321 N 
HETATM   19  O1  UNL     1      14.301  -7.684   3.631  1.00  0.00    -0.245 OA
ATOM     20  H1  UNL     1      12.611  -9.791   5.305  1.00  0.00     0.169 HD
ATOM     21  H2  UNL     1      11.605  -9.407   3.255  1.00  0.00     0.192 HD
BRANCH  18  22
HETATM   22  C4  UNL     1      14.267  -9.065   6.267  1.00  0.00     0.065 C 
BRANCH  22  23
HETATM   23  C3  UNL     1      14.214  -7.931   7.214  1.00  0.00     0.044 C 
BRANCH  23  24
HETATM   24  C2  UNL     1      15.293  -6.918   7.210  1.00  0.00     0.001 C 
HETATM   25  C1  UNL     1      16.509  -7.451   6.415  1.00  0.00     0.005 C 
ENDBRANCH  23  24
ENDBRANCH  22  23
ENDBRANCH  18  22
ENDBRANCH  13  16
ENDBRANCH   8  12
ENDBRANCH   7   8
ENDBRANCH   1   7
BRANCH   2  26
HETATM   26  N4  UNL     1      12.625  -7.909  -4.128  1.00  0.00    -0.072 N 
ATOM     27  H43 UNL     1      13.568  -7.973  -3.743  1.00  0.00     0.274 HD
ATOM     28  H42 UNL     1      12.389  -8.901  -4.151  1.00  0.00     0.274 HD
ATOM     29  H41 UNL     1      12.639  -7.512  -5.067  1.00  0.00     0.274 HD
ENDBRANCH   2  26
BRANCH   6  30
HETATM   30  O5  UNL     1      10.281  -9.193  -0.513  1.00  0.00    -0.390 OA
ATOM     31  H5  UNL     1      10.065 -10.118  -0.483  1.00  0.00     0.210 HD
ENDBRANCH   6  30
BRANCH   5  32
HETATM   32  O4  UNL     1       9.214  -9.399  -3.708  1.00  0.00    -0.376 OA
BRANCH  32  33
HETATM   33  C13 UNL     1       8.251 -10.370  -3.671  1.00  0.00     0.122 C 
HETATM   34  C14 UNL     1       8.670 -11.747  -3.969  1.00  0.00     0.032 C 
HETATM   35  C15 UNL     1       8.045 -12.467  -5.106  1.00  0.00     0.002 C 
HETATM   36  C16 UNL     1       6.592 -12.053  -5.255  1.00  0.00     0.000 C 
HETATM   37  C17 UNL     1       6.684 -10.592  -5.655  1.00  0.00     0.002 C 
HETATM   38  C18 UNL     1       7.042  -9.843  -4.398  1.00  0.00     0.032 C 
ENDBRANCH  32  33
ENDBRANCH   5  32
BRANCH   4  39
HETATM   39  N5  UNL     1       8.050  -6.579  -3.375  1.00  0.00    -0.072 N 
ATOM     40  H53 UNL     1       8.178  -5.830  -4.055  1.00  0.00     0.274 HD
ATOM     41  H52 UNL     1       7.574  -7.270  -3.955  1.00  0.00     0.274 HD
ATOM     42  H51 UNL     1       7.433  -6.269  -2.624  1.00  0.00     0.274 HD
ENDBRANCH   4  39
TORSDOF 12
ENDMDL
MODEL 3
REMARK VINA RESULT: -8.479221016      4.560      8.229
REMARK  12 active torsions:
REMARK  status: ('A' for Active; 'I' for Inactive)
REMARK    1  A    between atoms: C2_2  and  C3_3 
REMARK    2  A    between atoms: C3_3  and  C4_4 
REMARK    3  A    between atoms: C4_4  and  N1_5 
REMARK       I    between atoms: N1_5  and  C5_7 
REMARK       I    between atoms: C5_7  and  N2_9 
REMARK    4  A    between atoms: N2_9  and  N3_11 
REMARK       I    between atoms: N3_11  and  C6_13 
REMARK    5  A    between atoms: C6_13  and  C7_15 
REMARK    6  A    between atoms: C7_15  and  O3_16 
REMARK    7  A    between atoms: O3_16  and  C8_17 
REMARK    8  A    between atoms: C9_18  and  N4_19 
REMARK    9  A    between atoms: C11_24  and  N5_25 
REMARK   10  A    between atoms: C12_29  and  O4_30 
REMARK   11  A    between atoms: O4_30  and  C13_31 
REMARK   12  A    between atoms: C19_37  and  O5_38 
ROOT
HETATM    1  C8  UNL     1      11.365  -7.504  -2.128  1.00  0.00     0.188 C 
HETATM    2  C9  UNL     1      11.535  -6.965  -3.554  1.00  0.00     0.217 C 
HETATM    3  C10 UNL     1      10.334  -6.337  -4.146  1.00  0.00     0.071 C 
HETATM    4  C11 UNL     1       9.239  -6.291  -3.149  1.00  0.00     0.217 C 
HETATM    5  C12 UNL     1       8.902  -7.696  -2.723  1.00  0.00     0.183 C 
HETATM    6  C19 UNL     1      10.075  -8.309  -2.013  1.00  0.00     0.180 C 
ENDROOT
BRANCH   1   7
HETATM    7  O3  UNL     1      11.643  -6.725  -1.177  1.00  0.00    -0.329 OA
BRANCH   7   8
HETATM    8  C7  UNL     1      11.970  -5.988  -0.222  1.00  0.00     0.348 A 
HETATM    9  O6  UNL     1      11.892  -4.525  -0.363  1.00  0.00    -0.260 OA
HETATM   10  C20 UNL     1      13.134  -5.061  -0.263  1.00  0.00     0.336 A 
HETATM   11  O7  UNL     1      14.388  -4.989  -0.220  1.00  0.00    -0.258 OA
BRANCH   8  12
HETATM   12  C6  UNL     1      11.793  -6.447   1.215  1.00  0.00     0.310 C 
HETATM   13  N3  UNL     1      12.124  -7.795   1.504  1.00  0.00    -0.261 N 
ATOM     14  H3  UNL     1      12.446  -8.383   0.734  1.00  0.00     0.190 HD
HETATM   15  O2  UNL     1      11.383  -5.690   2.117  1.00  0.00    -0.265 OA
BRANCH  13  16
HETATM   16  N2  UNL     1      12.039  -8.362   2.756  1.00  0.00    -0.249 N 
HETATM   17  C5  UNL     1      13.098  -8.324   3.735  1.00  0.00     0.338 C 
HETATM   18  N1  UNL     1      12.892  -8.922   4.998  1.00  0.00    -0.321 N 
HETATM   19  O1  UNL     1      14.177  -7.766   3.462  1.00  0.00    -0.245 OA
ATOM     20  H1  UNL     1      11.983  -9.369   5.109  1.00  0.00     0.169 HD
ATOM     21  H2  UNL     1      11.173  -8.839   3.006  1.00  0.00     0.192 HD
BRANCH  18  22
HETATM   22  C4  UNL     1      13.723  -9.007   6.129  1.00  0.00     0.065 C 
BRANCH  22  23
HETATM   23  C3  UNL     1      13.862  -7.871   7.065  1.00  0.00     0.044 C 
BRANCH  23  24
HETATM   24  C2  UNL     1      15.208  -7.433   7.495  1.00  0.00     0.001 C 
HETATM   25  C1  UNL     1      16.242  -7.759   6.392  1.00  0.00     0.005 C 
ENDBRANCH  23  24
ENDBRANCH  22  23
ENDBRANCH  18  22
ENDBRANCH  13  16
ENDBRANCH   8  12
ENDBRANCH   7   8
ENDBRANCH   1   7
BRANCH   2  26
HETATM   26  N4  UNL     1      12.162  -7.927  -4.439  1.00  0.00    -0.072 N 
ATOM     27  H43 UNL     1      13.066  -8.229  -4.073  1.00  0.00     0.274 HD
ATOM     28  H42 UNL     1      11.670  -8.821  -4.417  1.00  0.00     0.274 HD
ATOM     29  H41 UNL     1      12.250  -7.579  -5.393  1.00  0.00     0.274 HD
ENDBRANCH   2  26
BRANCH   6  30
HETATM   30  O5  UNL     1       9.845  -8.412  -0.617  1.00  0.00    -0.390 OA
ATOM     31  H5  UNL     1       9.486  -9.283  -0.499  1.00  0.00     0.210 HD
ENDBRANCH   6  30
BRANCH   5  32
HETATM   32  O4  UNL     1       8.538  -8.551  -3.725  1.00  0.00    -0.376 OA
BRANCH  32  33
HETATM   33  C13 UNL     1       7.352  -9.220  -3.593  1.00  0.00     0.122 C 
HETATM   34  C14 UNL     1       6.576  -8.979  -2.368  1.00  0.00     0.032 C 
HETATM   35  C15 UNL     1       6.258 -10.120  -1.473  1.00  0.00     0.002 C 
HETATM   36  C16 UNL     1       6.042 -11.382  -2.288  1.00  0.00     0.000 C 
HETATM   37  C17 UNL     1       7.413 -11.655  -2.879  1.00  0.00     0.002 C 
HETATM   38  C18 UNL     1       7.588 -10.653  -3.991  1.00  0.00     0.032 C 
ENDBRANCH  32  33
ENDBRANCH   5  32
BRANCH   4  39
HETATM   39  N5  UNL     1       8.079  -5.523  -3.538  1.00  0.00    -0.072 N 
ATOM     40  H53 UNL     1       7.563  -6.014  -4.268  1.00  0.00     0.274 HD
ATOM     41  H52 UNL     1       7.385  -5.532  -2.790  1.00  0.00     0.274 HD
ATOM     42  H51 UNL     1       8.267  -4.563  -3.828  1.00  0.00     0.274 HD
ENDBRANCH   4  39
TORSDOF 12
ENDMDL
MODEL 4
REMARK VINA RESULT: -8.439242134      6.320      8.419
REMARK  12 active torsions:
REMARK  status: ('A' for Active; 'I' for Inactive)
REMARK    1  A    between atoms: C2_2  and  C3_3 
REMARK    2  A    between atoms: C3_3  and  C4_4 
REMARK    3  A    between atoms: C4_4  and  N1_5 
REMARK       I    between atoms: N1_5  and  C5_7 
REMARK       I    between atoms: C5_7  and  N2_9 
REMARK    4  A    between atoms: N2_9  and  N3_11 
REMARK       I    between atoms: N3_11  and  C6_13 
REMARK    5  A    between atoms: C6_13  and  C7_15 
REMARK    6  A    between atoms: C7_15  and  O3_16 
REMARK    7  A    between atoms: O3_16  and  C8_17 
REMARK    8  A    between atoms: C9_18  and  N4_19 
REMARK    9  A    between atoms: C11_24  and  N5_25 
REMARK   10  A    between atoms: C12_29  and  O4_30 
REMARK   11  A    between atoms: O4_30  and  C13_31 
REMARK   12  A    between atoms: C19_37  and  O5_38 
ROOT
HETATM    1  C8  UNL     1      14.289  -5.073   3.774  1.00  0.00     0.188 C 
HETATM    2  C9  UNL     1      12.825  -4.735   4.080  1.00  0.00     0.217 C 
HETATM    3  C10 UNL     1      11.818  -5.555   3.372  1.00  0.00     0.071 C 
HETATM    4  C11 UNL     1      12.489  -6.612   2.579  1.00  0.00     0.217 C 
HETATM    5  C12 UNL     1      13.399  -5.964   1.567  1.00  0.00     0.183 C 
HETATM    6  C19 UNL     1      14.499  -5.222   2.270  1.00  0.00     0.180 C 
ENDROOT
BRANCH   1   7
HETATM    7  O3  UNL     1      14.857  -5.916   4.519  1.00  0.00    -0.329 OA
BRANCH   7   8
HETATM    8  C7  UNL     1      15.455  -6.769   5.209  1.00  0.00     0.348 A 
HETATM    9  O6  UNL     1      16.705  -6.412   5.899  1.00  0.00    -0.260 OA
HETATM   10  C20 UNL     1      16.807  -7.294   4.873  1.00  0.00     0.336 A 
HETATM   11  O7  UNL     1      17.449  -8.055   4.106  1.00  0.00    -0.258 OA
BRANCH   8  12
HETATM   12  C6  UNL     1      14.692  -7.874   5.919  1.00  0.00     0.310 C 
HETATM   13  N3  UNL     1      13.608  -8.459   5.216  1.00  0.00    -0.261 N 
ATOM     14  H3  UNL     1      13.392  -8.099   4.287  1.00  0.00     0.190 HD
HETATM   15  O2  UNL     1      14.990  -8.270   7.063  1.00  0.00    -0.265 OA
BRANCH  13  16
HETATM   16  N2  UNL     1      12.828  -9.482   5.708  1.00  0.00    -0.249 N 
HETATM   17  C5  UNL     1      11.429  -9.652   5.403  1.00  0.00     0.338 C 
HETATM   18  N1  UNL     1      10.731 -10.753   5.947  1.00  0.00    -0.321 N 
HETATM   19  O1  UNL     1      10.851  -8.833   4.665  1.00  0.00    -0.245 OA
ATOM     20  H1  UNL     1      11.293 -11.349   6.555  1.00  0.00     0.169 HD
ATOM     21  H2  UNL     1      13.268 -10.163   6.327  1.00  0.00     0.192 HD
BRANCH  18  22
HETATM   22  C4  UNL     1       9.397 -11.171   5.797  1.00  0.00     0.065 C 
BRANCH  22  23
HETATM   23  C3  UNL     1       8.895 -11.678   4.503  1.00  0.00     0.044 C 
BRANCH  23  24
HETATM   24  C2  UNL     1       7.832 -12.707   4.478  1.00  0.00     0.001 C 
HETATM   25  C1  UNL     1       7.091 -12.662   3.121  1.00  0.00     0.005 C 
ENDBRANCH  23  24
ENDBRANCH  22  23
ENDBRANCH  18  22
ENDBRANCH  13  16
ENDBRANCH   8  12
ENDBRANCH   7   8
ENDBRANCH   1   7
BRANCH   2  26
HETATM   26  N4  UNL     1      12.555  -3.313   3.992  1.00  0.00    -0.072 N 
ATOM     27  H43 UNL     1      13.402  -2.791   3.765  1.00  0.00     0.274 HD
ATOM     28  H42 UNL     1      12.001  -3.095   3.163  1.00  0.00     0.274 HD
ATOM     29  H41 UNL     1      12.114  -2.947   4.835  1.00  0.00     0.274 HD
ENDBRANCH   2  26
BRANCH   6  30
HETATM   30  O5  UNL     1      15.742  -5.895   2.151  1.00  0.00    -0.390 OA
ATOM     31  H5  UNL     1      15.828  -6.071   1.222  1.00  0.00     0.210 HD
ENDBRANCH   6  30
BRANCH   5  32
HETATM   32  O4  UNL     1      12.802  -5.089   0.703  1.00  0.00    -0.376 OA
BRANCH  32  33
HETATM   33  C13 UNL     1      13.088  -5.213  -0.629  1.00  0.00     0.122 C 
HETATM   34  C14 UNL     1      12.201  -4.522  -1.576  1.00  0.00     0.032 C 
HETATM   35  C15 UNL     1      11.478  -5.313  -2.603  1.00  0.00     0.002 C 
HETATM   36  C16 UNL     1      12.325  -6.487  -3.056  1.00  0.00     0.000 C 
HETATM   37  C17 UNL     1      12.413  -7.354  -1.813  1.00  0.00     0.002 C 
HETATM   38  C18 UNL     1      13.390  -6.663  -0.898  1.00  0.00     0.032 C 
ENDBRANCH  32  33
ENDBRANCH   5  32
BRANCH   4  39
HETATM   39  N5  UNL     1      11.612  -7.603   2.000  1.00  0.00    -0.072 N 
ATOM     40  H53 UNL     1      11.227  -7.258   1.121  1.00  0.00     0.274 HD
ATOM     41  H52 UNL     1      12.156  -8.396   1.660  1.00  0.00     0.274 HD
ATOM     42  H51 UNL     1      10.860  -7.930   2.607  1.00  0.00     0.274 HD
ENDBRANCH   4  39
TORSDOF 12
ENDMDL
MODEL 5
REMARK VINA RESULT: -8.424002526      1.800      7.736
REMARK  12 active torsions:
REMARK  status: ('A' for Active; 'I' for Inactive)
REMARK    1  A    between atoms: C2_2  and  C3_3 
REMARK    2  A    between atoms: C3_3  and  C4_4 
REMARK    3  A    between atoms: C4_4  and  N1_5 
REMARK       I    between atoms: N1_5  and  C5_7 
REMARK       I    between atoms: C5_7  and  N2_9 
REMARK    4  A    between atoms: N2_9  and  N3_11 
REMARK       I    between atoms: N3_11  and  C6_13 
REMARK    5  A    between atoms: C6_13  and  C7_15 
REMARK    6  A    between atoms: C7_15  and  O3_16 
REMARK    7  A    between atoms: O3_16  and  C8_17 
REMARK    8  A    between atoms: C9_18  and  N4_19 
REMARK    9  A    between atoms: C11_24  and  N5_25 
REMARK   10  A    between atoms: C12_29  and  O4_30 
REMARK   11  A    between atoms: O4_30  and  C13_31 
REMARK   12  A    between atoms: C19_37  and  O5_38 
ROOT
HETATM    1  C8  UNL     1       8.481 -11.433  -3.692  1.00  0.00     0.188 C 
HETATM    2  C9  UNL     1       7.439 -11.064  -4.756  1.00  0.00     0.217 C 
HETATM    3  C10 UNL     1       6.832  -9.723  -4.615  1.00  0.00     0.071 C 
HETATM    4  C11 UNL     1       7.468  -8.990  -3.496  1.00  0.00     0.217 C 
HETATM    5  C12 UNL     1       7.258  -9.763  -2.219  1.00  0.00     0.183 C 
HETATM    6  C19 UNL     1       7.969 -11.083  -2.299  1.00  0.00     0.180 C 
ENDROOT
BRANCH   1   7
HETATM    7  O3  UNL     1       9.687 -11.165  -3.945  1.00  0.00    -0.329 OA
BRANCH   7   8
HETATM    8  C7  UNL     1      10.888 -10.959  -4.220  1.00  0.00     0.348 A 
HETATM    9  O6  UNL     1      11.539 -11.726  -5.294  1.00  0.00    -0.260 OA
HETATM   10  C20 UNL     1      11.960 -11.974  -4.029  1.00  0.00     0.336 A 
HETATM   11  O7  UNL     1      12.675 -12.560  -3.177  1.00  0.00    -0.258 OA
BRANCH   8  12
HETATM   12  C6  UNL     1      11.509  -9.587  -4.024  1.00  0.00     0.310 C 
HETATM   13  N3  UNL     1      11.269  -8.944  -2.783  1.00  0.00    -0.261 N 
ATOM     14  H3  UNL     1      10.685  -9.428  -2.101  1.00  0.00     0.190 HD
HETATM   15  O2  UNL     1      12.207  -9.033  -4.897  1.00  0.00    -0.265 OA
BRANCH  13  16
HETATM   16  N2  UNL     1      11.774  -7.710  -2.439  1.00  0.00    -0.249 N 
HETATM   17  C5  UNL     1      11.089  -6.462  -2.672  1.00  0.00     0.338 C 
HETATM   18  N1  UNL     1      11.692  -5.254  -2.257  1.00  0.00    -0.321 N 
HETATM   19  O1  UNL     1       9.976  -6.460  -3.230  1.00  0.00    -0.245 OA
ATOM     20  H1  UNL     1      12.612  -5.368  -1.830  1.00  0.00     0.169 HD
ATOM     21  H2  UNL     1      12.690  -7.676  -1.992  1.00  0.00     0.192 HD
BRANCH  18  22
HETATM   22  C4  UNL     1      11.247  -3.923  -2.329  1.00  0.00     0.065 C 
BRANCH  22  23
HETATM   23  C3  UNL     1      11.363  -3.144  -3.580  1.00  0.00     0.044 C 
BRANCH  23  24
HETATM   24  C2  UNL     1      10.144  -2.763  -4.326  1.00  0.00     0.001 C 
HETATM   25  C1  UNL     1       9.852  -3.813  -5.424  1.00  0.00     0.005 C 
ENDBRANCH  23  24
ENDBRANCH  22  23
ENDBRANCH  18  22
ENDBRANCH  13  16
ENDBRANCH   8  12
ENDBRANCH   7   8
ENDBRANCH   1   7
BRANCH   2  26
HETATM   26  N4  UNL     1       6.455 -12.110  -4.953  1.00  0.00    -0.072 N 
ATOM     27  H43 UNL     1       6.900 -13.025  -5.023  1.00  0.00     0.274 HD
ATOM     28  H42 UNL     1       5.904 -12.260  -4.107  1.00  0.00     0.274 HD
ATOM     29  H41 UNL     1       5.853 -11.932  -5.757  1.00  0.00     0.274 HD
ENDBRANCH   2  26
BRANCH   6  30
HETATM   30  O5  UNL     1       9.127 -11.103  -1.480  1.00  0.00    -0.390 OA
ATOM     31  H5  UNL     1       8.810 -10.874  -0.615  1.00  0.00     0.210 HD
ENDBRANCH   6  30
BRANCH   5  32
HETATM   32  O4  UNL     1       5.957 -10.019  -1.885  1.00  0.00    -0.376 OA
BRANCH  32  33
HETATM   33  C13 UNL     1       5.687 -11.186  -1.224  1.00  0.00     0.122 C 
HETATM   34  C14 UNL     1       4.761 -12.127  -1.869  1.00  0.00     0.032 C 
HETATM   35  C15 UNL     1       3.515 -12.519  -1.165  1.00  0.00     0.002 C 
HETATM   36  C16 UNL     1       3.754 -12.575   0.333  1.00  0.00     0.000 C 
HETATM   37  C17 UNL     1       4.030 -11.128   0.698  1.00  0.00     0.002 C 
HETATM   38  C18 UNL     1       5.431 -10.844   0.219  1.00  0.00     0.032 C 
ENDBRANCH  32  33
ENDBRANCH   5  32
BRANCH   4  39
HETATM   39  N5  UNL     1       7.104  -7.596  -3.381  1.00  0.00    -0.072 N 
ATOM     40  H53 UNL     1       6.318  -7.389  -3.996  1.00  0.00     0.274 HD
ATOM     41  H52 UNL     1       6.674  -7.421  -2.472  1.00  0.00     0.274 HD
ATOM     42  H51 UNL     1       7.861  -6.932  -3.543  1.00  0.00     0.274 HD
ENDBRANCH   4  39
TORSDOF 12
ENDMDL
