MODEL 1
REMARK VINA RESULT: -7.556020367      0.000      0.000
REMARK  3 active torsions:
REMARK  status: ('A' for Active; 'I' for Inactive)
REMARK    1  A    between atoms: N1_1  and  C1_4 
REMARK    2  A    between atoms: C4_13  and  C5_14 
REMARK    3  A    between atoms: C5_14  and  N5_15 
ROOT
HETATM    1  C1  UNL     1      -3.997  70.785  12.320  1.00  0.00     0.131 A 
HETATM    2  N2  UNL     1      -4.640  71.163  13.441  1.00  0.00    -0.337 N 
ATOM      3  H2  UNL     1      -4.514  72.093  13.841  1.00  0.00     0.168 HD
HETATM    4  C2  UNL     1      -5.454  70.255  14.009  1.00  0.00     0.183 A 
HETATM    5  N3  UNL     1      -5.614  69.030  13.476  1.00  0.00    -0.337 N 
ATOM      6  H3  UNL     1      -6.241  68.374  13.942  1.00  0.00     0.168 HD
HETATM    7  C3  UNL     1      -4.983  68.633  12.359  1.00  0.00     0.138 A 
HETATM    8  N4  UNL     1      -4.966  67.500  11.638  1.00  0.00    -0.329 N 
ATOM      9  H4  UNL     1      -5.493  66.652  11.845  1.00  0.00     0.168 HD
HETATM   10  C4  UNL     1      -4.136  67.674  10.597  1.00  0.00     0.102 A 
HETATM   11  N7  UNL     1      -3.637  68.920  10.674  1.00  0.00    -0.338 N 
ATOM     12  H7  UNL     1      -2.977  69.331  10.013  1.00  0.00     0.167 HD
HETATM   13  C8  UNL     1      -4.141  69.539  11.751  1.00  0.00     0.122 A 
ENDROOT
BRANCH  10  14
HETATM   14  C5  UNL     1      -3.797  66.710   9.536  1.00  0.00     0.215 C 
BRANCH  14  15
HETATM   15  N5  UNL     1      -4.957  66.387   8.721  1.00  0.00    -0.244 N 
HETATM   16  C6  UNL     1      -5.711  67.169   7.813  1.00  0.00     0.334 A 
HETATM   17  O1  UNL     1      -5.699  68.363   7.365  1.00  0.00    -0.246 OA
HETATM   18  N6  UNL     1      -6.580  66.064   7.533  1.00  0.00    -0.260 N 
HETATM   19  C7  UNL     1      -5.802  65.284   8.461  1.00  0.00     0.334 A 
ATOM     20  H6  UNL     1      -7.392  65.902   6.939  1.00  0.00     0.175 HD
HETATM   21  O2  UNL     1      -5.878  64.110   8.850  1.00  0.00    -0.246 OA
ENDBRANCH  14  15
ENDBRANCH  10  14
BRANCH   1  22
HETATM   22  N1  UNL     1      -3.220  71.624  11.759  1.00  0.00    -0.383 N 
ATOM     23  H12 UNL     1      -3.180  72.573  12.128  1.00  0.00     0.157 HD
ATOM     24  H11 UNL     1      -2.667  71.310  10.962  1.00  0.00     0.157 HD
ENDBRANCH   1  22
TORSDOF 3
ENDMDL
MODEL 2
REMARK VINA RESULT: -7.498130497      0.069      1.691
REMARK  3 active torsions:
REMARK  status: ('A' for Active; 'I' for Inactive)
REMARK    1  A    between atoms: N1_1  and  C1_4 
REMARK    2  A    between atoms: C4_13  and  C5_14 
REMARK    3  A    between atoms: C5_14  and  N5_15 
ROOT
HETATM    1  C1  UNL     1      -3.984  70.801  12.340  1.00  0.00     0.131 A 
HETATM    2  N2  UNL     1      -4.600  71.172  13.478  1.00  0.00    -0.337 N 
ATOM      3  H2  UNL     1      -4.472  72.103  13.876  1.00  0.00     0.168 HD
HETATM    4  C2  UNL     1      -5.391  70.257  14.067  1.00  0.00     0.183 A 
HETATM    5  N3  UNL     1      -5.553  69.031  13.537  1.00  0.00    -0.337 N 
ATOM      6  H3  UNL     1      -6.162  68.369  14.018  1.00  0.00     0.168 HD
HETATM    7  C3  UNL     1      -4.949  68.640  12.404  1.00  0.00     0.138 A 
HETATM    8  N4  UNL     1      -4.940  67.508  11.681  1.00  0.00    -0.329 N 
ATOM      9  H4  UNL     1      -5.454  66.655  11.902  1.00  0.00     0.168 HD
HETATM   10  C4  UNL     1      -4.139  67.689  10.619  1.00  0.00     0.102 A 
HETATM   11  N7  UNL     1      -3.650  68.939  10.684  1.00  0.00    -0.338 N 
ATOM     12  H7  UNL     1      -3.011  69.357  10.007  1.00  0.00     0.167 HD
HETATM   13  C8  UNL     1      -4.130  69.554  11.775  1.00  0.00     0.122 A 
ENDROOT
BRANCH  10  14
HETATM   14  C5  UNL     1      -3.820  66.729   9.549  1.00  0.00     0.215 C 
BRANCH  14  15
HETATM   15  N5  UNL     1      -4.964  66.500   8.682  1.00  0.00    -0.244 N 
HETATM   16  C6  UNL     1      -5.769  65.354   8.478  1.00  0.00     0.334 A 
HETATM   17  O1  UNL     1      -5.834  64.159   8.919  1.00  0.00    -0.246 OA
HETATM   18  N6  UNL     1      -6.571  66.049   7.516  1.00  0.00    -0.260 N 
HETATM   19  C7  UNL     1      -5.741  67.205   7.736  1.00  0.00     0.334 A 
ATOM     20  H6  UNL     1      -7.376  65.825   6.931  1.00  0.00     0.175 HD
HETATM   21  O2  UNL     1      -5.742  68.350   7.260  1.00  0.00    -0.246 OA
ENDBRANCH  14  15
ENDBRANCH  10  14
BRANCH   1  22
HETATM   22  N1  UNL     1      -3.228  71.647  11.760  1.00  0.00    -0.383 N 
ATOM     23  H12 UNL     1      -3.660  72.430  11.270  1.00  0.00     0.157 HD
ATOM     24  H11 UNL     1      -2.219  71.506  11.810  1.00  0.00     0.157 HD
ENDBRANCH   1  22
TORSDOF 3
ENDMDL
MODEL 3
REMARK VINA RESULT: -7.407575438      0.872      2.060
REMARK  3 active torsions:
REMARK  status: ('A' for Active; 'I' for Inactive)
REMARK    1  A    between atoms: N1_1  and  C1_4 
REMARK    2  A    between atoms: C4_13  and  C5_14 
REMARK    3  A    between atoms: C5_14  and  N5_15 
ROOT
HETATM    1  C1  UNL     1      -5.720  68.121  13.606  1.00  0.00     0.131 A 
HETATM    2  N2  UNL     1      -5.582  69.084  14.538  1.00  0.00    -0.337 N 
ATOM      3  H2  UNL     1      -6.123  69.074  15.402  1.00  0.00     0.168 HD
HETATM    4  C2  UNL     1      -4.694  70.060  14.274  1.00  0.00     0.183 A 
HETATM    5  N3  UNL     1      -3.983  70.068  13.131  1.00  0.00    -0.337 N 
ATOM      6  H3  UNL     1      -3.323  70.829  12.973  1.00  0.00     0.168 HD
HETATM    7  C3  UNL     1      -4.106  69.119  12.190  1.00  0.00     0.138 A 
HETATM    8  N4  UNL     1      -3.534  68.896  10.995  1.00  0.00    -0.329 N 
ATOM      9  H4  UNL     1      -2.826  69.482  10.554  1.00  0.00     0.168 HD
HETATM   10  C4  UNL     1      -4.053  67.769  10.481  1.00  0.00     0.102 A 
HETATM   11  N7  UNL     1      -4.950  67.292  11.362  1.00  0.00    -0.338 N 
ATOM     12  H7  UNL     1      -5.503  66.443  11.238  1.00  0.00     0.167 HD
HETATM   13  C8  UNL     1      -5.007  68.103  12.428  1.00  0.00     0.122 A 
ENDROOT
BRANCH  10  14
HETATM   14  C5  UNL     1      -3.734  67.128   9.194  1.00  0.00     0.215 C 
BRANCH  14  15
HETATM   15  N5  UNL     1      -4.930  66.614   8.546  1.00  0.00    -0.244 N 
HETATM   16  C6  UNL     1      -5.824  67.210   7.625  1.00  0.00     0.334 A 
HETATM   17  O1  UNL     1      -5.954  68.332   7.030  1.00  0.00    -0.246 OA
HETATM   18  N6  UNL     1      -6.617  66.018   7.574  1.00  0.00    -0.260 N 
HETATM   19  C7  UNL     1      -5.697  65.428   8.511  1.00  0.00     0.334 A 
ATOM     20  H6  UNL     1      -7.462  65.718   7.087  1.00  0.00     0.175 HD
HETATM   21  O2  UNL     1      -5.638  64.314   9.051  1.00  0.00    -0.246 OA
ENDBRANCH  14  15
ENDBRANCH  10  14
BRANCH   1  22
HETATM   22  N1  UNL     1      -6.552  67.184  13.828  1.00  0.00    -0.383 N 
ATOM     23  H12 UNL     1      -6.388  66.564  14.622  1.00  0.00     0.157 HD
ATOM     24  H11 UNL     1      -7.351  67.090  13.202  1.00  0.00     0.157 HD
ENDBRANCH   1  22
TORSDOF 3
ENDMDL
MODEL 4
REMARK VINA RESULT: -7.360435159      0.851      2.615
REMARK  3 active torsions:
REMARK  status: ('A' for Active; 'I' for Inactive)
REMARK    1  A    between atoms: N1_1  and  C1_4 
REMARK    2  A    between atoms: C4_13  and  C5_14 
REMARK    3  A    between atoms: C5_14  and  N5_15 
ROOT
HETATM    1  C1  UNL     1      -5.630  68.305  13.576  1.00  0.00     0.131 A 
HETATM    2  N2  UNL     1      -5.442  69.305  14.457  1.00  0.00    -0.337 N 
ATOM      3  H2  UNL     1      -5.985  69.368  15.318  1.00  0.00     0.168 HD
HETATM    4  C2  UNL     1      -4.504  70.219  14.147  1.00  0.00     0.183 A 
HETATM    5  N3  UNL     1      -3.792  70.130  13.008  1.00  0.00    -0.337 N 
ATOM      6  H3  UNL     1      -3.092  70.846  12.814  1.00  0.00     0.168 HD
HETATM    7  C3  UNL     1      -3.964  69.141  12.117  1.00  0.00     0.138 A 
HETATM    8  N4  UNL     1      -3.403  68.827  10.937  1.00  0.00    -0.329 N 
ATOM      9  H4  UNL     1      -2.665  69.352  10.468  1.00  0.00     0.168 HD
HETATM   10  C4  UNL     1      -3.980  67.704  10.479  1.00  0.00     0.102 A 
HETATM   11  N7  UNL     1      -4.902  67.321  11.380  1.00  0.00    -0.338 N 
ATOM     12  H7  UNL     1      -5.499  66.498  11.297  1.00  0.00     0.167 HD
HETATM   13  C8  UNL     1      -4.917  68.188  12.403  1.00  0.00     0.122 A 
ENDROOT
BRANCH  10  14
HETATM   14  C5  UNL     1      -3.694  66.982   9.228  1.00  0.00     0.215 C 
BRANCH  14  15
HETATM   15  N5  UNL     1      -4.917  66.640   8.520  1.00  0.00    -0.244 N 
HETATM   16  C6  UNL     1      -5.694  65.457   8.509  1.00  0.00     0.334 A 
HETATM   17  O1  UNL     1      -5.662  64.306   9.058  1.00  0.00    -0.246 OA
HETATM   18  N6  UNL     1      -6.625  66.038   7.588  1.00  0.00    -0.260 N 
HETATM   19  C7  UNL     1      -5.822  67.233   7.611  1.00  0.00     0.334 A 
ATOM     20  H6  UNL     1      -7.480  65.737   7.121  1.00  0.00     0.175 HD
HETATM   21  O2  UNL     1      -5.922  68.329   7.041  1.00  0.00    -0.246 OA
ENDBRANCH  14  15
ENDBRANCH  10  14
BRANCH   1  22
HETATM   22  N1  UNL     1      -6.511  67.424  13.843  1.00  0.00    -0.383 N 
ATOM     23  H12 UNL     1      -7.112  67.567  14.653  1.00  0.00     0.157 HD
ATOM     24  H11 UNL     1      -6.579  66.610  13.233  1.00  0.00     0.157 HD
ENDBRANCH   1  22
TORSDOF 3
ENDMDL
MODEL 5
REMARK VINA RESULT: -7.019335106      0.978      1.943
REMARK  3 active torsions:
REMARK  status: ('A' for Active; 'I' for Inactive)
REMARK    1  A    between atoms: N1_1  and  C1_4 
REMARK    2  A    between atoms: C4_13  and  C5_14 
REMARK    3  A    between atoms: C5_14  and  N5_15 
ROOT
HETATM    1  C1  UNL     1      -4.174  69.898  13.404  1.00  0.00     0.131 A 
HETATM    2  N2  UNL     1      -4.820  69.701  14.568  1.00  0.00    -0.337 N 
ATOM      3  H2  UNL     1      -4.691  70.327  15.364  1.00  0.00     0.168 HD
HETATM    4  C2  UNL     1      -5.644  68.640  14.633  1.00  0.00     0.183 A 
HETATM    5  N3  UNL     1      -5.809  67.818  13.580  1.00  0.00    -0.337 N 
ATOM      6  H3  UNL     1      -6.443  67.024  13.676  1.00  0.00     0.168 HD
HETATM    7  C3  UNL     1      -5.174  67.996  12.411  1.00  0.00     0.138 A 
HETATM    8  N4  UNL     1      -5.160  67.343  11.237  1.00  0.00    -0.329 N 
ATOM      9  H4  UNL     1      -5.694  66.504  11.014  1.00  0.00     0.168 HD
HETATM   10  C4  UNL     1      -4.322  67.985  10.406  1.00  0.00     0.102 A 
HETATM   11  N7  UNL     1      -3.816  69.039  11.068  1.00  0.00    -0.338 N 
ATOM     12  H7  UNL     1      -3.149  69.710  10.686  1.00  0.00     0.167 HD
HETATM   13  C8  UNL     1      -4.322  69.074  12.310  1.00  0.00     0.122 A 
ENDROOT
BRANCH  10  14
HETATM   14  C5  UNL     1      -3.983  67.640   9.015  1.00  0.00     0.215 C 
BRANCH  14  15
HETATM   15  N5  UNL     1      -5.116  67.048   8.323  1.00  0.00    -0.244 N 
HETATM   16  C6  UNL     1      -5.780  65.810   8.502  1.00  0.00     0.334 A 
HETATM   17  O1  UNL     1      -5.683  64.793   9.266  1.00  0.00    -0.246 OA
HETATM   18  N6  UNL     1      -6.691  66.107   7.437  1.00  0.00    -0.260 N 
HETATM   19  C7  UNL     1      -6.003  67.362   7.269  1.00  0.00     0.334 A 
ATOM     20  H6  UNL     1      -7.479  65.638   6.993  1.00  0.00     0.175 HD
HETATM   21  O2  UNL     1      -6.160  68.314   6.491  1.00  0.00    -0.246 OA
ENDBRANCH  14  15
ENDBRANCH  10  14
BRANCH   1  22
HETATM   22  N1  UNL     1      -3.387  70.895  13.312  1.00  0.00    -0.383 N 
ATOM     23  H12 UNL     1      -3.605  71.628  12.638  1.00  0.00     0.157 HD
ATOM     24  H11 UNL     1      -2.567  70.920  13.919  1.00  0.00     0.157 HD
ENDBRANCH   1  22
TORSDOF 3
ENDMDL
