MODEL 1
REMARK VINA RESULT: -7.517227501      0.000      0.000
REMARK  4 active torsions:
REMARK  status: ('A' for Active; 'I' for Inactive)
REMARK    1  A    between atoms: C2_2  and  C3_3 
REMARK    2  A    between atoms: C3_3  and  N1_4 
REMARK    3  A    between atoms: N1_4  and  C4_6 
REMARK    4  A    between atoms: C6_12  and  N4_13 
ROOT
HETATM    1  C4  UNL     1      -5.392  66.917   9.895  1.00  0.00     0.694 A 
HETATM    2  N2  UNL     1      -4.723  68.078   9.903  1.00  0.00    -0.172 N 
ATOM      3  H2  UNL     1      -4.322  68.446   9.040  1.00  0.00     0.186 HD
HETATM    4  C5  UNL     1      -4.583  68.757  11.059  1.00  0.00     0.170 A 
HETATM    5  N3  UNL     1      -3.921  69.928  11.123  1.00  0.00    -0.174 N 
ATOM      6  H3  UNL     1      -3.503  70.337  10.287  1.00  0.00     0.186 HD
HETATM    7  C6  UNL     1      -3.825  70.541  12.306  1.00  0.00     0.680 A 
HETATM    8  N5  UNL     1      -4.361  70.044  13.449  1.00  0.00    -0.154 N 
ATOM      9  H5  UNL     1      -4.265  70.545  14.332  1.00  0.00     0.187 HD
HETATM   10  C7  UNL     1      -5.013  68.893  13.390  1.00  0.00     0.291 A 
HETATM   11  O1  UNL     1      -5.530  68.393  14.436  1.00  0.00    -0.265 OA
HETATM   12  C8  UNL     1      -5.135  68.231  12.197  1.00  0.00     0.162 A 
HETATM   13  N6  UNL     1      -5.802  67.062  12.161  1.00  0.00    -0.278 N 
ATOM     14  H6  UNL     1      -6.211  66.677  13.012  1.00  0.00     0.188 HD
HETATM   15  N7  UNL     1      -5.922  66.425  11.029  1.00  0.00    -0.132 N 
ATOM     16  H7  UNL     1      -6.427  65.538  11.003  1.00  0.00     0.205 HD
ENDROOT
BRANCH   1  17
HETATM   17  N1  UNL     1      -5.548  66.230   8.792  1.00  0.00    -0.221 N 
ATOM     18  H1  UNL     1      -5.536  66.690   7.882  1.00  0.00     0.178 HD
BRANCH  17  19
HETATM   19  C3  UNL     1      -5.737  64.802   8.899  1.00  0.00     0.164 C 
BRANCH  19  20
HETATM   20  C2  UNL     1      -7.005  64.464   8.216  1.00  0.00    -0.017 C 
HETATM   21  C1  UNL     1      -7.115  63.398   7.450  1.00  0.00     0.008 C 
ENDBRANCH  19  20
ENDBRANCH  17  19
ENDBRANCH   1  17
BRANCH   7  22
HETATM   22  N4  UNL     1      -3.185  71.678  12.381  1.00  0.00    -0.234 N 
ATOM     23  H42 UNL     1      -3.094  72.228  11.527  1.00  0.00     0.174 HD
ATOM     24  H41 UNL     1      -2.803  71.973  13.280  1.00  0.00     0.174 HD
ENDBRANCH   7  22
TORSDOF 4
ENDMDL
MODEL 2
REMARK VINA RESULT: -7.332655103      1.377      2.426
REMARK  4 active torsions:
REMARK  status: ('A' for Active; 'I' for Inactive)
REMARK    1  A    between atoms: C2_2  and  C3_3 
REMARK    2  A    between atoms: C3_3  and  N1_4 
REMARK    3  A    between atoms: N1_4  and  C4_6 
REMARK    4  A    between atoms: C6_12  and  N4_13 
ROOT
HETATM    1  C4  UNL     1      -5.134  67.031   9.588  1.00  0.00     0.694 A 
HETATM    2  N2  UNL     1      -5.660  66.784  10.795  1.00  0.00    -0.172 N 
ATOM      3  H2  UNL     1      -6.251  65.964  10.941  1.00  0.00     0.186 HD
HETATM    4  C5  UNL     1      -5.404  67.625  11.818  1.00  0.00     0.170 A 
HETATM    5  N3  UNL     1      -5.907  67.423  13.050  1.00  0.00    -0.174 N 
ATOM      6  H3  UNL     1      -6.503  66.618  13.246  1.00  0.00     0.186 HD
HETATM    7  C6  UNL     1      -5.608  68.302  14.011  1.00  0.00     0.680 A 
HETATM    8  N5  UNL     1      -4.822  69.389  13.809  1.00  0.00    -0.154 N 
ATOM      9  H5  UNL     1      -4.618  70.035  14.571  1.00  0.00     0.187 HD
HETATM   10  C7  UNL     1      -4.326  69.591  12.598  1.00  0.00     0.291 A 
HETATM   11  O1  UNL     1      -3.586  70.595  12.366  1.00  0.00    -0.265 OA
HETATM   12  C8  UNL     1      -4.608  68.714  11.584  1.00  0.00     0.162 A 
HETATM   13  N6  UNL     1      -4.092  68.939  10.360  1.00  0.00    -0.278 N 
ATOM     14  H6  UNL     1      -3.498  69.752  10.194  1.00  0.00     0.188 HD
HETATM   15  N7  UNL     1      -4.356  68.110   9.388  1.00  0.00    -0.132 N 
ATOM     16  H7  UNL     1      -3.965  68.282   8.461  1.00  0.00     0.205 HD
ENDROOT
BRANCH   1  17
HETATM   17  N1  UNL     1      -5.361  66.238   8.572  1.00  0.00    -0.221 N 
ATOM     18  H1  UNL     1      -5.354  66.596   7.617  1.00  0.00     0.178 HD
BRANCH  17  19
HETATM   19  C3  UNL     1      -5.620  64.842   8.839  1.00  0.00     0.164 C 
BRANCH  19  20
HETATM   20  C2  UNL     1      -6.963  64.524   8.307  1.00  0.00    -0.017 C 
HETATM   21  C1  UNL     1      -7.147  63.563   7.425  1.00  0.00     0.008 C 
ENDBRANCH  19  20
ENDBRANCH  17  19
ENDBRANCH   1  17
BRANCH   7  22
HETATM   22  N4  UNL     1      -6.090  68.117  15.212  1.00  0.00    -0.234 N 
ATOM     23  H42 UNL     1      -5.577  67.496  15.838  1.00  0.00     0.174 HD
ATOM     24  H41 UNL     1      -6.952  68.594  15.478  1.00  0.00     0.174 HD
ENDBRANCH   7  22
TORSDOF 4
ENDMDL
MODEL 3
REMARK VINA RESULT: -7.316310632      2.425      5.900
REMARK  4 active torsions:
REMARK  status: ('A' for Active; 'I' for Inactive)
REMARK    1  A    between atoms: C2_2  and  C3_3 
REMARK    2  A    between atoms: C3_3  and  N1_4 
REMARK    3  A    between atoms: N1_4  and  C4_6 
REMARK    4  A    between atoms: C6_12  and  N4_13 
ROOT
HETATM    1  C4  UNL     1      -4.836  68.406  11.467  1.00  0.00     0.694 A 
HETATM    2  N2  UNL     1      -5.481  67.249  11.263  1.00  0.00    -0.172 N 
ATOM      3  H2  UNL     1      -5.690  66.632  12.048  1.00  0.00     0.186 HD
HETATM    4  C5  UNL     1      -5.852  66.907  10.013  1.00  0.00     0.170 A 
HETATM    5  N3  UNL     1      -6.502  65.757   9.752  1.00  0.00    -0.174 N 
ATOM      6  H3  UNL     1      -6.735  65.107  10.503  1.00  0.00     0.186 HD
HETATM    7  C6  UNL     1      -6.836  65.488   8.486  1.00  0.00     0.680 A 
HETATM    8  N5  UNL     1      -6.553  66.315   7.448  1.00  0.00    -0.154 N 
ATOM      9  H5  UNL     1      -6.826  66.071   6.497  1.00  0.00     0.187 HD
HETATM   10  C7  UNL     1      -5.914  67.446   7.701  1.00  0.00     0.291 A 
HETATM   11  O1  UNL     1      -5.630  68.248   6.759  1.00  0.00    -0.265 OA
HETATM   12  C8  UNL     1      -5.552  67.761   8.985  1.00  0.00     0.162 A 
HETATM   13  N6  UNL     1      -4.903  68.918   9.218  1.00  0.00    -0.278 N 
ATOM     14  H6  UNL     1      -4.685  69.549   8.448  1.00  0.00     0.188 HD
HETATM   15  N7  UNL     1      -4.555  69.225  10.438  1.00  0.00    -0.132 N 
ATOM     16  H7  UNL     1      -4.062  70.100  10.613  1.00  0.00     0.205 HD
ENDROOT
BRANCH   1  17
HETATM   17  N1  UNL     1      -4.460  68.772  12.666  1.00  0.00    -0.221 N 
ATOM     18  H1  UNL     1      -3.502  68.620  12.984  1.00  0.00     0.178 HD
BRANCH  17  19
HETATM   19  C3  UNL     1      -5.437  69.397  13.527  1.00  0.00     0.164 C 
BRANCH  19  20
HETATM   20  C2  UNL     1      -5.612  68.529  14.712  1.00  0.00    -0.017 C 
HETATM   21  C1  UNL     1      -6.444  67.508  14.705  1.00  0.00     0.008 C 
ENDBRANCH  19  20
ENDBRANCH  17  19
ENDBRANCH   1  17
BRANCH   7  22
HETATM   22  N4  UNL     1      -7.467  64.375   8.220  1.00  0.00    -0.234 N 
ATOM     23  H42 UNL     1      -6.919  63.593   7.864  1.00  0.00     0.174 HD
ATOM     24  H41 UNL     1      -8.475  64.328   8.375  1.00  0.00     0.174 HD
ENDBRANCH   7  22
TORSDOF 4
ENDMDL
MODEL 4
REMARK VINA RESULT: -7.181164969      2.457      6.316
REMARK  4 active torsions:
REMARK  status: ('A' for Active; 'I' for Inactive)
REMARK    1  A    between atoms: C2_2  and  C3_3 
REMARK    2  A    between atoms: C3_3  and  N1_4 
REMARK    3  A    between atoms: N1_4  and  C4_6 
REMARK    4  A    between atoms: C6_12  and  N4_13 
ROOT
HETATM    1  C4  UNL     1      -4.831  68.437  11.572  1.00  0.00     0.694 A 
HETATM    2  N2  UNL     1      -5.492  67.293  11.354  1.00  0.00    -0.172 N 
ATOM      3  H2  UNL     1      -5.727  66.679  12.134  1.00  0.00     0.186 HD
HETATM    4  C5  UNL     1      -5.846  66.958  10.097  1.00  0.00     0.170 A 
HETATM    5  N3  UNL     1      -6.512  65.821   9.822  1.00  0.00    -0.174 N 
ATOM      6  H3  UNL     1      -6.770  65.174  10.568  1.00  0.00     0.186 HD
HETATM    7  C6  UNL     1      -6.827  65.559   8.550  1.00  0.00     0.680 A 
HETATM    8  N5  UNL     1      -6.511  66.382   7.519  1.00  0.00    -0.154 N 
ATOM      9  H5  UNL     1      -6.771  66.144   6.562  1.00  0.00     0.187 HD
HETATM   10  C7  UNL     1      -5.856  67.501   7.785  1.00  0.00     0.291 A 
HETATM   11  O1  UNL     1      -5.541  68.299   6.850  1.00  0.00    -0.265 OA
HETATM   12  C8  UNL     1      -5.513  67.808   9.075  1.00  0.00     0.162 A 
HETATM   13  N6  UNL     1      -4.847  68.953   9.323  1.00  0.00    -0.278 N 
ATOM     14  H6  UNL     1      -4.604  69.581   8.557  1.00  0.00     0.188 HD
HETATM   15  N7  UNL     1      -4.517  69.252  10.549  1.00  0.00    -0.132 N 
ATOM     16  H7  UNL     1      -4.011  70.119  10.734  1.00  0.00     0.205 HD
ENDROOT
BRANCH   1  17
HETATM   17  N1  UNL     1      -4.470  68.796  12.778  1.00  0.00    -0.221 N 
ATOM     18  H1  UNL     1      -4.664  68.198  13.582  1.00  0.00     0.178 HD
BRANCH  17  19
HETATM   19  C3  UNL     1      -3.791  70.060  12.940  1.00  0.00     0.164 C 
BRANCH  19  20
HETATM   20  C2  UNL     1      -3.741  70.362  14.387  1.00  0.00    -0.017 C 
HETATM   21  C1  UNL     1      -2.624  70.735  14.978  1.00  0.00     0.008 C 
ENDBRANCH  19  20
ENDBRANCH  17  19
ENDBRANCH   1  17
BRANCH   7  22
HETATM   22  N4  UNL     1      -7.474  64.458   8.271  1.00  0.00    -0.234 N 
ATOM     23  H42 UNL     1      -7.015  63.782   7.661  1.00  0.00     0.174 HD
ATOM     24  H41 UNL     1      -8.403  64.315   8.668  1.00  0.00     0.174 HD
ENDBRANCH   7  22
TORSDOF 4
ENDMDL
MODEL 5
REMARK VINA RESULT: -6.919947121      2.386      5.627
REMARK  4 active torsions:
REMARK  status: ('A' for Active; 'I' for Inactive)
REMARK    1  A    between atoms: C2_2  and  C3_3 
REMARK    2  A    between atoms: C3_3  and  N1_4 
REMARK    3  A    between atoms: N1_4  and  C4_6 
REMARK    4  A    between atoms: C6_12  and  N4_13 
ROOT
HETATM    1  C4  UNL     1      -5.168  68.246  12.433  1.00  0.00     0.694 A 
HETATM    2  N2  UNL     1      -5.880  67.246  11.894  1.00  0.00    -0.172 N 
ATOM      3  H2  UNL     1      -6.462  66.653  12.486  1.00  0.00     0.186 HD
HETATM    4  C5  UNL     1      -5.822  67.030  10.565  1.00  0.00     0.170 A 
HETATM    5  N3  UNL     1      -6.516  66.040   9.972  1.00  0.00    -0.174 N 
ATOM      6  H3  UNL     1      -7.113  65.420  10.521  1.00  0.00     0.186 HD
HETATM    7  C6  UNL     1      -6.406  65.889   8.650  1.00  0.00     0.680 A 
HETATM    8  N5  UNL     1      -5.629  66.683   7.870  1.00  0.00    -0.154 N 
ATOM      9  H5  UNL     1      -5.574  66.533   6.863  1.00  0.00     0.187 HD
HETATM   10  C7  UNL     1      -4.945  67.657   8.449  1.00  0.00     0.291 A 
HETATM   11  O1  UNL     1      -4.206  68.423   7.757  1.00  0.00    -0.265 OA
HETATM   12  C8  UNL     1      -5.029  67.847   9.804  1.00  0.00     0.162 A 
HETATM   13  N6  UNL     1      -4.324  68.845  10.371  1.00  0.00    -0.278 N 
ATOM     14  H6  UNL     1      -3.736  69.450   9.797  1.00  0.00     0.188 HD
HETATM   15  N7  UNL     1      -4.397  69.032  11.660  1.00  0.00    -0.132 N 
ATOM     16  H7  UNL     1      -3.862  69.787  12.089  1.00  0.00     0.205 HD
ENDROOT
BRANCH   1  17
HETATM   17  N1  UNL     1      -5.199  68.486  13.719  1.00  0.00    -0.221 N 
ATOM     18  H1  UNL     1      -4.336  68.571  14.257  1.00  0.00     0.178 HD
BRANCH  17  19
HETATM   19  C3  UNL     1      -6.487  68.629  14.357  1.00  0.00     0.164 C 
BRANCH  19  20
HETATM   20  C2  UNL     1      -6.619  67.542  15.352  1.00  0.00    -0.017 C 
HETATM   21  C1  UNL     1      -7.338  66.465  15.108  1.00  0.00     0.008 C 
ENDBRANCH  19  20
ENDBRANCH  17  19
ENDBRANCH   1  17
BRANCH   7  22
HETATM   22  N4  UNL     1      -7.075  64.932   8.063  1.00  0.00    -0.234 N 
ATOM     23  H42 UNL     1      -7.184  64.983   7.050  1.00  0.00     0.174 HD
ATOM     24  H41 UNL     1      -7.461  64.177   8.631  1.00  0.00     0.174 HD
ENDBRANCH   7  22
TORSDOF 4
ENDMDL
