MODEL 1
REMARK VINA RESULT: -7.702142267      0.000      0.000
REMARK  8 active torsions:
REMARK  status: ('A' for Active; 'I' for Inactive)
REMARK    1  A    between atoms: N1_2  and  C3_4 
REMARK    2  A    between atoms: C3_4  and  C4_5 
REMARK    3  A    between atoms: C4_5  and  C5_6 
REMARK    4  A    between atoms: C5_6  and  N2_7 
REMARK       I    between atoms: N2_7  and  C6_9 
REMARK    5  A    between atoms: C6_9  and  C7_11 
REMARK    6  A    between atoms: C7_11  and  C8_12 
REMARK    7  A    between atoms: C11_15  and  O2_16 
REMARK    8  A    between atoms: C11_15  and  C12_18 
ROOT
HETATM    1  C8  UNL     1       0.213   9.655  73.235  1.00  0.00     0.169 C 
HETATM    2  C9  UNL     1      -0.842  10.600  73.705  1.00  0.00     0.041 C 
HETATM    3  C10 UNL     1      -1.952   9.729  74.323  1.00  0.00     0.075 C 
HETATM    4  C11 UNL     1      -1.266   8.697  75.172  1.00  0.00     0.203 C 
HETATM    5  O3  UNL     1      -0.548   7.840  74.337  1.00  0.00    -0.200 OA
HETATM    6  O4  UNL     1      -0.368   8.392  73.162  1.00  0.00    -0.232 OA
ENDROOT
BRANCH   4   7
HETATM    7  O2  UNL     1      -0.279   9.303  75.992  1.00  0.00    -0.363 OA
ATOM      8  H2  UNL     1       0.272   8.643  76.395  1.00  0.00     0.213 HD
ENDBRANCH   4   7
BRANCH   4   9
HETATM    9  C12 UNL     1      -2.173   7.965  76.097  1.00  0.00     0.020 C 
HETATM   10  C13 UNL     1      -1.494   7.750  77.423  1.00  0.00     0.019 C 
HETATM   11  C14 UNL     1      -2.329   6.877  78.357  1.00  0.00    -0.013 C 
HETATM   12  C15 UNL     1      -3.629   7.641  78.558  1.00  0.00     0.009 C 
HETATM   13  C19 UNL     1      -2.527   5.547  77.693  1.00  0.00     0.009 C 
HETATM   14  C16 UNL     1      -4.319   7.821  77.244  1.00  0.00    -0.013 C 
HETATM   15  C17 UNL     1      -4.615   6.462  76.629  1.00  0.00     0.009 C 
HETATM   16  C21 UNL     1      -3.509   8.648  76.288  1.00  0.00     0.019 C 
HETATM   17  C18 UNL     1      -3.302   5.766  76.408  1.00  0.00    -0.013 C 
HETATM   18  C20 UNL     1      -2.475   6.605  75.483  1.00  0.00     0.019 C 
ENDBRANCH   4   9
BRANCH   1  19
HETATM   19  C7  UNL     1       0.725   9.989  71.850  1.00  0.00     0.137 C 
BRANCH  19  20
HETATM   20  C6  UNL     1       0.438  11.397  71.492  1.00  0.00     0.220 C 
HETATM   21  N2  UNL     1       1.229  12.428  72.013  1.00  0.00    -0.361 N 
ATOM     22  H2  UNL     1       1.996  12.168  72.633  1.00  0.00     0.162 HD
HETATM   23  O1  UNL     1      -0.511  11.636  70.725  1.00  0.00    -0.274 OA
BRANCH  21  24
HETATM   24  C5  UNL     1       1.036  13.836  71.733  1.00  0.00     0.127 C 
BRANCH  24  25
HETATM   25  C4  UNL     1       0.031  14.462  72.630  1.00  0.00     0.064 C 
BRANCH  25  26
HETATM   26  C3  UNL     1       0.133  14.194  74.080  1.00  0.00     0.058 C 
BRANCH  26  27
HETATM   27  N1  UNL     1       0.867  15.049  74.912  1.00  0.00    -0.402 N 
HETATM   28  C1  UNL     1       0.738  14.946  76.316  1.00  0.00     0.148 C 
HETATM   29  C2  UNL     1       0.982  16.412  74.447  1.00  0.00     0.148 C 
ENDBRANCH  26  27
ENDBRANCH  25  26
ENDBRANCH  24  25
ENDBRANCH  21  24
ENDBRANCH  19  20
ENDBRANCH   1  19
TORSDOF 8
ENDMDL
MODEL 2
REMARK VINA RESULT: -7.681417440      0.361      1.483
REMARK  8 active torsions:
REMARK  status: ('A' for Active; 'I' for Inactive)
REMARK    1  A    between atoms: N1_2  and  C3_4 
REMARK    2  A    between atoms: C3_4  and  C4_5 
REMARK    3  A    between atoms: C4_5  and  C5_6 
REMARK    4  A    between atoms: C5_6  and  N2_7 
REMARK       I    between atoms: N2_7  and  C6_9 
REMARK    5  A    between atoms: C6_9  and  C7_11 
REMARK    6  A    between atoms: C7_11  and  C8_12 
REMARK    7  A    between atoms: C11_15  and  O2_16 
REMARK    8  A    between atoms: C11_15  and  C12_18 
ROOT
HETATM    1  C8  UNL     1      -0.148   9.935  73.328  1.00  0.00     0.169 C 
HETATM    2  C9  UNL     1      -1.469  10.573  73.607  1.00  0.00     0.041 C 
HETATM    3  C10 UNL     1      -2.320   9.502  74.314  1.00  0.00     0.075 C 
HETATM    4  C11 UNL     1      -1.432   8.854  75.339  1.00  0.00     0.203 C 
HETATM    5  O3  UNL     1      -0.430   8.146  74.673  1.00  0.00    -0.200 OA
HETATM    6  O4  UNL     1      -0.325   8.559  73.434  1.00  0.00    -0.232 OA
ENDROOT
BRANCH   4   7
HETATM    7  O2  UNL     1      -0.736   9.838  76.088  1.00  0.00    -0.363 OA
ATOM      8  H2  UNL     1      -0.402  10.518  75.515  1.00  0.00     0.213 HD
ENDBRANCH   4   7
BRANCH   4   9
HETATM    9  C12 UNL     1      -2.156   8.019  76.334  1.00  0.00     0.020 C 
HETATM   10  C13 UNL     1      -2.479   6.674  75.742  1.00  0.00     0.019 C 
HETATM   11  C14 UNL     1      -3.349   5.833  76.674  1.00  0.00    -0.013 C 
HETATM   12  C15 UNL     1      -2.523   5.658  77.938  1.00  0.00     0.009 C 
HETATM   13  C19 UNL     1      -4.629   6.578  76.908  1.00  0.00     0.009 C 
HETATM   14  C16 UNL     1      -2.235   6.994  78.545  1.00  0.00    -0.013 C 
HETATM   15  C17 UNL     1      -3.541   7.697  78.881  1.00  0.00     0.009 C 
HETATM   16  C21 UNL     1      -1.408   7.860  77.639  1.00  0.00     0.019 C 
HETATM   17  C18 UNL     1      -4.300   7.888  77.598  1.00  0.00    -0.013 C 
HETATM   18  C20 UNL     1      -3.463   8.721  76.677  1.00  0.00     0.019 C 
ENDBRANCH   4   9
BRANCH   1  19
HETATM   19  C7  UNL     1       0.352  10.213  71.927  1.00  0.00     0.137 C 
BRANCH  19  20
HETATM   20  C6  UNL     1       0.203  11.643  71.572  1.00  0.00     0.220 C 
HETATM   21  N2  UNL     1       1.125  12.582  72.047  1.00  0.00    -0.361 N 
ATOM     22  H2  UNL     1       1.888  12.243  72.633  1.00  0.00     0.162 HD
HETATM   23  O1  UNL     1      -0.749  11.981  70.848  1.00  0.00    -0.274 OA
BRANCH  21  24
HETATM   24  C5  UNL     1       1.073  14.003  71.766  1.00  0.00     0.127 C 
BRANCH  24  25
HETATM   25  C4  UNL     1       0.208  14.741  72.722  1.00  0.00     0.064 C 
BRANCH  25  26
HETATM   26  C3  UNL     1       0.259  14.351  74.146  1.00  0.00     0.058 C 
BRANCH  26  27
HETATM   27  N1  UNL     1       0.952  15.137  75.075  1.00  0.00    -0.402 N 
HETATM   28  C1  UNL     1       0.713  14.969  76.458  1.00  0.00     0.148 C 
HETATM   29  C2  UNL     1       1.145  16.518  74.692  1.00  0.00     0.148 C 
ENDBRANCH  26  27
ENDBRANCH  25  26
ENDBRANCH  24  25
ENDBRANCH  21  24
ENDBRANCH  19  20
ENDBRANCH   1  19
TORSDOF 8
ENDMDL
MODEL 3
REMARK VINA RESULT: -7.655018258      1.699      3.026
REMARK  8 active torsions:
REMARK  status: ('A' for Active; 'I' for Inactive)
REMARK    1  A    between atoms: N1_2  and  C3_4 
REMARK    2  A    between atoms: C3_4  and  C4_5 
REMARK    3  A    between atoms: C4_5  and  C5_6 
REMARK    4  A    between atoms: C5_6  and  N2_7 
REMARK       I    between atoms: N2_7  and  C6_9 
REMARK    5  A    between atoms: C6_9  and  C7_11 
REMARK    6  A    between atoms: C7_11  and  C8_12 
REMARK    7  A    between atoms: C11_15  and  O2_16 
REMARK    8  A    between atoms: C11_15  and  C12_18 
ROOT
HETATM    1  C8  UNL     1      -1.238   9.363  74.491  1.00  0.00     0.169 C 
HETATM    2  C9  UNL     1      -2.065   8.122  74.542  1.00  0.00     0.041 C 
HETATM    3  C10 UNL     1      -1.919   7.569  75.972  1.00  0.00     0.075 C 
HETATM    4  C11 UNL     1      -2.051   8.741  76.902  1.00  0.00     0.203 C 
HETATM    5  O3  UNL     1      -0.949   9.579  76.718  1.00  0.00    -0.200 OA
HETATM    6  O4  UNL     1      -0.365   9.320  75.574  1.00  0.00    -0.232 OA
ENDROOT
BRANCH   4   7
HETATM    7  O2  UNL     1      -3.168   9.538  76.543  1.00  0.00    -0.363 OA
ATOM      8  H2  UNL     1      -3.569   9.918  77.317  1.00  0.00     0.213 HD
ENDBRANCH   4   7
BRANCH   4   9
HETATM    9  C12 UNL     1      -2.254   8.370  78.328  1.00  0.00     0.020 C 
HETATM   10  C13 UNL     1      -3.699   8.029  78.572  1.00  0.00     0.019 C 
HETATM   11  C14 UNL     1      -3.986   7.782  80.051  1.00  0.00    -0.013 C 
HETATM   12  C15 UNL     1      -3.103   6.604  80.436  1.00  0.00     0.009 C 
HETATM   13  C19 UNL     1      -3.652   9.036  80.803  1.00  0.00     0.009 C 
HETATM   14  C16 UNL     1      -1.665   6.960  80.228  1.00  0.00    -0.013 C 
HETATM   15  C17 UNL     1      -1.308   8.168  81.080  1.00  0.00     0.009 C 
HETATM   16  C21 UNL     1      -1.356   7.243  78.786  1.00  0.00     0.019 C 
HETATM   17  C18 UNL     1      -2.171   9.314  80.633  1.00  0.00    -0.013 C 
HETATM   18  C20 UNL     1      -1.892   9.576  79.185  1.00  0.00     0.019 C 
ENDBRANCH   4   9
BRANCH   1  19
HETATM   19  C7  UNL     1      -0.391   9.452  73.240  1.00  0.00     0.137 C 
BRANCH  19  20
HETATM   20  C6  UNL     1      -0.622  10.724  72.518  1.00  0.00     0.220 C 
HETATM   21  N2  UNL     1      -1.337  11.758  73.133  1.00  0.00    -0.361 N 
ATOM     22  H2  UNL     1      -1.679  11.599  74.080  1.00  0.00     0.162 HD
HETATM   23  O1  UNL     1      -0.169  10.847  71.367  1.00  0.00    -0.274 OA
BRANCH  21  24
HETATM   24  C5  UNL     1      -1.625  13.039  72.518  1.00  0.00     0.127 C 
BRANCH  24  25
HETATM   25  C4  UNL     1      -0.533  14.025  72.721  1.00  0.00     0.064 C 
BRANCH  25  26
HETATM   26  C3  UNL     1       0.195  14.000  74.008  1.00  0.00     0.058 C 
BRANCH  26  27
HETATM   27  N1  UNL     1       0.446  15.188  74.706  1.00  0.00    -0.402 N 
HETATM   28  C1  UNL     1       1.186  16.224  74.092  1.00  0.00     0.148 C 
HETATM   29  C2  UNL     1       0.748  15.024  76.110  1.00  0.00     0.148 C 
ENDBRANCH  26  27
ENDBRANCH  25  26
ENDBRANCH  24  25
ENDBRANCH  21  24
ENDBRANCH  19  20
ENDBRANCH   1  19
TORSDOF 8
ENDMDL
MODEL 4
REMARK VINA RESULT: -7.587785705      1.718      2.755
REMARK  8 active torsions:
REMARK  status: ('A' for Active; 'I' for Inactive)
REMARK    1  A    between atoms: N1_2  and  C3_4 
REMARK    2  A    between atoms: C3_4  and  C4_5 
REMARK    3  A    between atoms: C4_5  and  C5_6 
REMARK    4  A    between atoms: C5_6  and  N2_7 
REMARK       I    between atoms: N2_7  and  C6_9 
REMARK    5  A    between atoms: C6_9  and  C7_11 
REMARK    6  A    between atoms: C7_11  and  C8_12 
REMARK    7  A    between atoms: C11_15  and  O2_16 
REMARK    8  A    between atoms: C11_15  and  C12_18 
ROOT
HETATM    1  C8  UNL     1      -1.308   9.273  74.467  1.00  0.00     0.169 C 
HETATM    2  C9  UNL     1      -1.996   7.956  74.612  1.00  0.00     0.041 C 
HETATM    3  C10 UNL     1      -1.808   7.534  76.081  1.00  0.00     0.075 C 
HETATM    4  C11 UNL     1      -2.077   8.754  76.916  1.00  0.00     0.203 C 
HETATM    5  O3  UNL     1      -1.072   9.690  76.672  1.00  0.00    -0.200 OA
HETATM    6  O4  UNL     1      -0.449   9.410  75.554  1.00  0.00    -0.232 OA
ENDROOT
BRANCH   4   7
HETATM    7  O2  UNL     1      -3.271   9.394  76.493  1.00  0.00    -0.363 OA
ATOM      8  H2  UNL     1      -3.756   9.723  77.241  1.00  0.00     0.213 HD
ENDBRANCH   4   7
BRANCH   4   9
HETATM    9  C12 UNL     1      -2.256   8.473  78.367  1.00  0.00     0.020 C 
HETATM   10  C13 UNL     1      -1.410   7.297  78.772  1.00  0.00     0.019 C 
HETATM   11  C14 UNL     1      -1.669   6.879  80.218  1.00  0.00    -0.013 C 
HETATM   12  C15 UNL     1      -1.302   8.095  81.055  1.00  0.00     0.009 C 
HETATM   13  C19 UNL     1      -3.115   6.499  80.338  1.00  0.00     0.009 C 
HETATM   14  C16 UNL     1      -2.170   9.253  80.675  1.00  0.00    -0.013 C 
HETATM   15  C17 UNL     1      -3.630   8.895  80.904  1.00  0.00     0.009 C 
HETATM   16  C21 UNL     1      -1.964   9.668  79.247  1.00  0.00     0.019 C 
HETATM   17  C18 UNL     1      -3.956   7.721  80.026  1.00  0.00    -0.013 C 
HETATM   18  C20 UNL     1      -3.718   8.120  78.601  1.00  0.00     0.019 C 
ENDBRANCH   4   9
BRANCH   1  19
HETATM   19  C7  UNL     1      -0.461   9.357  73.216  1.00  0.00     0.137 C 
BRANCH  19  20
HETATM   20  C6  UNL     1      -0.654  10.648  72.517  1.00  0.00     0.220 C 
HETATM   21  N2  UNL     1      -1.357  11.685  73.141  1.00  0.00    -0.361 N 
ATOM     22  H2  UNL     1      -1.717  11.515  74.080  1.00  0.00     0.162 HD
HETATM   23  O1  UNL     1      -0.181  10.784  71.375  1.00  0.00    -0.274 OA
BRANCH  21  24
HETATM   24  C5  UNL     1      -1.608  12.984  72.549  1.00  0.00     0.127 C 
BRANCH  24  25
HETATM   25  C4  UNL     1      -0.509  13.948  72.807  1.00  0.00     0.064 C 
BRANCH  25  26
HETATM   26  C3  UNL     1       0.132  13.931  74.138  1.00  0.00     0.058 C 
BRANCH  26  27
HETATM   27  N1  UNL     1       0.423  15.128  74.805  1.00  0.00    -0.402 N 
HETATM   28  C1  UNL     1       1.150  16.144  74.142  1.00  0.00     0.148 C 
HETATM   29  C2  UNL     1       0.778  14.987  76.199  1.00  0.00     0.148 C 
ENDBRANCH  26  27
ENDBRANCH  25  26
ENDBRANCH  24  25
ENDBRANCH  21  24
ENDBRANCH  19  20
ENDBRANCH   1  19
TORSDOF 8
ENDMDL
MODEL 5
REMARK VINA RESULT: -7.577691175      0.755      1.723
REMARK  8 active torsions:
REMARK  status: ('A' for Active; 'I' for Inactive)
REMARK    1  A    between atoms: N1_2  and  C3_4 
REMARK    2  A    between atoms: C3_4  and  C4_5 
REMARK    3  A    between atoms: C4_5  and  C5_6 
REMARK    4  A    between atoms: C5_6  and  N2_7 
REMARK       I    between atoms: N2_7  and  C6_9 
REMARK    5  A    between atoms: C6_9  and  C7_11 
REMARK    6  A    between atoms: C7_11  and  C8_12 
REMARK    7  A    between atoms: C11_15  and  O2_16 
REMARK    8  A    between atoms: C11_15  and  C12_18 
ROOT
HETATM    1  C8  UNL     1      -0.283   9.323  73.148  1.00  0.00     0.169 C 
HETATM    2  C9  UNL     1      -1.261  10.299  73.712  1.00  0.00     0.041 C 
HETATM    3  C10 UNL     1      -2.310   9.465  74.469  1.00  0.00     0.075 C 
HETATM    4  C11 UNL     1      -1.553   8.437  75.261  1.00  0.00     0.203 C 
HETATM    5  O3  UNL     1      -0.950   7.547  74.370  1.00  0.00    -0.200 OA
HETATM    6  O4  UNL     1      -0.892   8.071  73.170  1.00  0.00    -0.232 OA
ENDROOT
BRANCH   4   7
HETATM    7  O2  UNL     1      -0.469   9.039  75.951  1.00  0.00    -0.363 OA
ATOM      8  H2  UNL     1      -0.584   8.953  76.890  1.00  0.00     0.213 HD
ENDBRANCH   4   7
BRANCH   4   9
HETATM    9  C12 UNL     1      -2.365   7.745  76.298  1.00  0.00     0.020 C 
HETATM   10  C13 UNL     1      -3.597   8.549  76.610  1.00  0.00     0.019 C 
HETATM   11  C14 UNL     1      -4.389   7.953  77.772  1.00  0.00    -0.013 C 
HETATM   12  C15 UNL     1      -4.782   6.558  77.311  1.00  0.00     0.009 C 
HETATM   13  C19 UNL     1      -3.500   7.943  78.980  1.00  0.00     0.009 C 
HETATM   14  C16 UNL     1      -3.554   5.749  77.037  1.00  0.00    -0.013 C 
HETATM   15  C17 UNL     1      -2.713   5.653  78.300  1.00  0.00     0.009 C 
HETATM   16  C21 UNL     1      -2.734   6.328  75.921  1.00  0.00     0.019 C 
HETATM   17  C18 UNL     1      -2.311   7.047  78.689  1.00  0.00    -0.013 C 
HETATM   18  C20 UNL     1      -1.523   7.641  77.563  1.00  0.00     0.019 C 
ENDBRANCH   4   9
BRANCH   1  19
HETATM   19  C7  UNL     1       0.076   9.617  71.708  1.00  0.00     0.137 C 
BRANCH  19  20
HETATM   20  C6  UNL     1       0.888  10.850  71.593  1.00  0.00     0.220 C 
HETATM   21  N2  UNL     1       0.287  12.102  71.770  1.00  0.00    -0.361 N 
ATOM     22  H2  UNL     1      -0.710  12.124  71.980  1.00  0.00     0.162 HD
HETATM   23  O1  UNL     1       2.100  10.745  71.339  1.00  0.00    -0.274 OA
BRANCH  21  24
HETATM   24  C5  UNL     1       0.983  13.370  71.675  1.00  0.00     0.127 C 
BRANCH  24  25
HETATM   25  C4  UNL     1       0.318  14.443  72.456  1.00  0.00     0.064 C 
BRANCH  25  26
HETATM   26  C3  UNL     1       0.219  14.276  73.921  1.00  0.00     0.058 C 
BRANCH  26  27
HETATM   27  N1  UNL     1       0.539  15.335  74.781  1.00  0.00    -0.402 N 
HETATM   28  C1  UNL     1       1.413  16.357  74.346  1.00  0.00     0.148 C 
HETATM   29  C2  UNL     1       0.734  14.966  76.166  1.00  0.00     0.148 C 
ENDBRANCH  26  27
ENDBRANCH  25  26
ENDBRANCH  24  25
ENDBRANCH  21  24
ENDBRANCH  19  20
ENDBRANCH   1  19
TORSDOF 8
ENDMDL
