MODEL 1
REMARK VINA RESULT: -5.740655316      0.000      0.000
REMARK  2 active torsions:
REMARK  status: ('A' for Active; 'I' for Inactive)
REMARK    1  A    between atoms: C2_2  and  C3_3 
REMARK    2  A    between atoms: N2_11  and  N3_12 
ROOT
HETATM    1  C3  UNL     1       0.460   9.892  33.429  1.00  0.00     0.058 A 
HETATM    2  C4  UNL     1       1.203  10.075  32.299  1.00  0.00    -0.034 A 
HETATM    3  C5  UNL     1       1.674   9.025  31.386  1.00  0.00     0.050 C 
HETATM    4  C6  UNL     1       1.537  11.399  31.987  1.00  0.00     0.035 A 
HETATM    5  C7  UNL     1       1.112  12.406  32.805  1.00  0.00     0.026 A 
HETATM    6  C8  UNL     1       1.460  13.836  32.499  1.00  0.00     0.070 C 
HETATM    7  N1  UNL     1       0.376  12.145  33.910  1.00  0.00    -0.281 N 
HETATM    8  C9  UNL     1      -0.093  13.223  34.792  1.00  0.00     0.179 C 
HETATM    9  N2  UNL     1       0.049  10.907  34.226  1.00  0.00    -0.205 N 
ENDROOT
BRANCH   9  10
HETATM   10  N3  UNL     1      -0.714  10.623  35.380  1.00  0.00    -0.324 N 
ATOM     11  H32 UNL     1      -1.620  11.065  35.538  1.00  0.00     0.178 HD
ATOM     12  H31 UNL     1      -0.355   9.966  36.072  1.00  0.00     0.178 HD
ENDBRANCH   9  10
BRANCH   1  13
HETATM   13  C2  UNL     1       0.070   8.509  33.821  1.00  0.00     0.057 C 
HETATM   14  C1  UNL     1       1.160   7.810  34.585  1.00  0.00     0.011 C 
ENDBRANCH   1  13
TORSDOF 2
ENDMDL
MODEL 2
REMARK VINA RESULT: -5.453629737      1.390      3.815
REMARK  2 active torsions:
REMARK  status: ('A' for Active; 'I' for Inactive)
REMARK    1  A    between atoms: C2_2  and  C3_3 
REMARK    2  A    between atoms: N2_11  and  N3_12 
ROOT
HETATM    1  C3  UNL     1       0.082  10.863  33.809  1.00  0.00     0.058 A 
HETATM    2  C4  UNL     1       0.942  10.691  32.763  1.00  0.00    -0.034 A 
HETATM    3  C5  UNL     1       1.594  11.755  31.987  1.00  0.00     0.050 C 
HETATM    4  C6  UNL     1       1.228   9.367  32.409  1.00  0.00     0.035 A 
HETATM    5  C7  UNL     1       0.648   8.348  33.110  1.00  0.00     0.026 A 
HETATM    6  C8  UNL     1       0.930   6.917  32.748  1.00  0.00     0.070 C 
HETATM    7  N1  UNL     1      -0.195   8.598  34.137  1.00  0.00    -0.281 N 
HETATM    8  C9  UNL     1      -0.817   7.509  34.903  1.00  0.00     0.179 C 
HETATM    9  N2  UNL     1      -0.481   9.836  34.490  1.00  0.00    -0.205 N 
ENDROOT
BRANCH   9  10
HETATM   10  N3  UNL     1      -1.365  10.109  35.558  1.00  0.00    -0.324 N 
ATOM     11  H32 UNL     1      -1.080  10.692  36.344  1.00  0.00     0.178 HD
ATOM     12  H31 UNL     1      -2.305   9.714  35.547  1.00  0.00     0.178 HD
ENDBRANCH   9  10
BRANCH   1  13
HETATM   13  C2  UNL     1      -0.266  12.246  34.238  1.00  0.00     0.057 C 
HETATM   14  C1  UNL     1      -1.421  12.806  33.455  1.00  0.00     0.011 C 
ENDBRANCH   1  13
TORSDOF 2
ENDMDL
MODEL 3
REMARK VINA RESULT: -5.437854056      0.794      3.581
REMARK  2 active torsions:
REMARK  status: ('A' for Active; 'I' for Inactive)
REMARK    1  A    between atoms: C2_2  and  C3_3 
REMARK    2  A    between atoms: N2_11  and  N3_12 
ROOT
HETATM    1  C3  UNL     1       0.150  11.939  33.737  1.00  0.00     0.058 A 
HETATM    2  C4  UNL     1       1.049  12.210  32.747  1.00  0.00    -0.034 A 
HETATM    3  C5  UNL     1       1.470  13.542  32.293  1.00  0.00     0.050 C 
HETATM    4  C6  UNL     1       1.624  11.101  32.114  1.00  0.00     0.035 A 
HETATM    5  C7  UNL     1       1.265   9.845  32.510  1.00  0.00     0.026 A 
HETATM    6  C8  UNL     1       1.861   8.636  31.845  1.00  0.00     0.070 C 
HETATM    7  N1  UNL     1       0.365   9.656  33.503  1.00  0.00    -0.281 N 
HETATM    8  C9  UNL     1      -0.020   8.308  33.942  1.00  0.00     0.179 C 
HETATM    9  N2  UNL     1      -0.191  10.683  34.114  1.00  0.00    -0.205 N 
ENDROOT
BRANCH   9  10
HETATM   10  N3  UNL     1      -1.136  10.497  35.147  1.00  0.00    -0.324 N 
ATOM     11  H32 UNL     1      -0.852  10.171  36.071  1.00  0.00     0.178 HD
ATOM     12  H31 UNL     1      -2.121  10.690  34.969  1.00  0.00     0.178 HD
ENDBRANCH   9  10
BRANCH   1  13
HETATM   13  C2  UNL     1      -0.501  13.072  34.452  1.00  0.00     0.057 C 
HETATM   14  C1  UNL     1       0.405  13.686  35.483  1.00  0.00     0.011 C 
ENDBRANCH   1  13
TORSDOF 2
ENDMDL
MODEL 4
REMARK VINA RESULT: -5.395542834      2.247      3.849
REMARK  2 active torsions:
REMARK  status: ('A' for Active; 'I' for Inactive)
REMARK    1  A    between atoms: C2_2  and  C3_3 
REMARK    2  A    between atoms: N2_11  and  N3_12 
ROOT
HETATM    1  C3  UNL     1      -0.256   9.399  34.226  1.00  0.00     0.058 A 
HETATM    2  C4  UNL     1       0.083  10.461  33.439  1.00  0.00    -0.034 A 
HETATM    3  C5  UNL     1      -0.065  11.881  33.782  1.00  0.00     0.050 C 
HETATM    4  C6  UNL     1       0.630  10.153  32.187  1.00  0.00     0.035 A 
HETATM    5  C7  UNL     1       0.791   8.844  31.832  1.00  0.00     0.026 A 
HETATM    6  C8  UNL     1       1.368   8.483  30.492  1.00  0.00     0.070 C 
HETATM    7  N1  UNL     1       0.431   7.844  32.669  1.00  0.00    -0.281 N 
HETATM    8  C9  UNL     1       0.609   6.433  32.299  1.00  0.00     0.179 C 
HETATM    9  N2  UNL     1      -0.086   8.107  33.853  1.00  0.00    -0.205 N 
ENDROOT
BRANCH   9  10
HETATM   10  N3  UNL     1      -0.470   7.071  34.732  1.00  0.00    -0.324 N 
ATOM     11  H32 UNL     1      -1.397   7.055  35.158  1.00  0.00     0.178 HD
ATOM     12  H31 UNL     1       0.190   6.325  34.950  1.00  0.00     0.178 HD
ENDBRANCH   9  10
BRANCH   1  13
HETATM   13  C2  UNL     1      -0.844   9.654  35.570  1.00  0.00     0.057 C 
HETATM   14  C1  UNL     1       0.205   9.702  36.646  1.00  0.00     0.011 C 
ENDBRANCH   1  13
TORSDOF 2
ENDMDL
MODEL 5
REMARK VINA RESULT: -5.373069904      1.696      2.899
REMARK  2 active torsions:
REMARK  status: ('A' for Active; 'I' for Inactive)
REMARK    1  A    between atoms: C2_2  and  C3_3 
REMARK    2  A    between atoms: N2_11  and  N3_12 
ROOT
HETATM    1  C3  UNL     1       0.641   9.090  33.889  1.00  0.00     0.058 A 
HETATM    2  C4  UNL     1      -0.496   9.221  34.631  1.00  0.00    -0.034 A 
HETATM    3  C5  UNL     1      -1.175   8.156  35.381  1.00  0.00     0.050 C 
HETATM    4  C6  UNL     1      -1.060  10.502  34.678  1.00  0.00     0.035 A 
HETATM    5  C7  UNL     1      -0.456  11.523  34.000  1.00  0.00     0.026 A 
HETATM    6  C8  UNL     1      -1.041  12.907  34.027  1.00  0.00     0.070 C 
HETATM    7  N1  UNL     1       0.674  11.314  33.286  1.00  0.00    -0.281 N 
HETATM    8  C9  UNL     1       1.335  12.408  32.560  1.00  0.00     0.179 C 
HETATM    9  N2  UNL     1       1.223  10.117  33.225  1.00  0.00    -0.205 N 
ENDROOT
BRANCH   9  10
HETATM   10  N3  UNL     1       2.399   9.888  32.477  1.00  0.00    -0.324 N 
ATOM     11  H32 UNL     1       2.686   8.944  32.218  1.00  0.00     0.178 HD
ATOM     12  H31 UNL     1       2.976  10.678  32.191  1.00  0.00     0.178 HD
ENDBRANCH   9  10
BRANCH   1  13
HETATM   13  C2  UNL     1       1.292   7.754  33.794  1.00  0.00     0.057 C 
HETATM   14  C1  UNL     1       0.707   6.917  32.692  1.00  0.00     0.011 C 
ENDBRANCH   1  13
TORSDOF 2
ENDMDL
