MODEL 1
REMARK VINA RESULT: -7.446541014      0.000      0.000
REMARK  3 active torsions:
REMARK  status: ('A' for Active; 'I' for Inactive)
REMARK    1  A    between atoms: C1_1  and  C5_15 
REMARK    2  A    between atoms: N1_2  and  N2_4 
REMARK    3  A    between atoms: N2_4  and  C2_6 
ROOT
HETATM    1  N2  UNL     1      -7.196  37.563  21.968  1.00  0.00    -0.131 N 
ATOM      2  H2  UNL     1      -7.064  38.436  21.457  1.00  0.00     0.205 HD
ENDROOT
BRANCH   1   3
HETATM    3  N1  UNL     1      -8.378  36.920  21.917  1.00  0.00    -0.297 N 
HETATM    4  C1  UNL     1      -9.452  37.135  22.508  1.00  0.00     0.119 C 
ATOM      5  H1  UNL     1      -8.396  36.119  21.284  1.00  0.00     0.186 HD
BRANCH   4   6
HETATM    6  C5  UNL     1      -9.796  38.152  23.453  1.00  0.00    -0.019 A 
HETATM    7  C6  UNL     1      -9.687  37.866  24.828  1.00  0.00     0.013 A 
HETATM    8  C7  UNL     1     -10.003  38.804  25.784  1.00  0.00     0.001 A 
HETATM    9  C8  UNL     1     -10.438  40.051  25.428  1.00  0.00     0.000 A 
HETATM   10  C9  UNL     1     -10.553  40.355  24.107  1.00  0.00     0.001 A 
HETATM   11  C10 UNL     1     -10.227  39.391  23.123  1.00  0.00     0.013 A 
ENDBRANCH   4   6
ENDBRANCH   1   3
BRANCH   1  12
HETATM   12  C2  UNL     1      -6.221  37.063  22.675  1.00  0.00     0.711 A 
HETATM   13  N3  UNL     1      -4.992  37.056  22.135  1.00  0.00    -0.131 N 
HETATM   14  N4  UNL     1      -4.005  36.555  22.838  1.00  0.00    -0.296 N 
ATOM     15  H3  UNL     1      -4.830  37.431  21.200  1.00  0.00     0.205 HD
HETATM   16  C3  UNL     1      -4.160  36.051  24.066  1.00  0.00     0.125 A 
ATOM     17  H4  UNL     1      -3.071  36.549  22.427  1.00  0.00     0.186 HD
HETATM   18  C4  UNL     1      -5.419  36.061  24.617  1.00  0.00     0.124 A 
HETATM   19  N5  UNL     1      -6.439  36.569  23.910  1.00  0.00    -0.198 N 
ATOM     20  H5  UNL     1      -7.378  36.582  24.307  1.00  0.00     0.183 HD
ENDBRANCH   1  12
TORSDOF 3
ENDMDL
MODEL 2
REMARK VINA RESULT: -7.415001337      0.166      1.223
REMARK  3 active torsions:
REMARK  status: ('A' for Active; 'I' for Inactive)
REMARK    1  A    between atoms: C1_1  and  C5_15 
REMARK    2  A    between atoms: N1_2  and  N2_4 
REMARK    3  A    between atoms: N2_4  and  C2_6 
ROOT
HETATM    1  N2  UNL     1      -7.231  37.718  21.956  1.00  0.00    -0.131 N 
ATOM      2  H2  UNL     1      -7.122  38.636  21.524  1.00  0.00     0.205 HD
ENDROOT
BRANCH   1   3
HETATM    3  N1  UNL     1      -8.410  37.071  21.884  1.00  0.00    -0.297 N 
HETATM    4  C1  UNL     1      -9.464  37.218  22.530  1.00  0.00     0.119 C 
ATOM      5  H1  UNL     1      -8.445  36.335  21.178  1.00  0.00     0.186 HD
BRANCH   4   6
HETATM    6  C5  UNL     1      -9.781  38.136  23.580  1.00  0.00    -0.019 A 
HETATM    7  C6  UNL     1     -10.316  39.394  23.243  1.00  0.00     0.013 A 
HETATM    8  C7  UNL     1     -10.641  40.319  24.209  1.00  0.00     0.001 A 
HETATM    9  C8  UNL     1     -10.453  40.045  25.536  1.00  0.00     0.000 A 
HETATM   10  C9  UNL     1      -9.938  38.837  25.890  1.00  0.00     0.001 A 
HETATM   11  C10 UNL     1      -9.603  37.885  24.898  1.00  0.00     0.013 A 
ENDBRANCH   4   6
ENDBRANCH   1   3
BRANCH   1  12
HETATM   12  C2  UNL     1      -6.230  37.165  22.582  1.00  0.00     0.711 A 
HETATM   13  N3  UNL     1      -5.027  37.190  21.988  1.00  0.00    -0.131 N 
HETATM   14  N4  UNL     1      -4.013  36.635  22.610  1.00  0.00    -0.296 N 
ATOM     15  H3  UNL     1      -4.903  37.628  21.076  1.00  0.00     0.205 HD
HETATM   16  C3  UNL     1      -4.118  36.048  23.805  1.00  0.00     0.125 A 
ATOM     17  H4  UNL     1      -3.098  36.654  22.158  1.00  0.00     0.186 HD
HETATM   18  C4  UNL     1      -5.351  36.025  24.412  1.00  0.00     0.124 A 
HETATM   19  N5  UNL     1      -6.397  36.587  23.788  1.00  0.00    -0.198 N 
ATOM     20  H5  UNL     1      -7.318  36.577  24.226  1.00  0.00     0.183 HD
ENDBRANCH   1  12
TORSDOF 3
ENDMDL
MODEL 3
REMARK VINA RESULT: -7.412336937      3.514      5.152
REMARK  3 active torsions:
REMARK  status: ('A' for Active; 'I' for Inactive)
REMARK    1  A    between atoms: C1_1  and  C5_15 
REMARK    2  A    between atoms: N1_2  and  N2_4 
REMARK    3  A    between atoms: N2_4  and  C2_6 
ROOT
HETATM    1  N2  UNL     1      -8.876  39.634  20.911  1.00  0.00    -0.131 N 
ATOM      2  H2  UNL     1      -8.506  40.029  21.776  1.00  0.00     0.205 HD
ENDROOT
BRANCH   1   3
HETATM    3  N1  UNL     1      -9.679  38.554  20.950  1.00  0.00    -0.297 N 
HETATM    4  C1  UNL     1      -9.751  37.618  21.768  1.00  0.00     0.119 C 
ATOM      5  H1  UNL     1     -10.342  38.492  20.177  1.00  0.00     0.186 HD
BRANCH   4   6
HETATM    6  C5  UNL     1      -8.996  37.372  22.957  1.00  0.00    -0.019 A 
HETATM    7  C6  UNL     1      -9.439  37.932  24.170  1.00  0.00     0.013 A 
HETATM    8  C7  UNL     1      -8.754  37.732  25.347  1.00  0.00     0.001 A 
HETATM    9  C8  UNL     1      -7.613  36.977  25.377  1.00  0.00     0.000 A 
HETATM   10  C9  UNL     1      -7.162  36.424  24.219  1.00  0.00     0.001 A 
HETATM   11  C10 UNL     1      -7.865  36.630  23.008  1.00  0.00     0.013 A 
ENDBRANCH   4   6
ENDBRANCH   1   3
BRANCH   1  12
HETATM   12  C2  UNL     1      -8.574  40.171  19.762  1.00  0.00     0.711 A 
HETATM   13  N3  UNL     1      -7.644  41.138  19.747  1.00  0.00    -0.131 N 
HETATM   14  N4  UNL     1      -7.334  41.686  18.595  1.00  0.00    -0.296 N 
ATOM     15  H3  UNL     1      -7.189  41.441  20.608  1.00  0.00     0.205 HD
HETATM   16  C3  UNL     1      -7.897  41.329  17.437  1.00  0.00     0.125 A 
ATOM     17  H4  UNL     1      -6.627  42.422  18.583  1.00  0.00     0.186 HD
HETATM   18  C4  UNL     1      -8.849  40.337  17.457  1.00  0.00     0.124 A 
HETATM   19  N5  UNL     1      -9.177  39.769  18.626  1.00  0.00    -0.198 N 
ATOM     20  H5  UNL     1      -9.882  39.033  18.655  1.00  0.00     0.183 HD
ENDBRANCH   1  12
TORSDOF 3
ENDMDL
MODEL 4
REMARK VINA RESULT: -7.275232120      1.198      2.019
REMARK  3 active torsions:
REMARK  status: ('A' for Active; 'I' for Inactive)
REMARK    1  A    between atoms: C1_1  and  C5_15 
REMARK    2  A    between atoms: N1_2  and  N2_4 
REMARK    3  A    between atoms: N2_4  and  C2_6 
ROOT
HETATM    1  N2  UNL     1      -8.333  37.226  22.220  1.00  0.00    -0.131 N 
ATOM      2  H2  UNL     1      -9.039  36.490  22.243  1.00  0.00     0.205 HD
ENDROOT
BRANCH   1   3
HETATM    3  N1  UNL     1      -8.646  38.450  21.755  1.00  0.00    -0.297 N 
HETATM    4  C1  UNL     1      -9.305  39.374  22.265  1.00  0.00     0.119 C 
ATOM      5  H1  UNL     1      -8.279  38.655  20.825  1.00  0.00     0.186 HD
BRANCH   4   6
HETATM    6  C5  UNL     1      -9.961  39.447  23.534  1.00  0.00    -0.019 A 
HETATM    7  C6  UNL     1     -11.105  40.258  23.661  1.00  0.00     0.013 A 
HETATM    8  C7  UNL     1     -11.778  40.368  24.857  1.00  0.00     0.001 A 
HETATM    9  C8  UNL     1     -11.354  39.690  25.967  1.00  0.00     0.000 A 
HETATM   10  C9  UNL     1     -10.251  38.900  25.873  1.00  0.00     0.001 A 
HETATM   11  C10 UNL     1      -9.558  38.786  24.644  1.00  0.00     0.013 A 
ENDBRANCH   4   6
ENDBRANCH   1   3
BRANCH   1  12
HETATM   12  C2  UNL     1      -7.122  36.986  22.641  1.00  0.00     0.711 A 
HETATM   13  N3  UNL     1      -6.979  36.320  23.797  1.00  0.00    -0.131 N 
HETATM   14  N4  UNL     1      -5.765  36.075  24.230  1.00  0.00    -0.296 N 
ATOM     15  H3  UNL     1      -7.794  36.011  24.327  1.00  0.00     0.205 HD
HETATM   16  C3  UNL     1      -4.663  36.455  23.577  1.00  0.00     0.125 A 
ATOM     17  H4  UNL     1      -5.657  35.568  25.109  1.00  0.00     0.186 HD
HETATM   18  C4  UNL     1      -4.813  37.137  22.393  1.00  0.00     0.124 A 
HETATM   19  N5  UNL     1      -6.047  37.395  21.938  1.00  0.00    -0.198 N 
ATOM     20  H5  UNL     1      -6.173  37.901  21.062  1.00  0.00     0.183 HD
ENDBRANCH   1  12
TORSDOF 3
ENDMDL
MODEL 5
REMARK VINA RESULT: -7.274949719      1.038      1.716
REMARK  3 active torsions:
REMARK  status: ('A' for Active; 'I' for Inactive)
REMARK    1  A    between atoms: C1_1  and  C5_15 
REMARK    2  A    between atoms: N1_2  and  N2_4 
REMARK    3  A    between atoms: N2_4  and  C2_6 
ROOT
HETATM    1  N2  UNL     1      -8.382  37.390  22.148  1.00  0.00    -0.131 N 
ATOM      2  H2  UNL     1      -9.105  36.673  22.087  1.00  0.00     0.205 HD
ENDROOT
BRANCH   1   3
HETATM    3  N1  UNL     1      -8.644  38.651  21.755  1.00  0.00    -0.297 N 
HETATM    4  C1  UNL     1      -9.293  39.560  22.305  1.00  0.00     0.119 C 
ATOM      5  H1  UNL     1      -8.243  38.905  20.852  1.00  0.00     0.186 HD
BRANCH   4   6
HETATM    6  C5  UNL     1      -9.985  39.571  23.557  1.00  0.00    -0.019 A 
HETATM    7  C6  UNL     1     -11.170  40.324  23.670  1.00  0.00     0.013 A 
HETATM    8  C7  UNL     1     -11.880  40.373  24.848  1.00  0.00     0.001 A 
HETATM    9  C8  UNL     1     -11.455  39.688  25.954  1.00  0.00     0.000 A 
HETATM   10  C9  UNL     1     -10.313  38.953  25.873  1.00  0.00     0.001 A 
HETATM   11  C10 UNL     1      -9.582  38.902  24.662  1.00  0.00     0.013 A 
ENDBRANCH   4   6
ENDBRANCH   1   3
BRANCH   1  12
HETATM   12  C2  UNL     1      -7.198  37.091  22.606  1.00  0.00     0.711 A 
HETATM   13  N3  UNL     1      -6.133  37.427  21.863  1.00  0.00    -0.131 N 
HETATM   14  N4  UNL     1      -4.938  37.130  22.315  1.00  0.00    -0.296 N 
ATOM     15  H3  UNL     1      -6.249  37.902  20.968  1.00  0.00     0.205 HD
HETATM   16  C3  UNL     1      -4.728  36.509  23.481  1.00  0.00     0.125 A 
ATOM     17  H4  UNL     1      -4.128  37.385  21.750  1.00  0.00     0.186 HD
HETATM   18  C4  UNL     1      -5.821  36.168  24.240  1.00  0.00     0.124 A 
HETATM   19  N5  UNL     1      -7.049  36.464  23.790  1.00  0.00    -0.198 N 
ATOM     20  H5  UNL     1      -7.869  36.215  24.343  1.00  0.00     0.183 HD
ENDBRANCH   1  12
TORSDOF 3
ENDMDL
