MODEL 1
REMARK VINA RESULT: -6.161707073      0.000      0.000
REMARK  4 active torsions:
REMARK  status: ('A' for Active; 'I' for Inactive)
REMARK    1  A    between atoms: C1_2  and  C2_3 
REMARK       I    between atoms: C1_2  and  N1_10 
REMARK    2  A    between atoms: C2_3  and  C3_4 
REMARK    3  A    between atoms: C3_4  and  C4_5 
REMARK    4  A    between atoms: N1_10  and  C9_12 
ROOT
HETATM    1  O1  UNL     1       2.364  29.523   8.948  1.00  0.00    -0.273 OA
HETATM    2  C1  UNL     1       1.579  28.551   8.866  1.00  0.00     0.222 C 
HETATM    3  N1  UNL     1       0.625  28.269   9.878  1.00  0.00    -0.321 N 
ATOM      4  H1  UNL     1       0.021  27.459   9.740  1.00  0.00     0.169 HD
ENDROOT
BRANCH   2   5
HETATM    5  C2  UNL     1       1.637  27.676   7.705  1.00  0.00     0.103 C 
BRANCH   5   6
HETATM    6  C3  UNL     1       1.881  26.254   7.960  1.00  0.00     0.014 C 
BRANCH   6   7
HETATM    7  C4  UNL     1       2.998  25.630   7.270  1.00  0.00    -0.014 C 
HETATM    8  C5  UNL     1       2.823  24.718   6.125  1.00  0.00     0.004 C 
HETATM    9  C6  UNL     1       4.253  24.535   5.573  1.00  0.00     0.000 C 
HETATM   10  C7  UNL     1       5.005  25.722   6.052  1.00  0.00     0.000 C 
HETATM   11  C8  UNL     1       4.014  26.629   6.698  1.00  0.00     0.004 C 
ENDBRANCH   6   7
ENDBRANCH   5   6
ENDBRANCH   2   5
BRANCH   3  12
HETATM   12  C9  UNL     1       0.444  29.021  11.063  1.00  0.00     0.077 A 
HETATM   13  C10 UNL     1       0.880  28.843  12.334  1.00  0.00     0.039 A 
HETATM   14  C11 UNL     1       0.535  29.749  13.261  1.00  0.00     0.029 A 
HETATM   15  C12 UNL     1      -0.240  30.800  12.860  1.00  0.00     0.053 A 
HETATM   16 BR1  UNL     1      -0.899  32.256  13.938  1.00  0.00    -0.043 Br
HETATM   17  S1  UNL     1      -0.464  30.493  11.199  1.00  0.00    -0.065 SA
ENDBRANCH   3  12
TORSDOF 4
ENDMDL
MODEL 2
REMARK VINA RESULT: -6.121061441      2.957      3.269
REMARK  4 active torsions:
REMARK  status: ('A' for Active; 'I' for Inactive)
REMARK    1  A    between atoms: C1_2  and  C2_3 
REMARK       I    between atoms: C1_2  and  N1_10 
REMARK    2  A    between atoms: C2_3  and  C3_4 
REMARK    3  A    between atoms: C3_4  and  C4_5 
REMARK    4  A    between atoms: N1_10  and  C9_12 
ROOT
HETATM    1  O1  UNL     1       1.987  29.215   9.762  1.00  0.00    -0.273 OA
HETATM    2  C1  UNL     1       1.921  28.824   8.573  1.00  0.00     0.222 C 
HETATM    3  N1  UNL     1       0.696  28.414   7.986  1.00  0.00    -0.321 N 
ATOM      4  H1  UNL     1       0.722  28.109   7.013  1.00  0.00     0.169 HD
ENDROOT
BRANCH   2   5
HETATM    5  C2  UNL     1       3.127  28.784   7.762  1.00  0.00     0.103 C 
BRANCH   5   6
HETATM    6  C3  UNL     1       3.921  27.554   7.817  1.00  0.00     0.014 C 
BRANCH   6   7
HETATM    7  C4  UNL     1       3.637  26.525   6.831  1.00  0.00    -0.014 C 
HETATM    8  C5  UNL     1       4.688  25.695   6.215  1.00  0.00     0.004 C 
HETATM    9  C6  UNL     1       3.902  24.597   5.466  1.00  0.00     0.000 C 
HETATM   10  C7  UNL     1       2.577  24.549   6.132  1.00  0.00     0.000 C 
HETATM   11  C8  UNL     1       2.657  25.448   7.317  1.00  0.00     0.004 C 
ENDBRANCH   6   7
ENDBRANCH   5   6
ENDBRANCH   2   5
BRANCH   3  12
HETATM   12  C9  UNL     1      -0.558  28.395   8.639  1.00  0.00     0.077 A 
HETATM   13  C10 UNL     1      -1.420  29.381   8.992  1.00  0.00     0.039 A 
HETATM   14  C11 UNL     1      -2.558  29.042   9.617  1.00  0.00     0.029 A 
HETATM   15  C12 UNL     1      -2.776  27.715   9.857  1.00  0.00     0.053 A 
HETATM   16 BR1  UNL     1      -4.297  26.910  10.726  1.00  0.00    -0.043 Br
HETATM   17  S1  UNL     1      -1.385  26.979   9.204  1.00  0.00    -0.065 SA
ENDBRANCH   3  12
TORSDOF 4
ENDMDL
MODEL 3
REMARK VINA RESULT: -6.040149827      2.780      3.091
REMARK  4 active torsions:
REMARK  status: ('A' for Active; 'I' for Inactive)
REMARK    1  A    between atoms: C1_2  and  C2_3 
REMARK       I    between atoms: C1_2  and  N1_10 
REMARK    2  A    between atoms: C2_3  and  C3_4 
REMARK    3  A    between atoms: C3_4  and  C4_5 
REMARK    4  A    between atoms: N1_10  and  C9_12 
ROOT
HETATM    1  O1  UNL     1       2.005  29.218   9.747  1.00  0.00    -0.273 OA
HETATM    2  C1  UNL     1       2.041  28.752   8.585  1.00  0.00     0.222 C 
HETATM    3  N1  UNL     1       0.915  28.125   7.993  1.00  0.00    -0.321 N 
ATOM      4  H1  UNL     1       1.022  27.770   7.043  1.00  0.00     0.169 HD
ENDROOT
BRANCH   2   5
HETATM    5  C2  UNL     1       3.268  28.849   7.810  1.00  0.00     0.103 C 
BRANCH   5   6
HETATM    6  C3  UNL     1       4.161  27.687   7.836  1.00  0.00     0.014 C 
BRANCH   6   7
HETATM    7  C4  UNL     1       3.906  26.623   6.879  1.00  0.00    -0.014 C 
HETATM    8  C5  UNL     1       4.985  25.885   6.196  1.00  0.00     0.004 C 
HETATM    9  C6  UNL     1       4.255  24.709   5.512  1.00  0.00     0.000 C 
HETATM   10  C7  UNL     1       2.989  24.547   6.271  1.00  0.00     0.000 C 
HETATM   11  C8  UNL     1       3.068  25.466   7.441  1.00  0.00     0.004 C 
ENDBRANCH   6   7
ENDBRANCH   5   6
ENDBRANCH   2   5
BRANCH   3  12
HETATM   12  C9  UNL     1      -0.345  27.953   8.612  1.00  0.00     0.077 A 
HETATM   13  C10 UNL     1      -1.006  26.853   9.050  1.00  0.00     0.039 A 
HETATM   14  C11 UNL     1      -2.215  27.014   9.608  1.00  0.00     0.029 A 
HETATM   15  C12 UNL     1      -2.705  28.286   9.700  1.00  0.00     0.053 A 
HETATM   16 BR1  UNL     1      -4.394  28.847  10.442  1.00  0.00    -0.043 Br
HETATM   17  S1  UNL     1      -1.463  29.221   9.004  1.00  0.00    -0.065 SA
ENDBRANCH   3  12
TORSDOF 4
ENDMDL
MODEL 4
REMARK VINA RESULT: -5.987600984      1.370      1.758
REMARK  4 active torsions:
REMARK  status: ('A' for Active; 'I' for Inactive)
REMARK    1  A    between atoms: C1_2  and  C2_3 
REMARK       I    between atoms: C1_2  and  N1_10 
REMARK    2  A    between atoms: C2_3  and  C3_4 
REMARK    3  A    between atoms: C3_4  and  C4_5 
REMARK    4  A    between atoms: N1_10  and  C9_12 
ROOT
HETATM    1  O1  UNL     1       0.322  27.587   9.136  1.00  0.00    -0.273 OA
HETATM    2  C1  UNL     1       1.162  28.517   9.138  1.00  0.00     0.222 C 
HETATM    3  N1  UNL     1       1.359  29.346  10.272  1.00  0.00    -0.321 N 
ATOM      4  H1  UNL     1       2.061  30.083  10.197  1.00  0.00     0.169 HD
ENDROOT
BRANCH   2   5
HETATM    5  C2  UNL     1       1.964  28.763   7.950  1.00  0.00     0.103 C 
BRANCH   5   6
HETATM    6  C3  UNL     1       3.325  28.220   7.947  1.00  0.00     0.014 C 
BRANCH   6   7
HETATM    7  C4  UNL     1       3.613  27.134   7.023  1.00  0.00    -0.014 C 
HETATM    8  C5  UNL     1       4.980  26.649   6.760  1.00  0.00     0.004 C 
HETATM    9  C6  UNL     1       4.764  25.351   5.952  1.00  0.00     0.000 C 
HETATM   10  C7  UNL     1       3.383  24.917   6.283  1.00  0.00     0.000 C 
HETATM   11  C8  UNL     1       2.893  25.821   7.361  1.00  0.00     0.004 C 
ENDBRANCH   6   7
ENDBRANCH   5   6
ENDBRANCH   2   5
BRANCH   3  12
HETATM   12  C9  UNL     1       0.662  29.235  11.498  1.00  0.00     0.077 A 
HETATM   13  C10 UNL     1       0.821  28.419  12.569  1.00  0.00     0.039 A 
HETATM   14  C11 UNL     1      -0.018  28.556  13.607  1.00  0.00     0.029 A 
HETATM   15  C12 UNL     1      -0.984  29.518  13.517  1.00  0.00     0.053 A 
HETATM   16 BR1  UNL     1      -2.329  29.962  14.824  1.00  0.00    -0.043 Br
HETATM   17  S1  UNL     1      -0.694  30.203  11.983  1.00  0.00    -0.065 SA
ENDBRANCH   3  12
TORSDOF 4
ENDMDL
MODEL 5
REMARK VINA RESULT: -5.984448892      2.277      2.504
REMARK  4 active torsions:
REMARK  status: ('A' for Active; 'I' for Inactive)
REMARK    1  A    between atoms: C1_2  and  C2_3 
REMARK       I    between atoms: C1_2  and  N1_10 
REMARK    2  A    between atoms: C2_3  and  C3_4 
REMARK    3  A    between atoms: C3_4  and  C4_5 
REMARK    4  A    between atoms: N1_10  and  C9_12 
ROOT
HETATM    1  O1  UNL     1       0.369  27.334  10.774  1.00  0.00    -0.273 OA
HETATM    2  C1  UNL     1       0.308  27.183   9.531  1.00  0.00     0.222 C 
HETATM    3  N1  UNL     1      -0.375  28.105   8.696  1.00  0.00    -0.321 N 
ATOM      4  H1  UNL     1      -0.381  27.914   7.695  1.00  0.00     0.169 HD
ENDROOT
BRANCH   2   5
HETATM    5  C2  UNL     1       0.951  26.034   8.915  1.00  0.00     0.103 C 
BRANCH   5   6
HETATM    6  C3  UNL     1       1.299  26.152   7.496  1.00  0.00     0.014 C 
BRANCH   6   7
HETATM    7  C4  UNL     1       2.556  25.567   7.061  1.00  0.00    -0.014 C 
HETATM    8  C5  UNL     1       2.658  24.662   5.901  1.00  0.00     0.004 C 
HETATM    9  C6  UNL     1       4.178  24.525   5.670  1.00  0.00     0.000 C 
HETATM   10  C7  UNL     1       4.774  25.727   6.305  1.00  0.00     0.000 C 
HETATM   11  C8  UNL     1       3.642  26.599   6.726  1.00  0.00     0.004 C 
ENDBRANCH   6   7
ENDBRANCH   5   6
ENDBRANCH   2   5
BRANCH   3  12
HETATM   12  C9  UNL     1      -1.048  29.267   9.140  1.00  0.00     0.077 A 
HETATM   13  C10 UNL     1      -2.363  29.577   9.247  1.00  0.00     0.039 A 
HETATM   14  C11 UNL     1      -2.698  30.790   9.713  1.00  0.00     0.029 A 
HETATM   15  C12 UNL     1      -1.684  31.639  10.053  1.00  0.00     0.053 A 
HETATM   16 BR1  UNL     1      -1.831  33.432  10.746  1.00  0.00    -0.043 Br
HETATM   17  S1  UNL     1      -0.290  30.720   9.711  1.00  0.00    -0.065 SA
ENDBRANCH   3  12
TORSDOF 4
ENDMDL
