MODEL 1
REMARK VINA RESULT: -4.982281757      0.000      0.000
REMARK  9 active torsions:
REMARK  status: ('A' for Active; 'I' for Inactive)
REMARK    1  A    between atoms: S1_2  and  C2_3 
REMARK    2  A    between atoms: C4_5  and  N1_6 
REMARK    3  A    between atoms: N1_6  and  S2_8 
REMARK    4  A    between atoms: S2_8  and  C6_10 
REMARK    5  A    between atoms: C6_10  and  O2_11 
REMARK    6  A    between atoms: O2_11  and  C7_12 
REMARK    7  A    between atoms: C11_16  and  O3_17 
REMARK    8  A    between atoms: C12_19  and  O4_20 
REMARK    9  A    between atoms: C13_22  and  O5_23 
ROOT
HETATM    1  C2  UNL     1     -20.167  -6.221  10.290  1.00  0.00     0.080 C 
HETATM    2  C3  UNL     1     -19.810  -7.644   9.919  1.00  0.00     0.046 C 
HETATM    3  C4  UNL     1     -18.375  -7.876  10.405  1.00  0.00     0.125 C 
HETATM    4  C11 UNL     1     -17.513  -6.682  10.299  1.00  0.00     0.172 C 
HETATM    5  C12 UNL     1     -17.988  -5.505   9.545  1.00  0.00     0.178 C 
HETATM    6  C13 UNL     1     -19.441  -5.384   9.258  1.00  0.00     0.163 C 
ENDROOT
BRANCH   3   7
HETATM    7  N1  UNL     1     -17.917  -9.070   9.833  1.00  0.00    -0.327 N 
HETATM    8  C5  UNL     1     -17.674  -9.200   8.471  1.00  0.00     0.161 C 
BRANCH   7   9
HETATM    9  S2  UNL     1     -17.453 -10.318  10.873  1.00  0.00     0.136 S 
HETATM   10  O1  UNL     1     -18.738 -11.341  11.214  1.00  0.00    -0.234 OA
BRANCH   9  11
HETATM   11  C6  UNL     1     -16.098 -11.234  10.180  1.00  0.00     0.300 C 
BRANCH  11  12
HETATM   12  O2  UNL     1     -16.604 -12.036   9.185  1.00  0.00    -0.367 OA
BRANCH  12  13
HETATM   13  C7  UNL     1     -15.686 -12.423   8.226  1.00  0.00     0.051 C 
HETATM   14  C8  UNL     1     -14.359 -11.781   8.563  1.00  0.00     0.045 C 
HETATM   15  C9  UNL     1     -15.569 -13.947   8.321  1.00  0.00     0.045 C 
HETATM   16  C10 UNL     1     -16.122 -12.024   6.829  1.00  0.00     0.045 C 
ENDBRANCH  12  13
ENDBRANCH  11  12
ENDBRANCH   9  11
ENDBRANCH   7   9
ENDBRANCH   3   7
BRANCH   4  17
HETATM   17  O3  UNL     1     -17.095  -6.241  11.572  1.00  0.00    -0.391 OA
ATOM     18  H3  UNL     1     -16.148  -6.179  11.620  1.00  0.00     0.210 HD
ENDBRANCH   4  17
BRANCH   1  19
HETATM   19  S1  UNL     1     -21.939  -5.920  10.298  1.00  0.00    -0.166 SA
HETATM   20  C1  UNL     1     -22.338  -4.860  11.715  1.00  0.00     0.090 C 
ENDBRANCH   1  19
BRANCH   5  21
HETATM   21  O4  UNL     1     -17.613  -4.296  10.193  1.00  0.00    -0.390 OA
ATOM     22  H4  UNL     1     -17.305  -3.653   9.565  1.00  0.00     0.210 HD
ENDBRANCH   5  21
BRANCH   6  23
HETATM   23  O5  UNL     1     -19.675  -5.911   7.971  1.00  0.00    -0.392 OA
ATOM     24  H5  UNL     1     -19.857  -6.841   8.035  1.00  0.00     0.210 HD
ENDBRANCH   6  23
TORSDOF 9
ENDMDL
MODEL 2
REMARK VINA RESULT: -4.778562843      2.122      7.058
REMARK  9 active torsions:
REMARK  status: ('A' for Active; 'I' for Inactive)
REMARK    1  A    between atoms: S1_2  and  C2_3 
REMARK    2  A    between atoms: C4_5  and  N1_6 
REMARK    3  A    between atoms: N1_6  and  S2_8 
REMARK    4  A    between atoms: S2_8  and  C6_10 
REMARK    5  A    between atoms: C6_10  and  O2_11 
REMARK    6  A    between atoms: O2_11  and  C7_12 
REMARK    7  A    between atoms: C11_16  and  O3_17 
REMARK    8  A    between atoms: C12_19  and  O4_20 
REMARK    9  A    between atoms: C13_22  and  O5_23 
ROOT
HETATM    1  C2  UNL     1     -17.023 -12.047   9.565  1.00  0.00     0.080 C 
HETATM    2  C3  UNL     1     -17.408 -10.600   9.778  1.00  0.00     0.046 C 
HETATM    3  C4  UNL     1     -17.114  -9.870   8.464  1.00  0.00     0.125 C 
HETATM    4  C11 UNL     1     -15.924 -10.382   7.755  1.00  0.00     0.172 C 
HETATM    5  C12 UNL     1     -15.016 -11.323   8.440  1.00  0.00     0.178 C 
HETATM    6  C13 UNL     1     -15.510 -12.036   9.646  1.00  0.00     0.163 C 
ENDROOT
BRANCH   3   7
HETATM    7  N1  UNL     1     -17.189  -8.493   8.712  1.00  0.00    -0.327 N 
HETATM    8  C5  UNL     1     -16.807  -7.543   7.772  1.00  0.00     0.161 C 
BRANCH   7   9
HETATM    9  S2  UNL     1     -17.964  -7.985  10.124  1.00  0.00     0.136 S 
HETATM   10  O1  UNL     1     -17.113  -6.754  10.882  1.00  0.00    -0.234 OA
BRANCH   9  11
HETATM   11  C6  UNL     1     -19.625  -7.464   9.770  1.00  0.00     0.300 C 
BRANCH  11  12
HETATM   12  O2  UNL     1     -19.957  -6.488  10.680  1.00  0.00    -0.367 OA
BRANCH  12  13
HETATM   13  C7  UNL     1     -20.727  -5.458  10.172  1.00  0.00     0.051 C 
HETATM   14  C8  UNL     1     -20.388  -4.199  10.940  1.00  0.00     0.045 C 
HETATM   15  C9  UNL     1     -20.331  -5.296   8.702  1.00  0.00     0.045 C 
HETATM   16  C10 UNL     1     -22.212  -5.753  10.279  1.00  0.00     0.045 C 
ENDBRANCH  12  13
ENDBRANCH  11  12
ENDBRANCH   9  11
ENDBRANCH   7   9
ENDBRANCH   3   7
BRANCH   4  17
HETATM   17  O3  UNL     1     -16.277 -10.949   6.512  1.00  0.00    -0.391 OA
ATOM     18  H3  UNL     1     -16.536 -10.279   5.891  1.00  0.00     0.210 HD
ENDBRANCH   4  17
BRANCH   1  19
HETATM   19  S1  UNL     1     -17.768 -13.158  10.765  1.00  0.00    -0.166 SA
HETATM   20  C1  UNL     1     -16.499 -14.318  11.344  1.00  0.00     0.090 C 
ENDBRANCH   1  19
BRANCH   5  21
HETATM   21  O4  UNL     1     -14.554 -12.329   7.549  1.00  0.00    -0.390 OA
ATOM     22  H4  UNL     1     -14.940 -13.173   7.756  1.00  0.00     0.210 HD
ENDBRANCH   5  21
BRANCH   6  23
HETATM   23  O5  UNL     1     -15.103 -11.305  10.781  1.00  0.00    -0.392 OA
ATOM     24  H5  UNL     1     -14.867 -10.421  10.524  1.00  0.00     0.210 HD
ENDBRANCH   6  23
TORSDOF 9
ENDMDL
MODEL 3
REMARK VINA RESULT: -4.593168550      2.044      6.933
REMARK  9 active torsions:
REMARK  status: ('A' for Active; 'I' for Inactive)
REMARK    1  A    between atoms: S1_2  and  C2_3 
REMARK    2  A    between atoms: C4_5  and  N1_6 
REMARK    3  A    between atoms: N1_6  and  S2_8 
REMARK    4  A    between atoms: S2_8  and  C6_10 
REMARK    5  A    between atoms: C6_10  and  O2_11 
REMARK    6  A    between atoms: O2_11  and  C7_12 
REMARK    7  A    between atoms: C11_16  and  O3_17 
REMARK    8  A    between atoms: C12_19  and  O4_20 
REMARK    9  A    between atoms: C13_22  and  O5_23 
ROOT
HETATM    1  C2  UNL     1     -15.663 -10.326   8.015  1.00  0.00     0.080 C 
HETATM    2  C3  UNL     1     -16.774  -9.650   8.788  1.00  0.00     0.046 C 
HETATM    3  C4  UNL     1     -16.705 -10.192  10.219  1.00  0.00     0.125 C 
HETATM    4  C11 UNL     1     -16.295 -11.609  10.297  1.00  0.00     0.172 C 
HETATM    5  C12 UNL     1     -16.238 -12.420   9.065  1.00  0.00     0.178 C 
HETATM    6  C13 UNL     1     -16.197 -11.720   7.755  1.00  0.00     0.163 C 
ENDROOT
BRANCH   3   7
HETATM    7  N1  UNL     1     -17.879  -9.810  10.879  1.00  0.00    -0.327 N 
HETATM    8  C5  UNL     1     -18.681 -10.717  11.563  1.00  0.00     0.161 C 
BRANCH   7   9
HETATM    9  S2  UNL     1     -18.208  -8.158  11.016  1.00  0.00     0.136 S 
HETATM   10  O1  UNL     1     -16.796  -7.259  11.127  1.00  0.00    -0.234 OA
BRANCH   9  11
HETATM   11  C6  UNL     1     -19.192  -7.603   9.645  1.00  0.00     0.300 C 
BRANCH  11  12
HETATM   12  O2  UNL     1     -20.358  -7.085  10.154  1.00  0.00    -0.367 OA
BRANCH  12  13
HETATM   13  C7  UNL     1     -20.538  -5.731   9.936  1.00  0.00     0.051 C 
HETATM   14  C8  UNL     1     -20.240  -5.449   8.480  1.00  0.00     0.045 C 
HETATM   15  C9  UNL     1     -22.009  -5.429  10.237  1.00  0.00     0.045 C 
HETATM   16  C10 UNL     1     -19.643  -4.888  10.826  1.00  0.00     0.045 C 
ENDBRANCH  12  13
ENDBRANCH  11  12
ENDBRANCH   9  11
ENDBRANCH   7   9
ENDBRANCH   3   7
BRANCH   4  17
HETATM   17  O3  UNL     1     -15.060 -11.746  10.964  1.00  0.00    -0.391 OA
ATOM     18  H3  UNL     1     -15.188 -11.928  11.889  1.00  0.00     0.210 HD
ENDBRANCH   4  17
BRANCH   1  19
HETATM   19  S1  UNL     1     -15.232  -9.461   6.499  1.00  0.00    -0.166 SA
HETATM   20  C1  UNL     1     -14.483 -10.648   5.350  1.00  0.00     0.090 C 
ENDBRANCH   1  19
BRANCH   5  21
HETATM   21  O4  UNL     1     -15.116 -13.294   9.080  1.00  0.00    -0.390 OA
ATOM     22  H4  UNL     1     -14.302 -12.804   9.084  1.00  0.00     0.210 HD
ENDBRANCH   5  21
BRANCH   6  23
HETATM   23  O5  UNL     1     -17.516 -11.638   7.265  1.00  0.00    -0.392 OA
ATOM     24  H5  UNL     1     -18.111 -12.052   7.878  1.00  0.00     0.210 HD
ENDBRANCH   6  23
TORSDOF 9
ENDMDL
MODEL 4
REMARK VINA RESULT: -4.039658922      1.289      1.898
REMARK  9 active torsions:
REMARK  status: ('A' for Active; 'I' for Inactive)
REMARK    1  A    between atoms: S1_2  and  C2_3 
REMARK    2  A    between atoms: C4_5  and  N1_6 
REMARK    3  A    between atoms: N1_6  and  S2_8 
REMARK    4  A    between atoms: S2_8  and  C6_10 
REMARK    5  A    between atoms: C6_10  and  O2_11 
REMARK    6  A    between atoms: O2_11  and  C7_12 
REMARK    7  A    between atoms: C11_16  and  O3_17 
REMARK    8  A    between atoms: C12_19  and  O4_20 
REMARK    9  A    between atoms: C13_22  and  O5_23 
ROOT
HETATM    1  C2  UNL     1     -20.244  -6.031  10.301  1.00  0.00     0.080 C 
HETATM    2  C3  UNL     1     -19.954  -7.510  10.165  1.00  0.00     0.046 C 
HETATM    3  C4  UNL     1     -18.530  -7.726  10.690  1.00  0.00     0.125 C 
HETATM    4  C11 UNL     1     -17.614  -6.605  10.398  1.00  0.00     0.172 C 
HETATM    5  C12 UNL     1     -18.036  -5.544   9.462  1.00  0.00     0.178 C 
HETATM    6  C13 UNL     1     -19.483  -5.405   9.151  1.00  0.00     0.163 C 
ENDROOT
BRANCH   3   7
HETATM    7  N1  UNL     1     -18.129  -9.016  10.320  1.00  0.00    -0.327 N 
HETATM    8  C5  UNL     1     -18.208 -10.100  11.186  1.00  0.00     0.161 C 
BRANCH   7   9
HETATM    9  S2  UNL     1     -17.734  -9.288   8.700  1.00  0.00     0.136 S 
HETATM   10  O1  UNL     1     -17.253  -7.872   7.940  1.00  0.00    -0.234 OA
BRANCH   9  11
HETATM   11  C6  UNL     1     -16.466 -10.525   8.567  1.00  0.00     0.300 C 
BRANCH  11  12
HETATM   12  O2  UNL     1     -17.036 -11.738   8.873  1.00  0.00    -0.367 OA
BRANCH  12  13
HETATM   13  C7  UNL     1     -16.204 -12.622   9.535  1.00  0.00     0.051 C 
HETATM   14  C8  UNL     1     -15.582 -13.539   8.505  1.00  0.00     0.045 C 
HETATM   15  C9  UNL     1     -15.117 -11.780  10.209  1.00  0.00     0.045 C 
HETATM   16  C10 UNL     1     -16.950 -13.434  10.577  1.00  0.00     0.045 C 
ENDBRANCH  12  13
ENDBRANCH  11  12
ENDBRANCH   9  11
ENDBRANCH   7   9
ENDBRANCH   3   7
BRANCH   4  17
HETATM   17  O3  UNL     1     -17.174  -5.985  11.586  1.00  0.00    -0.391 OA
ATOM     18  H3  UNL     1     -17.878  -5.922  12.221  1.00  0.00     0.210 HD
ENDBRANCH   4  17
BRANCH   1  19
HETATM   19  S1  UNL     1     -22.001  -5.652  10.250  1.00  0.00    -0.166 SA
HETATM   20  C1  UNL     1     -22.467  -4.867  11.817  1.00  0.00     0.090 C 
ENDBRANCH   1  19
BRANCH   5  21
HETATM   21  O4  UNL     1     -17.605  -4.265   9.910  1.00  0.00    -0.390 OA
ATOM     22  H4  UNL     1     -17.336  -3.720   9.180  1.00  0.00     0.210 HD
ENDBRANCH   5  21
BRANCH   6  23
HETATM   23  O5  UNL     1     -19.743  -6.121   7.965  1.00  0.00    -0.392 OA
ATOM     24  H5  UNL     1     -18.968  -6.122   7.416  1.00  0.00     0.210 HD
ENDBRANCH   6  23
TORSDOF 9
ENDMDL
MODEL 5
REMARK VINA RESULT: -3.977428089      2.163      6.715
REMARK  9 active torsions:
REMARK  status: ('A' for Active; 'I' for Inactive)
REMARK    1  A    between atoms: S1_2  and  C2_3 
REMARK    2  A    between atoms: C4_5  and  N1_6 
REMARK    3  A    between atoms: N1_6  and  S2_8 
REMARK    4  A    between atoms: S2_8  and  C6_10 
REMARK    5  A    between atoms: C6_10  and  O2_11 
REMARK    6  A    between atoms: O2_11  and  C7_12 
REMARK    7  A    between atoms: C11_16  and  O3_17 
REMARK    8  A    between atoms: C12_19  and  O4_20 
REMARK    9  A    between atoms: C13_22  and  O5_23 
ROOT
HETATM    1  C2  UNL     1     -15.447 -10.264   7.609  1.00  0.00     0.080 C 
HETATM    2  C3  UNL     1     -16.679  -9.942   8.426  1.00  0.00     0.046 C 
HETATM    3  C4  UNL     1     -16.498 -10.634   9.781  1.00  0.00     0.125 C 
HETATM    4  C11 UNL     1     -15.795 -11.930   9.696  1.00  0.00     0.172 C 
HETATM    5  C12 UNL     1     -15.563 -12.548   8.375  1.00  0.00     0.178 C 
HETATM    6  C13 UNL     1     -15.670 -11.694   7.164  1.00  0.00     0.163 C 
ENDROOT
BRANCH   3   7
HETATM    7  N1  UNL     1     -17.729 -10.596  10.449  1.00  0.00    -0.327 N 
HETATM    8  C5  UNL     1     -18.431 -11.747  10.787  1.00  0.00     0.161 C 
BRANCH   7   9
HETATM    9  S2  UNL     1     -18.263  -9.107  11.040  1.00  0.00     0.136 S 
HETATM   10  O1  UNL     1     -16.983  -8.168  11.583  1.00  0.00    -0.234 OA
BRANCH   9  11
HETATM   11  C6  UNL     1     -19.187  -8.238   9.797  1.00  0.00     0.300 C 
BRANCH  11  12
HETATM   12  O2  UNL     1     -19.555  -7.024  10.327  1.00  0.00    -0.367 OA
BRANCH  12  13
HETATM   13  C7  UNL     1     -19.159  -5.923   9.590  1.00  0.00     0.051 C 
HETATM   14  C8  UNL     1     -18.653  -4.872  10.554  1.00  0.00     0.045 C 
HETATM   15  C9  UNL     1     -18.019  -6.391   8.680  1.00  0.00     0.045 C 
HETATM   16  C10 UNL     1     -20.293  -5.361   8.752  1.00  0.00     0.045 C 
ENDBRANCH  12  13
ENDBRANCH  11  12
ENDBRANCH   9  11
ENDBRANCH   7   9
ENDBRANCH   3   7
BRANCH   4  17
HETATM   17  O3  UNL     1     -14.561 -11.886  10.377  1.00  0.00    -0.391 OA
ATOM     18  H3  UNL     1     -14.497 -12.585  11.017  1.00  0.00     0.210 HD
ENDBRANCH   4  17
BRANCH   1  19
HETATM   19  S1  UNL     1     -15.209  -9.142   6.225  1.00  0.00    -0.166 SA
HETATM   20  C1  UNL     1     -14.279 -10.010   4.931  1.00  0.00     0.090 C 
ENDBRANCH   1  19
BRANCH   5  21
HETATM   21  O4  UNL     1     -14.280 -13.158   8.315  1.00  0.00    -0.390 OA
ATOM     22  H4  UNL     1     -13.831 -12.930   7.509  1.00  0.00     0.210 HD
ENDBRANCH   5  21
BRANCH   6  23
HETATM   23  O5  UNL     1     -16.975 -11.832   6.649  1.00  0.00    -0.392 OA
ATOM     24  H5  UNL     1     -17.101 -12.718   6.330  1.00  0.00     0.210 HD
ENDBRANCH   6  23
TORSDOF 9
ENDMDL
