MODEL 1
REMARK VINA RESULT: -8.769045569      0.000      0.000
REMARK  7 active torsions:
REMARK  status: ('A' for Active; 'I' for Inactive)
REMARK       I    between atoms: C1_2  and  N1_3 
REMARK    1  A    between atoms: C1_2  and  C8_12 
REMARK    2  A    between atoms: N1_3  and  N2_5 
REMARK    3  A    between atoms: N2_5  and  C2_6 
REMARK       I    between atoms: N3_14  and  C10_15 
REMARK    4  A    between atoms: C10_15  and  C11_17 
REMARK    5  A    between atoms: C11_17  and  O3_18 
REMARK    6  A    between atoms: O3_18  and  N4_19 
REMARK    7  A    between atoms: C14_24  and  O6_25 
ROOT
HETATM    1  C8  UNL     1     -17.650  -8.837   9.248  1.00  0.00     0.126 C 
HETATM    2  C9  UNL     1     -16.273  -9.147   8.750  1.00  0.00     0.142 C 
HETATM    3  N3  UNL     1     -16.190 -10.606   8.664  1.00  0.00    -0.349 N 
HETATM    4  C10 UNL     1     -16.007 -11.271   7.432  1.00  0.00     0.246 C 
HETATM    5  O2  UNL     1     -15.911 -10.595   6.379  1.00  0.00    -0.271 OA
HETATM    6  C12 UNL     1     -16.316 -11.286   9.940  1.00  0.00     0.128 C 
HETATM    7  C13 UNL     1     -17.511 -10.875  10.731  1.00  0.00     0.052 C 
HETATM    8  C14 UNL     1     -17.955  -9.468  10.579  1.00  0.00     0.134 C 
ENDROOT
BRANCH   1   9
HETATM    9  C1  UNL     1     -17.835  -7.385   9.293  1.00  0.00     0.241 C 
HETATM   10  O1  UNL     1     -18.071  -6.762   8.218  1.00  0.00    -0.272 OA
HETATM   11  N1  UNL     1     -17.765  -6.618  10.486  1.00  0.00    -0.273 N 
ATOM     12  H1  UNL     1     -17.578  -7.083  11.373  1.00  0.00     0.185 HD
BRANCH  11  13
HETATM   13  N2  UNL     1     -17.949  -5.242  10.458  1.00  0.00    -0.134 NA
BRANCH  13  14
HETATM   14  C2  UNL     1     -19.188  -4.802  11.047  1.00  0.00     0.099 C 
HETATM   15  C3  UNL     1     -19.097  -3.345  11.431  1.00  0.00     0.023 C 
HETATM   16  C4  UNL     1     -20.358  -3.004  12.196  1.00  0.00     0.002 C 
HETATM   17  C5  UNL     1     -21.377  -4.101  12.173  1.00  0.00     0.000 C 
HETATM   18  C6  UNL     1     -21.617  -4.661  10.789  1.00  0.00     0.002 C 
HETATM   19  C7  UNL     1     -20.336  -4.903  10.043  1.00  0.00     0.023 C 
ENDBRANCH  13  14
ENDBRANCH  11  13
ENDBRANCH   1   9
BRANCH   8  20
HETATM   20  O6  UNL     1     -17.514  -8.677  11.652  1.00  0.00    -0.395 OA
ATOM     21  H6  UNL     1     -17.867  -7.796  11.615  1.00  0.00     0.210 HD
ENDBRANCH   8  20
BRANCH   4  22
HETATM   22  C11 UNL     1     -15.922 -12.739   7.328  1.00  0.00     0.310 C 
BRANCH  22  23
HETATM   23  O3  UNL     1     -15.100 -13.307   8.316  1.00  0.00    -0.212 OA
BRANCH  23  24
HETATM   24  N4  UNL     1     -15.421 -14.492   8.903  1.00  0.00     0.005 N 
HETATM   25  O4  UNL     1     -15.088 -15.565   8.339  1.00  0.00    -0.511 OA
HETATM   26  O5  UNL     1     -16.091 -14.579  10.085  1.00  0.00    -0.511 OA
ENDBRANCH  23  24
ENDBRANCH  22  23
ENDBRANCH   4  22
TORSDOF 7
ENDMDL
MODEL 2
REMARK VINA RESULT: -8.203066961      0.938      1.523
REMARK  7 active torsions:
REMARK  status: ('A' for Active; 'I' for Inactive)
REMARK       I    between atoms: C1_2  and  N1_3 
REMARK    1  A    between atoms: C1_2  and  C8_12 
REMARK    2  A    between atoms: N1_3  and  N2_5 
REMARK    3  A    between atoms: N2_5  and  C2_6 
REMARK       I    between atoms: N3_14  and  C10_15 
REMARK    4  A    between atoms: C10_15  and  C11_17 
REMARK    5  A    between atoms: C11_17  and  O3_18 
REMARK    6  A    between atoms: O3_18  and  N4_19 
REMARK    7  A    between atoms: C14_24  and  O6_25 
ROOT
HETATM    1  C8  UNL     1     -17.789  -8.919   8.905  1.00  0.00     0.126 C 
HETATM    2  C9  UNL     1     -16.419  -9.181   8.363  1.00  0.00     0.142 C 
HETATM    3  N3  UNL     1     -16.157 -10.603   8.593  1.00  0.00    -0.349 N 
HETATM    4  C10 UNL     1     -15.970 -11.508   7.526  1.00  0.00     0.246 C 
HETATM    5  O2  UNL     1     -16.030 -11.086   6.346  1.00  0.00    -0.271 OA
HETATM    6  C12 UNL     1     -16.112 -10.982   9.994  1.00  0.00     0.128 C 
HETATM    7  C13 UNL     1     -17.296 -10.534  10.781  1.00  0.00     0.052 C 
HETATM    8  C14 UNL     1     -17.925  -9.256  10.365  1.00  0.00     0.134 C 
ENDROOT
BRANCH   1   9
HETATM    9  C1  UNL     1     -18.155  -7.524   8.646  1.00  0.00     0.241 C 
HETATM   10  O1  UNL     1     -17.284  -6.737   8.177  1.00  0.00    -0.272 OA
HETATM   11  N1  UNL     1     -19.448  -6.989   8.893  1.00  0.00    -0.273 N 
ATOM     12  H1  UNL     1     -20.179  -7.592   9.270  1.00  0.00     0.185 HD
BRANCH  11  13
HETATM   13  N2  UNL     1     -19.728  -5.656   8.625  1.00  0.00    -0.134 NA
BRANCH  13  14
HETATM   14  C2  UNL     1     -20.125  -4.895   9.782  1.00  0.00     0.099 C 
HETATM   15  C3  UNL     1     -21.159  -5.655  10.579  1.00  0.00     0.023 C 
HETATM   16  C4  UNL     1     -21.652  -4.729  11.670  1.00  0.00     0.002 C 
HETATM   17  C5  UNL     1     -20.862  -3.461  11.770  1.00  0.00     0.000 C 
HETATM   18  C6  UNL     1     -19.368  -3.690  11.772  1.00  0.00     0.002 C 
HETATM   19  C7  UNL     1     -18.942  -4.680  10.725  1.00  0.00     0.023 C 
ENDBRANCH  13  14
ENDBRANCH  11  13
ENDBRANCH   1   9
BRANCH   8  20
HETATM   20  O6  UNL     1     -17.520  -8.197  11.192  1.00  0.00    -0.395 OA
ATOM     21  H6  UNL     1     -18.258  -7.683  11.502  1.00  0.00     0.210 HD
ENDBRANCH   8  20
BRANCH   4  22
HETATM   22  C11 UNL     1     -15.705 -12.943   7.741  1.00  0.00     0.310 C 
BRANCH  22  23
HETATM   23  O3  UNL     1     -15.330 -13.234   9.062  1.00  0.00    -0.212 OA
BRANCH  23  24
HETATM   24  N4  UNL     1     -15.730 -14.384   9.672  1.00  0.00     0.005 N 
HETATM   25  O4  UNL     1     -16.509 -14.317  10.655  1.00  0.00    -0.511 OA
HETATM   26  O5  UNL     1     -15.326 -15.619   9.266  1.00  0.00    -0.511 OA
ENDBRANCH  23  24
ENDBRANCH  22  23
ENDBRANCH   4  22
TORSDOF 7
ENDMDL
MODEL 3
REMARK VINA RESULT: -7.905286413      1.338      2.412
REMARK  7 active torsions:
REMARK  status: ('A' for Active; 'I' for Inactive)
REMARK       I    between atoms: C1_2  and  N1_3 
REMARK    1  A    between atoms: C1_2  and  C8_12 
REMARK    2  A    between atoms: N1_3  and  N2_5 
REMARK    3  A    between atoms: N2_5  and  C2_6 
REMARK       I    between atoms: N3_14  and  C10_15 
REMARK    4  A    between atoms: C10_15  and  C11_17 
REMARK    5  A    between atoms: C11_17  and  O3_18 
REMARK    6  A    between atoms: O3_18  and  N4_19 
REMARK    7  A    between atoms: C14_24  and  O6_25 
ROOT
HETATM    1  C8  UNL     1     -17.040  -8.341   9.928  1.00  0.00     0.126 C 
HETATM    2  C9  UNL     1     -18.176  -9.296  10.122  1.00  0.00     0.142 C 
HETATM    3  N3  UNL     1     -17.724 -10.580   9.582  1.00  0.00    -0.349 N 
HETATM    4  C10 UNL     1     -17.569 -11.720  10.401  1.00  0.00     0.246 C 
HETATM    5  O2  UNL     1     -17.826 -11.634  11.625  1.00  0.00    -0.271 OA
HETATM    6  C12 UNL     1     -17.453 -10.565   8.156  1.00  0.00     0.128 C 
HETATM    7  C13 UNL     1     -16.544  -9.465   7.723  1.00  0.00     0.052 C 
HETATM    8  C14 UNL     1     -16.624  -8.197   8.490  1.00  0.00     0.134 C 
ENDROOT
BRANCH   1   9
HETATM    9  C1  UNL     1     -17.392  -7.044  10.512  1.00  0.00     0.241 C 
HETATM   10  O1  UNL     1     -17.157  -6.838  11.737  1.00  0.00    -0.272 OA
HETATM   11  N1  UNL     1     -17.991  -5.986   9.779  1.00  0.00    -0.273 N 
ATOM     12  H1  UNL     1     -18.196  -6.112   8.788  1.00  0.00     0.185 HD
BRANCH  11  13
HETATM   13  N2  UNL     1     -18.300  -4.780  10.394  1.00  0.00    -0.134 NA
BRANCH  13  14
HETATM   14  C2  UNL     1     -19.619  -4.736  10.970  1.00  0.00     0.099 C 
HETATM   15  C3  UNL     1     -19.895  -3.366  11.542  1.00  0.00     0.023 C 
HETATM   16  C4  UNL     1     -21.215  -3.445  12.279  1.00  0.00     0.002 C 
HETATM   17  C5  UNL     1     -21.934  -4.741  12.063  1.00  0.00     0.000 C 
HETATM   18  C6  UNL     1     -22.003  -5.148  10.608  1.00  0.00     0.002 C 
HETATM   19  C7  UNL     1     -20.688  -4.970   9.904  1.00  0.00     0.023 C 
ENDBRANCH  13  14
ENDBRANCH  11  13
ENDBRANCH   1   9
BRANCH   8  20
HETATM   20  O6  UNL     1     -17.394  -7.240   7.810  1.00  0.00    -0.395 OA
ATOM     21  H6  UNL     1     -18.034  -7.639   7.233  1.00  0.00     0.210 HD
ENDBRANCH   8  20
BRANCH   4  22
HETATM   22  C11 UNL     1     -17.115 -13.019   9.872  1.00  0.00     0.310 C 
BRANCH  22  23
HETATM   23  O3  UNL     1     -15.723 -13.074   9.689  1.00  0.00    -0.212 OA
BRANCH  23  24
HETATM   24  N4  UNL     1     -15.185 -13.409   8.484  1.00  0.00     0.005 N 
HETATM   25  O4  UNL     1     -15.271 -14.596   8.082  1.00  0.00    -0.511 OA
HETATM   26  O5  UNL     1     -14.549 -12.512   7.680  1.00  0.00    -0.511 OA
ENDBRANCH  23  24
ENDBRANCH  22  23
ENDBRANCH   4  22
TORSDOF 7
ENDMDL
MODEL 4
REMARK VINA RESULT: -7.305798031      1.488      2.686
REMARK  7 active torsions:
REMARK  status: ('A' for Active; 'I' for Inactive)
REMARK       I    between atoms: C1_2  and  N1_3 
REMARK    1  A    between atoms: C1_2  and  C8_12 
REMARK    2  A    between atoms: N1_3  and  N2_5 
REMARK    3  A    between atoms: N2_5  and  C2_6 
REMARK       I    between atoms: N3_14  and  C10_15 
REMARK    4  A    between atoms: C10_15  and  C11_17 
REMARK    5  A    between atoms: C11_17  and  O3_18 
REMARK    6  A    between atoms: O3_18  and  N4_19 
REMARK    7  A    between atoms: C14_24  and  O6_25 
ROOT
HETATM    1  C8  UNL     1     -18.187  -8.043   9.447  1.00  0.00     0.126 C 
HETATM    2  C9  UNL     1     -18.598  -9.462   9.205  1.00  0.00     0.142 C 
HETATM    3  N3  UNL     1     -17.362 -10.247   9.198  1.00  0.00    -0.349 N 
HETATM    4  C10 UNL     1     -17.107 -11.242  10.168  1.00  0.00     0.246 C 
HETATM    5  O2  UNL     1     -17.961 -11.462  11.059  1.00  0.00    -0.271 OA
HETATM    6  C12 UNL     1     -16.445  -9.907   8.126  1.00  0.00     0.128 C 
HETATM    7  C13 UNL     1     -16.140  -8.451   8.027  1.00  0.00     0.052 C 
HETATM    8  C14 UNL     1     -17.227  -7.518   8.415  1.00  0.00     0.134 C 
ENDROOT
BRANCH   1   9
HETATM    9  C1  UNL     1     -19.383  -7.200   9.538  1.00  0.00     0.241 C 
HETATM   10  O1  UNL     1     -20.473  -7.720   9.912  1.00  0.00    -0.272 OA
HETATM   11  N1  UNL     1     -19.395  -5.815   9.229  1.00  0.00    -0.273 N 
ATOM     12  H1  UNL     1     -18.535  -5.358   8.925  1.00  0.00     0.185 HD
BRANCH  11  13
HETATM   13  N2  UNL     1     -20.565  -5.073   9.335  1.00  0.00    -0.134 NA
BRANCH  13  14
HETATM   14  C2  UNL     1     -20.592  -4.178  10.464  1.00  0.00     0.099 C 
HETATM   15  C3  UNL     1     -21.478  -4.735  11.552  1.00  0.00     0.023 C 
HETATM   16  C4  UNL     1     -21.598  -3.670  12.621  1.00  0.00     0.002 C 
HETATM   17  C5  UNL     1     -20.680  -2.507  12.401  1.00  0.00     0.000 C 
HETATM   18  C6  UNL     1     -19.261  -2.922  12.086  1.00  0.00     0.002 C 
HETATM   19  C7  UNL     1     -19.202  -4.038  11.083  1.00  0.00     0.023 C 
ENDBRANCH  13  14
ENDBRANCH  11  13
ENDBRANCH   1   9
BRANCH   8  20
HETATM   20  O6  UNL     1     -17.890  -7.012   7.285  1.00  0.00    -0.395 OA
ATOM     21  H6  UNL     1     -17.538  -7.364   6.476  1.00  0.00     0.210 HD
ENDBRANCH   8  20
BRANCH   4  22
HETATM   22  C11 UNL     1     -15.867 -12.041  10.176  1.00  0.00     0.310 C 
BRANCH  22  23
HETATM   23  O3  UNL     1     -16.024 -13.293   9.559  1.00  0.00    -0.212 OA
BRANCH  23  24
HETATM   24  N4  UNL     1     -15.296 -13.633   8.460  1.00  0.00     0.005 N 
HETATM   25  O4  UNL     1     -15.274 -14.833   8.086  1.00  0.00    -0.511 OA
HETATM   26  O5  UNL     1     -14.582 -12.729   7.733  1.00  0.00    -0.511 OA
ENDBRANCH  23  24
ENDBRANCH  22  23
ENDBRANCH   4  22
TORSDOF 7
ENDMDL
MODEL 5
REMARK VINA RESULT: -7.008452512      4.830      9.311
REMARK  7 active torsions:
REMARK  status: ('A' for Active; 'I' for Inactive)
REMARK       I    between atoms: C1_2  and  N1_3 
REMARK    1  A    between atoms: C1_2  and  C8_12 
REMARK    2  A    between atoms: N1_3  and  N2_5 
REMARK    3  A    between atoms: N2_5  and  C2_6 
REMARK       I    between atoms: N3_14  and  C10_15 
REMARK    4  A    between atoms: C10_15  and  C11_17 
REMARK    5  A    between atoms: C11_17  and  O3_18 
REMARK    6  A    between atoms: O3_18  and  N4_19 
REMARK    7  A    between atoms: C14_24  and  O6_25 
ROOT
HETATM    1  C8  UNL     1     -21.078  -4.979  10.100  1.00  0.00     0.126 C 
HETATM    2  C9  UNL     1     -21.861  -6.000  10.865  1.00  0.00     0.142 C 
HETATM    3  N3  UNL     1     -22.803  -5.249  11.698  1.00  0.00    -0.349 N 
HETATM    4  C10 UNL     1     -24.200  -5.358  11.524  1.00  0.00     0.246 C 
HETATM    5  O2  UNL     1     -24.650  -6.118  10.634  1.00  0.00    -0.271 OA
HETATM    6  C12 UNL     1     -22.174  -4.399  12.692  1.00  0.00     0.128 C 
HETATM    7  C13 UNL     1     -21.126  -3.494  12.140  1.00  0.00     0.052 C 
HETATM    8  C14 UNL     1     -20.349  -4.005  10.985  1.00  0.00     0.134 C 
ENDROOT
BRANCH   1   9
HETATM    9  C1  UNL     1     -20.157  -5.659   9.185  1.00  0.00     0.241 C 
HETATM   10  O1  UNL     1     -20.170  -5.349   7.959  1.00  0.00    -0.272 OA
HETATM   11  N1  UNL     1     -19.237  -6.660   9.593  1.00  0.00    -0.273 N 
ATOM     12  H1  UNL     1     -19.196  -6.937  10.574  1.00  0.00     0.185 HD
BRANCH  11  13
HETATM   13  N2  UNL     1     -18.392  -7.267   8.673  1.00  0.00    -0.134 NA
BRANCH  13  14
HETATM   14  C2  UNL     1     -17.988  -8.600   9.037  1.00  0.00     0.099 C 
HETATM   15  C3  UNL     1     -16.850  -9.061   8.156  1.00  0.00     0.023 C 
HETATM   16  C4  UNL     1     -16.599 -10.519   8.475  1.00  0.00     0.002 C 
HETATM   17  C5  UNL     1     -17.373 -11.005   9.661  1.00  0.00     0.000 C 
HETATM   18  C6  UNL     1     -17.280 -10.079  10.853  1.00  0.00     0.002 C 
HETATM   19  C7  UNL     1     -17.453  -8.637  10.468  1.00  0.00     0.023 C 
ENDBRANCH  13  14
ENDBRANCH  11  13
ENDBRANCH   1   9
BRANCH   8  20
HETATM   20  O6  UNL     1     -19.096  -4.493  11.389  1.00  0.00    -0.395 OA
ATOM     21  H6  UNL     1     -18.963  -5.396  11.126  1.00  0.00     0.210 HD
ENDBRANCH   8  20
BRANCH   4  22
HETATM   22  C11 UNL     1     -25.162  -4.608  12.354  1.00  0.00     0.310 C 
BRANCH  22  23
HETATM   23  O3  UNL     1     -26.441  -5.189  12.362  1.00  0.00    -0.212 OA
BRANCH  23  24
HETATM   24  N4  UNL     1     -27.161  -5.290  13.513  1.00  0.00     0.005 N 
HETATM   25  O4  UNL     1     -27.440  -4.247  14.155  1.00  0.00    -0.511 OA
HETATM   26  O5  UNL     1     -27.602  -6.478  14.011  1.00  0.00    -0.511 OA
ENDBRANCH  23  24
ENDBRANCH  22  23
ENDBRANCH   4  22
TORSDOF 7
ENDMDL
