MODEL 1
REMARK VINA RESULT: -6.871622204      0.000      0.000
REMARK  7 active torsions:
REMARK  status: ('A' for Active; 'I' for Inactive)
REMARK    1  A    between atoms: C5_10  and  C6_11 
REMARK    2  A    between atoms: C6_11  and  S2_12 
REMARK    3  A    between atoms: S2_12  and  C7_13 
REMARK    4  A    between atoms: C7_13  and  C8_14 
REMARK    5  A    between atoms: C8_14  and  C9_15 
REMARK    6  A    between atoms: C9_15  and  N2_16 
REMARK    7  A    between atoms: C14_23  and  O2_24 
ROOT
HETATM    1  S2  UNL     1     -17.531  -7.753  10.394  1.00  0.00    -0.165 SA
ENDROOT
BRANCH   1   2
HETATM    2  C6  UNL     1     -18.981  -7.270   9.429  1.00  0.00     0.128 C 
BRANCH   2   3
HETATM    3  C5  UNL     1     -20.068  -6.703  10.317  1.00  0.00     0.299 C 
HETATM    4  N1  UNL     1     -21.366  -6.765   9.656  1.00  0.00    -0.051 N 
HETATM    5  C4  UNL     1     -22.130  -5.679  10.288  1.00  0.00     0.270 C 
ATOM      6  H12 UNL     1     -21.818  -7.679   9.698  1.00  0.00     0.279 HD
ATOM      7  H11 UNL     1     -21.323  -6.713   8.638  1.00  0.00     0.279 HD
HETATM    8  C3  UNL     1     -21.131  -4.601  10.265  1.00  0.00     0.177 C 
HETATM    9  S1  UNL     1     -21.117  -3.570  11.781  1.00  0.00    -0.133 SA
HETATM   10  N4  UNL     1     -19.850  -5.305  10.492  1.00  0.00    -0.307 N 
HETATM   11  C2  UNL     1     -19.288  -3.406  11.892  1.00  0.00     0.179 C 
HETATM   12  C1  UNL     1     -18.861  -4.320  10.797  1.00  0.00     0.231 C 
HETATM   13  O1  UNL     1     -17.719  -4.181  10.231  1.00  0.00    -0.272 OA
ENDBRANCH   2   3
ENDBRANCH   1   2
BRANCH   1  14
HETATM   14  C7  UNL     1     -17.880  -9.164  11.489  1.00  0.00     0.075 C 
BRANCH  14  15
HETATM   15  C8  UNL     1     -17.253 -10.385  10.816  1.00  0.00     0.040 C 
BRANCH  15  16
HETATM   16  C9  UNL     1     -17.327 -10.294   9.334  1.00  0.00     0.279 C 
BRANCH  16  17
HETATM   17  N2  UNL     1     -16.078 -10.566   8.656  1.00  0.00     0.136 N 
HETATM   18  C10 UNL     1     -16.265 -10.636   7.234  1.00  0.00     0.278 C 
HETATM   19  C11 UNL     1     -15.582 -11.685   6.472  1.00  0.00     0.032 C 
HETATM   20  C12 UNL     1     -16.246 -13.047   6.572  1.00  0.00     0.021 C 
HETATM   21  C13 UNL     1     -15.612 -13.693   7.805  1.00  0.00     0.118 C 
HETATM   22  N3  UNL     1     -16.011 -12.966   8.951  1.00  0.00    -0.373 N 
HETATM   23  C14 UNL     1     -15.401 -11.713   9.207  1.00  0.00     0.460 C 
ATOM     24  H3  UNL     1     -16.723 -13.336   9.581  1.00  0.00     0.157 HD
BRANCH  23  25
HETATM   25  O2  UNL     1     -14.063 -11.684   8.929  1.00  0.00    -0.353 OA
ATOM     26  H2  UNL     1     -13.728 -12.555   8.745  1.00  0.00     0.214 HD
ENDBRANCH  23  25
ENDBRANCH  16  17
ENDBRANCH  15  16
ENDBRANCH  14  15
ENDBRANCH   1  14
TORSDOF 7
ENDMDL
MODEL 2
REMARK VINA RESULT: -6.365964899      0.991      1.093
REMARK  7 active torsions:
REMARK  status: ('A' for Active; 'I' for Inactive)
REMARK    1  A    between atoms: C5_10  and  C6_11 
REMARK    2  A    between atoms: C6_11  and  S2_12 
REMARK    3  A    between atoms: S2_12  and  C7_13 
REMARK    4  A    between atoms: C7_13  and  C8_14 
REMARK    5  A    between atoms: C8_14  and  C9_15 
REMARK    6  A    between atoms: C9_15  and  N2_16 
REMARK    7  A    between atoms: C14_23  and  O2_24 
ROOT
HETATM    1  S2  UNL     1     -17.506  -7.673  10.075  1.00  0.00    -0.165 SA
ENDROOT
BRANCH   1   2
HETATM    2  C6  UNL     1     -19.053  -7.264   9.234  1.00  0.00     0.128 C 
BRANCH   2   3
HETATM    3  C5  UNL     1     -20.077  -6.712  10.204  1.00  0.00     0.299 C 
HETATM    4  N1  UNL     1     -21.414  -6.743   9.625  1.00  0.00    -0.051 N 
HETATM    5  C4  UNL     1     -22.125  -5.670  10.335  1.00  0.00     0.270 C 
ATOM      6  H12 UNL     1     -21.872  -7.654   9.671  1.00  0.00     0.279 HD
ATOM      7  H11 UNL     1     -21.435  -6.663   8.609  1.00  0.00     0.279 HD
HETATM    8  C3  UNL     1     -21.118  -4.600  10.279  1.00  0.00     0.177 C 
HETATM    9  S1  UNL     1     -20.997  -3.613  11.818  1.00  0.00    -0.133 SA
HETATM   10  N4  UNL     1     -19.833  -5.322  10.405  1.00  0.00    -0.307 N 
HETATM   11  C2  UNL     1     -19.164  -3.469  11.818  1.00  0.00     0.179 C 
HETATM   12  C1  UNL     1     -18.816  -4.354  10.673  1.00  0.00     0.231 C 
HETATM   13  O1  UNL     1     -17.710  -4.210  10.040  1.00  0.00    -0.272 OA
ENDBRANCH   2   3
ENDBRANCH   1   2
BRANCH   1  14
HETATM   14  C7  UNL     1     -17.787  -8.669  11.571  1.00  0.00     0.075 C 
BRANCH  14  15
HETATM   15  C8  UNL     1     -18.364 -10.001  11.089  1.00  0.00     0.040 C 
BRANCH  15  16
HETATM   16  C9  UNL     1     -17.781 -10.411   9.784  1.00  0.00     0.279 C 
BRANCH  16  17
HETATM   17  N2  UNL     1     -16.390 -10.805   9.849  1.00  0.00     0.136 N 
HETATM   18  C10 UNL     1     -15.839 -10.975   8.535  1.00  0.00     0.278 C 
HETATM   19  C11 UNL     1     -14.960 -12.118   8.269  1.00  0.00     0.032 C 
HETATM   20  C12 UNL     1     -15.700 -13.428   8.069  1.00  0.00     0.021 C 
HETATM   21  C13 UNL     1     -15.836 -14.011   9.477  1.00  0.00     0.118 C 
HETATM   22  N3  UNL     1     -16.693 -13.174  10.231  1.00  0.00    -0.373 N 
HETATM   23  C14 UNL     1     -16.189 -11.941  10.713  1.00  0.00     0.460 C 
ATOM     24  H3  UNL     1     -17.655 -13.454  10.423  1.00  0.00     0.157 HD
BRANCH  23  25
HETATM   25  O2  UNL     1     -14.897 -12.010  11.154  1.00  0.00    -0.353 OA
ATOM     26  H2  UNL     1     -14.613 -12.911  11.257  1.00  0.00     0.214 HD
ENDBRANCH  23  25
ENDBRANCH  16  17
ENDBRANCH  15  16
ENDBRANCH  14  15
ENDBRANCH   1  14
TORSDOF 7
ENDMDL
MODEL 3
REMARK VINA RESULT: -6.101995675      1.360      1.490
REMARK  7 active torsions:
REMARK  status: ('A' for Active; 'I' for Inactive)
REMARK    1  A    between atoms: C5_10  and  C6_11 
REMARK    2  A    between atoms: C6_11  and  S2_12 
REMARK    3  A    between atoms: S2_12  and  C7_13 
REMARK    4  A    between atoms: C7_13  and  C8_14 
REMARK    5  A    between atoms: C8_14  and  C9_15 
REMARK    6  A    between atoms: C9_15  and  N2_16 
REMARK    7  A    between atoms: C14_23  and  O2_24 
ROOT
HETATM    1  S2  UNL     1     -17.557  -6.957   9.045  1.00  0.00    -0.165 SA
ENDROOT
BRANCH   1   2
HETATM    2  C6  UNL     1     -18.438  -5.442   9.488  1.00  0.00     0.128 C 
BRANCH   2   3
HETATM    3  C5  UNL     1     -19.698  -5.748  10.271  1.00  0.00     0.299 C 
HETATM    4  N1  UNL     1     -20.805  -6.063   9.375  1.00  0.00    -0.051 N 
HETATM    5  C4  UNL     1     -21.997  -5.710  10.159  1.00  0.00     0.270 C 
ATOM      6  H12 UNL     1     -20.801  -7.020   9.021  1.00  0.00     0.279 HD
ATOM      7  H11 UNL     1     -20.750  -5.610   8.463  1.00  0.00     0.279 HD
HETATM    8  C3  UNL     1     -21.586  -4.405  10.698  1.00  0.00     0.177 C 
HETATM    9  S1  UNL     1     -22.093  -4.127  12.437  1.00  0.00    -0.133 SA
HETATM   10  N4  UNL     1     -20.135  -4.566  10.938  1.00  0.00    -0.307 N 
HETATM   11  C2  UNL     1     -20.536  -3.303  12.968  1.00  0.00     0.179 C 
HETATM   12  C1  UNL     1     -19.704  -3.469  11.746  1.00  0.00     0.231 C 
HETATM   13  O1  UNL     1     -18.723  -2.679  11.504  1.00  0.00    -0.272 OA
ENDBRANCH   2   3
ENDBRANCH   1   2
BRANCH   1  14
HETATM   14  C7  UNL     1     -17.421  -8.103  10.452  1.00  0.00     0.075 C 
BRANCH  14  15
HETATM   15  C8  UNL     1     -18.277  -9.317  10.092  1.00  0.00     0.040 C 
BRANCH  15  16
HETATM   16  C9  UNL     1     -17.649 -10.132   9.018  1.00  0.00     0.279 C 
BRANCH  16  17
HETATM   17  N2  UNL     1     -16.321 -10.613   9.334  1.00  0.00     0.136 N 
HETATM   18  C10 UNL     1     -15.645 -11.076   8.155  1.00  0.00     0.278 C 
HETATM   19  C11 UNL     1     -14.862 -12.314   8.218  1.00  0.00     0.032 C 
HETATM   20  C12 UNL     1     -15.703 -13.576   8.166  1.00  0.00     0.021 C 
HETATM   21  C13 UNL     1     -16.055 -13.864   9.627  1.00  0.00     0.118 C 
HETATM   22  N3  UNL     1     -16.903 -12.833  10.098  1.00  0.00    -0.373 N 
HETATM   23  C14 UNL     1     -16.334 -11.573  10.409  1.00  0.00     0.460 C 
ATOM     24  H3  UNL     1     -17.904 -12.994  10.211  1.00  0.00     0.157 HD
BRANCH  23  25
HETATM   25  O2  UNL     1     -15.114 -11.656  11.019  1.00  0.00    -0.353 OA
ATOM     26  H2  UNL     1     -15.042 -12.442  11.548  1.00  0.00     0.214 HD
ENDBRANCH  23  25
ENDBRANCH  16  17
ENDBRANCH  15  16
ENDBRANCH  14  15
ENDBRANCH   1  14
TORSDOF 7
ENDMDL
MODEL 4
REMARK VINA RESULT: -6.048349707      1.212      1.756
REMARK  7 active torsions:
REMARK  status: ('A' for Active; 'I' for Inactive)
REMARK    1  A    between atoms: C5_10  and  C6_11 
REMARK    2  A    between atoms: C6_11  and  S2_12 
REMARK    3  A    between atoms: S2_12  and  C7_13 
REMARK    4  A    between atoms: C7_13  and  C8_14 
REMARK    5  A    between atoms: C8_14  and  C9_15 
REMARK    6  A    between atoms: C9_15  and  N2_16 
REMARK    7  A    between atoms: C14_23  and  O2_24 
ROOT
HETATM    1  S2  UNL     1     -17.450  -7.566  10.191  1.00  0.00    -0.165 SA
ENDROOT
BRANCH   1   2
HETATM    2  C6  UNL     1     -18.987  -7.224   9.304  1.00  0.00     0.128 C 
BRANCH   2   3
HETATM    3  C5  UNL     1     -20.054  -6.693  10.238  1.00  0.00     0.299 C 
HETATM    4  N1  UNL     1     -21.370  -6.750   9.612  1.00  0.00    -0.051 N 
HETATM    5  C4  UNL     1     -22.126  -5.690  10.296  1.00  0.00     0.270 C 
ATOM      6  H12 UNL     1     -21.811  -7.669   9.642  1.00  0.00     0.279 HD
ATOM      7  H11 UNL     1     -21.357  -6.669   8.595  1.00  0.00     0.279 HD
HETATM    8  C3  UNL     1     -21.138  -4.601  10.275  1.00  0.00     0.177 C 
HETATM    9  S1  UNL     1     -21.090  -3.613  11.818  1.00  0.00    -0.133 SA
HETATM   10  N4  UNL     1     -19.845  -5.298  10.446  1.00  0.00    -0.307 N 
HETATM   11  C2  UNL     1     -19.261  -3.433  11.882  1.00  0.00     0.179 C 
HETATM   12  C1  UNL     1     -18.857  -4.311  10.750  1.00  0.00     0.231 C 
HETATM   13  O1  UNL     1     -17.732  -4.145  10.156  1.00  0.00    -0.272 OA
ENDBRANCH   2   3
ENDBRANCH   1   2
BRANCH   1  14
HETATM   14  C7  UNL     1     -17.752  -8.391  11.784  1.00  0.00     0.075 C 
BRANCH  14  15
HETATM   15  C8  UNL     1     -18.082  -9.846  11.450  1.00  0.00     0.040 C 
BRANCH  15  16
HETATM   16  C9  UNL     1     -16.896 -10.571  10.923  1.00  0.00     0.279 C 
BRANCH  16  17
HETATM   17  N2  UNL     1     -17.165 -11.388   9.759  1.00  0.00     0.136 N 
HETATM   18  C10 UNL     1     -16.282 -12.519   9.705  1.00  0.00     0.278 C 
HETATM   19  C11 UNL     1     -15.693 -12.908   8.420  1.00  0.00     0.032 C 
HETATM   20  C12 UNL     1     -14.521 -12.041   7.995  1.00  0.00     0.021 C 
HETATM   21  C13 UNL     1     -15.159 -10.888   7.219  1.00  0.00     0.118 C 
HETATM   22  N3  UNL     1     -15.930 -10.111   8.117  1.00  0.00    -0.373 N 
HETATM   23  C14 UNL     1     -17.184 -10.611   8.544  1.00  0.00     0.460 C 
ATOM     24  H3  UNL     1     -15.588  -9.209   8.450  1.00  0.00     0.157 HD
BRANCH  23  25
HETATM   25  O2  UNL     1     -17.890 -11.243   7.559  1.00  0.00    -0.353 OA
ATOM     26  H2  UNL     1     -17.554 -11.025   6.697  1.00  0.00     0.214 HD
ENDBRANCH  23  25
ENDBRANCH  16  17
ENDBRANCH  15  16
ENDBRANCH  14  15
ENDBRANCH   1  14
TORSDOF 7
ENDMDL
MODEL 5
REMARK VINA RESULT: -5.950705070      2.229      8.327
REMARK  7 active torsions:
REMARK  status: ('A' for Active; 'I' for Inactive)
REMARK    1  A    between atoms: C5_10  and  C6_11 
REMARK    2  A    between atoms: C6_11  and  S2_12 
REMARK    3  A    between atoms: S2_12  and  C7_13 
REMARK    4  A    between atoms: C7_13  and  C8_14 
REMARK    5  A    between atoms: C8_14  and  C9_15 
REMARK    6  A    between atoms: C9_15  and  N2_16 
REMARK    7  A    between atoms: C14_23  and  O2_24 
ROOT
HETATM    1  S2  UNL     1     -17.672  -8.840  11.216  1.00  0.00    -0.165 SA
ENDROOT
BRANCH   1   2
HETATM    2  C6  UNL     1     -18.113  -9.492   9.589  1.00  0.00     0.128 C 
BRANCH   2   3
HETATM    3  C5  UNL     1     -17.715 -10.947   9.454  1.00  0.00     0.299 C 
HETATM    4  N1  UNL     1     -17.285 -11.491  10.737  1.00  0.00    -0.051 N 
HETATM    5  C4  UNL     1     -16.383 -12.590  10.363  1.00  0.00     0.270 C 
ATOM      6  H12 UNL     1     -18.049 -11.764  11.356  1.00  0.00     0.279 HD
ATOM      7  H11 UNL     1     -16.874 -10.804  11.369  1.00  0.00     0.279 HD
HETATM    8  C3  UNL     1     -15.580 -11.934   9.321  1.00  0.00     0.177 C 
HETATM    9  S1  UNL     1     -15.197 -13.013   7.889  1.00  0.00    -0.133 SA
HETATM   10  N4  UNL     1     -16.546 -11.042   8.643  1.00  0.00    -0.307 N 
HETATM   11  C2  UNL     1     -15.434 -11.723   6.600  1.00  0.00     0.179 C 
HETATM   12  C1  UNL     1     -15.946 -10.596   7.426  1.00  0.00     0.231 C 
HETATM   13  O1  UNL     1     -15.828  -9.382   7.030  1.00  0.00    -0.272 OA
ENDBRANCH   2   3
ENDBRANCH   1   2
BRANCH   1  14
HETATM   14  C7  UNL     1     -17.311  -7.058  11.161  1.00  0.00     0.075 C 
BRANCH  14  15
HETATM   15  C8  UNL     1     -18.071  -6.510   9.952  1.00  0.00     0.040 C 
BRANCH  15  16
HETATM   16  C9  UNL     1     -19.528  -6.400  10.225  1.00  0.00     0.279 C 
BRANCH  16  17
HETATM   17  N2  UNL     1     -20.062  -5.063  10.085  1.00  0.00     0.136 N 
HETATM   18  C10 UNL     1     -19.573  -4.199  11.122  1.00  0.00     0.278 C 
HETATM   19  C11 UNL     1     -20.496  -3.262  11.769  1.00  0.00     0.032 C 
HETATM   20  C12 UNL     1     -21.398  -3.907  12.806  1.00  0.00     0.021 C 
HETATM   21  C13 UNL     1     -22.618  -4.378  12.014  1.00  0.00     0.118 C 
HETATM   22  N3  UNL     1     -22.214  -5.410  11.134  1.00  0.00    -0.373 N 
HETATM   23  C14 UNL     1     -21.498  -5.063   9.961  1.00  0.00     0.460 C 
ATOM     24  H3  UNL     1     -22.433  -6.385  11.340  1.00  0.00     0.157 HD
BRANCH  23  25
HETATM   25  O2  UNL     1     -21.948  -3.920   9.361  1.00  0.00    -0.353 OA
ATOM     26  H2  UNL     1     -22.111  -4.056   8.435  1.00  0.00     0.214 HD
ENDBRANCH  23  25
ENDBRANCH  16  17
ENDBRANCH  15  16
ENDBRANCH  14  15
ENDBRANCH   1  14
TORSDOF 7
ENDMDL
