MODEL 1
REMARK VINA RESULT: -8.626427933      0.000      0.000
REMARK  8 active torsions:
REMARK  status: ('A' for Active; 'I' for Inactive)
REMARK    1  A    between atoms: S1_2  and  C1_5 
REMARK    2  A    between atoms: C2_6  and  S2_7 
REMARK    3  A    between atoms: S2_7  and  C3_10 
REMARK    4  A    between atoms: C3_10  and  C4_11 
REMARK    5  A    between atoms: C7_14  and  C8_15 
REMARK    6  A    between atoms: C10_17  and  C11_18 
REMARK    7  A    between atoms: C11_18  and  O6_19 
REMARK    8  A    between atoms: C11_18  and  O7_21 
ROOT
HETATM    1  C4  UNL     1     -17.084 -10.509  10.756  1.00  0.00     0.136 C 
HETATM    2  C5  UNL     1     -17.590 -11.903  10.540  1.00  0.00     0.035 C 
HETATM    3  C6  UNL     1     -16.380 -12.533   9.831  1.00  0.00     0.035 C 
HETATM    4  C7  UNL     1     -15.667 -11.346   9.308  1.00  0.00     0.126 C 
HETATM    5  O8  UNL     1     -16.502 -10.234   9.502  1.00  0.00    -0.379 OA
ENDROOT
BRANCH   1   6
HETATM    6  C3  UNL     1     -18.166  -9.509  11.068  1.00  0.00     0.176 C 
BRANCH   6   7
HETATM    7  S2  UNL     1     -18.132  -8.110  10.009  1.00  0.00     0.168 S 
HETATM    8  O4  UNL     1     -17.798  -8.456   8.593  1.00  0.00    -0.223 OA
HETATM    9  O5  UNL     1     -17.108  -7.135  10.573  1.00  0.00    -0.223 OA
BRANCH   7  10
HETATM   10  C2  UNL     1     -19.704  -7.336  10.014  1.00  0.00     0.123 C 
HETATM   11  C1  UNL     1     -19.756  -6.064  10.424  1.00  0.00     0.145 C 
BRANCH  11  12
HETATM   12  S1  UNL     1     -21.312  -5.223  10.453  1.00  0.00     0.127 S 
HETATM   13  O1  UNL     1     -21.331  -4.244   9.310  1.00  0.00    -0.592 OA
HETATM   14  O2  UNL     1     -22.414  -6.225  10.346  1.00  0.00    -0.592 OA
HETATM   15  O3  UNL     1     -21.489  -4.349  11.870  1.00  0.00    -0.592 OA
ENDBRANCH  11  12
ENDBRANCH   7  10
ENDBRANCH   6   7
ENDBRANCH   1   6
BRANCH   4  16
HETATM   16  C8  UNL     1     -15.124 -11.422   7.932  1.00  0.00     0.024 A 
HETATM   17  C9  UNL     1     -16.133 -11.635   6.828  1.00  0.00     0.017 A 
HETATM   18  C10 UNL     1     -15.334 -10.386   6.882  1.00  0.00     0.047 A 
BRANCH  18  19
HETATM   19  C11 UNL     1     -14.221 -10.223   5.833  1.00  0.00     0.258 C 
BRANCH  19  20
HETATM   20  O6  UNL     1     -14.293 -11.236   4.901  1.00  0.00    -0.371 OA
ATOM     21  H6  UNL     1     -13.591 -11.150   4.268  1.00  0.00     0.212 HD
ENDBRANCH  19  20
BRANCH  19  22
HETATM   22  O7  UNL     1     -14.494  -8.988   5.211  1.00  0.00    -0.371 OA
ATOM     23  H7  UNL     1     -13.808  -8.888   4.563  1.00  0.00     0.212 HD
ENDBRANCH  19  22
ENDBRANCH  18  19
ENDBRANCH   4  16
TORSDOF 8
ENDMDL
MODEL 2
REMARK VINA RESULT: -7.765971905      2.522      8.102
REMARK  8 active torsions:
REMARK  status: ('A' for Active; 'I' for Inactive)
REMARK    1  A    between atoms: S1_2  and  C1_5 
REMARK    2  A    between atoms: C2_6  and  S2_7 
REMARK    3  A    between atoms: S2_7  and  C3_10 
REMARK    4  A    between atoms: C3_10  and  C4_11 
REMARK    5  A    between atoms: C7_14  and  C8_15 
REMARK    6  A    between atoms: C10_17  and  C11_18 
REMARK    7  A    between atoms: C11_18  and  O6_19 
REMARK    8  A    between atoms: C11_18  and  O7_21 
ROOT
HETATM    1  C4  UNL     1     -18.088  -7.665   9.780  1.00  0.00     0.136 C 
HETATM    2  C5  UNL     1     -17.813  -6.862   8.546  1.00  0.00     0.035 C 
HETATM    3  C6  UNL     1     -18.021  -5.437   9.087  1.00  0.00     0.035 C 
HETATM    4  C7  UNL     1     -18.854  -5.675  10.288  1.00  0.00     0.126 C 
HETATM    5  O8  UNL     1     -19.243  -7.024  10.270  1.00  0.00    -0.379 OA
ENDROOT
BRANCH   1   6
HETATM    6  C3  UNL     1     -18.366  -9.121   9.511  1.00  0.00     0.176 C 
BRANCH   6   7
HETATM    7  S2  UNL     1     -17.698 -10.184  10.736  1.00  0.00     0.168 S 
HETATM    8  O4  UNL     1     -18.698 -11.155  11.277  1.00  0.00    -0.223 OA
HETATM    9  O5  UNL     1     -17.151  -9.307  11.854  1.00  0.00    -0.223 OA
BRANCH   7  10
HETATM   10  C2  UNL     1     -16.374 -11.107  10.051  1.00  0.00     0.123 C 
HETATM   11  C1  UNL     1     -16.372 -11.277   8.724  1.00  0.00     0.145 C 
BRANCH  11  12
HETATM   12  S1  UNL     1     -15.065 -12.198   7.968  1.00  0.00     0.127 S 
HETATM   13  O1  UNL     1     -13.790 -11.878   8.701  1.00  0.00    -0.592 OA
HETATM   14  O2  UNL     1     -15.392 -13.653   8.027  1.00  0.00    -0.592 OA
HETATM   15  O3  UNL     1     -14.859 -11.736   6.372  1.00  0.00    -0.592 OA
ENDBRANCH  11  12
ENDBRANCH   7  10
ENDBRANCH   6   7
ENDBRANCH   1   6
BRANCH   4  16
HETATM   16  C8  UNL     1     -19.987  -4.753  10.531  1.00  0.00     0.024 A 
HETATM   17  C9  UNL     1     -21.196  -4.937   9.645  1.00  0.00     0.017 A 
HETATM   18  C10 UNL     1     -21.299  -5.161  11.107  1.00  0.00     0.047 A 
BRANCH  18  19
HETATM   19  C11 UNL     1     -22.059  -4.102  11.924  1.00  0.00     0.258 C 
BRANCH  19  20
HETATM   20  O6  UNL     1     -22.980  -4.708  12.751  1.00  0.00    -0.371 OA
ATOM     21  H6  UNL     1     -22.984  -5.646  12.606  1.00  0.00     0.212 HD
ENDBRANCH  19  20
BRANCH  19  22
HETATM   22  O7  UNL     1     -21.067  -3.472  12.703  1.00  0.00    -0.371 OA
ATOM     23  H7  UNL     1     -21.501  -2.719  13.082  1.00  0.00     0.212 HD
ENDBRANCH  19  22
ENDBRANCH  18  19
ENDBRANCH   4  16
TORSDOF 8
ENDMDL
MODEL 3
REMARK VINA RESULT: -7.282057593      2.543      8.189
REMARK  8 active torsions:
REMARK  status: ('A' for Active; 'I' for Inactive)
REMARK    1  A    between atoms: S1_2  and  C1_5 
REMARK    2  A    between atoms: C2_6  and  S2_7 
REMARK    3  A    between atoms: S2_7  and  C3_10 
REMARK    4  A    between atoms: C3_10  and  C4_11 
REMARK    5  A    between atoms: C7_14  and  C8_15 
REMARK    6  A    between atoms: C10_17  and  C11_18 
REMARK    7  A    between atoms: C11_18  and  O6_19 
REMARK    8  A    between atoms: C11_18  and  O7_21 
ROOT
HETATM    1  C4  UNL     1     -18.343  -7.494   9.783  1.00  0.00     0.136 C 
HETATM    2  C5  UNL     1     -18.287  -6.488   8.674  1.00  0.00     0.035 C 
HETATM    3  C6  UNL     1     -18.903  -5.265   9.375  1.00  0.00     0.035 C 
HETATM    4  C7  UNL     1     -19.654  -5.886  10.490  1.00  0.00     0.126 C 
HETATM    5  O8  UNL     1     -19.641  -7.275  10.284  1.00  0.00    -0.379 OA
ENDROOT
BRANCH   1   6
HETATM    6  C3  UNL     1     -18.188  -8.920   9.322  1.00  0.00     0.176 C 
BRANCH   6   7
HETATM    7  S2  UNL     1     -17.605  -9.989  10.584  1.00  0.00     0.168 S 
HETATM    8  O4  UNL     1     -18.668 -10.892  11.123  1.00  0.00    -0.223 OA
HETATM    9  O5  UNL     1     -17.034  -9.118  11.694  1.00  0.00    -0.223 OA
BRANCH   7  10
HETATM   10  C2  UNL     1     -16.319 -10.997   9.947  1.00  0.00     0.123 C 
HETATM   11  C1  UNL     1     -16.287 -11.181   8.623  1.00  0.00     0.145 C 
BRANCH  11  12
HETATM   12  S1  UNL     1     -15.016 -12.187   7.916  1.00  0.00     0.127 S 
HETATM   13  O1  UNL     1     -13.743 -11.925   8.675  1.00  0.00    -0.592 OA
HETATM   14  O2  UNL     1     -15.425 -13.621   7.992  1.00  0.00    -0.592 OA
HETATM   15  O3  UNL     1     -14.747 -11.768   6.317  1.00  0.00    -0.592 OA
ENDBRANCH  11  12
ENDBRANCH   7  10
ENDBRANCH   6   7
ENDBRANCH   1   6
BRANCH   4  16
HETATM   16  C8  UNL     1     -21.007  -5.361  10.782  1.00  0.00     0.024 A 
HETATM   17  C9  UNL     1     -21.720  -4.682   9.637  1.00  0.00     0.017 A 
HETATM   18  C10 UNL     1     -22.270  -5.926  10.228  1.00  0.00     0.047 A 
BRANCH  18  19
HETATM   19  C11 UNL     1     -23.533  -5.787  11.095  1.00  0.00     0.258 C 
BRANCH  19  20
HETATM   20  O6  UNL     1     -23.370  -4.775  12.016  1.00  0.00    -0.371 OA
ATOM     21  H6  UNL     1     -24.208  -4.380  12.222  1.00  0.00     0.212 HD
ENDBRANCH  19  20
BRANCH  19  22
HETATM   22  O7  UNL     1     -24.554  -5.441  10.187  1.00  0.00    -0.371 OA
ATOM     23  H7  UNL     1     -25.308  -5.943  10.470  1.00  0.00     0.212 HD
ENDBRANCH  19  22
ENDBRANCH  18  19
ENDBRANCH   4  16
TORSDOF 8
ENDMDL
MODEL 4
REMARK VINA RESULT: -7.190220796      2.631      7.452
REMARK  8 active torsions:
REMARK  status: ('A' for Active; 'I' for Inactive)
REMARK    1  A    between atoms: S1_2  and  C1_5 
REMARK    2  A    between atoms: C2_6  and  S2_7 
REMARK    3  A    between atoms: S2_7  and  C3_10 
REMARK    4  A    between atoms: C3_10  and  C4_11 
REMARK    5  A    between atoms: C7_14  and  C8_15 
REMARK    6  A    between atoms: C10_17  and  C11_18 
REMARK    7  A    between atoms: C11_18  and  O6_19 
REMARK    8  A    between atoms: C11_18  and  O7_21 
ROOT
HETATM    1  C4  UNL     1     -17.445  -8.904   8.554  1.00  0.00     0.136 C 
HETATM    2  C5  UNL     1     -17.013  -9.014   9.984  1.00  0.00     0.035 C 
HETATM    3  C6  UNL     1     -18.311  -8.607  10.701  1.00  0.00     0.035 C 
HETATM    4  C7  UNL     1     -19.033  -7.860   9.647  1.00  0.00     0.126 C 
HETATM    5  O8  UNL     1     -18.144  -7.681   8.574  1.00  0.00    -0.379 OA
ENDROOT
BRANCH   1   6
HETATM    6  C3  UNL     1     -16.303  -8.844   7.574  1.00  0.00     0.176 C 
BRANCH   6   7
HETATM    7  S2  UNL     1     -15.585 -10.414   7.260  1.00  0.00     0.168 S 
HETATM    8  O4  UNL     1     -14.219 -10.323   6.660  1.00  0.00    -0.223 OA
HETATM    9  O5  UNL     1     -16.525 -11.169   6.330  1.00  0.00    -0.223 OA
BRANCH   7  10
HETATM   10  C2  UNL     1     -15.451 -11.306   8.764  1.00  0.00     0.123 C 
HETATM   11  C1  UNL     1     -16.452 -12.137   9.071  1.00  0.00     0.145 C 
BRANCH  11  12
HETATM   12  S1  UNL     1     -16.378 -13.067  10.574  1.00  0.00     0.127 S 
HETATM   13  O1  UNL     1     -15.365 -12.413  11.474  1.00  0.00    -0.592 OA
HETATM   14  O2  UNL     1     -17.735 -13.104  11.195  1.00  0.00    -0.592 OA
HETATM   15  O3  UNL     1     -15.857 -14.631  10.279  1.00  0.00    -0.592 OA
ENDBRANCH  11  12
ENDBRANCH   7  10
ENDBRANCH   6   7
ENDBRANCH   1   6
BRANCH   4  16
HETATM   16  C8  UNL     1     -19.718  -6.607  10.039  1.00  0.00     0.024 A 
HETATM   17  C9  UNL     1     -19.987  -5.619   8.930  1.00  0.00     0.017 A 
HETATM   18  C10 UNL     1     -21.114  -6.252   9.658  1.00  0.00     0.047 A 
BRANCH  18  19
HETATM   19  C11 UNL     1     -21.897  -5.363  10.639  1.00  0.00     0.258 C 
BRANCH  19  20
HETATM   20  O6  UNL     1     -21.595  -4.036  10.427  1.00  0.00    -0.371 OA
ATOM     21  H6  UNL     1     -21.430  -3.600  11.254  1.00  0.00     0.212 HD
ENDBRANCH  19  20
BRANCH  19  22
HETATM   22  O7  UNL     1     -23.252  -5.596  10.327  1.00  0.00    -0.371 OA
ATOM     23  H7  UNL     1     -23.643  -5.877  11.145  1.00  0.00     0.212 HD
ENDBRANCH  19  22
ENDBRANCH  18  19
ENDBRANCH   4  16
TORSDOF 8
ENDMDL
MODEL 5
REMARK VINA RESULT: -7.131340334      1.558      2.198
REMARK  8 active torsions:
REMARK  status: ('A' for Active; 'I' for Inactive)
REMARK    1  A    between atoms: S1_2  and  C1_5 
REMARK    2  A    between atoms: C2_6  and  S2_7 
REMARK    3  A    between atoms: S2_7  and  C3_10 
REMARK    4  A    between atoms: C3_10  and  C4_11 
REMARK    5  A    between atoms: C7_14  and  C8_15 
REMARK    6  A    between atoms: C10_17  and  C11_18 
REMARK    7  A    between atoms: C11_18  and  O6_19 
REMARK    8  A    between atoms: C11_18  and  O7_21 
ROOT
HETATM    1  C4  UNL     1     -17.274  -8.664  11.269  1.00  0.00     0.136 C 
HETATM    2  C5  UNL     1     -18.456  -9.535  11.567  1.00  0.00     0.035 C 
HETATM    3  C6  UNL     1     -17.884 -10.916  11.207  1.00  0.00     0.035 C 
HETATM    4  C7  UNL     1     -16.757 -10.568  10.312  1.00  0.00     0.126 C 
HETATM    5  O8  UNL     1     -16.850  -9.194  10.034  1.00  0.00    -0.379 OA
ENDROOT
BRANCH   1   6
HETATM    6  C3  UNL     1     -17.612  -7.203  11.129  1.00  0.00     0.176 C 
BRANCH   6   7
HETATM    7  S2  UNL     1     -18.495  -6.842   9.657  1.00  0.00     0.168 S 
HETATM    8  O4  UNL     1     -19.171  -8.040   9.071  1.00  0.00    -0.223 OA
HETATM    9  O5  UNL     1     -17.505  -6.252   8.663  1.00  0.00    -0.223 OA
BRANCH   7  10
HETATM   10  C2  UNL     1     -19.730  -5.644   9.995  1.00  0.00     0.123 C 
HETATM   11  C1  UNL     1     -19.577  -4.906  11.100  1.00  0.00     0.145 C 
BRANCH  11  12
HETATM   12  S1  UNL     1     -20.786  -3.679  11.499  1.00  0.00     0.127 S 
HETATM   13  O1  UNL     1     -20.062  -2.471  12.029  1.00  0.00    -0.592 OA
HETATM   14  O2  UNL     1     -21.584  -3.360  10.278  1.00  0.00    -0.592 OA
HETATM   15  O3  UNL     1     -21.810  -4.225  12.707  1.00  0.00    -0.592 OA
ENDBRANCH  11  12
ENDBRANCH   7  10
ENDBRANCH   6   7
ENDBRANCH   1   6
BRANCH   4  16
HETATM   16  C8  UNL     1     -16.569 -11.388   9.094  1.00  0.00     0.024 A 
HETATM   17  C9  UNL     1     -17.382 -10.986   7.887  1.00  0.00     0.017 A 
HETATM   18  C10 UNL     1     -15.902 -10.912   7.849  1.00  0.00     0.047 A 
BRANCH  18  19
HETATM   19  C11 UNL     1     -15.172 -11.970   7.004  1.00  0.00     0.258 C 
BRANCH  19  20
HETATM   20  O6  UNL     1     -14.495 -11.367   5.966  1.00  0.00    -0.371 OA
ATOM     21  H6  UNL     1     -15.090 -11.184   5.249  1.00  0.00     0.212 HD
ENDBRANCH  19  20
BRANCH  19  22
HETATM   22  O7  UNL     1     -14.248 -12.560   7.891  1.00  0.00    -0.371 OA
ATOM     23  H7  UNL     1     -13.979 -13.361   7.458  1.00  0.00     0.212 HD
ENDBRANCH  19  22
ENDBRANCH  18  19
ENDBRANCH   4  16
TORSDOF 8
ENDMDL
