MODEL 1
REMARK VINA RESULT: -7.628286350      0.000      0.000
REMARK  9 active torsions:
REMARK  status: ('A' for Active; 'I' for Inactive)
REMARK    1  A    between atoms: C2_2  and  C3_3 
REMARK    2  A    between atoms: C2_2  and  N1_25 
REMARK    3  A    between atoms: C3_3  and  O1_4 
REMARK    4  A    between atoms: O1_4  and  C4_5 
REMARK    5  A    between atoms: C10_12  and  O3_13 
REMARK    6  A    between atoms: C10_12  and  C11_15 
REMARK    7  A    between atoms: C11_15  and  O4_16 
REMARK    8  A    between atoms: C12_19  and  C13_20 
REMARK    9  A    between atoms: C13_20  and  O6_21 
ROOT
HETATM    1  C4  UNL     1     -17.907  -7.623  10.213  1.00  0.00     0.150 C 
HETATM    2  C5  UNL     1     -17.943  -8.090  11.653  1.00  0.00     0.035 C 
HETATM    3  C6  UNL     1     -18.108  -9.596  11.421  1.00  0.00     0.011 C 
HETATM    4  C7  UNL     1     -17.015  -9.833  10.422  1.00  0.00     0.030 C 
HETATM    5  C8  UNL     1     -16.960  -8.575   9.573  1.00  0.00     0.156 C 
HETATM    6  O2  UNL     1     -17.312  -8.949   8.289  1.00  0.00    -0.371 OA
HETATM    7  C9  UNL     1     -17.084 -10.281   8.135  1.00  0.00     0.197 C 
HETATM    8  C10 UNL     1     -15.750 -10.668   7.606  1.00  0.00     0.211 C 
HETATM    9  O5  UNL     1     -15.010 -11.173   8.668  1.00  0.00    -0.343 OA
HETATM   10  C12 UNL     1     -15.952 -11.829   9.430  1.00  0.00     0.160 C 
HETATM   11  C14 UNL     1     -17.165 -10.934   9.501  1.00  0.00     0.022 C 
HETATM   12  C15 UNL     1     -18.360 -11.818   9.638  1.00  0.00     0.021 C 
ENDROOT
BRANCH   1  13
HETATM   13  O1  UNL     1     -17.525  -6.292  10.113  1.00  0.00    -0.381 OA
BRANCH  13  14
HETATM   14  C3  UNL     1     -18.595  -5.525  10.570  1.00  0.00     0.203 C 
BRANCH  14  15
HETATM   15  C2  UNL     1     -19.909  -5.977   9.985  1.00  0.00     0.241 C 
HETATM   16  C1  UNL     1     -20.136  -5.470   8.580  1.00  0.00     0.045 C 
BRANCH  15  17
HETATM   17  N1  UNL     1     -20.960  -5.440  10.827  1.00  0.00     0.086 N 
HETATM   18  C16 UNL     1     -20.691  -4.083  11.188  1.00  0.00     0.310 C 
HETATM   19  C17 UNL     1     -22.268  -5.649  10.276  1.00  0.00     0.310 C 
ENDBRANCH  15  17
ENDBRANCH  14  15
ENDBRANCH  13  14
ENDBRANCH   1  13
BRANCH  10  20
HETATM   20  C13 UNL     1     -15.443 -12.308  10.749  1.00  0.00     0.197 C 
BRANCH  20  21
HETATM   21  O6  UNL     1     -15.975 -13.587  11.038  1.00  0.00    -0.398 OA
ATOM     22  H6  UNL     1     -15.453 -14.012  11.710  1.00  0.00     0.209 HD
ENDBRANCH  20  21
ENDBRANCH  10  20
BRANCH   8  23
HETATM   23  O3  UNL     1     -15.024  -9.583   7.108  1.00  0.00    -0.362 OA
ATOM     24  H3  UNL     1     -14.710  -9.722   6.222  1.00  0.00     0.213 HD
ENDBRANCH   8  23
BRANCH   8  25
HETATM   25  C11 UNL     1     -15.806 -11.711   6.511  1.00  0.00     0.235 C 
BRANCH  25  26
HETATM   26  O4  UNL     1     -14.755 -11.523   5.590  1.00  0.00    -0.395 OA
ATOM     27  H4  UNL     1     -14.065 -12.159   5.735  1.00  0.00     0.209 HD
ENDBRANCH  25  26
ENDBRANCH   8  25
TORSDOF 9
ENDMDL
MODEL 2
REMARK VINA RESULT: -5.163558187      1.421      1.621
REMARK  9 active torsions:
REMARK  status: ('A' for Active; 'I' for Inactive)
REMARK    1  A    between atoms: C2_2  and  C3_3 
REMARK    2  A    between atoms: C2_2  and  N1_25 
REMARK    3  A    between atoms: C3_3  and  O1_4 
REMARK    4  A    between atoms: O1_4  and  C4_5 
REMARK    5  A    between atoms: C10_12  and  O3_13 
REMARK    6  A    between atoms: C10_12  and  C11_15 
REMARK    7  A    between atoms: C11_15  and  O4_16 
REMARK    8  A    between atoms: C12_19  and  C13_20 
REMARK    9  A    between atoms: C13_20  and  O6_21 
ROOT
HETATM    1  C4  UNL     1     -18.189  -8.740  10.079  1.00  0.00     0.150 C 
HETATM    2  C5  UNL     1     -17.945  -9.582  11.314  1.00  0.00     0.035 C 
HETATM    3  C6  UNL     1     -17.557 -10.903  10.640  1.00  0.00     0.011 C 
HETATM    4  C7  UNL     1     -16.530 -10.412   9.664  1.00  0.00     0.030 C 
HETATM    5  C8  UNL     1     -17.006  -9.037   9.228  1.00  0.00     0.156 C 
HETATM    6  O2  UNL     1     -17.287  -9.127   7.876  1.00  0.00    -0.371 OA
HETATM    7  C9  UNL     1     -16.595 -10.171   7.345  1.00  0.00     0.197 C 
HETATM    8  C10 UNL     1     -15.254  -9.858   6.784  1.00  0.00     0.211 C 
HETATM    9  O5  UNL     1     -14.305 -10.332   7.680  1.00  0.00    -0.343 OA
HETATM   10  C12 UNL     1     -14.879 -11.484   8.172  1.00  0.00     0.160 C 
HETATM   11  C14 UNL     1     -16.328 -11.171   8.452  1.00  0.00     0.022 C 
HETATM   12  C15 UNL     1     -17.098 -12.437   8.270  1.00  0.00     0.021 C 
ENDROOT
BRANCH   1  13
HETATM   13  O1  UNL     1     -18.335  -7.395  10.393  1.00  0.00    -0.381 OA
BRANCH  13  14
HETATM   14  C3  UNL     1     -19.487  -6.949   9.747  1.00  0.00     0.203 C 
BRANCH  14  15
HETATM   15  C2  UNL     1     -19.678  -5.460   9.889  1.00  0.00     0.241 C 
HETATM   16  C1  UNL     1     -18.444  -4.752  10.396  1.00  0.00     0.045 C 
BRANCH  15  17
HETATM   17  N1  UNL     1     -20.739  -5.254  10.856  1.00  0.00     0.086 N 
HETATM   18  C16 UNL     1     -20.695  -3.932  11.397  1.00  0.00     0.310 C 
HETATM   19  C17 UNL     1     -22.026  -5.635  10.350  1.00  0.00     0.310 C 
ENDBRANCH  15  17
ENDBRANCH  14  15
ENDBRANCH  13  14
ENDBRANCH   1  13
BRANCH  10  20
HETATM   20  C13 UNL     1     -14.134 -12.097   9.312  1.00  0.00     0.197 C 
BRANCH  20  21
HETATM   21  O6  UNL     1     -12.748 -11.844   9.176  1.00  0.00    -0.398 OA
ATOM     22  H6  UNL     1     -12.323 -11.897  10.025  1.00  0.00     0.209 HD
ENDBRANCH  20  21
ENDBRANCH  10  20
BRANCH   8  23
HETATM   23  O3  UNL     1     -15.020  -8.486   6.660  1.00  0.00    -0.362 OA
ATOM     24  H3  UNL     1     -15.790  -8.000   6.389  1.00  0.00     0.213 HD
ENDBRANCH   8  23
BRANCH   8  25
HETATM   25  C11 UNL     1     -14.999 -10.480   5.428  1.00  0.00     0.235 C 
BRANCH  25  26
HETATM   26  O4  UNL     1     -13.783 -10.015   4.888  1.00  0.00    -0.395 OA
ATOM     27  H4  UNL     1     -13.833  -9.970   3.941  1.00  0.00     0.209 HD
ENDBRANCH  25  26
ENDBRANCH   8  25
TORSDOF 9
ENDMDL
MODEL 3
REMARK VINA RESULT: -4.133838411      1.516      3.220
REMARK  9 active torsions:
REMARK  status: ('A' for Active; 'I' for Inactive)
REMARK    1  A    between atoms: C2_2  and  C3_3 
REMARK    2  A    between atoms: C2_2  and  N1_25 
REMARK    3  A    between atoms: C3_3  and  O1_4 
REMARK    4  A    between atoms: O1_4  and  C4_5 
REMARK    5  A    between atoms: C10_12  and  O3_13 
REMARK    6  A    between atoms: C10_12  and  C11_15 
REMARK    7  A    between atoms: C11_15  and  O4_16 
REMARK    8  A    between atoms: C12_19  and  C13_20 
REMARK    9  A    between atoms: C13_20  and  O6_21 
ROOT
HETATM    1  C4  UNL     1     -17.547  -7.692   9.792  1.00  0.00     0.150 C 
HETATM    2  C5  UNL     1     -17.498  -7.352   8.317  1.00  0.00     0.035 C 
HETATM    3  C6  UNL     1     -16.474  -8.396   7.858  1.00  0.00     0.011 C 
HETATM    4  C7  UNL     1     -17.053  -9.630   8.481  1.00  0.00     0.030 C 
HETATM    5  C8  UNL     1     -17.666  -9.174   9.794  1.00  0.00     0.156 C 
HETATM    6  O2  UNL     1     -16.952  -9.799  10.801  1.00  0.00    -0.371 OA
HETATM    7  C9  UNL     1     -16.356 -10.914  10.299  1.00  0.00     0.197 C 
HETATM    8  C10 UNL     1     -17.126 -12.182  10.408  1.00  0.00     0.211 C 
HETATM    9  O5  UNL     1     -17.617 -12.483   9.144  1.00  0.00    -0.343 OA
HETATM   10  C12 UNL     1     -16.614 -12.054   8.302  1.00  0.00     0.160 C 
HETATM   11  C14 UNL     1     -16.154 -10.710   8.811  1.00  0.00     0.022 C 
HETATM   12  C15 UNL     1     -14.712 -10.570   8.449  1.00  0.00     0.021 C 
ENDROOT
BRANCH   1  13
HETATM   13  O1  UNL     1     -18.592  -7.041  10.436  1.00  0.00    -0.381 OA
BRANCH  13  14
HETATM   14  C3  UNL     1     -19.245  -6.270   9.476  1.00  0.00     0.203 C 
BRANCH  14  15
HETATM   15  C2  UNL     1     -19.707  -4.946  10.029  1.00  0.00     0.241 C 
HETATM   16  C1  UNL     1     -18.648  -4.244  10.846  1.00  0.00     0.045 C 
BRANCH  15  17
HETATM   17  N1  UNL     1     -20.836  -5.215  10.899  1.00  0.00     0.086 N 
HETATM   18  C16 UNL     1     -21.121  -4.092  11.737  1.00  0.00     0.310 C 
HETATM   19  C17 UNL     1     -21.974  -5.714  10.184  1.00  0.00     0.310 C 
ENDBRANCH  15  17
ENDBRANCH  14  15
ENDBRANCH  13  14
ENDBRANCH   1  13
BRANCH  10  20
HETATM   20  C13 UNL     1     -16.978 -12.090   6.854  1.00  0.00     0.197 C 
BRANCH  20  21
HETATM   21  O6  UNL     1     -15.807 -12.166   6.063  1.00  0.00    -0.398 OA
ATOM     22  H6  UNL     1     -15.069 -11.800   6.537  1.00  0.00     0.209 HD
ENDBRANCH  20  21
ENDBRANCH  10  20
BRANCH   8  23
HETATM   23  O3  UNL     1     -18.240 -12.075  11.243  1.00  0.00    -0.362 OA
ATOM     24  H3  UNL     1     -19.036 -11.852  10.774  1.00  0.00     0.213 HD
ENDBRANCH   8  23
BRANCH   8  25
HETATM   25  C11 UNL     1     -16.305 -13.353  10.904  1.00  0.00     0.235 C 
BRANCH  25  26
HETATM   26  O4  UNL     1     -17.144 -14.398  11.343  1.00  0.00    -0.395 OA
ATOM     27  H4  UNL     1     -16.758 -14.848  12.085  1.00  0.00     0.209 HD
ENDBRANCH  25  26
ENDBRANCH   8  25
TORSDOF 9
ENDMDL
