MODEL 1
REMARK VINA RESULT: -6.402532248      0.000      0.000
REMARK  9 active torsions:
REMARK  status: ('A' for Active; 'I' for Inactive)
REMARK    1  A    between atoms: N1_2  and  C2_4 
REMARK    2  A    between atoms: C2_4  and  N2_6 
REMARK    3  A    between atoms: N2_6  and  C3_8 
REMARK    4  A    between atoms: C3_8  and  C5_11 
REMARK    5  A    between atoms: C5_11  and  S2_12 
REMARK    6  A    between atoms: S2_12  and  C6_13 
REMARK    7  A    between atoms: C8_16  and  O2_17 
REMARK    8  A    between atoms: C10_19  and  O3_20 
REMARK    9  A    between atoms: C12_22  and  O4_23 
ROOT
HETATM    1  C3  UNL     1      93.531  17.190  29.946  1.00  0.00     0.200 C 
HETATM    2  C4  UNL     1      92.323  17.832  30.549  1.00  0.00     0.085 C 
HETATM    3  N3  UNL     1      91.383  18.333  30.996  1.00  0.00    -0.195 NA
ENDROOT
BRANCH   1   4
HETATM    4  N2  UNL     1      93.037  16.140  29.101  1.00  0.00    -0.349 N 
ATOM      5  H2  UNL     1      92.519  15.369  29.522  1.00  0.00     0.163 HD
BRANCH   4   6
HETATM    6  C2  UNL     1      93.246  16.144  27.706  1.00  0.00     0.168 C 
HETATM    7  S1  UNL     1      93.335  17.555  26.858  1.00  0.00    -0.041 SA
BRANCH   6   8
HETATM    8  N1  UNL     1      93.387  14.946  26.999  1.00  0.00    -0.372 N 
HETATM    9  C1  UNL     1      93.911  14.909  25.644  1.00  0.00     0.148 C 
ATOM     10  H1  UNL     1      93.113  14.072  27.448  1.00  0.00     0.161 HD
ENDBRANCH   6   8
ENDBRANCH   4   6
ENDBRANCH   1   4
BRANCH   1  11
HETATM   11  C5  UNL     1      94.272  16.594  31.164  1.00  0.00     0.116 C 
BRANCH  11  12
HETATM   12  S2  UNL     1      95.776  15.842  30.484  1.00  0.00    -0.134 SA
BRANCH  12  13
HETATM   13  C6  UNL     1      96.887  15.273  31.793  1.00  0.00     0.192 C 
HETATM   14  O1  UNL     1      97.762  16.303  32.142  1.00  0.00    -0.366 OA
HETATM   15  C7  UNL     1      98.880  15.499  31.913  1.00  0.00     0.164 C 
HETATM   16  C8  UNL     1      99.421  15.002  33.211  1.00  0.00     0.181 C 
HETATM   17  C13 UNL     1      98.023  14.444  31.297  1.00  0.00     0.088 C 
HETATM   18  C10 UNL     1      99.306  13.507  33.117  1.00  0.00     0.181 C 
HETATM   19  C12 UNL     1      98.320  13.185  32.031  1.00  0.00     0.159 C 
BRANCH  16  20
HETATM   20  O2  UNL     1     100.766  15.415  33.311  1.00  0.00    -0.385 OA
HETATM   21  C9  UNL     1     100.972  16.175  34.468  1.00  0.00     0.202 C 
ENDBRANCH  16  20
BRANCH  18  22
HETATM   22  O3  UNL     1      98.972  12.929  34.326  1.00  0.00    -0.385 OA
HETATM   23  C11 UNL     1     100.090  12.445  34.954  1.00  0.00     0.202 C 
ENDBRANCH  18  22
BRANCH  19  24
HETATM   24  O4  UNL     1      97.182  12.548  32.516  1.00  0.00    -0.392 OA
ATOM     25  H4  UNL     1      97.219  11.605  32.406  1.00  0.00     0.210 HD
ENDBRANCH  19  24
ENDBRANCH  12  13
ENDBRANCH  11  12
ENDBRANCH   1  11
TORSDOF 9
ENDMDL
MODEL 2
REMARK VINA RESULT: -6.352516070      1.196      1.302
REMARK  9 active torsions:
REMARK  status: ('A' for Active; 'I' for Inactive)
REMARK    1  A    between atoms: N1_2  and  C2_4 
REMARK    2  A    between atoms: C2_4  and  N2_6 
REMARK    3  A    between atoms: N2_6  and  C3_8 
REMARK    4  A    between atoms: C3_8  and  C5_11 
REMARK    5  A    between atoms: C5_11  and  S2_12 
REMARK    6  A    between atoms: S2_12  and  C6_13 
REMARK    7  A    between atoms: C8_16  and  O2_17 
REMARK    8  A    between atoms: C10_19  and  O3_20 
REMARK    9  A    between atoms: C12_22  and  O4_23 
ROOT
HETATM    1  C3  UNL     1      94.082  17.256  30.496  1.00  0.00     0.200 C 
HETATM    2  C4  UNL     1      94.145  16.741  31.899  1.00  0.00     0.085 C 
HETATM    3  N3  UNL     1      94.173  16.345  32.983  1.00  0.00    -0.195 NA
ENDROOT
BRANCH   1   4
HETATM    4  N2  UNL     1      93.260  16.327  29.774  1.00  0.00    -0.349 N 
ATOM      5  H2  UNL     1      93.135  15.385  30.144  1.00  0.00     0.163 HD
BRANCH   4   6
HETATM    6  C2  UNL     1      92.619  16.680  28.567  1.00  0.00     0.168 C 
HETATM    7  S1  UNL     1      91.814  18.110  28.411  1.00  0.00    -0.041 SA
BRANCH   6   8
HETATM    8  N1  UNL     1      92.649  15.823  27.463  1.00  0.00    -0.372 N 
HETATM    9  C1  UNL     1      93.895  15.296  26.932  1.00  0.00     0.148 C 
ATOM     10  H1  UNL     1      91.771  15.559  27.017  1.00  0.00     0.161 HD
ENDBRANCH   6   8
ENDBRANCH   4   6
ENDBRANCH   1   4
BRANCH   1  11
HETATM   11  C5  UNL     1      95.546  17.167  30.010  1.00  0.00     0.116 C 
BRANCH  11  12
HETATM   12  S2  UNL     1      95.958  15.401  30.063  1.00  0.00    -0.134 SA
BRANCH  12  13
HETATM   13  C6  UNL     1      96.979  14.999  31.500  1.00  0.00     0.192 C 
HETATM   14  O1  UNL     1      97.758  16.105  31.843  1.00  0.00    -0.366 OA
HETATM   15  C7  UNL     1      98.937  15.361  31.771  1.00  0.00     0.164 C 
HETATM   16  C8  UNL     1      99.388  14.992  33.144  1.00  0.00     0.181 C 
HETATM   17  C13 UNL     1      98.201  14.212  31.166  1.00  0.00     0.088 C 
HETATM   18  C10 UNL     1      99.369  13.490  33.154  1.00  0.00     0.181 C 
HETATM   19  C12 UNL     1      98.504  13.030  32.016  1.00  0.00     0.159 C 
BRANCH  16  20
HETATM   20  O2  UNL     1     100.692  15.498  33.326  1.00  0.00    -0.385 OA
HETATM   21  C9  UNL     1     100.829  16.093  34.585  1.00  0.00     0.202 C 
ENDBRANCH  16  20
BRANCH  18  22
HETATM   22  O3  UNL     1      98.964  12.978  34.371  1.00  0.00    -0.385 OA
HETATM   23  C11 UNL     1     100.013  12.378  35.016  1.00  0.00     0.202 C 
ENDBRANCH  18  22
BRANCH  19  24
HETATM   24  O4  UNL     1      97.367  12.356  32.450  1.00  0.00    -0.392 OA
ATOM     25  H4  UNL     1      96.567  12.835  32.267  1.00  0.00     0.210 HD
ENDBRANCH  19  24
ENDBRANCH  12  13
ENDBRANCH  11  12
ENDBRANCH   1  11
TORSDOF 9
ENDMDL
MODEL 3
REMARK VINA RESULT: -6.272200841      4.053      8.146
REMARK  9 active torsions:
REMARK  status: ('A' for Active; 'I' for Inactive)
REMARK    1  A    between atoms: N1_2  and  C2_4 
REMARK    2  A    between atoms: C2_4  and  N2_6 
REMARK    3  A    between atoms: N2_6  and  C3_8 
REMARK    4  A    between atoms: C3_8  and  C5_11 
REMARK    5  A    between atoms: C5_11  and  S2_12 
REMARK    6  A    between atoms: S2_12  and  C6_13 
REMARK    7  A    between atoms: C8_16  and  O2_17 
REMARK    8  A    between atoms: C10_19  and  O3_20 
REMARK    9  A    between atoms: C12_22  and  O4_23 
ROOT
HETATM    1  C3  UNL     1      96.825  14.462  32.020  1.00  0.00     0.200 C 
HETATM    2  C4  UNL     1      96.811  14.283  30.536  1.00  0.00     0.085 C 
HETATM    3  N3  UNL     1      96.821  14.145  29.389  1.00  0.00    -0.195 NA
ENDROOT
BRANCH   1   4
HETATM    4  N2  UNL     1      97.449  13.283  32.551  1.00  0.00    -0.349 N 
ATOM      5  H2  UNL     1      96.983  12.383  32.438  1.00  0.00     0.163 HD
BRANCH   4   6
HETATM    6  C2  UNL     1      98.688  13.334  33.224  1.00  0.00     0.168 C 
HETATM    7  S1  UNL     1      99.767  14.548  32.941  1.00  0.00    -0.041 SA
BRANCH   6   8
HETATM    8  N1  UNL     1      99.038  12.352  34.155  1.00  0.00    -0.372 N 
HETATM    9  C1  UNL     1      99.897  12.640  35.292  1.00  0.00     0.148 C 
ATOM     10  H1  UNL     1      98.680  11.404  34.033  1.00  0.00     0.161 HD
ENDBRANCH   6   8
ENDBRANCH   4   6
ENDBRANCH   1   4
BRANCH   1  11
HETATM   11  C5  UNL     1      95.327  14.491  32.397  1.00  0.00     0.116 C 
BRANCH  11  12
HETATM   12  S2  UNL     1      94.864  16.245  32.372  1.00  0.00    -0.134 SA
BRANCH  12  13
HETATM   13  C6  UNL     1      93.746  16.619  31.001  1.00  0.00     0.192 C 
HETATM   14  O1  UNL     1      94.144  15.909  29.867  1.00  0.00    -0.366 OA
HETATM   15  C7  UNL     1      94.220  17.073  29.102  1.00  0.00     0.164 C 
HETATM   16  C8  UNL     1      93.010  17.192  28.237  1.00  0.00     0.181 C 
HETATM   17  C13 UNL     1      94.041  17.914  30.322  1.00  0.00     0.088 C 
HETATM   18  C10 UNL     1      92.354  18.468  28.684  1.00  0.00     0.181 C 
HETATM   19  C12 UNL     1      92.891  18.814  30.042  1.00  0.00     0.159 C 
BRANCH  16  20
HETATM   20  O2  UNL     1      93.437  17.268  26.895  1.00  0.00    -0.385 OA
HETATM   21  C9  UNL     1      93.511  15.994  26.320  1.00  0.00     0.202 C 
ENDBRANCH  16  20
BRANCH  18  22
HETATM   22  O3  UNL     1      90.975  18.385  28.662  1.00  0.00    -0.385 OA
HETATM   23  C11 UNL     1      90.428  19.564  28.227  1.00  0.00     0.202 C 
ENDBRANCH  18  22
BRANCH  19  24
HETATM   24  O4  UNL     1      91.910  18.780  31.028  1.00  0.00    -0.392 OA
ATOM     25  H4  UNL     1      92.147  19.286  31.796  1.00  0.00     0.210 HD
ENDBRANCH  19  24
ENDBRANCH  12  13
ENDBRANCH  11  12
ENDBRANCH   1  11
TORSDOF 9
ENDMDL
MODEL 4
REMARK VINA RESULT: -6.128538139      4.332      7.967
REMARK  9 active torsions:
REMARK  status: ('A' for Active; 'I' for Inactive)
REMARK    1  A    between atoms: N1_2  and  C2_4 
REMARK    2  A    between atoms: C2_4  and  N2_6 
REMARK    3  A    between atoms: N2_6  and  C3_8 
REMARK    4  A    between atoms: C3_8  and  C5_11 
REMARK    5  A    between atoms: C5_11  and  S2_12 
REMARK    6  A    between atoms: S2_12  and  C6_13 
REMARK    7  A    between atoms: C8_16  and  O2_17 
REMARK    8  A    between atoms: C10_19  and  O3_20 
REMARK    9  A    between atoms: C12_22  and  O4_23 
ROOT
HETATM    1  C3  UNL     1     100.080  14.650  32.759  1.00  0.00     0.200 C 
HETATM    2  C4  UNL     1      99.544  13.581  33.656  1.00  0.00     0.085 C 
HETATM    3  N3  UNL     1      99.145  12.758  34.362  1.00  0.00    -0.195 NA
ENDROOT
BRANCH   1   4
HETATM    4  N2  UNL     1      99.979  15.873  33.503  1.00  0.00    -0.349 N 
ATOM      5  H2  UNL     1      99.236  16.532  33.274  1.00  0.00     0.163 HD
BRANCH   4   6
HETATM    6  C2  UNL     1     100.878  16.189  34.545  1.00  0.00     0.168 C 
HETATM    7  S1  UNL     1     100.511  15.867  36.120  1.00  0.00    -0.041 SA
BRANCH   6   8
HETATM    8  N1  UNL     1     102.112  16.786  34.270  1.00  0.00    -0.372 N 
HETATM    9  C1  UNL     1     102.752  17.696  35.205  1.00  0.00     0.148 C 
ATOM     10  H1  UNL     1     102.577  16.576  33.386  1.00  0.00     0.161 HD
ENDBRANCH   6   8
ENDBRANCH   4   6
ENDBRANCH   1   4
BRANCH   1  11
HETATM   11  C5  UNL     1      99.089  14.661  31.574  1.00  0.00     0.116 C 
BRANCH  11  12
HETATM   12  S2  UNL     1      97.584  13.869  32.205  1.00  0.00    -0.134 SA
BRANCH  12  13
HETATM   13  C6  UNL     1      96.093  14.672  31.572  1.00  0.00     0.192 C 
HETATM   14  O1  UNL     1      96.160  14.748  30.179  1.00  0.00    -0.366 OA
HETATM   15  C7  UNL     1      95.960  16.129  30.194  1.00  0.00     0.164 C 
HETATM   16  C8  UNL     1      94.543  16.440  29.845  1.00  0.00     0.181 C 
HETATM   17  C13 UNL     1      96.123  16.160  31.677  1.00  0.00     0.088 C 
HETATM   18  C10 UNL     1      94.004  17.141  31.060  1.00  0.00     0.181 C 
HETATM   19  C12 UNL     1      94.909  16.829  32.216  1.00  0.00     0.159 C 
BRANCH  16  20
HETATM   20  O2  UNL     1      94.546  17.284  28.715  1.00  0.00    -0.385 OA
HETATM   21  C9  UNL     1      93.613  16.852  27.765  1.00  0.00     0.202 C 
ENDBRANCH  16  20
BRANCH  18  22
HETATM   22  O3  UNL     1      92.685  16.814  31.313  1.00  0.00    -0.385 OA
HETATM   23  C11 UNL     1      91.863  17.875  31.039  1.00  0.00     0.202 C 
ENDBRANCH  18  22
BRANCH  19  24
HETATM   24  O4  UNL     1      94.270  16.096  33.211  1.00  0.00    -0.392 OA
ATOM     25  H4  UNL     1      94.741  15.304  33.440  1.00  0.00     0.210 HD
ENDBRANCH  19  24
ENDBRANCH  12  13
ENDBRANCH  11  12
ENDBRANCH   1  11
TORSDOF 9
ENDMDL
MODEL 5
REMARK VINA RESULT: -5.821718223      3.970      8.004
REMARK  9 active torsions:
REMARK  status: ('A' for Active; 'I' for Inactive)
REMARK    1  A    between atoms: N1_2  and  C2_4 
REMARK    2  A    between atoms: C2_4  and  N2_6 
REMARK    3  A    between atoms: N2_6  and  C3_8 
REMARK    4  A    between atoms: C3_8  and  C5_11 
REMARK    5  A    between atoms: C5_11  and  S2_12 
REMARK    6  A    between atoms: S2_12  and  C6_13 
REMARK    7  A    between atoms: C8_16  and  O2_17 
REMARK    8  A    between atoms: C10_19  and  O3_20 
REMARK    9  A    between atoms: C12_22  and  O4_23 
ROOT
HETATM    1  C3  UNL     1      96.732  14.851  31.841  1.00  0.00     0.200 C 
HETATM    2  C4  UNL     1      96.689  14.450  30.401  1.00  0.00     0.085 C 
HETATM    3  N3  UNL     1      96.676  14.137  29.290  1.00  0.00    -0.195 NA
ENDROOT
BRANCH   1   4
HETATM    4  N2  UNL     1      97.144  13.679  32.561  1.00  0.00    -0.349 N 
ATOM      5  H2  UNL     1      96.472  12.926  32.707  1.00  0.00     0.163 HD
BRANCH   4   6
HETATM    6  C2  UNL     1      98.452  13.539  33.074  1.00  0.00     0.168 C 
HETATM    7  S1  UNL     1      99.628  14.643  32.730  1.00  0.00    -0.041 SA
BRANCH   6   8
HETATM    8  N1  UNL     1      98.789  12.457  33.891  1.00  0.00    -0.372 N 
HETATM    9  C1  UNL     1      99.777  12.572  34.951  1.00  0.00     0.148 C 
ATOM     10  H1  UNL     1      98.327  11.560  33.740  1.00  0.00     0.161 HD
ENDBRANCH   6   8
ENDBRANCH   4   6
ENDBRANCH   1   4
BRANCH   1  11
HETATM   11  C5  UNL     1      95.261  15.191  32.168  1.00  0.00     0.116 C 
BRANCH  11  12
HETATM   12  S2  UNL     1      95.114  16.978  31.890  1.00  0.00    -0.134 SA
BRANCH  12  13
HETATM   13  C6  UNL     1      94.382  17.342  30.278  1.00  0.00     0.192 C 
HETATM   14  O1  UNL     1      93.390  18.314  30.425  1.00  0.00    -0.366 OA
HETATM   15  C7  UNL     1      92.435  17.505  29.808  1.00  0.00     0.164 C 
HETATM   16  C8  UNL     1      92.235  17.941  28.396  1.00  0.00     0.181 C 
HETATM   17  C13 UNL     1      93.367  16.340  29.840  1.00  0.00     0.088 C 
HETATM   18  C10 UNL     1      92.630  16.746  27.575  1.00  0.00     0.181 C 
HETATM   19  C12 UNL     1      93.460  15.843  28.441  1.00  0.00     0.159 C 
BRANCH  16  20
HETATM   20  O2  UNL     1      90.872  18.262  28.226  1.00  0.00    -0.385 OA
HETATM   21  C9  UNL     1      90.672  19.646  28.281  1.00  0.00     0.202 C 
ENDBRANCH  16  20
BRANCH  18  22
HETATM   22  O3  UNL     1      93.275  17.103  26.407  1.00  0.00    -0.385 OA
HETATM   23  C11 UNL     1      93.329  16.041  25.542  1.00  0.00     0.202 C 
ENDBRANCH  18  22
BRANCH  19  24
HETATM   24  O4  UNL     1      94.768  15.720  27.984  1.00  0.00    -0.392 OA
ATOM     25  H4  UNL     1      95.113  14.843  28.099  1.00  0.00     0.210 HD
ENDBRANCH  19  24
ENDBRANCH  12  13
ENDBRANCH  11  12
ENDBRANCH   1  11
TORSDOF 9
ENDMDL
