MODEL 1
REMARK VINA RESULT: -7.214169549      0.000      0.000
REMARK  5 active torsions:
REMARK  status: ('A' for Active; 'I' for Inactive)
REMARK    1  A    between atoms: O1_2  and  C2_3 
REMARK    2  A    between atoms: C7_10  and  O4_12 
REMARK    3  A    between atoms: C9_14  and  O5_15 
REMARK    4  A    between atoms: O5_15  and  C10_16 
REMARK    5  A    between atoms: C14_21  and  C15_22 
ROOT
HETATM    1  C2  UNL     1      12.486 -28.723  56.389  1.00  0.00     0.153 C 
HETATM    2  C3  UNL     1      13.401 -27.966  55.369  1.00  0.00     0.147 C 
HETATM    3  C4  UNL     1      14.440 -27.253  56.148  1.00  0.00     0.262 C 
HETATM    4  O2  UNL     1      14.540 -25.998  55.915  1.00  0.00    -0.265 OA
HETATM    5  O3  UNL     1      15.204 -27.936  57.033  1.00  0.00    -0.313 OA
HETATM    6  C5  UNL     1      15.834 -29.179  56.949  1.00  0.00     0.164 C 
HETATM    7  C6  UNL     1      17.261 -28.902  56.519  1.00  0.00     0.043 C 
HETATM    8  C7  UNL     1      15.768 -29.979  58.215  1.00  0.00     0.107 C 
HETATM    9  C8  UNL     1      17.190 -30.227  58.668  1.00  0.00     0.051 C 
HETATM   10  C9  UNL     1      15.047 -29.302  59.331  1.00  0.00     0.171 C 
HETATM   11  C12 UNL     1      13.538 -29.515  59.357  1.00  0.00     0.063 C 
HETATM   12  C13 UNL     1      12.817 -28.233  59.462  1.00  0.00    -0.013 C 
HETATM   13  C14 UNL     1      12.124 -27.494  58.630  1.00  0.00    -0.041 C 
HETATM   14  C19 UNL     1      11.834 -27.698  57.207  1.00  0.00     0.016 C 
ENDROOT
BRANCH  10  15
HETATM   15  O5  UNL     1      15.324 -27.913  59.401  1.00  0.00    -0.313 OA
BRANCH  15  16
HETATM   16  C10 UNL     1      15.805 -27.272  60.521  1.00  0.00     0.255 C 
HETATM   17  C11 UNL     1      15.422 -25.884  60.905  1.00  0.00     0.126 C 
HETATM   18  O6  UNL     1      16.618 -27.923  61.254  1.00  0.00    -0.266 OA
ENDBRANCH  15  16
ENDBRANCH  10  15
BRANCH   8  19
HETATM   19  O4  UNL     1      15.205 -31.229  57.985  1.00  0.00    -0.385 OA
ATOM     20  H4  UNL     1      15.304 -31.792  58.744  1.00  0.00     0.210 HD
ENDBRANCH   8  19
BRANCH  13  21
HETATM   21  C15 UNL     1      11.566 -26.252  59.205  1.00  0.00     0.013 C 
HETATM   22  C16 UNL     1      10.460 -25.962  59.779  1.00  0.00    -0.087 C 
HETATM   23  C17 UNL     1      10.374 -24.471  60.201  1.00  0.00     0.043 C 
HETATM   24  C18 UNL     1       9.275 -26.702  60.149  1.00  0.00     0.043 C 
ENDBRANCH  13  21
BRANCH   1  25
HETATM   25  O1  UNL     1      11.528 -29.439  55.631  1.00  0.00    -0.386 OA
HETATM   26  C1  UNL     1      10.428 -28.671  55.319  1.00  0.00     0.202 C 
ENDBRANCH   1  25
TORSDOF 5
ENDMDL
MODEL 2
REMARK VINA RESULT: -6.779593305      1.989      2.909
REMARK  5 active torsions:
REMARK  status: ('A' for Active; 'I' for Inactive)
REMARK    1  A    between atoms: O1_2  and  C2_3 
REMARK    2  A    between atoms: C7_10  and  O4_12 
REMARK    3  A    between atoms: C9_14  and  O5_15 
REMARK    4  A    between atoms: O5_15  and  C10_16 
REMARK    5  A    between atoms: C14_21  and  C15_22 
ROOT
HETATM    1  C2  UNL     1      15.092 -29.581  56.995  1.00  0.00     0.153 C 
HETATM    2  C3  UNL     1      15.099 -28.713  55.692  1.00  0.00     0.147 C 
HETATM    3  C4  UNL     1      15.065 -27.291  56.105  1.00  0.00     0.262 C 
HETATM    4  O2  UNL     1      14.128 -26.589  55.586  1.00  0.00    -0.265 OA
HETATM    5  O3  UNL     1      15.989 -26.820  56.975  1.00  0.00    -0.313 OA
HETATM    6  C5  UNL     1      17.368 -27.021  57.062  1.00  0.00     0.164 C 
HETATM    7  C6  UNL     1      18.012 -25.853  56.343  1.00  0.00     0.043 C 
HETATM    8  C7  UNL     1      17.871 -27.172  58.466  1.00  0.00     0.107 C 
HETATM    9  C8  UNL     1      18.864 -26.057  58.713  1.00  0.00     0.051 C 
HETATM   10  C9  UNL     1      16.811 -27.077  59.511  1.00  0.00     0.171 C 
HETATM   11  C12 UNL     1      16.101 -28.384  59.840  1.00  0.00     0.063 C 
HETATM   12  C13 UNL     1      14.635 -28.228  59.781  1.00  0.00    -0.013 C 
HETATM   13  C14 UNL     1      13.703 -28.597  58.937  1.00  0.00    -0.041 C 
HETATM   14  C19 UNL     1      13.816 -29.319  57.665  1.00  0.00     0.016 C 
ENDROOT
BRANCH  10  15
HETATM   15  O5  UNL     1      15.845 -26.079  59.222  1.00  0.00    -0.313 OA
BRANCH  15  16
HETATM   16  C10 UNL     1      15.858 -24.809  59.753  1.00  0.00     0.255 C 
HETATM   17  C11 UNL     1      15.837 -24.525  61.216  1.00  0.00     0.126 C 
HETATM   18  O6  UNL     1      15.893 -23.839  58.928  1.00  0.00    -0.266 OA
ENDBRANCH  15  16
ENDBRANCH  10  15
BRANCH   8  19
HETATM   19  O4  UNL     1      18.572 -28.363  58.618  1.00  0.00    -0.385 OA
ATOM     20  H4  UNL     1      19.410 -28.324  58.175  1.00  0.00     0.210 HD
ENDBRANCH   8  19
BRANCH  13  21
HETATM   21  C15 UNL     1      12.326 -28.208  59.309  1.00  0.00     0.013 C 
HETATM   22  C16 UNL     1      11.710 -27.089  59.374  1.00  0.00    -0.087 C 
HETATM   23  C17 UNL     1      10.237 -27.239  59.838  1.00  0.00     0.043 C 
HETATM   24  C18 UNL     1      12.056 -25.713  59.096  1.00  0.00     0.043 C 
ENDBRANCH  13  21
BRANCH   1  25
HETATM   25  O1  UNL     1      15.174 -30.934  56.590  1.00  0.00    -0.386 OA
HETATM   26  C1  UNL     1      14.201 -31.266  55.674  1.00  0.00     0.202 C 
ENDBRANCH   1  25
TORSDOF 5
ENDMDL
MODEL 3
REMARK VINA RESULT: -6.687545094      1.926      3.056
REMARK  5 active torsions:
REMARK  status: ('A' for Active; 'I' for Inactive)
REMARK    1  A    between atoms: O1_2  and  C2_3 
REMARK    2  A    between atoms: C7_10  and  O4_12 
REMARK    3  A    between atoms: C9_14  and  O5_15 
REMARK    4  A    between atoms: O5_15  and  C10_16 
REMARK    5  A    between atoms: C14_21  and  C15_22 
ROOT
HETATM    1  C2  UNL     1      12.294 -27.628  57.263  1.00  0.00     0.153 C 
HETATM    2  C3  UNL     1      12.850 -27.021  55.931  1.00  0.00     0.147 C 
HETATM    3  C4  UNL     1      14.324 -27.168  55.956  1.00  0.00     0.262 C 
HETATM    4  O2  UNL     1      14.989 -26.092  55.764  1.00  0.00    -0.265 OA
HETATM    5  O3  UNL     1      14.875 -28.386  56.172  1.00  0.00    -0.313 OA
HETATM    6  C5  UNL     1      14.556 -29.650  55.673  1.00  0.00     0.164 C 
HETATM    7  C6  UNL     1      15.465 -29.877  54.481  1.00  0.00     0.043 C 
HETATM    8  C7  UNL     1      14.664 -30.748  56.687  1.00  0.00     0.107 C 
HETATM    9  C8  UNL     1      15.697 -31.732  56.181  1.00  0.00     0.051 C 
HETATM   10  C9  UNL     1      15.096 -30.292  58.040  1.00  0.00     0.171 C 
HETATM   11  C12 UNL     1      13.974 -29.828  58.960  1.00  0.00     0.063 C 
HETATM   12  C13 UNL     1      14.264 -28.501  59.534  1.00  0.00    -0.013 C 
HETATM   13  C14 UNL     1      13.818 -27.287  59.319  1.00  0.00    -0.041 C 
HETATM   14  C19 UNL     1      12.827 -26.805  58.351  1.00  0.00     0.016 C 
ENDROOT
BRANCH  10  15
HETATM   15  O5  UNL     1      16.101 -29.293  57.987  1.00  0.00    -0.313 OA
BRANCH  15  16
HETATM   16  C10 UNL     1      17.395 -29.469  58.424  1.00  0.00     0.255 C 
HETATM   17  C11 UNL     1      17.790 -29.454  59.861  1.00  0.00     0.126 C 
HETATM   18  O6  UNL     1      18.285 -29.654  57.532  1.00  0.00    -0.266 OA
ENDBRANCH  15  16
ENDBRANCH  10  15
BRANCH   8  19
HETATM   19  O4  UNL     1      13.470 -31.451  56.790  1.00  0.00    -0.385 OA
ATOM     20  H4  UNL     1      13.110 -31.385  57.666  1.00  0.00     0.210 HD
ENDBRANCH   8  19
BRANCH  13  21
HETATM   21  C15 UNL     1      14.420 -26.236  60.166  1.00  0.00     0.013 C 
HETATM   22  C16 UNL     1      15.566 -25.668  60.191  1.00  0.00    -0.087 C 
HETATM   23  C17 UNL     1      15.686 -24.603  61.314  1.00  0.00     0.043 C 
HETATM   24  C18 UNL     1      16.775 -25.767  59.404  1.00  0.00     0.043 C 
ENDBRANCH  13  21
BRANCH   1  25
HETATM   25  O1  UNL     1      10.884 -27.526  57.206  1.00  0.00    -0.386 OA
HETATM   26  C1  UNL     1      10.400 -27.681  55.926  1.00  0.00     0.202 C 
ENDBRANCH   1  25
TORSDOF 5
ENDMDL
MODEL 4
REMARK VINA RESULT: -6.387269918      2.327      6.001
REMARK  5 active torsions:
REMARK  status: ('A' for Active; 'I' for Inactive)
REMARK    1  A    between atoms: O1_2  and  C2_3 
REMARK    2  A    between atoms: C7_10  and  O4_12 
REMARK    3  A    between atoms: C9_14  and  O5_15 
REMARK    4  A    between atoms: O5_15  and  C10_16 
REMARK    5  A    between atoms: C14_21  and  C15_22 
ROOT
HETATM    1  C2  UNL     1      16.788 -28.366  57.812  1.00  0.00     0.153 C 
HETATM    2  C3  UNL     1      16.910 -26.959  58.487  1.00  0.00     0.147 C 
HETATM    3  C4  UNL     1      15.766 -26.141  58.021  1.00  0.00     0.262 C 
HETATM    4  O2  UNL     1      16.071 -25.011  57.502  1.00  0.00    -0.265 OA
HETATM    5  O3  UNL     1      14.504 -26.609  58.160  1.00  0.00    -0.313 OA
HETATM    6  C5  UNL     1      13.867 -27.260  59.219  1.00  0.00     0.164 C 
HETATM    7  C6  UNL     1      13.142 -26.183  60.002  1.00  0.00     0.043 C 
HETATM    8  C7  UNL     1      12.950 -28.365  58.789  1.00  0.00     0.107 C 
HETATM    9  C8  UNL     1      11.559 -28.011  59.271  1.00  0.00     0.051 C 
HETATM   10  C9  UNL     1      12.881 -28.565  57.312  1.00  0.00     0.171 C 
HETATM   11  C12 UNL     1      13.941 -29.492  56.730  1.00  0.00     0.063 C 
HETATM   12  C13 UNL     1      14.638 -28.863  55.592  1.00  0.00    -0.013 C 
HETATM   13  C14 UNL     1      15.824 -28.332  55.418  1.00  0.00    -0.041 C 
HETATM   14  C19 UNL     1      16.924 -28.152  56.370  1.00  0.00     0.016 C 
ENDROOT
BRANCH  10  15
HETATM   15  O5  UNL     1      12.882 -27.342  56.592  1.00  0.00    -0.313 OA
BRANCH  15  16
HETATM   16  C10 UNL     1      11.825 -26.884  55.839  1.00  0.00     0.255 C 
HETATM   17  C11 UNL     1      10.558 -27.643  55.648  1.00  0.00     0.126 C 
HETATM   18  O6  UNL     1      11.962 -25.744  55.286  1.00  0.00    -0.266 OA
ENDBRANCH  15  16
ENDBRANCH  10  15
BRANCH   8  19
HETATM   19  O4  UNL     1      13.288 -29.562  59.407  1.00  0.00    -0.385 OA
ATOM     20  H4  UNL     1      13.864 -29.413  60.147  1.00  0.00     0.210 HD
ENDBRANCH   8  19
BRANCH  13  21
HETATM   21  C15 UNL     1      16.088 -27.815  54.058  1.00  0.00     0.013 C 
HETATM   22  C16 UNL     1      16.232 -28.369  52.914  1.00  0.00    -0.087 C 
HETATM   23  C17 UNL     1      16.504 -27.344  51.780  1.00  0.00     0.043 C 
HETATM   24  C18 UNL     1      16.180 -29.726  52.420  1.00  0.00     0.043 C 
ENDBRANCH  13  21
BRANCH   1  25
HETATM   25  O1  UNL     1      17.858 -29.153  58.302  1.00  0.00    -0.386 OA
HETATM   26  C1  UNL     1      17.435 -30.378  58.768  1.00  0.00     0.202 C 
ENDBRANCH   1  25
TORSDOF 5
ENDMDL
MODEL 5
REMARK VINA RESULT: -6.314847561      1.994      6.008
REMARK  5 active torsions:
REMARK  status: ('A' for Active; 'I' for Inactive)
REMARK    1  A    between atoms: O1_2  and  C2_3 
REMARK    2  A    between atoms: C7_10  and  O4_12 
REMARK    3  A    between atoms: C9_14  and  O5_15 
REMARK    4  A    between atoms: O5_15  and  C10_16 
REMARK    5  A    between atoms: C14_21  and  C15_22 
ROOT
HETATM    1  C2  UNL     1      15.656 -27.878  59.849  1.00  0.00     0.153 C 
HETATM    2  C3  UNL     1      15.476 -26.387  60.289  1.00  0.00     0.147 C 
HETATM    3  C4  UNL     1      14.678 -25.707  59.242  1.00  0.00     0.262 C 
HETATM    4  O2  UNL     1      15.198 -24.643  58.755  1.00  0.00    -0.265 OA
HETATM    5  O3  UNL     1      13.484 -26.223  58.865  1.00  0.00    -0.313 OA
HETATM    6  C5  UNL     1      12.429 -26.756  59.607  1.00  0.00     0.164 C 
HETATM    7  C6  UNL     1      11.440 -25.625  59.810  1.00  0.00     0.043 C 
HETATM    8  C7  UNL     1      11.793 -27.960  58.979  1.00  0.00     0.107 C 
HETATM    9  C8  UNL     1      10.340 -27.623  58.725  1.00  0.00     0.051 C 
HETATM   10  C9  UNL     1      12.400 -28.365  57.678  1.00  0.00     0.171 C 
HETATM   11  C12 UNL     1      13.597 -29.302  57.781  1.00  0.00     0.063 C 
HETATM   12  C13 UNL     1      14.742 -28.797  57.000  1.00  0.00    -0.013 C 
HETATM   13  C14 UNL     1      15.884 -28.229  57.302  1.00  0.00    -0.041 C 
HETATM   14  C19 UNL     1      16.435 -27.857  58.609  1.00  0.00     0.016 C 
ENDROOT
BRANCH  10  15
HETATM   15  O5  UNL     1      12.743 -27.255  56.863  1.00  0.00    -0.313 OA
BRANCH  15  16
HETATM   16  C10 UNL     1      12.004 -26.827  55.784  1.00  0.00     0.255 C 
HETATM   17  C11 UNL     1      10.989 -27.670  55.092  1.00  0.00     0.126 C 
HETATM   18  O6  UNL     1      12.216 -25.640  55.374  1.00  0.00    -0.266 OA
ENDBRANCH  15  16
ENDBRANCH  10  15
BRANCH   8  19
HETATM   19  O4  UNL     1      11.799 -29.040  59.854  1.00  0.00    -0.385 OA
ATOM     20  H4  UNL     1      10.992 -29.536  59.789  1.00  0.00     0.210 HD
ENDBRANCH   8  19
BRANCH  13  21
HETATM   21  C15 UNL     1      16.743 -27.890  56.147  1.00  0.00     0.013 C 
HETATM   22  C16 UNL     1      17.212 -26.792  55.685  1.00  0.00    -0.087 C 
HETATM   23  C17 UNL     1      18.078 -26.996  54.414  1.00  0.00     0.043 C 
HETATM   24  C18 UNL     1      17.143 -25.404  56.081  1.00  0.00     0.043 C 
ENDBRANCH  13  21
BRANCH   1  25
HETATM   25  O1  UNL     1      16.377 -28.528  60.879  1.00  0.00    -0.386 OA
HETATM   26  C1  UNL     1      17.713 -28.663  60.577  1.00  0.00     0.202 C 
ENDBRANCH   1  25
TORSDOF 5
ENDMDL
