MODEL 1
REMARK VINA RESULT: -6.012092159      0.000      0.000
REMARK  6 active torsions:
REMARK  status: ('A' for Active; 'I' for Inactive)
REMARK    1  A    between atoms: C2_2  and  O1_3 
REMARK    2  A    between atoms: O1_3  and  C3_4 
REMARK    3  A    between atoms: C3_4  and  O3_6 
REMARK    4  A    between atoms: O3_6  and  C4_7 
REMARK    5  A    between atoms: C5_8  and  O4_9 
REMARK    6  A    between atoms: C8_14  and  C9_15 
ROOT
HETATM    1  C4  UNL     1     -31.045  -2.892   0.752  1.00  0.00     0.193 C 
HETATM    2  C5  UNL     1     -31.241  -1.442   0.535  1.00  0.00     0.203 C 
HETATM    3  C7  UNL     1     -31.196  -0.578   1.703  1.00  0.00     0.077 C 
HETATM    4  S1  UNL     1     -30.652   0.730   1.611  1.00  0.00    -0.074 SA
HETATM    5  S2  UNL     1     -31.823  -1.140   3.274  1.00  0.00    -0.107 SA
HETATM    6  C8  UNL     1     -31.579  -2.945   3.231  1.00  0.00     0.044 C 
HETATM    7  C11 UNL     1     -32.776  -3.526   4.003  1.00  0.00     0.125 C 
HETATM    8  C12 UNL     1     -33.860  -3.498   2.956  1.00  0.00     0.219 C 
HETATM    9  O5  UNL     1     -35.081  -3.576   3.161  1.00  0.00    -0.274 OA
HETATM   10  N1  UNL     1     -33.235  -3.365   1.690  1.00  0.00    -0.352 N 
ATOM     11  H1  UNL     1     -33.704  -3.209   0.798  1.00  0.00     0.163 HD
HETATM   12  C13 UNL     1     -31.788  -3.493   1.899  1.00  0.00     0.136 C 
ENDROOT
BRANCH   1  13
HETATM   13  O3  UNL     1     -29.747  -3.362   0.776  1.00  0.00    -0.287 OA
BRANCH  13  14
HETATM   14  C3  UNL     1     -29.375  -4.636   0.454  1.00  0.00     0.406 C 
HETATM   15  O2  UNL     1     -28.690  -5.212   1.323  1.00  0.00    -0.229 OA
BRANCH  14  16
HETATM   16  O1  UNL     1     -29.723  -5.247  -0.733  1.00  0.00    -0.298 OA
BRANCH  16  17
HETATM   17  C2  UNL     1     -29.214  -4.809  -1.978  1.00  0.00     0.176 C 
HETATM   18  C1  UNL     1     -27.775  -5.209  -2.165  1.00  0.00     0.034 C 
ENDBRANCH  16  17
ENDBRANCH  14  16
ENDBRANCH  13  14
ENDBRANCH   1  13
BRANCH   2  19
HETATM   19  O4  UNL     1     -32.469  -1.210  -0.095  1.00  0.00    -0.382 OA
HETATM   20  C6  UNL     1     -32.481  -1.567  -1.422  1.00  0.00     0.202 C 
ENDBRANCH   2  19
BRANCH   6  21
HETATM   21  C9  UNL     1     -30.317  -3.333   3.940  1.00  0.00     0.019 C 
HETATM   22  C10 UNL     1     -30.279  -4.770   4.336  1.00  0.00     0.007 C 
ENDBRANCH   6  21
TORSDOF 6
ENDMDL
MODEL 2
REMARK VINA RESULT: -5.969975653      1.842      2.995
REMARK  6 active torsions:
REMARK  status: ('A' for Active; 'I' for Inactive)
REMARK    1  A    between atoms: C2_2  and  O1_3 
REMARK    2  A    between atoms: O1_3  and  C3_4 
REMARK    3  A    between atoms: C3_4  and  O3_6 
REMARK    4  A    between atoms: O3_6  and  C4_7 
REMARK    5  A    between atoms: C5_8  and  O4_9 
REMARK    6  A    between atoms: C8_14  and  C9_15 
ROOT
HETATM    1  C4  UNL     1     -30.679  -3.020   1.597  1.00  0.00     0.193 C 
HETATM    2  C5  UNL     1     -30.661  -2.333   0.287  1.00  0.00     0.203 C 
HETATM    3  C7  UNL     1     -31.250  -1.006   0.219  1.00  0.00     0.077 C 
HETATM    4  S1  UNL     1     -30.699  -0.016  -0.636  1.00  0.00    -0.074 SA
HETATM    5  S2  UNL     1     -32.677  -0.594   1.204  1.00  0.00    -0.107 SA
HETATM    6  C8  UNL     1     -32.522  -1.654   2.678  1.00  0.00     0.044 C 
HETATM    7  C11 UNL     1     -33.967  -2.017   3.060  1.00  0.00     0.125 C 
HETATM    8  C12 UNL     1     -34.268  -3.139   2.100  1.00  0.00     0.219 C 
HETATM    9  O5  UNL     1     -35.392  -3.566   1.799  1.00  0.00    -0.274 OA
HETATM   10  N1  UNL     1     -33.031  -3.622   1.600  1.00  0.00    -0.352 N 
ATOM     11  H1  UNL     1     -32.908  -4.305   0.853  1.00  0.00     0.163 HD
HETATM   12  C13 UNL     1     -31.963  -2.959   2.355  1.00  0.00     0.136 C 
ENDROOT
BRANCH   1  13
HETATM   13  O3  UNL     1     -29.641  -2.755   2.469  1.00  0.00    -0.287 OA
BRANCH  13  14
HETATM   14  C3  UNL     1     -29.050  -3.682   3.279  1.00  0.00     0.406 C 
HETATM   15  O2  UNL     1     -28.863  -3.302   4.452  1.00  0.00    -0.229 OA
BRANCH  14  16
HETATM   16  O1  UNL     1     -28.684  -4.940   2.846  1.00  0.00    -0.298 OA
BRANCH  16  17
HETATM   17  C2  UNL     1     -29.054  -6.111   3.548  1.00  0.00     0.176 C 
HETATM   18  C1  UNL     1     -30.547  -6.232   3.684  1.00  0.00     0.034 C 
ENDBRANCH  16  17
ENDBRANCH  14  16
ENDBRANCH  13  14
ENDBRANCH   1  13
BRANCH   2  19
HETATM   19  O4  UNL     1     -31.307  -3.115  -0.676  1.00  0.00    -0.382 OA
HETATM   20  C6  UNL     1     -30.456  -3.641  -1.618  1.00  0.00     0.202 C 
ENDBRANCH   2  19
BRANCH   6  21
HETATM   21  C9  UNL     1     -31.898  -0.904   3.816  1.00  0.00     0.019 C 
HETATM   22  C10 UNL     1     -32.869  -0.544   4.888  1.00  0.00     0.007 C 
ENDBRANCH   6  21
TORSDOF 6
ENDMDL
MODEL 3
REMARK VINA RESULT: -5.896277916      1.630      2.064
REMARK  6 active torsions:
REMARK  status: ('A' for Active; 'I' for Inactive)
REMARK    1  A    between atoms: C2_2  and  O1_3 
REMARK    2  A    between atoms: O1_3  and  C3_4 
REMARK    3  A    between atoms: C3_4  and  O3_6 
REMARK    4  A    between atoms: O3_6  and  C4_7 
REMARK    5  A    between atoms: C5_8  and  O4_9 
REMARK    6  A    between atoms: C8_14  and  C9_15 
ROOT
HETATM    1  C4  UNL     1     -31.144  -2.645  -1.154  1.00  0.00     0.193 C 
HETATM    2  C5  UNL     1     -31.376  -1.199  -1.364  1.00  0.00     0.203 C 
HETATM    3  C7  UNL     1     -30.940  -0.292  -0.315  1.00  0.00     0.077 C 
HETATM    4  S1  UNL     1     -30.434   0.994  -0.639  1.00  0.00    -0.074 SA
HETATM    5  S2  UNL     1     -31.031  -0.772   1.399  1.00  0.00    -0.107 SA
HETATM    6  C8  UNL     1     -30.843  -2.584   1.364  1.00  0.00     0.044 C 
HETATM    7  C11 UNL     1     -31.733  -3.098   2.508  1.00  0.00     0.125 C 
HETATM    8  C12 UNL     1     -33.099  -3.077   1.870  1.00  0.00     0.219 C 
HETATM    9  O5  UNL     1     -34.187  -3.110   2.463  1.00  0.00    -0.274 OA
HETATM   10  N1  UNL     1     -32.917  -3.013   0.464  1.00  0.00    -0.352 N 
ATOM     11  H1  UNL     1     -33.648  -2.878  -0.234  1.00  0.00     0.163 HD
HETATM   12  C13 UNL     1     -31.483  -3.177   0.199  1.00  0.00     0.136 C 
ENDROOT
BRANCH   1  13
HETATM   13  O3  UNL     1     -29.915  -3.153  -1.530  1.00  0.00    -0.287 OA
BRANCH  13  14
HETATM   14  C3  UNL     1     -29.634  -4.482  -1.671  1.00  0.00     0.406 C 
HETATM   15  O2  UNL     1     -30.590  -5.174  -2.073  1.00  0.00    -0.229 OA
BRANCH  14  16
HETATM   16  O1  UNL     1     -28.397  -5.025  -1.395  1.00  0.00    -0.298 OA
BRANCH  16  17
HETATM   17  C2  UNL     1     -27.437  -5.256  -2.407  1.00  0.00     0.176 C 
HETATM   18  C1  UNL     1     -26.169  -4.483  -2.161  1.00  0.00     0.034 C 
ENDBRANCH  16  17
ENDBRANCH  14  16
ENDBRANCH  13  14
ENDBRANCH   1  13
BRANCH   2  19
HETATM   19  O4  UNL     1     -32.737  -0.955  -1.571  1.00  0.00    -0.382 OA
HETATM   20  C6  UNL     1     -32.998  -0.236  -2.713  1.00  0.00     0.202 C 
ENDBRANCH   2  19
BRANCH   6  21
HETATM   21  C9  UNL     1     -29.426  -2.983   1.643  1.00  0.00     0.019 C 
HETATM   22  C10 UNL     1     -29.285  -4.401   2.078  1.00  0.00     0.007 C 
ENDBRANCH   6  21
TORSDOF 6
ENDMDL
MODEL 4
REMARK VINA RESULT: -5.721400092      2.077      3.708
REMARK  6 active torsions:
REMARK  status: ('A' for Active; 'I' for Inactive)
REMARK    1  A    between atoms: C2_2  and  O1_3 
REMARK    2  A    between atoms: O1_3  and  C3_4 
REMARK    3  A    between atoms: C3_4  and  O3_6 
REMARK    4  A    between atoms: O3_6  and  C4_7 
REMARK    5  A    between atoms: C5_8  and  O4_9 
REMARK    6  A    between atoms: C8_14  and  C9_15 
ROOT
HETATM    1  C4  UNL     1     -30.281  -3.156   1.276  1.00  0.00     0.193 C 
HETATM    2  C5  UNL     1     -29.756  -3.147  -0.107  1.00  0.00     0.203 C 
HETATM    3  C7  UNL     1     -29.722  -1.871  -0.802  1.00  0.00     0.077 C 
HETATM    4  S1  UNL     1     -28.673  -1.573  -1.711  1.00  0.00    -0.074 SA
HETATM    5  S2  UNL     1     -30.995  -0.653  -0.531  1.00  0.00    -0.107 SA
HETATM    6  C8  UNL     1     -31.547  -0.960   1.178  1.00  0.00     0.044 C 
HETATM    7  C11 UNL     1     -33.055  -0.654   1.169  1.00  0.00     0.125 C 
HETATM    8  C12 UNL     1     -33.625  -1.927   0.597  1.00  0.00     0.219 C 
HETATM    9  O5  UNL     1     -34.755  -2.071   0.109  1.00  0.00    -0.274 OA
HETATM   10  N1  UNL     1     -32.634  -2.935   0.718  1.00  0.00    -0.352 N 
ATOM     11  H1  UNL     1     -32.679  -3.876   0.325  1.00  0.00     0.163 HD
HETATM   12  C13 UNL     1     -31.533  -2.377   1.510  1.00  0.00     0.136 C 
ENDROOT
BRANCH   1  13
HETATM   13  O3  UNL     1     -29.392  -2.874   2.295  1.00  0.00    -0.287 OA
BRANCH  13  14
HETATM   14  C3  UNL     1     -28.998  -3.766   3.252  1.00  0.00     0.406 C 
HETATM   15  O2  UNL     1     -28.936  -3.296   4.405  1.00  0.00    -0.229 OA
BRANCH  14  16
HETATM   16  O1  UNL     1     -28.691  -5.083   2.975  1.00  0.00    -0.298 OA
BRANCH  16  17
HETATM   17  C2  UNL     1     -29.376  -6.156   3.589  1.00  0.00     0.176 C 
HETATM   18  C1  UNL     1     -30.861  -5.921   3.630  1.00  0.00     0.034 C 
ENDBRANCH  16  17
ENDBRANCH  14  16
ENDBRANCH  13  14
ENDBRANCH   1  13
BRANCH   2  19
HETATM   19  O4  UNL     1     -30.493  -4.026  -0.908  1.00  0.00    -0.382 OA
HETATM   20  C6  UNL     1     -29.737  -5.033  -1.457  1.00  0.00     0.202 C 
ENDBRANCH   2  19
BRANCH   6  21
HETATM   21  C9  UNL     1     -30.874  -0.026   2.136  1.00  0.00     0.019 C 
HETATM   22  C10 UNL     1     -31.622   0.152   3.413  1.00  0.00     0.007 C 
ENDBRANCH   6  21
TORSDOF 6
ENDMDL
MODEL 5
REMARK VINA RESULT: -5.714302940      2.221      4.215
REMARK  6 active torsions:
REMARK  status: ('A' for Active; 'I' for Inactive)
REMARK    1  A    between atoms: C2_2  and  O1_3 
REMARK    2  A    between atoms: O1_3  and  C3_4 
REMARK    3  A    between atoms: C3_4  and  O3_6 
REMARK    4  A    between atoms: O3_6  and  C4_7 
REMARK    5  A    between atoms: C5_8  and  O4_9 
REMARK    6  A    between atoms: C8_14  and  C9_15 
ROOT
HETATM    1  C4  UNL     1     -30.087  -3.390   0.902  1.00  0.00     0.193 C 
HETATM    2  C5  UNL     1     -30.544  -3.721   2.270  1.00  0.00     0.203 C 
HETATM    3  C7  UNL     1     -31.916  -3.391   2.615  1.00  0.00     0.077 C 
HETATM    4  S1  UNL     1     -32.660  -4.228   3.487  1.00  0.00    -0.074 SA
HETATM    5  S2  UNL     1     -32.695  -1.931   1.953  1.00  0.00    -0.107 SA
HETATM    6  C8  UNL     1     -31.875  -1.679   0.346  1.00  0.00     0.044 C 
HETATM    7  C11 UNL     1     -31.803  -0.152   0.171  1.00  0.00     0.125 C 
HETATM    8  C12 UNL     1     -30.600   0.198   1.009  1.00  0.00     0.219 C 
HETATM    9  O5  UNL     1     -30.307   1.324   1.438  1.00  0.00    -0.274 OA
HETATM   10  N1  UNL     1     -29.860  -0.994   1.220  1.00  0.00    -0.352 N 
ATOM     11  H1  UNL     1     -29.055  -1.102   1.837  1.00  0.00     0.163 HD
HETATM   12  C13 UNL     1     -30.465  -2.040   0.389  1.00  0.00     0.136 C 
ENDROOT
BRANCH   1  13
HETATM   13  O3  UNL     1     -30.327  -4.319  -0.092  1.00  0.00    -0.287 OA
BRANCH  13  14
HETATM   14  C3  UNL     1     -29.357  -4.953  -0.815  1.00  0.00     0.406 C 
HETATM   15  O2  UNL     1     -29.767  -5.902  -1.513  1.00  0.00    -0.229 OA
BRANCH  14  16
HETATM   16  O1  UNL     1     -28.029  -4.583  -0.783  1.00  0.00    -0.298 OA
BRANCH  16  17
HETATM   17  C2  UNL     1     -27.409  -3.920  -1.868  1.00  0.00     0.176 C 
HETATM   18  C1  UNL     1     -26.010  -4.420  -2.103  1.00  0.00     0.034 C 
ENDBRANCH  16  17
ENDBRANCH  14  16
ENDBRANCH  13  14
ENDBRANCH   1  13
BRANCH   2  19
HETATM   19  O4  UNL     1     -29.725  -3.095   3.215  1.00  0.00    -0.382 OA
HETATM   20  C6  UNL     1     -28.968  -3.973   3.953  1.00  0.00     0.202 C 
ENDBRANCH   2  19
BRANCH   6  21
HETATM   21  C9  UNL     1     -32.693  -2.251  -0.771  1.00  0.00     0.019 C 
HETATM   22  C10 UNL     1     -32.912  -1.296  -1.894  1.00  0.00     0.007 C 
ENDBRANCH   6  21
TORSDOF 6
ENDMDL
