MODEL 1
REMARK VINA RESULT: -7.705459729      0.000      0.000
REMARK  5 active torsions:
REMARK  status: ('A' for Active; 'I' for Inactive)
REMARK    1  A    between atoms: C2_3  and  S1_4 
REMARK    2  A    between atoms: S1_4  and  C3_5 
REMARK    3  A    between atoms: C3_5  and  C4_6 
REMARK       I    between atoms: C4_6  and  N2_8 
REMARK    4  A    between atoms: N2_8  and  C5_10 
REMARK    5  A    between atoms: C9_19  and  N6_20 
ROOT
HETATM    1  C5  UNL     1     -30.135  -4.785   2.733  1.00  0.00     0.114 C 
HETATM    2  C6  UNL     1     -29.057  -3.791   3.226  1.00  0.00     0.055 C 
HETATM    3  C7  UNL     1     -31.481  -4.248   3.175  1.00  0.00     0.055 C 
HETATM    4  C8  UNL     1     -29.892  -6.079   3.367  1.00  0.00     0.090 C 
HETATM    5  N3  UNL     1     -29.688  -7.105   3.873  1.00  0.00    -0.195 NA
ENDROOT
BRANCH   1   6
HETATM    6  N2  UNL     1     -30.079  -4.897   1.311  1.00  0.00    -0.339 N 
HETATM    7  C4  UNL     1     -29.096  -5.495   0.509  1.00  0.00     0.228 C 
HETATM    8  O1  UNL     1     -28.071  -6.045   0.995  1.00  0.00    -0.273 OA
ATOM      9  H2  UNL     1     -30.865  -4.484   0.808  1.00  0.00     0.164 HD
BRANCH   7  10
HETATM   10  C3  UNL     1     -29.210  -5.518  -0.985  1.00  0.00     0.185 C 
BRANCH  10  11
HETATM   11  S1  UNL     1     -29.036  -3.816  -1.570  1.00  0.00    -0.083 SA
BRANCH  11  12
HETATM   12  C2  UNL     1     -30.641  -2.987  -1.531  1.00  0.00     0.177 A 
HETATM   13  N1  UNL     1     -30.826  -1.648  -1.709  1.00  0.00    -0.164 N 
HETATM   14  C1  UNL     1     -29.748  -0.744  -1.965  1.00  0.00     0.177 C 
HETATM   15  C9  UNL     1     -32.133  -1.330  -1.606  1.00  0.00     0.698 A 
HETATM   16  N5  UNL     1     -32.753  -2.503  -1.362  1.00  0.00    -0.130 N 
HETATM   17  N4  UNL     1     -31.850  -3.493  -1.318  1.00  0.00    -0.265 N 
ATOM     18  H5  UNL     1     -33.758  -2.618  -1.229  1.00  0.00     0.205 HD
ATOM     19  H4  UNL     1     -32.058  -4.478  -1.149  1.00  0.00     0.189 HD
BRANCH  15  20
HETATM   20  N6  UNL     1     -32.716  -0.031  -1.732  1.00  0.00    -0.216 N 
HETATM   21  C10 UNL     1     -32.800   0.682  -0.473  1.00  0.00     0.141 C 
HETATM   22  C11 UNL     1     -33.943   1.678  -0.472  1.00  0.00     0.020 C 
HETATM   23  C12 UNL     1     -33.808   2.639  -1.615  1.00  0.00     0.002 C 
HETATM   24  C13 UNL     1     -34.765   2.267  -2.709  1.00  0.00     0.002 C 
HETATM   25  C14 UNL     1     -34.584   0.822  -3.061  1.00  0.00     0.020 C 
HETATM   26  C15 UNL     1     -33.143   0.370  -3.066  1.00  0.00     0.141 C 
ENDBRANCH  15  20
ENDBRANCH  11  12
ENDBRANCH  10  11
ENDBRANCH   7  10
ENDBRANCH   1   6
TORSDOF 5
ENDMDL
MODEL 2
REMARK VINA RESULT: -7.582842491      2.931      4.309
REMARK  5 active torsions:
REMARK  status: ('A' for Active; 'I' for Inactive)
REMARK    1  A    between atoms: C2_3  and  S1_4 
REMARK    2  A    between atoms: S1_4  and  C3_5 
REMARK    3  A    between atoms: C3_5  and  C4_6 
REMARK       I    between atoms: C4_6  and  N2_8 
REMARK    4  A    between atoms: N2_8  and  C5_10 
REMARK    5  A    between atoms: C9_19  and  N6_20 
ROOT
HETATM    1  C5  UNL     1     -29.784  -4.599   2.010  1.00  0.00     0.114 C 
HETATM    2  C6  UNL     1     -29.236  -5.567   3.085  1.00  0.00     0.055 C 
HETATM    3  C7  UNL     1     -29.442  -5.186   0.656  1.00  0.00     0.055 C 
HETATM    4  C8  UNL     1     -29.113  -3.310   2.167  1.00  0.00     0.090 C 
HETATM    5  N3  UNL     1     -28.576  -2.288   2.303  1.00  0.00    -0.195 NA
ENDROOT
BRANCH   1   6
HETATM    6  N2  UNL     1     -31.196  -4.458   2.156  1.00  0.00    -0.339 N 
HETATM    7  C4  UNL     1     -31.927  -3.965   3.247  1.00  0.00     0.228 C 
HETATM    8  O1  UNL     1     -31.372  -3.560   4.304  1.00  0.00    -0.273 OA
ATOM      9  H2  UNL     1     -31.751  -4.756   1.354  1.00  0.00     0.164 HD
BRANCH   7  10
HETATM   10  C3  UNL     1     -33.424  -3.890   3.218  1.00  0.00     0.185 C 
BRANCH  10  11
HETATM   11  S1  UNL     1     -33.877  -2.148   3.036  1.00  0.00    -0.083 SA
BRANCH  11  12
HETATM   12  C2  UNL     1     -32.530  -1.244   2.240  1.00  0.00     0.177 A 
HETATM   13  N1  UNL     1     -32.364  -1.130   0.891  1.00  0.00    -0.164 N 
HETATM   14  C1  UNL     1     -33.267  -1.712  -0.053  1.00  0.00     0.177 C 
HETATM   15  C9  UNL     1     -31.259  -0.412   0.606  1.00  0.00     0.698 A 
HETATM   16  N5  UNL     1     -30.743  -0.084   1.809  1.00  0.00    -0.130 N 
HETATM   17  N4  UNL     1     -31.512  -0.588   2.785  1.00  0.00    -0.265 N 
ATOM     18  H5  UNL     1     -29.895   0.465   1.954  1.00  0.00     0.205 HD
ATOM     19  H4  UNL     1     -31.344  -0.483   3.786  1.00  0.00     0.189 HD
BRANCH  15  20
HETATM   20  N6  UNL     1     -30.757  -0.081  -0.690  1.00  0.00    -0.216 N 
HETATM   21  C10 UNL     1     -30.076  -1.183  -1.339  1.00  0.00     0.141 C 
HETATM   22  C11 UNL     1     -29.029  -0.691  -2.320  1.00  0.00     0.020 C 
HETATM   23  C12 UNL     1     -29.647   0.220  -3.339  1.00  0.00     0.002 C 
HETATM   24  C13 UNL     1     -29.317   1.646  -3.011  1.00  0.00     0.002 C 
HETATM   25  C14 UNL     1     -29.689   1.929  -1.586  1.00  0.00     0.020 C 
HETATM   26  C15 UNL     1     -30.982   1.283  -1.153  1.00  0.00     0.141 C 
ENDBRANCH  15  20
ENDBRANCH  11  12
ENDBRANCH  10  11
ENDBRANCH   7  10
ENDBRANCH   1   6
TORSDOF 5
ENDMDL
MODEL 3
REMARK VINA RESULT: -7.553473524      2.714      4.030
REMARK  5 active torsions:
REMARK  status: ('A' for Active; 'I' for Inactive)
REMARK    1  A    between atoms: C2_3  and  S1_4 
REMARK    2  A    between atoms: S1_4  and  C3_5 
REMARK    3  A    between atoms: C3_5  and  C4_6 
REMARK       I    between atoms: C4_6  and  N2_8 
REMARK    4  A    between atoms: N2_8  and  C5_10 
REMARK    5  A    between atoms: C9_19  and  N6_20 
ROOT
HETATM    1  C5  UNL     1     -30.081  -4.903   3.212  1.00  0.00     0.114 C 
HETATM    2  C6  UNL     1     -29.006  -4.031   3.900  1.00  0.00     0.055 C 
HETATM    3  C7  UNL     1     -29.823  -6.342   3.612  1.00  0.00     0.055 C 
HETATM    4  C8  UNL     1     -29.929  -4.764   1.764  1.00  0.00     0.090 C 
HETATM    5  N3  UNL     1     -29.801  -4.643   0.616  1.00  0.00    -0.195 NA
ENDROOT
BRANCH   1   6
HETATM    6  N2  UNL     1     -31.382  -4.491   3.627  1.00  0.00    -0.339 N 
HETATM    7  C4  UNL     1     -31.837  -3.208   3.967  1.00  0.00     0.228 C 
HETATM    8  O1  UNL     1     -31.084  -2.197   3.940  1.00  0.00    -0.273 OA
ATOM      9  H2  UNL     1     -32.080  -5.233   3.685  1.00  0.00     0.164 HD
BRANCH   7  10
HETATM   10  C3  UNL     1     -33.255  -2.963   4.384  1.00  0.00     0.185 C 
BRANCH  10  11
HETATM   11  S1  UNL     1     -34.011  -1.893   3.137  1.00  0.00    -0.083 SA
BRANCH  11  12
HETATM   12  C2  UNL     1     -33.277  -2.224   1.519  1.00  0.00     0.177 A 
HETATM   13  N1  UNL     1     -32.499  -1.344   0.826  1.00  0.00    -0.164 N 
HETATM   14  C1  UNL     1     -32.164  -0.046   1.326  1.00  0.00     0.177 C 
HETATM   15  C9  UNL     1     -32.116  -1.873  -0.354  1.00  0.00     0.698 A 
HETATM   16  N5  UNL     1     -32.674  -3.101  -0.377  1.00  0.00    -0.130 N 
HETATM   17  N4  UNL     1     -33.370  -3.305   0.752  1.00  0.00    -0.265 N 
ATOM     18  H5  UNL     1     -32.581  -3.773  -1.138  1.00  0.00     0.205 HD
ATOM     19  H4  UNL     1     -33.887  -4.153   0.984  1.00  0.00     0.189 HD
BRANCH  15  20
HETATM   20  N6  UNL     1     -31.300  -1.255  -1.350  1.00  0.00    -0.216 N 
HETATM   21  C10 UNL     1     -29.980  -1.842  -1.454  1.00  0.00     0.141 C 
HETATM   22  C11 UNL     1     -28.962  -0.841  -1.965  1.00  0.00     0.020 C 
HETATM   23  C12 UNL     1     -29.393  -0.278  -3.286  1.00  0.00     0.002 C 
HETATM   24  C13 UNL     1     -29.945   1.104  -3.094  1.00  0.00     0.002 C 
HETATM   25  C14 UNL     1     -31.002   1.076  -2.032  1.00  0.00     0.020 C 
HETATM   26  C15 UNL     1     -31.890  -0.144  -2.086  1.00  0.00     0.141 C 
ENDBRANCH  15  20
ENDBRANCH  11  12
ENDBRANCH  10  11
ENDBRANCH   7  10
ENDBRANCH   1   6
TORSDOF 5
ENDMDL
MODEL 4
REMARK VINA RESULT: -7.542466248      2.192      3.658
REMARK  5 active torsions:
REMARK  status: ('A' for Active; 'I' for Inactive)
REMARK    1  A    between atoms: C2_3  and  S1_4 
REMARK    2  A    between atoms: S1_4  and  C3_5 
REMARK    3  A    between atoms: C3_5  and  C4_6 
REMARK       I    between atoms: C4_6  and  N2_8 
REMARK    4  A    between atoms: N2_8  and  C5_10 
REMARK    5  A    between atoms: C9_19  and  N6_20 
ROOT
HETATM    1  C5  UNL     1     -29.042  -3.059  -1.145  1.00  0.00     0.114 C 
HETATM    2  C6  UNL     1     -28.871  -1.687  -1.839  1.00  0.00     0.055 C 
HETATM    3  C7  UNL     1     -27.910  -3.949  -1.617  1.00  0.00     0.055 C 
HETATM    4  C8  UNL     1     -30.320  -3.630  -1.565  1.00  0.00     0.090 C 
HETATM    5  N3  UNL     1     -31.340  -4.074  -1.903  1.00  0.00    -0.195 NA
ENDROOT
BRANCH   1   6
HETATM    6  N2  UNL     1     -28.999  -2.897   0.272  1.00  0.00    -0.339 N 
HETATM    7  C4  UNL     1     -29.362  -3.805   1.277  1.00  0.00     0.228 C 
HETATM    8  O1  UNL     1     -29.802  -4.958   1.018  1.00  0.00    -0.273 OA
ATOM      9  H2  UNL     1     -28.655  -1.994   0.599  1.00  0.00     0.164 HD
BRANCH   7  10
HETATM   10  C3  UNL     1     -29.246  -3.455   2.729  1.00  0.00     0.185 C 
BRANCH  10  11
HETATM   11  S1  UNL     1     -30.860  -2.847   3.274  1.00  0.00    -0.083 SA
BRANCH  11  12
HETATM   12  C2  UNL     1     -31.956  -2.660   1.850  1.00  0.00     0.177 A 
HETATM   13  N1  UNL     1     -32.094  -1.515   1.123  1.00  0.00    -0.164 N 
HETATM   14  C1  UNL     1     -31.358  -0.322   1.408  1.00  0.00     0.177 C 
HETATM   15  C9  UNL     1     -32.998  -1.682   0.136  1.00  0.00     0.698 A 
HETATM   16  N5  UNL     1     -33.418  -2.958   0.268  1.00  0.00    -0.130 N 
HETATM   17  N4  UNL     1     -32.787  -3.538   1.300  1.00  0.00    -0.265 N 
ATOM     18  H5  UNL     1     -34.111  -3.412  -0.327  1.00  0.00     0.205 HD
ATOM     19  H4  UNL     1     -32.923  -4.500   1.612  1.00  0.00     0.189 HD
BRANCH  15  20
HETATM   20  N6  UNL     1     -33.411  -0.712  -0.828  1.00  0.00    -0.216 N 
HETATM   21  C10 UNL     1     -32.639  -0.758  -2.053  1.00  0.00     0.141 C 
HETATM   22  C11 UNL     1     -32.603   0.593  -2.741  1.00  0.00     0.020 C 
HETATM   23  C12 UNL     1     -33.993   1.085  -3.013  1.00  0.00     0.002 C 
HETATM   24  C13 UNL     1     -34.364   2.140  -2.012  1.00  0.00     0.002 C 
HETATM   25  C14 UNL     1     -34.126   1.619  -0.627  1.00  0.00     0.020 C 
HETATM   26  C15 UNL     1     -34.506   0.170  -0.445  1.00  0.00     0.141 C 
ENDBRANCH  15  20
ENDBRANCH  11  12
ENDBRANCH  10  11
ENDBRANCH   7  10
ENDBRANCH   1   6
TORSDOF 5
ENDMDL
MODEL 5
REMARK VINA RESULT: -7.479058779      2.698      3.938
REMARK  5 active torsions:
REMARK  status: ('A' for Active; 'I' for Inactive)
REMARK    1  A    between atoms: C2_3  and  S1_4 
REMARK    2  A    between atoms: S1_4  and  C3_5 
REMARK    3  A    between atoms: C3_5  and  C4_6 
REMARK       I    between atoms: C4_6  and  N2_8 
REMARK    4  A    between atoms: N2_8  and  C5_10 
REMARK    5  A    between atoms: C9_19  and  N6_20 
ROOT
HETATM    1  C5  UNL     1     -30.032  -4.902   3.294  1.00  0.00     0.114 C 
HETATM    2  C6  UNL     1     -29.771  -4.725   1.780  1.00  0.00     0.055 C 
HETATM    3  C7  UNL     1     -29.050  -4.014   4.031  1.00  0.00     0.055 C 
HETATM    4  C8  UNL     1     -29.784  -6.300   3.643  1.00  0.00     0.090 C 
HETATM    5  N3  UNL     1     -29.589  -7.414   3.908  1.00  0.00    -0.195 NA
ENDROOT
BRANCH   1   6
HETATM    6  N2  UNL     1     -31.375  -4.532   3.602  1.00  0.00    -0.339 N 
HETATM    7  C4  UNL     1     -31.892  -3.269   3.926  1.00  0.00     0.228 C 
HETATM    8  O1  UNL     1     -31.169  -2.238   3.983  1.00  0.00    -0.273 OA
ATOM      9  H2  UNL     1     -32.054  -5.293   3.585  1.00  0.00     0.164 HD
BRANCH   7  10
HETATM   10  C3  UNL     1     -33.348  -3.069   4.221  1.00  0.00     0.185 C 
BRANCH  10  11
HETATM   11  S1  UNL     1     -33.970  -1.818   3.073  1.00  0.00    -0.083 SA
BRANCH  11  12
HETATM   12  C2  UNL     1     -33.309  -2.122   1.419  1.00  0.00     0.177 A 
HETATM   13  N1  UNL     1     -32.447  -1.293   0.764  1.00  0.00    -0.164 N 
HETATM   14  C1  UNL     1     -31.954  -0.079   1.337  1.00  0.00     0.177 C 
HETATM   15  C9  UNL     1     -32.151  -1.782  -0.457  1.00  0.00     0.698 A 
HETATM   16  N5  UNL     1     -32.848  -2.934  -0.545  1.00  0.00    -0.130 N 
HETATM   17  N4  UNL     1     -33.542  -3.131   0.586  1.00  0.00    -0.265 N 
ATOM     18  H5  UNL     1     -32.849  -3.559  -1.350  1.00  0.00     0.205 HD
ATOM     19  H4  UNL     1     -34.150  -3.927   0.777  1.00  0.00     0.189 HD
BRANCH  15  20
HETATM   20  N6  UNL     1     -31.286  -1.197  -1.433  1.00  0.00    -0.216 N 
HETATM   21  C10 UNL     1     -30.018  -1.886  -1.561  1.00  0.00     0.141 C 
HETATM   22  C11 UNL     1     -28.922  -0.953  -2.038  1.00  0.00     0.020 C 
HETATM   23  C12 UNL     1     -29.306  -0.308  -3.337  1.00  0.00     0.002 C 
HETATM   24  C13 UNL     1     -29.742   1.106  -3.093  1.00  0.00     0.002 C 
HETATM   25  C14 UNL     1     -30.799   1.125  -2.030  1.00  0.00     0.020 C 
HETATM   26  C15 UNL     1     -31.783  -0.015  -2.126  1.00  0.00     0.141 C 
ENDBRANCH  15  20
ENDBRANCH  11  12
ENDBRANCH  10  11
ENDBRANCH   7  10
ENDBRANCH   1   6
TORSDOF 5
ENDMDL
