MODEL 1
REMARK VINA RESULT: -7.409879465      0.000      0.000
REMARK  5 active torsions:
REMARK  status: ('A' for Active; 'I' for Inactive)
REMARK    1  A    between atoms: N1_1  and  C1_5 
REMARK    2  A    between atoms: C3_7  and  C4_8 
REMARK    3  A    between atoms: C4_8  and  O1_9 
REMARK    4  A    between atoms: O1_9  and  C5_10 
REMARK       I    between atoms: C5_10  and  N2_12 
REMARK    5  A    between atoms: C9_16  and  C10_17 
ROOT
HETATM    1  C5  UNL     1     -28.670  -5.441   0.020  1.00  0.00     0.363 C 
HETATM    2  O2  UNL     1     -28.128  -6.436   0.622  1.00  0.00    -0.238 OA
HETATM    3  N2  UNL     1     -28.179  -5.113  -1.242  1.00  0.00    -0.318 N 
HETATM    4  C6  UNL     1     -27.054  -5.871  -1.872  1.00  0.00     0.129 C 
HETATM    5  C7  UNL     1     -26.108  -4.692  -2.098  1.00  0.00     0.022 C 
HETATM    6  C8  UNL     1     -27.064  -3.669  -2.674  1.00  0.00     0.033 C 
HETATM    7  C9  UNL     1     -28.448  -4.136  -2.255  1.00  0.00     0.141 C 
ENDROOT
BRANCH   1   8
HETATM    8  O1  UNL     1     -29.673  -4.844   0.737  1.00  0.00    -0.303 OA
BRANCH   8   9
HETATM    9  C4  UNL     1     -29.530  -3.894   1.741  1.00  0.00     0.187 C 
BRANCH   9  10
HETATM   10  C3  UNL     1     -30.573  -2.807   1.713  1.00  0.00     0.042 A 
HETATM   11  C1  UNL     1     -31.282  -2.612   3.045  1.00  0.00     0.190 A 
HETATM   12  C2  UNL     1     -31.992  -3.268   1.925  1.00  0.00     0.042 A 
BRANCH  11  13
HETATM   13  N1  UNL     1     -31.669  -1.257   3.418  1.00  0.00    -0.075 N 
ATOM     14  H13 UNL     1     -32.587  -1.286   3.862  1.00  0.00     0.274 HD
ATOM     15  H12 UNL     1     -31.084  -0.948   4.194  1.00  0.00     0.274 HD
ATOM     16  H11 UNL     1     -31.673  -0.535   2.698  1.00  0.00     0.274 HD
ENDBRANCH  11  13
ENDBRANCH   9  10
ENDBRANCH   8   9
ENDBRANCH   1   8
BRANCH   7  17
HETATM   17  C10 UNL     1     -29.294  -3.005  -1.938  1.00  0.00     0.051 A 
HETATM   18  C11 UNL     1     -28.993  -1.683  -1.694  1.00  0.00     0.067 A 
HETATM   19  C12 UNL     1     -30.167  -0.993  -1.454  1.00  0.00     0.089 A 
HETATM   20  N3  UNL     1     -31.151  -1.894  -1.554  1.00  0.00    -0.285 N 
HETATM   21  S1  UNL     1     -30.534   0.714  -1.077  1.00  0.00    -0.111 SA
HETATM   22  N4  UNL     1     -30.633  -3.087  -1.841  1.00  0.00    -0.300 N 
HETATM   23  C13 UNL     1     -32.562  -1.627  -1.379  1.00  0.00     0.150 C 
ATOM     24  H4  UNL     1     -31.174  -3.942  -1.968  1.00  0.00     0.187 HD
HETATM   25  C14 UNL     1     -32.833  -0.472  -0.487  1.00  0.00     0.032 C 
HETATM   26  C15 UNL     1     -32.341   0.845  -1.101  1.00  0.00     0.082 C 
ENDBRANCH   7  17
TORSDOF 5
ENDMDL
MODEL 2
REMARK VINA RESULT: -7.124841528      1.255      1.578
REMARK  5 active torsions:
REMARK  status: ('A' for Active; 'I' for Inactive)
REMARK    1  A    between atoms: N1_1  and  C1_5 
REMARK    2  A    between atoms: C3_7  and  C4_8 
REMARK    3  A    between atoms: C4_8  and  O1_9 
REMARK    4  A    between atoms: O1_9  and  C5_10 
REMARK       I    between atoms: C5_10  and  N2_12 
REMARK    5  A    between atoms: C9_16  and  C10_17 
ROOT
HETATM    1  C5  UNL     1     -28.649  -5.504  -0.043  1.00  0.00     0.363 C 
HETATM    2  O2  UNL     1     -28.051  -6.464   0.562  1.00  0.00    -0.238 OA
HETATM    3  N2  UNL     1     -28.152  -5.124  -1.288  1.00  0.00    -0.318 N 
HETATM    4  C6  UNL     1     -26.958  -5.789  -1.897  1.00  0.00     0.129 C 
HETATM    5  C7  UNL     1     -26.096  -4.541  -2.084  1.00  0.00     0.022 C 
HETATM    6  C8  UNL     1     -27.110  -3.583  -2.673  1.00  0.00     0.033 C 
HETATM    7  C9  UNL     1     -28.466  -4.157  -2.297  1.00  0.00     0.141 C 
ENDROOT
BRANCH   1   8
HETATM    8  O1  UNL     1     -29.712  -4.992   0.653  1.00  0.00    -0.303 OA
BRANCH   8   9
HETATM    9  C4  UNL     1     -29.693  -3.916   1.532  1.00  0.00     0.187 C 
BRANCH   9  10
HETATM   10  C3  UNL     1     -30.914  -3.818   2.410  1.00  0.00     0.042 A 
HETATM   11  C1  UNL     1     -32.101  -3.157   1.726  1.00  0.00     0.190 A 
HETATM   12  C2  UNL     1     -31.346  -2.417   2.761  1.00  0.00     0.042 A 
BRANCH  11  13
HETATM   13  N1  UNL     1     -33.435  -3.647   2.053  1.00  0.00    -0.075 N 
ATOM     14  H13 UNL     1     -33.353  -4.398   2.738  1.00  0.00     0.274 HD
ATOM     15  H12 UNL     1     -33.924  -2.937   2.596  1.00  0.00     0.274 HD
ATOM     16  H11 UNL     1     -34.040  -3.958   1.293  1.00  0.00     0.274 HD
ENDBRANCH  11  13
ENDBRANCH   9  10
ENDBRANCH   8   9
ENDBRANCH   1   8
BRANCH   7  17
HETATM   17  C10 UNL     1     -29.401  -3.095  -1.990  1.00  0.00     0.051 A 
HETATM   18  C11 UNL     1     -30.773  -3.098  -1.863  1.00  0.00     0.067 A 
HETATM   19  C12 UNL     1     -31.196  -1.822  -1.542  1.00  0.00     0.089 A 
HETATM   20  N3  UNL     1     -30.090  -1.072  -1.481  1.00  0.00    -0.285 N 
HETATM   21  S1  UNL     1     -32.801  -1.101  -1.231  1.00  0.00    -0.111 SA
HETATM   22  N4  UNL     1     -29.026  -1.827  -1.747  1.00  0.00    -0.300 N 
HETATM   23  C13 UNL     1     -30.044   0.342  -1.175  1.00  0.00     0.150 C 
ATOM     24  H4  UNL     1     -28.063  -1.491  -1.765  1.00  0.00     0.187 HD
HETATM   25  C14 UNL     1     -31.292   1.060  -1.536  1.00  0.00     0.032 C 
HETATM   26  C15 UNL     1     -32.479   0.596  -0.683  1.00  0.00     0.082 C 
ENDBRANCH   7  17
TORSDOF 5
ENDMDL
MODEL 3
REMARK VINA RESULT: -6.942814804      1.207      1.467
REMARK  5 active torsions:
REMARK  status: ('A' for Active; 'I' for Inactive)
REMARK    1  A    between atoms: N1_1  and  C1_5 
REMARK    2  A    between atoms: C3_7  and  C4_8 
REMARK    3  A    between atoms: C4_8  and  O1_9 
REMARK    4  A    between atoms: O1_9  and  C5_10 
REMARK       I    between atoms: C5_10  and  N2_12 
REMARK    5  A    between atoms: C9_16  and  C10_17 
ROOT
HETATM    1  C5  UNL     1     -28.617  -5.615  -0.241  1.00  0.00     0.363 C 
HETATM    2  O2  UNL     1     -28.040  -6.629   0.291  1.00  0.00    -0.238 OA
HETATM    3  N2  UNL     1     -28.089  -5.133  -1.437  1.00  0.00    -0.318 N 
HETATM    4  C6  UNL     1     -26.886  -5.754  -2.075  1.00  0.00     0.129 C 
HETATM    5  C7  UNL     1     -26.011  -4.503  -2.134  1.00  0.00     0.022 C 
HETATM    6  C8  UNL     1     -27.005  -3.488  -2.661  1.00  0.00     0.033 C 
HETATM    7  C9  UNL     1     -28.373  -4.079  -2.365  1.00  0.00     0.141 C 
ENDROOT
BRANCH   1   8
HETATM    8  O1  UNL     1     -29.692  -5.155   0.474  1.00  0.00    -0.303 OA
BRANCH   8   9
HETATM    9  C4  UNL     1     -29.713  -4.073   1.345  1.00  0.00     0.187 C 
BRANCH   9  10
HETATM   10  C3  UNL     1     -29.961  -4.446   2.784  1.00  0.00     0.042 A 
HETATM   11  C1  UNL     1     -28.748  -4.246   3.679  1.00  0.00     0.190 A 
HETATM   12  C2  UNL     1     -29.158  -5.614   3.295  1.00  0.00     0.042 A 
BRANCH  11  13
HETATM   13  N1  UNL     1     -28.978  -3.808   5.050  1.00  0.00    -0.075 N 
ATOM     14  H13 UNL     1     -29.800  -4.288   5.417  1.00  0.00     0.274 HD
ATOM     15  H12 UNL     1     -28.245  -4.190   5.647  1.00  0.00     0.274 HD
ATOM     16  H11 UNL     1     -29.069  -2.809   5.235  1.00  0.00     0.274 HD
ENDBRANCH  11  13
ENDBRANCH   9  10
ENDBRANCH   8   9
ENDBRANCH   1   8
BRANCH   7  17
HETATM   17  C10 UNL     1     -29.307  -3.039  -1.988  1.00  0.00     0.051 A 
HETATM   18  C11 UNL     1     -29.116  -1.709  -1.687  1.00  0.00     0.067 A 
HETATM   19  C12 UNL     1     -30.340  -1.133  -1.403  1.00  0.00     0.089 A 
HETATM   20  N3  UNL     1     -31.246  -2.110  -1.534  1.00  0.00    -0.285 N 
HETATM   21  S1  UNL     1     -30.845   0.518  -0.944  1.00  0.00    -0.111 SA
HETATM   22  N4  UNL     1     -30.633  -3.240  -1.880  1.00  0.00    -0.300 N 
HETATM   23  C13 UNL     1     -32.672  -1.972  -1.332  1.00  0.00     0.150 C 
ATOM     24  H4  UNL     1     -31.101  -4.131  -2.041  1.00  0.00     0.187 HD
HETATM   25  C14 UNL     1     -33.027  -0.886  -0.386  1.00  0.00     0.032 C 
HETATM   26  C15 UNL     1     -32.657   0.495  -0.944  1.00  0.00     0.082 C 
ENDBRANCH   7  17
TORSDOF 5
ENDMDL
MODEL 4
REMARK VINA RESULT: -6.884234893      2.568      5.248
REMARK  5 active torsions:
REMARK  status: ('A' for Active; 'I' for Inactive)
REMARK    1  A    between atoms: N1_1  and  C1_5 
REMARK    2  A    between atoms: C3_7  and  C4_8 
REMARK    3  A    between atoms: C4_8  and  O1_9 
REMARK    4  A    between atoms: O1_9  and  C5_10 
REMARK       I    between atoms: C5_10  and  N2_12 
REMARK    5  A    between atoms: C9_16  and  C10_17 
ROOT
HETATM    1  C5  UNL     1     -30.842  -2.367   2.876  1.00  0.00     0.363 C 
HETATM    2  O2  UNL     1     -31.295  -2.307   4.075  1.00  0.00    -0.238 OA
HETATM    3  N2  UNL     1     -31.707  -2.001   1.846  1.00  0.00    -0.318 N 
HETATM    4  C6  UNL     1     -33.115  -1.571   2.115  1.00  0.00     0.129 C 
HETATM    5  C7  UNL     1     -33.820  -2.604   1.236  1.00  0.00     0.022 C 
HETATM    6  C8  UNL     1     -32.978  -2.527  -0.021  1.00  0.00     0.033 C 
HETATM    7  C9  UNL     1     -31.663  -1.905   0.418  1.00  0.00     0.141 C 
ENDROOT
BRANCH   1   8
HETATM    8  O1  UNL     1     -29.543  -2.795   2.799  1.00  0.00    -0.303 OA
BRANCH   8   9
HETATM    9  C4  UNL     1     -28.983  -3.884   3.454  1.00  0.00     0.187 C 
BRANCH   9  10
HETATM   10  C3  UNL     1     -29.612  -5.207   3.097  1.00  0.00     0.042 A 
HETATM   11  C1  UNL     1     -28.835  -6.407   3.613  1.00  0.00     0.190 A 
HETATM   12  C2  UNL     1     -28.803  -6.078   2.172  1.00  0.00     0.042 A 
BRANCH  11  13
HETATM   13  N1  UNL     1     -29.593  -7.575   4.046  1.00  0.00    -0.075 N 
ATOM     14  H13 UNL     1     -30.131  -7.332   4.877  1.00  0.00     0.274 HD
ATOM     15  H12 UNL     1     -30.339  -7.752   3.373  1.00  0.00     0.274 HD
ATOM     16  H11 UNL     1     -29.091  -8.446   4.220  1.00  0.00     0.274 HD
ENDBRANCH  11  13
ENDBRANCH   9  10
ENDBRANCH   8   9
ENDBRANCH   1   8
BRANCH   7  17
HETATM   17  C10 UNL     1     -30.554  -2.503  -0.296  1.00  0.00     0.051 A 
HETATM   18  C11 UNL     1     -29.546  -1.940  -1.048  1.00  0.00     0.067 A 
HETATM   19  C12 UNL     1     -28.716  -2.945  -1.508  1.00  0.00     0.089 A 
HETATM   20  N3  UNL     1     -29.226  -4.089  -1.037  1.00  0.00    -0.285 N 
HETATM   21  S1  UNL     1     -27.241  -2.956  -2.515  1.00  0.00    -0.111 SA
HETATM   22  N4  UNL     1     -30.316  -3.826  -0.318  1.00  0.00    -0.300 N 
HETATM   23  C13 UNL     1     -28.687  -5.412  -1.265  1.00  0.00     0.150 C 
ATOM     24  H4  UNL     1     -30.890  -4.529   0.148  1.00  0.00     0.187 HD
HETATM   25  C14 UNL     1     -27.921  -5.521  -2.531  1.00  0.00     0.032 C 
HETATM   26  C15 UNL     1     -26.646  -4.668  -2.497  1.00  0.00     0.082 C 
ENDBRANCH   7  17
TORSDOF 5
ENDMDL
MODEL 5
REMARK VINA RESULT: -6.789860959      1.615      2.020
REMARK  5 active torsions:
REMARK  status: ('A' for Active; 'I' for Inactive)
REMARK    1  A    between atoms: N1_1  and  C1_5 
REMARK    2  A    between atoms: C3_7  and  C4_8 
REMARK    3  A    between atoms: C4_8  and  O1_9 
REMARK    4  A    between atoms: O1_9  and  C5_10 
REMARK       I    between atoms: C5_10  and  N2_12 
REMARK    5  A    between atoms: C9_16  and  C10_17 
ROOT
HETATM    1  C5  UNL     1     -28.619  -5.661  -0.277  1.00  0.00     0.363 C 
HETATM    2  O2  UNL     1     -28.039  -6.692   0.219  1.00  0.00    -0.238 OA
HETATM    3  N2  UNL     1     -28.096  -5.140  -1.459  1.00  0.00    -0.318 N 
HETATM    4  C6  UNL     1     -26.896  -5.740  -2.122  1.00  0.00     0.129 C 
HETATM    5  C7  UNL     1     -26.021  -4.487  -2.145  1.00  0.00     0.022 C 
HETATM    6  C8  UNL     1     -27.016  -3.455  -2.633  1.00  0.00     0.033 C 
HETATM    7  C9  UNL     1     -28.383  -4.056  -2.351  1.00  0.00     0.141 C 
ENDROOT
BRANCH   1   8
HETATM    8  O1  UNL     1     -29.690  -5.224   0.457  1.00  0.00    -0.303 OA
BRANCH   8   9
HETATM    9  C4  UNL     1     -29.652  -4.592   1.693  1.00  0.00     0.187 C 
BRANCH   9  10
HETATM   10  C3  UNL     1     -28.824  -5.312   2.727  1.00  0.00     0.042 A 
HETATM   11  C1  UNL     1     -29.651  -6.144   3.694  1.00  0.00     0.190 A 
HETATM   12  C2  UNL     1     -29.047  -4.875   4.151  1.00  0.00     0.042 A 
BRANCH  11  13
HETATM   13  N1  UNL     1     -29.083  -7.399   4.171  1.00  0.00    -0.075 N 
ATOM     14  H13 UNL     1     -28.218  -7.585   3.663  1.00  0.00     0.274 HD
ATOM     15  H12 UNL     1     -28.730  -7.264   5.118  1.00  0.00     0.274 HD
ATOM     16  H11 UNL     1     -29.664  -8.238   4.150  1.00  0.00     0.274 HD
ENDBRANCH  11  13
ENDBRANCH   9  10
ENDBRANCH   8   9
ENDBRANCH   1   8
BRANCH   7  17
HETATM   17  C10 UNL     1     -29.316  -3.029  -1.936  1.00  0.00     0.051 A 
HETATM   18  C11 UNL     1     -29.128  -1.701  -1.622  1.00  0.00     0.067 A 
HETATM   19  C12 UNL     1     -30.349  -1.139  -1.299  1.00  0.00     0.089 A 
HETATM   20  N3  UNL     1     -31.249  -2.122  -1.420  1.00  0.00    -0.285 N 
HETATM   21  S1  UNL     1     -30.855   0.501  -0.805  1.00  0.00    -0.111 SA
HETATM   22  N4  UNL     1     -30.636  -3.242  -1.797  1.00  0.00    -0.300 N 
HETATM   23  C13 UNL     1     -32.671  -1.999  -1.180  1.00  0.00     0.150 C 
ATOM     24  H4  UNL     1     -31.102  -4.135  -1.957  1.00  0.00     0.187 HD
HETATM   25  C14 UNL     1     -33.010  -0.928  -0.210  1.00  0.00     0.032 C 
HETATM   26  C15 UNL     1     -32.666   0.463  -0.758  1.00  0.00     0.082 C 
ENDBRANCH   7  17
TORSDOF 5
ENDMDL
