MODEL 1
REMARK VINA RESULT: -5.824886798      0.000      0.000
REMARK  3 active torsions:
REMARK  status: ('A' for Active; 'I' for Inactive)
REMARK    1  A    between atoms: C3_4  and  C4_5 
REMARK    2  A    between atoms: C4_5  and  O1_6 
REMARK    3  A    between atoms: N1_8  and  C5_10 
ROOT
HETATM    1  C4  UNL     1      -4.466   2.238  14.805  1.00  0.00     0.137 C 
HETATM    2  N1  UNL     1      -4.671   2.095  13.532  1.00  0.00    -0.364 N 
ATOM      3  H1  UNL     1      -5.433   1.508  13.194  1.00  0.00     0.162 HD
ENDROOT
BRANCH   2   4
HETATM    4  C5  UNL     1      -3.807   2.777  12.603  1.00  0.00     0.117 C 
HETATM    5  C6  UNL     1      -4.714   3.657  11.736  1.00  0.00     0.204 C 
HETATM    6  O2  UNL     1      -5.425   2.664  11.015  1.00  0.00    -0.319 OA
HETATM    7  C7  UNL     1      -4.530   1.648  10.706  1.00  0.00     0.260 C 
HETATM    8  O3  UNL     1      -4.618   0.743   9.842  1.00  0.00    -0.265 OA
HETATM    9  C8  UNL     1      -3.322   1.754  11.600  1.00  0.00     0.138 C 
ENDBRANCH   2   4
BRANCH   1  10
HETATM   10  C3  UNL     1      -5.352   1.541  15.701  1.00  0.00     0.074 C 
HETATM   11  C2  UNL     1      -6.356   2.154  16.278  1.00  0.00     0.012 C 
HETATM   12  C1  UNL     1      -7.272   1.397  17.216  1.00  0.00     0.062 C 
HETATM   13 CL1  UNL     1      -6.623   3.842  15.953  1.00  0.00    -0.089 Cl
ENDBRANCH   1  10
BRANCH   1  14
HETATM   14  O1  UNL     1      -3.405   3.055  15.241  1.00  0.00    -0.346 OA
ATOM     15  H1  UNL     1      -3.525   3.937  15.571  1.00  0.00     0.219 HD
ENDBRANCH   1  14
TORSDOF 3
ENDMDL
MODEL 2
REMARK VINA RESULT: -5.749975868      2.510      5.055
REMARK  3 active torsions:
REMARK  status: ('A' for Active; 'I' for Inactive)
REMARK    1  A    between atoms: C3_4  and  C4_5 
REMARK    2  A    between atoms: C4_5  and  O1_6 
REMARK    3  A    between atoms: N1_8  and  C5_10 
ROOT
HETATM    1  C4  UNL     1      -4.411   2.753  13.288  1.00  0.00     0.137 C 
HETATM    2  N1  UNL     1      -5.282   2.475  14.208  1.00  0.00    -0.364 N 
ATOM      3  H1  UNL     1      -6.134   1.966  13.975  1.00  0.00     0.162 HD
ENDROOT
BRANCH   2   4
HETATM    4  C5  UNL     1      -5.029   2.896  15.561  1.00  0.00     0.117 C 
HETATM    5  C6  UNL     1      -4.311   1.730  16.249  1.00  0.00     0.204 C 
HETATM    6  O2  UNL     1      -5.352   0.768  16.284  1.00  0.00    -0.319 OA
HETATM    7  C7  UNL     1      -6.534   1.440  16.567  1.00  0.00     0.260 C 
HETATM    8  O3  UNL     1      -7.625   0.990  16.992  1.00  0.00    -0.265 OA
HETATM    9  C8  UNL     1      -6.356   2.910  16.288  1.00  0.00     0.138 C 
ENDBRANCH   2   4
BRANCH   1  10
HETATM   10  C3  UNL     1      -4.700   2.314  11.947  1.00  0.00     0.074 C 
HETATM   11  C2  UNL     1      -4.591   1.054  11.605  1.00  0.00     0.012 C 
HETATM   12  C1  UNL     1      -4.901   0.620  10.188  1.00  0.00     0.062 C 
HETATM   13 CL1  UNL     1      -4.087  -0.110  12.795  1.00  0.00    -0.089 Cl
ENDBRANCH   1  10
BRANCH   1  14
HETATM   14  O1  UNL     1      -3.243   3.458  13.640  1.00  0.00    -0.346 OA
ATOM     15  H1  UNL     1      -2.375   3.073  13.624  1.00  0.00     0.219 HD
ENDBRANCH   1  14
TORSDOF 3
ENDMDL
MODEL 3
REMARK VINA RESULT: -5.650733947      2.727      5.018
REMARK  3 active torsions:
REMARK  status: ('A' for Active; 'I' for Inactive)
REMARK    1  A    between atoms: C3_4  and  C4_5 
REMARK    2  A    between atoms: C4_5  and  O1_6 
REMARK    3  A    between atoms: N1_8  and  C5_10 
ROOT
HETATM    1  C4  UNL     1      -4.933   1.816  11.731  1.00  0.00     0.137 C 
HETATM    2  N1  UNL     1      -4.681   2.385  12.868  1.00  0.00    -0.364 N 
ATOM      3  H1  UNL     1      -4.288   1.847  13.640  1.00  0.00     0.162 HD
ENDROOT
BRANCH   2   4
HETATM    4  C5  UNL     1      -4.962   3.789  13.026  1.00  0.00     0.117 C 
HETATM    5  C6  UNL     1      -3.905   4.335  13.992  1.00  0.00     0.204 C 
HETATM    6  O2  UNL     1      -4.287   3.681  15.191  1.00  0.00    -0.319 OA
HETATM    7  C7  UNL     1      -5.675   3.660  15.234  1.00  0.00     0.260 C 
HETATM    8  O3  UNL     1      -6.440   3.475  16.210  1.00  0.00    -0.265 OA
HETATM    9  C8  UNL     1      -6.224   3.909  13.852  1.00  0.00     0.138 C 
ENDBRANCH   2   4
BRANCH   1  10
HETATM   10  C3  UNL     1      -4.637   0.412  11.613  1.00  0.00     0.074 C 
HETATM   11  C2  UNL     1      -3.425  -0.008  11.347  1.00  0.00     0.012 C 
HETATM   12  C1  UNL     1      -3.141  -1.490  11.228  1.00  0.00     0.062 C 
HETATM   13 CL1  UNL     1      -2.150   1.156  11.132  1.00  0.00    -0.089 Cl
ENDBRANCH   1  10
BRANCH   1  14
HETATM   14  O1  UNL     1      -5.476   2.585  10.684  1.00  0.00    -0.346 OA
ATOM     15  H1  UNL     1      -5.934   3.406  10.821  1.00  0.00     0.219 HD
ENDBRANCH   1  14
TORSDOF 3
ENDMDL
MODEL 4
REMARK VINA RESULT: -5.632838872      0.947      1.088
REMARK  3 active torsions:
REMARK  status: ('A' for Active; 'I' for Inactive)
REMARK    1  A    between atoms: C3_4  and  C4_5 
REMARK    2  A    between atoms: C4_5  and  O1_6 
REMARK    3  A    between atoms: N1_8  and  C5_10 
ROOT
HETATM    1  C4  UNL     1      -4.391   2.342  14.521  1.00  0.00     0.137 C 
HETATM    2  N1  UNL     1      -4.694   1.834  13.367  1.00  0.00    -0.364 N 
ATOM      3  H1  UNL     1      -5.375   1.078  13.297  1.00  0.00     0.162 HD
ENDROOT
BRANCH   2   4
HETATM    4  C5  UNL     1      -4.057   2.353  12.184  1.00  0.00     0.117 C 
HETATM    5  C6  UNL     1      -5.088   2.247  11.056  1.00  0.00     0.204 C 
HETATM    6  O2  UNL     1      -5.175   0.839  10.916  1.00  0.00    -0.319 OA
HETATM    7  C7  UNL     1      -3.895   0.323  11.068  1.00  0.00     0.260 C 
HETATM    8  O3  UNL     1      -3.440  -0.796  10.729  1.00  0.00    -0.265 OA
HETATM    9  C8  UNL     1      -3.019   1.344  11.747  1.00  0.00     0.138 C 
ENDBRANCH   2   4
BRANCH   1  10
HETATM   10  C3  UNL     1      -5.050   1.796  15.679  1.00  0.00     0.074 C 
HETATM   11  C2  UNL     1      -6.008   2.450  16.289  1.00  0.00     0.012 C 
HETATM   12  C1  UNL     1      -6.684   1.854  17.504  1.00  0.00     0.062 C 
HETATM   13 CL1  UNL     1      -6.490   4.009  15.686  1.00  0.00    -0.089 Cl
ENDBRANCH   1  10
BRANCH   1  14
HETATM   14  O1  UNL     1      -3.448   3.385  14.585  1.00  0.00    -0.346 OA
ATOM     15  H1  UNL     1      -2.511   3.250  14.507  1.00  0.00     0.219 HD
ENDBRANCH   1  14
TORSDOF 3
ENDMDL
MODEL 5
REMARK VINA RESULT: -5.595586530      2.961      4.809
REMARK  3 active torsions:
REMARK  status: ('A' for Active; 'I' for Inactive)
REMARK    1  A    between atoms: C3_4  and  C4_5 
REMARK    2  A    between atoms: C4_5  and  O1_6 
REMARK    3  A    between atoms: N1_8  and  C5_10 
ROOT
HETATM    1  C4  UNL     1      -4.009   3.860  14.357  1.00  0.00     0.137 C 
HETATM    2  N1  UNL     1      -4.768   3.035  15.008  1.00  0.00    -0.364 N 
ATOM      3  H1  UNL     1      -5.752   2.931  14.758  1.00  0.00     0.162 HD
ENDROOT
BRANCH   2   4
HETATM    4  C5  UNL     1      -4.204   2.267  16.088  1.00  0.00     0.117 C 
HETATM    5  C6  UNL     1      -4.023   0.841  15.555  1.00  0.00     0.204 C 
HETATM    6  O2  UNL     1      -5.377   0.446  15.406  1.00  0.00    -0.319 OA
HETATM    7  C7  UNL     1      -6.085   0.962  16.484  1.00  0.00     0.260 C 
HETATM    8  O3  UNL     1      -7.207   0.629  16.934  1.00  0.00    -0.265 OA
HETATM    9  C8  UNL     1      -5.290   2.072  17.122  1.00  0.00     0.138 C 
ENDBRANCH   2   4
BRANCH   1  10
HETATM   10  C3  UNL     1      -4.610   4.609  13.284  1.00  0.00     0.074 C 
HETATM   11  C2  UNL     1      -4.993   5.850  13.452  1.00  0.00     0.012 C 
HETATM   12  C1  UNL     1      -5.622   6.615  12.308  1.00  0.00     0.062 C 
HETATM   13 CL1  UNL     1      -4.770   6.607  15.003  1.00  0.00    -0.089 Cl
ENDBRANCH   1  10
BRANCH   1  14
HETATM   14  O1  UNL     1      -2.655   3.982  14.726  1.00  0.00    -0.346 OA
ATOM     15  H1  UNL     1      -2.257   3.484  15.430  1.00  0.00     0.219 HD
ENDBRANCH   1  14
TORSDOF 3
ENDMDL
