MODEL 1
REMARK VINA RESULT: -6.565586814      0.000      0.000
REMARK  4 active torsions:
REMARK  status: ('A' for Active; 'I' for Inactive)
REMARK    1  A    between atoms: C2_2  and  C3_3 
REMARK    2  A    between atoms: C3_3  and  C4_4 
REMARK    3  A    between atoms: C4_4  and  S1_5 
REMARK    4  A    between atoms: S1_5  and  C5_6 
ROOT
HETATM    1  C5  UNL     1       1.996  10.982  24.407  1.00  0.00     0.184 C 
HETATM    2  N1  UNL     1       1.952   9.715  23.709  1.00  0.00    -0.211 N 
ATOM      3  H1  UNL     1       2.707   9.458  23.072  1.00  0.00     0.179 HD
HETATM    4  C6  UNL     1       0.852   8.821  23.911  1.00  0.00     0.672 C 
HETATM    5  N2  UNL     1       1.026   7.567  23.718  1.00  0.00    -0.235 N 
ATOM      6  H21 UNL     1       0.242   6.930  23.862  1.00  0.00     0.174 HD
ATOM      7  H22 UNL     1       1.912   7.157  23.422  1.00  0.00     0.174 HD
HETATM    8  N3  UNL     1      -0.381   9.391  24.321  1.00  0.00    -0.199 N 
ATOM      9  H3  UNL     1      -1.190   8.790  24.478  1.00  0.00     0.183 HD
HETATM   10  C7  UNL     1      -0.482  10.653  24.495  1.00  0.00     0.021 C 
HETATM   11  C8  UNL     1      -1.815  11.186  24.929  1.00  0.00     0.065 C 
HETATM   12  C9  UNL     1       0.624  11.604  24.289  1.00  0.00     0.171 C 
HETATM   13  C10 UNL     1       0.570  12.223  22.952  1.00  0.00     0.072 C 
HETATM   14  N4  UNL     1       0.522  12.695  21.894  1.00  0.00    -0.196 NA
ENDROOT
BRANCH   1  15
HETATM   15  S1  UNL     1       3.181  12.065  23.609  1.00  0.00    -0.141 SA
BRANCH  15  16
HETATM   16  C4  UNL     1       4.079  13.098  24.789  1.00  0.00     0.076 C 
BRANCH  16  17
HETATM   17  C3  UNL     1       3.503  14.489  24.790  1.00  0.00     0.010 C 
BRANCH  17  18
HETATM   18  C2  UNL     1       4.345  15.474  25.544  1.00  0.00    -0.004 C 
HETATM   19  C1  UNL     1       5.797  15.442  25.140  1.00  0.00     0.005 C 
ENDBRANCH  17  18
ENDBRANCH  16  17
ENDBRANCH  15  16
ENDBRANCH   1  15
TORSDOF 4
ENDMDL
MODEL 2
REMARK VINA RESULT: -6.171083518      2.776      5.898
REMARK  4 active torsions:
REMARK  status: ('A' for Active; 'I' for Inactive)
REMARK    1  A    between atoms: C2_2  and  C3_3 
REMARK    2  A    between atoms: C3_3  and  C4_4 
REMARK    3  A    between atoms: C4_4  and  S1_5 
REMARK    4  A    between atoms: S1_5  and  C5_6 
ROOT
HETATM    1  C5  UNL     1      -0.494  10.699  25.111  1.00  0.00     0.184 C 
HETATM    2  N1  UNL     1      -1.333  10.739  23.932  1.00  0.00    -0.211 N 
ATOM      3  H1  UNL     1      -1.808   9.892  23.616  1.00  0.00     0.179 HD
HETATM    4  C6  UNL     1      -1.501  11.963  23.210  1.00  0.00     0.672 C 
HETATM    5  N2  UNL     1      -2.563  12.137  22.516  1.00  0.00    -0.235 N 
ATOM      6  H21 UNL     1      -2.682  13.009  22.001  1.00  0.00     0.174 HD
ATOM      7  H22 UNL     1      -3.310  11.446  22.442  1.00  0.00     0.174 HD
HETATM    8  N3  UNL     1      -0.461  12.925  23.311  1.00  0.00    -0.199 N 
ATOM      9  H3  UNL     1      -0.540  13.811  22.814  1.00  0.00     0.183 HD
HETATM   10  C7  UNL     1       0.573  12.684  24.023  1.00  0.00     0.021 C 
HETATM   11  C8  UNL     1       1.631  13.744  24.085  1.00  0.00     0.065 C 
HETATM   12  C9  UNL     1       0.783  11.433  24.774  1.00  0.00     0.171 C 
HETATM   13  C10 UNL     1       1.616  10.479  24.020  1.00  0.00     0.072 C 
HETATM   14  N4  UNL     1       2.264   9.732  23.412  1.00  0.00    -0.196 NA
ENDROOT
BRANCH   1  15
HETATM   15  S1  UNL     1      -0.085   8.998  25.499  1.00  0.00    -0.141 SA
BRANCH  15  16
HETATM   16  C4  UNL     1      -0.043   8.684  27.278  1.00  0.00     0.076 C 
BRANCH  16  17
HETATM   17  C3  UNL     1       0.098   7.206  27.531  1.00  0.00     0.010 C 
BRANCH  17  18
HETATM   18  C2  UNL     1      -0.128   6.375  26.305  1.00  0.00    -0.004 C 
HETATM   19  C1  UNL     1      -0.577   4.970  26.617  1.00  0.00     0.005 C 
ENDBRANCH  17  18
ENDBRANCH  16  17
ENDBRANCH  15  16
ENDBRANCH   1  15
TORSDOF 4
ENDMDL
MODEL 3
REMARK VINA RESULT: -6.144833487      2.980      5.147
REMARK  4 active torsions:
REMARK  status: ('A' for Active; 'I' for Inactive)
REMARK    1  A    between atoms: C2_2  and  C3_3 
REMARK    2  A    between atoms: C3_3  and  C4_4 
REMARK    3  A    between atoms: C4_4  and  S1_5 
REMARK    4  A    between atoms: S1_5  and  C5_6 
ROOT
HETATM    1  C5  UNL     1      -0.407  10.670  25.158  1.00  0.00     0.184 C 
HETATM    2  N1  UNL     1      -1.270  10.688  23.996  1.00  0.00    -0.211 N 
ATOM      3  H1  UNL     1      -1.740   9.832  23.698  1.00  0.00     0.179 HD
HETATM    4  C6  UNL     1      -1.466  11.903  23.265  1.00  0.00     0.672 C 
HETATM    5  N2  UNL     1      -2.544  12.056  22.590  1.00  0.00    -0.235 N 
ATOM      6  H21 UNL     1      -2.683  12.922  22.070  1.00  0.00     0.174 HD
ATOM      7  H22 UNL     1      -3.283  11.356  22.538  1.00  0.00     0.174 HD
HETATM    8  N3  UNL     1      -0.436  12.877  23.336  1.00  0.00    -0.199 N 
ATOM      9  H3  UNL     1      -0.536  13.758  22.832  1.00  0.00     0.183 HD
HETATM   10  C7  UNL     1       0.614  12.656  24.030  1.00  0.00     0.021 C 
HETATM   11  C8  UNL     1       1.661  13.730  24.060  1.00  0.00     0.065 C 
HETATM   12  C9  UNL     1       0.854  11.416  24.788  1.00  0.00     0.171 C 
HETATM   13  C10 UNL     1       1.684  10.464  24.027  1.00  0.00     0.072 C 
HETATM   14  N4  UNL     1       2.328   9.719  23.414  1.00  0.00    -0.196 NA
ENDROOT
BRANCH   1  15
HETATM   15  S1  UNL     1       0.031   8.978  25.554  1.00  0.00    -0.141 SA
BRANCH  15  16
HETATM   16  C4  UNL     1       0.571   8.785  27.268  1.00  0.00     0.076 C 
BRANCH  16  17
HETATM   17  C3  UNL     1       2.039   8.448  27.304  1.00  0.00     0.010 C 
BRANCH  17  18
HETATM   18  C2  UNL     1       2.527   8.097  28.677  1.00  0.00    -0.004 C 
HETATM   19  C1  UNL     1       2.920   6.648  28.811  1.00  0.00     0.005 C 
ENDBRANCH  17  18
ENDBRANCH  16  17
ENDBRANCH  15  16
ENDBRANCH   1  15
TORSDOF 4
ENDMDL
MODEL 4
REMARK VINA RESULT: -6.133748023      2.548      3.632
REMARK  4 active torsions:
REMARK  status: ('A' for Active; 'I' for Inactive)
REMARK    1  A    between atoms: C2_2  and  C3_3 
REMARK    2  A    between atoms: C3_3  and  C4_4 
REMARK    3  A    between atoms: C4_4  and  S1_5 
REMARK    4  A    between atoms: S1_5  and  C5_6 
ROOT
HETATM    1  C5  UNL     1       0.473   9.994  25.287  1.00  0.00     0.184 C 
HETATM    2  N1  UNL     1      -0.246   8.925  24.628  1.00  0.00    -0.211 N 
ATOM      3  H1  UNL     1      -0.893   9.140  23.868  1.00  0.00     0.179 HD
HETATM    4  C6  UNL     1      -0.052   7.568  25.039  1.00  0.00     0.672 C 
HETATM    5  N2  UNL     1      -0.268   6.626  24.199  1.00  0.00    -0.235 N 
ATOM      6  H21 UNL     1      -0.130   5.659  24.492  1.00  0.00     0.174 HD
ATOM      7  H22 UNL     1      -0.576   6.783  23.239  1.00  0.00     0.174 HD
HETATM    8  N3  UNL     1       0.376   7.348  26.375  1.00  0.00    -0.199 N 
ATOM      9  H3  UNL     1       0.527   6.397  26.709  1.00  0.00     0.183 HD
HETATM   10  C7  UNL     1       0.572   8.338  27.160  1.00  0.00     0.021 C 
HETATM   11  C8  UNL     1       1.023   8.032  28.557  1.00  0.00     0.065 C 
HETATM   12  C9  UNL     1       0.375   9.746  26.774  1.00  0.00     0.171 C 
HETATM   13  C10 UNL     1      -0.951  10.244  27.185  1.00  0.00     0.072 C 
HETATM   14  N4  UNL     1      -2.001  10.620  27.504  1.00  0.00    -0.196 NA
ENDROOT
BRANCH   1  15
HETATM   15  S1  UNL     1      -0.314  11.562  24.920  1.00  0.00    -0.141 SA
BRANCH  15  16
HETATM   16  C4  UNL     1       0.466  12.421  23.534  1.00  0.00     0.076 C 
BRANCH  16  17
HETATM   17  C3  UNL     1       1.323  13.547  24.050  1.00  0.00     0.010 C 
BRANCH  17  18
HETATM   18  C2  UNL     1       2.769  13.175  24.175  1.00  0.00    -0.004 C 
HETATM   19  C1  UNL     1       3.611  14.271  24.775  1.00  0.00     0.005 C 
ENDBRANCH  17  18
ENDBRANCH  16  17
ENDBRANCH  15  16
ENDBRANCH   1  15
TORSDOF 4
ENDMDL
MODEL 5
REMARK VINA RESULT: -6.102454981      3.647      4.755
REMARK  4 active torsions:
REMARK  status: ('A' for Active; 'I' for Inactive)
REMARK    1  A    between atoms: C2_2  and  C3_3 
REMARK    2  A    between atoms: C3_3  and  C4_4 
REMARK    3  A    between atoms: C4_4  and  S1_5 
REMARK    4  A    between atoms: S1_5  and  C5_6 
ROOT
HETATM    1  C5  UNL     1       0.376   9.857  25.476  1.00  0.00     0.184 C 
HETATM    2  N1  UNL     1      -0.318   8.785  24.797  1.00  0.00    -0.211 N 
ATOM      3  H1  UNL     1      -0.962   8.998  24.034  1.00  0.00     0.179 HD
HETATM    4  C6  UNL     1      -0.104   7.425  25.192  1.00  0.00     0.672 C 
HETATM    5  N2  UNL     1      -0.296   6.491  24.337  1.00  0.00    -0.235 N 
ATOM      6  H21 UNL     1      -0.142   5.523  24.619  1.00  0.00     0.174 HD
ATOM      7  H22 UNL     1      -0.599   6.656  23.377  1.00  0.00     0.174 HD
HETATM    8  N3  UNL     1       0.317   7.196  26.528  1.00  0.00    -0.199 N 
ATOM      9  H3  UNL     1       0.483   6.243  26.851  1.00  0.00     0.183 HD
HETATM   10  C7  UNL     1       0.489   8.178  27.328  1.00  0.00     0.021 C 
HETATM   11  C8  UNL     1       0.935   7.862  28.724  1.00  0.00     0.065 C 
HETATM   12  C9  UNL     1       0.271   9.588  26.959  1.00  0.00     0.171 C 
HETATM   13  C10 UNL     1      -1.068  10.056  27.365  1.00  0.00     0.072 C 
HETATM   14  N4  UNL     1      -2.127  10.410  27.680  1.00  0.00    -0.196 NA
ENDROOT
BRANCH   1  15
HETATM   15  S1  UNL     1      -0.436  11.416  25.124  1.00  0.00    -0.141 SA
BRANCH  15  16
HETATM   16  C4  UNL     1      -1.825  11.231  23.983  1.00  0.00     0.076 C 
BRANCH  16  17
HETATM   17  C3  UNL     1      -1.677  12.199  22.838  1.00  0.00     0.010 C 
BRANCH  17  18
HETATM   18  C2  UNL     1      -0.354  12.904  22.833  1.00  0.00    -0.004 C 
HETATM   19  C1  UNL     1       0.258  13.000  21.459  1.00  0.00     0.005 C 
ENDBRANCH  17  18
ENDBRANCH  16  17
ENDBRANCH  15  16
ENDBRANCH   1  15
TORSDOF 4
ENDMDL
