MODEL 1
REMARK VINA RESULT: -6.835948977      0.000      0.000
REMARK  3 active torsions:
REMARK  status: ('A' for Active; 'I' for Inactive)
REMARK    1  A    between atoms: N1_1  and  C1_4 
REMARK    2  A    between atoms: C3_8  and  C4_9 
REMARK    3  A    between atoms: C12_17  and  O3_18 
ROOT
HETATM    1  C4  UNL     1      30.982   9.102  24.525  1.00  0.00     0.054 C 
HETATM    2  C5  UNL     1      31.221   8.723  25.897  1.00  0.00     0.012 C 
HETATM    3  C6  UNL     1      30.660   8.938  27.190  1.00  0.00     0.004 C 
HETATM    4  C7  UNL     1      31.326   7.768  27.994  1.00  0.00     0.027 C 
HETATM    5  C8  UNL     1      32.797   7.747  27.900  1.00  0.00    -0.031 C 
HETATM    6  C9  UNL     1      33.682   7.500  27.000  1.00  0.00    -0.031 C 
HETATM    7  C10 UNL     1      33.628   7.102  25.561  1.00  0.00     0.029 C 
HETATM    8  C11 UNL     1      33.386   8.146  24.555  1.00  0.00     0.036 C 
HETATM    9  C12 UNL     1      32.095   8.253  23.821  1.00  0.00     0.127 C 
ENDROOT
BRANCH   1  10
HETATM   10  C3  UNL     1      31.162  10.504  24.166  1.00  0.00     0.027 A 
HETATM   11  C1  UNL     1      30.193  11.296  23.582  1.00  0.00     0.181 A 
HETATM   12  O1  UNL     1      30.703  12.488  23.396  1.00  0.00    -0.174 OA
HETATM   13  O2  UNL     1      31.910  12.495  23.820  1.00  0.00    -0.202 OA
HETATM   14  C2  UNL     1      32.263  11.329  24.301  1.00  0.00     0.188 A 
BRANCH  11  15
HETATM   15  N1  UNL     1      28.980  10.950  23.261  1.00  0.00    -0.377 N 
ATOM     16  H12 UNL     1      28.666  10.543  22.380  1.00  0.00     0.158 HD
ATOM     17  H11 UNL     1      28.168  11.047  23.870  1.00  0.00     0.158 HD
ENDBRANCH  11  15
ENDBRANCH   1  10
BRANCH   9  18
HETATM   18  O3  UNL     1      31.586   6.992  23.626  1.00  0.00    -0.395 OA
ATOM     19  H3  UNL     1      32.324   6.399  23.538  1.00  0.00     0.210 HD
ENDBRANCH   9  18
TORSDOF 3
ENDMDL
MODEL 2
REMARK VINA RESULT: -6.811160242      2.870      4.238
REMARK  3 active torsions:
REMARK  status: ('A' for Active; 'I' for Inactive)
REMARK    1  A    between atoms: N1_1  and  C1_4 
REMARK    2  A    between atoms: C3_8  and  C4_9 
REMARK    3  A    between atoms: C12_17  and  O3_18 
ROOT
HETATM    1  C4  UNL     1      30.098  12.434  23.686  1.00  0.00     0.054 C 
HETATM    2  C5  UNL     1      31.534  12.364  23.809  1.00  0.00     0.012 C 
HETATM    3  C6  UNL     1      32.669  13.221  23.714  1.00  0.00     0.004 C 
HETATM    4  C7  UNL     1      33.751  12.352  24.442  1.00  0.00     0.027 C 
HETATM    5  C8  UNL     1      33.893  10.994  23.886  1.00  0.00    -0.031 C 
HETATM    6  C9  UNL     1      33.197   9.913  23.844  1.00  0.00    -0.031 C 
HETATM    7  C10 UNL     1      31.853   9.514  24.363  1.00  0.00     0.029 C 
HETATM    8  C11 UNL     1      30.662   9.911  23.601  1.00  0.00     0.036 C 
HETATM    9  C12 UNL     1      29.728  10.965  24.085  1.00  0.00     0.127 C 
ENDROOT
BRANCH   1  10
HETATM   10  C3  UNL     1      29.540  12.718  22.368  1.00  0.00     0.027 A 
HETATM   11  C1  UNL     1      28.345  13.373  22.145  1.00  0.00     0.181 A 
HETATM   12  O1  UNL     1      28.160  13.445  20.850  1.00  0.00    -0.174 OA
HETATM   13  O2  UNL     1      29.146  12.888  20.257  1.00  0.00    -0.202 OA
HETATM   14  C2  UNL     1      30.025  12.421  21.108  1.00  0.00     0.188 A 
BRANCH  11  15
HETATM   15  N1  UNL     1      27.527  13.847  23.039  1.00  0.00    -0.377 N 
ATOM     16  H12 UNL     1      27.766  14.242  23.948  1.00  0.00     0.158 HD
ATOM     17  H11 UNL     1      26.513  13.883  22.937  1.00  0.00     0.158 HD
ENDBRANCH  11  15
ENDBRANCH   1  10
BRANCH   9  18
HETATM   18  O3  UNL     1      29.671  10.915  25.457  1.00  0.00    -0.395 OA
ATOM     19  H3  UNL     1      29.965  11.757  25.784  1.00  0.00     0.210 HD
ENDBRANCH   9  18
TORSDOF 3
ENDMDL
MODEL 3
REMARK VINA RESULT: -6.791862117      2.325      4.858
REMARK  3 active torsions:
REMARK  status: ('A' for Active; 'I' for Inactive)
REMARK    1  A    between atoms: N1_1  and  C1_4 
REMARK    2  A    between atoms: C3_8  and  C4_9 
REMARK    3  A    between atoms: C12_17  and  O3_18 
ROOT
HETATM    1  C4  UNL     1      31.301   9.163  24.119  1.00  0.00     0.054 C 
HETATM    2  C5  UNL     1      32.519   9.905  23.896  1.00  0.00     0.012 C 
HETATM    3  C6  UNL     1      33.910   9.663  23.699  1.00  0.00     0.004 C 
HETATM    4  C7  UNL     1      34.362  11.039  23.098  1.00  0.00     0.027 C 
HETATM    5  C8  UNL     1      33.998  12.198  23.933  1.00  0.00    -0.031 C 
HETATM    6  C9  UNL     1      32.923  12.814  24.276  1.00  0.00    -0.031 C 
HETATM    7  C10 UNL     1      31.470  12.630  23.974  1.00  0.00     0.029 C 
HETATM    8  C11 UNL     1      30.724  11.611  24.725  1.00  0.00     0.036 C 
HETATM    9  C12 UNL     1      30.269  10.341  24.094  1.00  0.00     0.127 C 
ENDROOT
BRANCH   1  10
HETATM   10  C3  UNL     1      31.165   8.444  25.381  1.00  0.00     0.027 A 
HETATM   11  C1  UNL     1      31.066   7.071  25.495  1.00  0.00     0.181 A 
HETATM   12  O1  UNL     1      30.951   6.780  26.768  1.00  0.00    -0.174 OA
HETATM   13  O2  UNL     1      30.971   7.863  27.446  1.00  0.00    -0.202 OA
HETATM   14  C2  UNL     1      31.098   8.916  26.678  1.00  0.00     0.188 A 
BRANCH  11  15
HETATM   15  N1  UNL     1      31.082   6.196  24.533  1.00  0.00    -0.377 N 
ATOM     16  H12 UNL     1      31.309   5.204  24.602  1.00  0.00     0.158 HD
ATOM     17  H11 UNL     1      30.862   6.400  23.558  1.00  0.00     0.158 HD
ENDBRANCH  11  15
ENDBRANCH   1  10
BRANCH   9  18
HETATM   18  O3  UNL     1      29.953  10.582  22.779  1.00  0.00    -0.395 OA
ATOM     19  H3  UNL     1      29.386  11.344  22.759  1.00  0.00     0.210 HD
ENDBRANCH   9  18
TORSDOF 3
ENDMDL
MODEL 4
REMARK VINA RESULT: -6.657342021      2.448      3.695
REMARK  3 active torsions:
REMARK  status: ('A' for Active; 'I' for Inactive)
REMARK    1  A    between atoms: N1_1  and  C1_4 
REMARK    2  A    between atoms: C3_8  and  C4_9 
REMARK    3  A    between atoms: C12_17  and  O3_18 
ROOT
HETATM    1  C4  UNL     1      32.333   9.972  25.601  1.00  0.00     0.054 C 
HETATM    2  C5  UNL     1      33.327  10.153  24.571  1.00  0.00     0.012 C 
HETATM    3  C6  UNL     1      33.846  11.189  23.741  1.00  0.00     0.004 C 
HETATM    4  C7  UNL     1      35.194  10.539  23.273  1.00  0.00     0.027 C 
HETATM    5  C8  UNL     1      35.028   9.211  22.655  1.00  0.00    -0.031 C 
HETATM    6  C9  UNL     1      34.704   8.026  23.037  1.00  0.00    -0.031 C 
HETATM    7  C10 UNL     1      34.325   7.417  24.348  1.00  0.00     0.029 C 
HETATM    8  C11 UNL     1      32.944   7.582  24.824  1.00  0.00     0.036 C 
HETATM    9  C12 UNL     1      32.604   8.473  25.967  1.00  0.00     0.127 C 
ENDROOT
BRANCH   1  10
HETATM   10  C3  UNL     1      30.930  10.120  25.227  1.00  0.00     0.027 A 
HETATM   11  C1  UNL     1      29.891  10.273  26.122  1.00  0.00     0.181 A 
HETATM   12  O1  UNL     1      28.779  10.369  25.436  1.00  0.00    -0.174 OA
HETATM   13  O2  UNL     1      29.050  10.288  24.189  1.00  0.00    -0.202 OA
HETATM   14  C2  UNL     1      30.334  10.135  23.980  1.00  0.00     0.188 A 
BRANCH  11  15
HETATM   15  N1  UNL     1      29.967  10.319  27.420  1.00  0.00    -0.377 N 
ATOM     16  H12 UNL     1      30.771  10.597  27.982  1.00  0.00     0.158 HD
ATOM     17  H11 UNL     1      29.209  10.074  28.056  1.00  0.00     0.158 HD
ENDBRANCH  11  15
ENDBRANCH   1  10
BRANCH   9  18
HETATM   18  O3  UNL     1      33.636   8.452  26.873  1.00  0.00    -0.395 OA
ATOM     19  H3  UNL     1      34.286   7.839  26.550  1.00  0.00     0.210 HD
ENDBRANCH   9  18
TORSDOF 3
ENDMDL
MODEL 5
REMARK VINA RESULT: -6.634974717      2.202      3.426
REMARK  3 active torsions:
REMARK  status: ('A' for Active; 'I' for Inactive)
REMARK    1  A    between atoms: N1_1  and  C1_4 
REMARK    2  A    between atoms: C3_8  and  C4_9 
REMARK    3  A    between atoms: C12_17  and  O3_18 
ROOT
HETATM    1  C4  UNL     1      31.644  11.124  24.255  1.00  0.00     0.054 C 
HETATM    2  C5  UNL     1      33.001  10.857  23.842  1.00  0.00     0.012 C 
HETATM    3  C6  UNL     1      34.124  11.555  23.308  1.00  0.00     0.004 C 
HETATM    4  C7  UNL     1      35.273  10.532  23.614  1.00  0.00     0.027 C 
HETATM    5  C8  UNL     1      35.017   9.179  23.088  1.00  0.00    -0.031 C 
HETATM    6  C9  UNL     1      34.217   8.204  23.340  1.00  0.00    -0.031 C 
HETATM    7  C10 UNL     1      33.120   7.980  24.331  1.00  0.00     0.029 C 
HETATM    8  C11 UNL     1      31.796   8.550  24.048  1.00  0.00     0.036 C 
HETATM    9  C12 UNL     1      31.256   9.711  24.809  1.00  0.00     0.127 C 
ENDROOT
BRANCH   1  10
HETATM   10  C3  UNL     1      30.683  11.507  23.226  1.00  0.00     0.027 A 
HETATM   11  C1  UNL     1      29.345  11.165  23.235  1.00  0.00     0.181 A 
HETATM   12  O1  UNL     1      28.792  11.671  22.161  1.00  0.00    -0.174 OA
HETATM   13  O2  UNL     1      29.682  12.298  21.490  1.00  0.00    -0.202 OA
HETATM   14  C2  UNL     1      30.855  12.245  22.070  1.00  0.00     0.188 A 
BRANCH  11  15
HETATM   15  N1  UNL     1      28.716  10.467  24.135  1.00  0.00    -0.377 N 
ATOM     16  H12 UNL     1      29.097   9.722  24.718  1.00  0.00     0.158 HD
ATOM     17  H11 UNL     1      27.731  10.581  24.376  1.00  0.00     0.158 HD
ENDBRANCH  11  15
ENDBRANCH   1  10
BRANCH   9  18
HETATM   18  O3  UNL     1      31.703   9.643  26.106  1.00  0.00    -0.395 OA
ATOM     19  H3  UNL     1      32.504  10.153  26.158  1.00  0.00     0.210 HD
ENDBRANCH   9  18
TORSDOF 3
ENDMDL
