MODEL 1
REMARK VINA RESULT: -6.621452543      0.000      0.000
REMARK  3 active torsions:
REMARK  status: ('A' for Active; 'I' for Inactive)
REMARK    1  A    between atoms: C3_5  and  N2_6 
REMARK    2  A    between atoms: N2_6  and  C4_8 
REMARK    3  A    between atoms: C10_16  and  O1_17 
ROOT
HETATM    1  N1  UNL     1      32.230   7.012  29.201  1.00  0.00    -0.191 NA
HETATM    2  C1  UNL     1      31.872   7.427  28.183  1.00  0.00     0.111 C 
HETATM    3  C2  UNL     1      31.415   7.972  26.910  1.00  0.00     0.139 A 
HETATM    4  S1  UNL     1      30.517   9.389  26.608  1.00  0.00    -0.039 SA
HETATM    5  C3  UNL     1      30.424   9.269  24.884  1.00  0.00     0.148 A 
HETATM    6  N3  UNL     1      31.092   8.140  24.652  1.00  0.00    -0.316 N 
ATOM      7  H3  UNL     1      31.209   7.799  23.697  1.00  0.00     0.170 HD
HETATM    8  C10 UNL     1      31.596   7.476  25.650  1.00  0.00     0.170 A 
ENDROOT
BRANCH   8   9
HETATM    9  O1  UNL     1      32.323   6.264  25.493  1.00  0.00    -0.344 OA
ATOM     10  H1  UNL     1      32.778   6.109  24.673  1.00  0.00     0.219 HD
ENDBRANCH   8   9
BRANCH   5  11
HETATM   11  N2  UNL     1      29.844  10.085  24.058  1.00  0.00    -0.366 N 
ATOM     12  H2  UNL     1      28.835   9.967  23.962  1.00  0.00     0.162 HD
BRANCH  11  13
HETATM   13  C4  UNL     1      30.407  11.109  23.276  1.00  0.00     0.083 C 
HETATM   14  C5  UNL     1      31.530  11.893  23.935  1.00  0.00     0.025 C 
HETATM   15  C6  UNL     1      31.875  13.017  22.965  1.00  0.00     0.002 C 
HETATM   16  C7  UNL     1      31.551  12.629  21.532  1.00  0.00     0.000 C 
HETATM   17  C8  UNL     1      30.060  12.493  21.296  1.00  0.00     0.002 C 
HETATM   18  C9  UNL     1      29.471  12.094  22.660  1.00  0.00     0.025 C 
ENDBRANCH  11  13
ENDBRANCH   5  11
TORSDOF 3
ENDMDL
MODEL 2
REMARK VINA RESULT: -6.539627727      1.621      1.680
REMARK  3 active torsions:
REMARK  status: ('A' for Active; 'I' for Inactive)
REMARK    1  A    between atoms: C3_5  and  N2_6 
REMARK    2  A    between atoms: N2_6  and  C4_8 
REMARK    3  A    between atoms: C10_16  and  O1_17 
ROOT
HETATM    1  N1  UNL     1      34.121   5.993  27.805  1.00  0.00    -0.191 NA
HETATM    2  C1  UNL     1      33.349   6.690  27.303  1.00  0.00     0.111 C 
HETATM    3  C2  UNL     1      32.382   7.563  26.647  1.00  0.00     0.139 A 
HETATM    4  S1  UNL     1      32.248   7.970  24.997  1.00  0.00    -0.039 SA
HETATM    5  C3  UNL     1      30.875   9.018  25.104  1.00  0.00     0.148 A 
HETATM    6  N3  UNL     1      30.607   8.987  26.409  1.00  0.00    -0.316 N 
ATOM      7  H3  UNL     1      29.827   9.524  26.786  1.00  0.00     0.170 HD
HETATM    8  C10 UNL     1      31.349   8.266  27.197  1.00  0.00     0.170 A 
ENDROOT
BRANCH   8   9
HETATM    9  O1  UNL     1      31.134   8.175  28.601  1.00  0.00    -0.344 OA
ATOM     10  H1  UNL     1      31.102   8.977  29.109  1.00  0.00     0.219 HD
ENDBRANCH   8   9
BRANCH   5  11
HETATM   11  N2  UNL     1      30.281   9.655  24.141  1.00  0.00    -0.366 N 
ATOM     12  H2  UNL     1      29.387   9.265  23.844  1.00  0.00     0.162 HD
BRANCH  11  13
HETATM   13  C4  UNL     1      30.695  10.807  23.449  1.00  0.00     0.083 C 
HETATM   14  C5  UNL     1      31.747  11.649  24.151  1.00  0.00     0.025 C 
HETATM   15  C6  UNL     1      31.927  12.893  23.286  1.00  0.00     0.002 C 
HETATM   16  C7  UNL     1      31.593  12.607  21.832  1.00  0.00     0.000 C 
HETATM   17  C8  UNL     1      30.119  12.323  21.625  1.00  0.00     0.002 C 
HETATM   18  C9  UNL     1      29.631  11.731  22.959  1.00  0.00     0.025 C 
ENDBRANCH  11  13
ENDBRANCH   5  11
TORSDOF 3
ENDMDL
MODEL 3
REMARK VINA RESULT: -6.504579987      1.430      1.456
REMARK  3 active torsions:
REMARK  status: ('A' for Active; 'I' for Inactive)
REMARK    1  A    between atoms: C3_5  and  N2_6 
REMARK    2  A    between atoms: N2_6  and  C4_8 
REMARK    3  A    between atoms: C10_16  and  O1_17 
ROOT
HETATM    1  N1  UNL     1      33.964   7.159  29.435  1.00  0.00    -0.191 NA
HETATM    2  C1  UNL     1      33.547   7.479  28.406  1.00  0.00     0.111 C 
HETATM    3  C2  UNL     1      33.003   7.895  27.119  1.00  0.00     0.139 A 
HETATM    4  S1  UNL     1      31.511   8.646  26.775  1.00  0.00    -0.039 SA
HETATM    5  C3  UNL     1      31.682   8.776  25.057  1.00  0.00     0.148 A 
HETATM    6  N3  UNL     1      32.881   8.230  24.859  1.00  0.00    -0.316 N 
ATOM      7  H3  UNL     1      33.266   8.163  23.917  1.00  0.00     0.170 HD
HETATM    8  C10 UNL     1      33.558   7.784  25.876  1.00  0.00     0.170 A 
ENDROOT
BRANCH   8   9
HETATM    9  O1  UNL     1      34.844   7.188  25.755  1.00  0.00    -0.344 OA
ATOM     10  H1  UNL     1      35.181   7.005  24.885  1.00  0.00     0.219 HD
ENDBRANCH   8   9
BRANCH   5  11
HETATM   11  N2  UNL     1      30.839   9.280  24.209  1.00  0.00    -0.366 N 
ATOM     12  H2  UNL     1      30.018   8.707  24.015  1.00  0.00     0.162 HD
BRANCH  11  13
HETATM   13  C4  UNL     1      30.897  10.503  23.518  1.00  0.00     0.083 C 
HETATM   14  C5  UNL     1      31.964  11.474  23.995  1.00  0.00     0.025 C 
HETATM   15  C6  UNL     1      31.740  12.758  23.203  1.00  0.00     0.002 C 
HETATM   16  C7  UNL     1      31.089  12.472  21.860  1.00  0.00     0.000 C 
HETATM   17  C8  UNL     1      29.666  11.972  22.006  1.00  0.00     0.002 C 
HETATM   18  C9  UNL     1      29.624  11.269  23.373  1.00  0.00     0.025 C 
ENDBRANCH  11  13
ENDBRANCH   5  11
TORSDOF 3
ENDMDL
MODEL 4
REMARK VINA RESULT: -6.312961005      2.856      3.372
REMARK  3 active torsions:
REMARK  status: ('A' for Active; 'I' for Inactive)
REMARK    1  A    between atoms: C3_5  and  N2_6 
REMARK    2  A    between atoms: N2_6  and  C4_8 
REMARK    3  A    between atoms: C10_16  and  O1_17 
ROOT
HETATM    1  N1  UNL     1      36.768   5.411  23.749  1.00  0.00    -0.191 NA
HETATM    2  C1  UNL     1      35.766   5.923  24.011  1.00  0.00     0.111 C 
HETATM    3  C2  UNL     1      34.497   6.573  24.317  1.00  0.00     0.139 A 
HETATM    4  S1  UNL     1      33.465   7.456  23.286  1.00  0.00    -0.039 SA
HETATM    5  C3  UNL     1      32.233   7.850  24.437  1.00  0.00     0.148 A 
HETATM    6  N3  UNL     1      32.699   7.274  25.545  1.00  0.00    -0.316 N 
ATOM      7  H3  UNL     1      32.172   7.338  26.416  1.00  0.00     0.170 HD
HETATM    8  C10 UNL     1      33.828   6.631  25.506  1.00  0.00     0.170 A 
ENDROOT
BRANCH   8   9
HETATM    9  O1  UNL     1      34.397   5.988  26.641  1.00  0.00    -0.344 OA
ATOM     10  H1  UNL     1      33.832   5.469  27.201  1.00  0.00     0.219 HD
ENDBRANCH   8   9
BRANCH   5  11
HETATM   11  N2  UNL     1      31.147   8.533  24.239  1.00  0.00    -0.366 N 
ATOM     12  H2  UNL     1      30.277   8.020  24.377  1.00  0.00     0.162 HD
BRANCH  11  13
HETATM   13  C4  UNL     1      30.999   9.879  23.861  1.00  0.00     0.083 C 
HETATM   14  C5  UNL     1      31.999  10.844  24.475  1.00  0.00     0.025 C 
HETATM   15  C6  UNL     1      31.556  12.236  24.035  1.00  0.00     0.002 C 
HETATM   16  C7  UNL     1      30.802  12.184  22.717  1.00  0.00     0.000 C 
HETATM   17  C8  UNL     1      29.464  11.483  22.846  1.00  0.00     0.002 C 
HETATM   18  C9  UNL     1      29.643  10.485  24.003  1.00  0.00     0.025 C 
ENDBRANCH  11  13
ENDBRANCH   5  11
TORSDOF 3
ENDMDL
MODEL 5
REMARK VINA RESULT: -6.269002581      2.059      2.704
REMARK  3 active torsions:
REMARK  status: ('A' for Active; 'I' for Inactive)
REMARK    1  A    between atoms: C3_5  and  N2_6 
REMARK    2  A    between atoms: N2_6  and  C4_8 
REMARK    3  A    between atoms: C10_16  and  O1_17 
ROOT
HETATM    1  N1  UNL     1      31.966   6.249  30.019  1.00  0.00    -0.191 NA
HETATM    2  C1  UNL     1      31.938   6.924  29.082  1.00  0.00     0.111 C 
HETATM    3  C2  UNL     1      31.925   7.765  27.891  1.00  0.00     0.139 A 
HETATM    4  S1  UNL     1      33.144   7.992  26.721  1.00  0.00    -0.039 SA
HETATM    5  C3  UNL     1      32.311   9.113  25.699  1.00  0.00     0.148 A 
HETATM    6  N3  UNL     1      31.142   9.240  26.327  1.00  0.00    -0.316 N 
ATOM      7  H3  UNL     1      30.421   9.854  25.949  1.00  0.00     0.170 HD
HETATM    8  C10 UNL     1      30.929   8.575  27.424  1.00  0.00     0.170 A 
ENDROOT
BRANCH   8   9
HETATM    9  O1  UNL     1      29.713   8.652  28.158  1.00  0.00    -0.344 OA
ATOM     10  H1  UNL     1      29.658   8.209  28.996  1.00  0.00     0.219 HD
ENDBRANCH   8   9
BRANCH   5  11
HETATM   11  N2  UNL     1      32.741   9.668  24.607  1.00  0.00    -0.366 N 
ATOM     12  H2  UNL     1      33.249   9.050  23.973  1.00  0.00     0.162 HD
BRANCH  11  13
HETATM   13  C4  UNL     1      32.607  10.998  24.173  1.00  0.00     0.083 C 
HETATM   14  C5  UNL     1      31.509  11.246  23.153  1.00  0.00     0.025 C 
HETATM   15  C6  UNL     1      31.651  12.707  22.738  1.00  0.00     0.002 C 
HETATM   16  C7  UNL     1      32.278  13.537  23.845  1.00  0.00     0.000 C 
HETATM   17  C8  UNL     1      33.726  13.166  24.093  1.00  0.00     0.002 C 
HETATM   18  C9  UNL     1      33.839  11.687  23.686  1.00  0.00     0.025 C 
ENDBRANCH  11  13
ENDBRANCH   5  11
TORSDOF 3
ENDMDL
