MODEL 1
REMARK VINA RESULT: -7.122843473      0.000      0.000
REMARK  1 active torsions:
REMARK  status: ('A' for Active; 'I' for Inactive)
REMARK    1  A    between atoms: C8_10  and  C9_11 
ROOT
HETATM    1  N1  UNL     1      29.074  12.337  21.986  1.00  0.00    -0.195 NA
HETATM    2  C1  UNL     1      29.624  11.866  22.899  1.00  0.00     0.093 C 
HETATM    3  C2  UNL     1      30.322  11.247  24.040  1.00  0.00     0.297 C 
HETATM    4  C3  UNL     1      29.331  10.434  24.843  1.00  0.00     0.089 C 
HETATM    5  C4  UNL     1      30.062   9.777  25.950  1.00  0.00    -0.021 A 
HETATM    6  C5  UNL     1      29.981   9.622  27.302  1.00  0.00     0.034 A 
HETATM    7  C6  UNL     1      31.054   8.847  27.715  1.00  0.00     0.143 A 
HETATM    8  O1  UNL     1      31.740   8.559  26.637  1.00  0.00    -0.324 OA
HETATM    9  C7  UNL     1      31.215   9.072  25.564  1.00  0.00     0.096 A 
HETATM   10  C8  UNL     1      31.470   9.129  24.102  1.00  0.00     0.301 C 
HETATM   11  N2  UNL     1      31.476  10.510  23.627  1.00  0.00    -0.042 N 
ATOM     12  H21 UNL     1      32.332  10.988  23.906  1.00  0.00     0.280 HD
ATOM     13  H22 UNL     1      31.589  10.546  22.614  1.00  0.00     0.280 HD
ENDROOT
BRANCH  10  14
HETATM   14  C9  UNL     1      32.639   8.395  23.647  1.00  0.00     0.089 A 
HETATM   15  C10 UNL     1      32.738   7.056  23.424  1.00  0.00     0.037 A 
HETATM   16  C11 UNL     1      34.052   6.815  22.997  1.00  0.00     0.027 A 
HETATM   17  C12 UNL     1      34.641   8.060  23.001  1.00  0.00     0.142 A 
HETATM   18  O2  UNL     1      33.785   8.948  23.384  1.00  0.00    -0.325 OA
ENDBRANCH  10  14
TORSDOF 1
ENDMDL
MODEL 2
REMARK VINA RESULT: -6.866922511      2.217      4.223
REMARK  1 active torsions:
REMARK  status: ('A' for Active; 'I' for Inactive)
REMARK    1  A    between atoms: C8_10  and  C9_11 
ROOT
HETATM    1  N1  UNL     1      33.733   5.647  23.453  1.00  0.00    -0.195 NA
HETATM    2  C1  UNL     1      32.919   6.327  23.936  1.00  0.00     0.093 C 
HETATM    3  C2  UNL     1      31.905   7.208  24.541  1.00  0.00     0.297 C 
HETATM    4  C3  UNL     1      32.304   7.511  25.969  1.00  0.00     0.089 C 
HETATM    5  C4  UNL     1      31.302   8.441  26.540  1.00  0.00    -0.021 A 
HETATM    6  C5  UNL     1      30.508   8.565  27.641  1.00  0.00     0.034 A 
HETATM    7  C6  UNL     1      29.783   9.741  27.523  1.00  0.00     0.143 A 
HETATM    8  O1  UNL     1      30.144  10.286  26.388  1.00  0.00    -0.324 OA
HETATM    9  C7  UNL     1      31.034   9.577  25.759  1.00  0.00     0.096 A 
HETATM   10  C8  UNL     1      31.820   9.616  24.499  1.00  0.00     0.301 C 
HETATM   11  N2  UNL     1      31.664   8.373  23.748  1.00  0.00    -0.042 N 
ATOM     12  H21 UNL     1      30.748   8.328  23.303  1.00  0.00     0.280 HD
ATOM     13  H22 UNL     1      32.252   8.375  22.915  1.00  0.00     0.280 HD
ENDROOT
BRANCH  10  14
HETATM   14  C9  UNL     1      31.596  10.784  23.663  1.00  0.00     0.089 A 
HETATM   15  C10 UNL     1      32.522  11.693  23.250  1.00  0.00     0.037 A 
HETATM   16  C11 UNL     1      31.839  12.636  22.469  1.00  0.00     0.027 A 
HETATM   17  C12 UNL     1      30.532  12.201  22.481  1.00  0.00     0.142 A 
HETATM   18  O2  UNL     1      30.436  11.123  23.186  1.00  0.00    -0.325 OA
ENDBRANCH  10  14
TORSDOF 1
ENDMDL
MODEL 3
REMARK VINA RESULT: -6.765100651      2.137      4.124
REMARK  1 active torsions:
REMARK  status: ('A' for Active; 'I' for Inactive)
REMARK    1  A    between atoms: C8_10  and  C9_11 
ROOT
HETATM    1  N1  UNL     1      28.183  13.353  22.039  1.00  0.00    -0.195 NA
HETATM    2  C1  UNL     1      29.099  12.684  22.309  1.00  0.00     0.093 C 
HETATM    3  C2  UNL     1      30.252  11.843  22.676  1.00  0.00     0.297 C 
HETATM    4  C3  UNL     1      31.450  12.732  22.930  1.00  0.00     0.089 C 
HETATM    5  C4  UNL     1      32.580  11.873  23.351  1.00  0.00    -0.021 A 
HETATM    6  C5  UNL     1      33.889  11.652  23.041  1.00  0.00     0.034 A 
HETATM    7  C6  UNL     1      34.369  10.652  23.874  1.00  0.00     0.143 A 
HETATM    8  O1  UNL     1      33.370  10.302  24.646  1.00  0.00    -0.324 OA
HETATM    9  C7  UNL     1      32.289  10.978  24.395  1.00  0.00     0.096 A 
HETATM   10  C8  UNL     1      30.885  11.075  24.870  1.00  0.00     0.301 C 
HETATM   11  N2  UNL     1      29.947  10.959  23.757  1.00  0.00    -0.042 N 
ATOM     12  H21 UNL     1      29.886   9.994  23.432  1.00  0.00     0.280 HD
ATOM     13  H22 UNL     1      28.987  11.088  24.075  1.00  0.00     0.280 HD
ENDROOT
BRANCH  10  14
HETATM   14  C9  UNL     1      30.538  10.186  25.967  1.00  0.00     0.089 A 
HETATM   15  C10 UNL     1      31.302   9.194  26.498  1.00  0.00     0.037 A 
HETATM   16  C11 UNL     1      30.549   8.613  27.529  1.00  0.00     0.027 A 
HETATM   17  C12 UNL     1      29.369   9.325  27.526  1.00  0.00     0.142 A 
HETATM   18  O2  UNL     1      29.406  10.228  26.603  1.00  0.00    -0.325 OA
ENDBRANCH  10  14
TORSDOF 1
ENDMDL
MODEL 4
REMARK VINA RESULT: -6.748268509      1.471      1.867
REMARK  1 active torsions:
REMARK  status: ('A' for Active; 'I' for Inactive)
REMARK    1  A    between atoms: C8_10  and  C9_11 
ROOT
HETATM    1  N1  UNL     1      28.822  12.818  21.092  1.00  0.00    -0.195 NA
HETATM    2  C1  UNL     1      29.288  12.474  22.103  1.00  0.00     0.093 C 
HETATM    3  C2  UNL     1      29.891  12.021  23.369  1.00  0.00     0.297 C 
HETATM    4  C3  UNL     1      29.132  10.812  23.873  1.00  0.00     0.089 C 
HETATM    5  C4  UNL     1      29.788  10.340  25.114  1.00  0.00    -0.021 A 
HETATM    6  C5  UNL     1      29.468  10.006  26.396  1.00  0.00     0.034 A 
HETATM    7  C6  UNL     1      30.632   9.631  27.050  1.00  0.00     0.143 A 
HETATM    8  O1  UNL     1      31.601   9.744  26.175  1.00  0.00    -0.324 OA
HETATM    9  C7  UNL     1      31.177  10.155  25.017  1.00  0.00     0.096 A 
HETATM   10  C8  UNL     1      31.715  10.476  23.670  1.00  0.00     0.301 C 
HETATM   11  N2  UNL     1      31.300  11.810  23.246  1.00  0.00    -0.042 N 
ATOM     12  H21 UNL     1      31.821  12.530  23.746  1.00  0.00     0.280 HD
ATOM     13  H22 UNL     1      31.617  12.005  22.297  1.00  0.00     0.280 HD
ENDROOT
BRANCH  10  14
HETATM   14  C9  UNL     1      33.147  10.278  23.510  1.00  0.00     0.089 A 
HETATM   15  C10 UNL     1      34.118  11.231  23.522  1.00  0.00     0.037 A 
HETATM   16  C11 UNL     1      35.337  10.565  23.329  1.00  0.00     0.027 A 
HETATM   17  C12 UNL     1      34.983   9.240  23.215  1.00  0.00     0.142 A 
HETATM   18  O2  UNL     1      33.702   9.118  23.326  1.00  0.00    -0.325 OA
ENDBRANCH  10  14
TORSDOF 1
ENDMDL
MODEL 5
REMARK VINA RESULT: -6.641531770      3.157      5.533
REMARK  1 active torsions:
REMARK  status: ('A' for Active; 'I' for Inactive)
REMARK    1  A    between atoms: C8_10  and  C9_11 
ROOT
HETATM    1  N1  UNL     1      32.255   6.736  27.913  1.00  0.00    -0.195 NA
HETATM    2  C1  UNL     1      32.941   7.038  27.021  1.00  0.00     0.093 C 
HETATM    3  C2  UNL     1      33.789   7.433  25.882  1.00  0.00     0.297 C 
HETATM    4  C3  UNL     1      33.515   6.506  24.718  1.00  0.00     0.089 C 
HETATM    5  C4  UNL     1      34.335   6.954  23.568  1.00  0.00    -0.021 A 
HETATM    6  C5  UNL     1      35.211   6.446  22.656  1.00  0.00     0.034 A 
HETATM    7  C6  UNL     1      35.619   7.479  21.825  1.00  0.00     0.143 A 
HETATM    8  O1  UNL     1      34.998   8.555  22.240  1.00  0.00    -0.324 OA
HETATM    9  C7  UNL     1      34.227   8.320  23.260  1.00  0.00     0.096 A 
HETATM   10  C8  UNL     1      33.301   9.050  24.163  1.00  0.00     0.301 C 
HETATM   11  N2  UNL     1      33.647   8.820  25.563  1.00  0.00    -0.042 N 
ATOM     12  H21 UNL     1      34.485   9.341  25.822  1.00  0.00     0.280 HD
ATOM     13  H22 UNL     1      32.974   9.269  26.183  1.00  0.00     0.280 HD
ENDROOT
BRANCH  10  14
HETATM   14  C9  UNL     1      33.136  10.465  23.872  1.00  0.00     0.089 A 
HETATM   15  C10 UNL     1      33.836  11.504  24.403  1.00  0.00     0.037 A 
HETATM   16  C11 UNL     1      33.323  12.673  23.823  1.00  0.00     0.027 A 
HETATM   17  C12 UNL     1      32.336  12.223  22.975  1.00  0.00     0.142 A 
HETATM   18  O2  UNL     1      32.261  10.935  23.034  1.00  0.00    -0.325 OA
ENDBRANCH  10  14
TORSDOF 1
ENDMDL
