MODEL 1
REMARK VINA RESULT: -6.447328954      0.000      0.000
REMARK  3 active torsions:
REMARK  status: ('A' for Active; 'I' for Inactive)
REMARK    1  A    between atoms: C2_2  and  O1_3 
REMARK    2  A    between atoms: O1_3  and  C3_4 
REMARK    3  A    between atoms: C3_4  and  C4_6 
ROOT
HETATM    1  C4  UNL     1      -4.533   1.831  14.409  1.00  0.00     0.285 C 
HETATM    2  C5  UNL     1      -4.027   3.244  14.309  1.00  0.00     0.046 C 
HETATM    3  C6  UNL     1      -3.991   3.789  12.942  1.00  0.00     0.042 C 
HETATM    4  C7  UNL     1      -4.052   2.844  11.816  1.00  0.00     0.200 C 
HETATM    5  F1  UNL     1      -4.974   3.263  10.845  1.00  0.00    -0.247 F 
HETATM    6  C8  UNL     1      -4.384   1.429  12.148  1.00  0.00     0.216 C 
HETATM    7  C9  UNL     1      -3.891   0.448  11.110  1.00  0.00     0.043 C 
HETATM    8  N1  UNL     1      -3.831   1.050  13.414  1.00  0.00    -0.055 N 
ATOM      9  H11 UNL     1      -3.864   0.045  13.588  1.00  0.00     0.278 HD
ATOM     10  H12 UNL     1      -2.817   1.150  13.460  1.00  0.00     0.278 HD
ENDROOT
BRANCH   1  11
HETATM   11  C3  UNL     1      -4.353   1.225  15.717  1.00  0.00     0.289 C 
HETATM   12  O2  UNL     1      -3.279   1.442  16.337  1.00  0.00    -0.263 OA
BRANCH  11  13
HETATM   13  O1  UNL     1      -5.315   0.405  16.331  1.00  0.00    -0.320 OA
BRANCH  13  14
HETATM   14  C2  UNL     1      -6.070   0.968  17.385  1.00  0.00     0.174 C 
HETATM   15  C1  UNL     1      -7.302   1.673  16.896  1.00  0.00     0.034 C 
ENDBRANCH  13  14
ENDBRANCH  11  13
ENDBRANCH   1  11
TORSDOF 3
ENDMDL
MODEL 2
REMARK VINA RESULT: -6.399329579      1.152      2.079
REMARK  3 active torsions:
REMARK  status: ('A' for Active; 'I' for Inactive)
REMARK    1  A    between atoms: C2_2  and  O1_3 
REMARK    2  A    between atoms: O1_3  and  C3_4 
REMARK    3  A    between atoms: C3_4  and  C4_6 
ROOT
HETATM    1  C4  UNL     1      -4.253   1.994  14.300  1.00  0.00     0.285 C 
HETATM    2  C5  UNL     1      -4.231   1.071  13.113  1.00  0.00     0.046 C 
HETATM    3  C6  UNL     1      -4.442   1.732  11.815  1.00  0.00     0.042 C 
HETATM    4  C7  UNL     1      -5.030   3.080  11.811  1.00  0.00     0.200 C 
HETATM    5  F1  UNL     1      -4.321   3.945  10.963  1.00  0.00    -0.247 F 
HETATM    6  C8  UNL     1      -5.145   3.765  13.131  1.00  0.00     0.216 C 
HETATM    7  C9  UNL     1      -6.218   4.828  13.153  1.00  0.00     0.043 C 
HETATM    8  N1  UNL     1      -5.430   2.827  14.176  1.00  0.00    -0.055 N 
ATOM      9  H11 UNL     1      -5.709   3.268  15.053  1.00  0.00     0.278 HD
ATOM     10  H12 UNL     1      -6.288   2.298  14.025  1.00  0.00     0.278 HD
ENDROOT
BRANCH   1  11
HETATM   11  C3  UNL     1      -4.273   1.314  15.584  1.00  0.00     0.289 C 
HETATM   12  O2  UNL     1      -3.288   1.456  16.355  1.00  0.00    -0.263 OA
BRANCH  11  13
HETATM   13  O1  UNL     1      -5.336   0.503  16.015  1.00  0.00    -0.320 OA
BRANCH  13  14
HETATM   14  C2  UNL     1      -5.999   0.879  17.205  1.00  0.00     0.174 C 
HETATM   15  C1  UNL     1      -7.269   1.636  16.941  1.00  0.00     0.034 C 
ENDBRANCH  13  14
ENDBRANCH  11  13
ENDBRANCH   1  11
TORSDOF 3
ENDMDL
MODEL 3
REMARK VINA RESULT: -6.353137050      1.065      1.065
REMARK  3 active torsions:
REMARK  status: ('A' for Active; 'I' for Inactive)
REMARK    1  A    between atoms: C2_2  and  O1_3 
REMARK    2  A    between atoms: O1_3  and  C3_4 
REMARK    3  A    between atoms: C3_4  and  C4_6 
ROOT
HETATM    1  C4  UNL     1      -4.724   2.081  14.647  1.00  0.00     0.285 C 
HETATM    2  C5  UNL     1      -5.326   3.416  14.300  1.00  0.00     0.046 C 
HETATM    3  C6  UNL     1      -5.510   3.651  12.859  1.00  0.00     0.042 C 
HETATM    4  C7  UNL     1      -4.765   2.804  11.916  1.00  0.00     0.200 C 
HETATM    5  F1  UNL     1      -5.594   2.330  10.888  1.00  0.00    -0.247 F 
HETATM    6  C8  UNL     1      -4.066   1.618  12.490  1.00  0.00     0.216 C 
HETATM    7  C9  UNL     1      -2.912   1.144  11.640  1.00  0.00     0.043 C 
HETATM    8  N1  UNL     1      -3.564   1.899  13.802  1.00  0.00    -0.055 N 
ATOM      9  H11 UNL     1      -2.915   1.192  14.150  1.00  0.00     0.278 HD
ATOM     10  H12 UNL     1      -2.915   2.685  13.829  1.00  0.00     0.278 HD
ENDROOT
BRANCH   1  11
HETATM   11  C3  UNL     1      -4.336   1.946  16.040  1.00  0.00     0.289 C 
HETATM   12  O2  UNL     1      -3.252   1.364  16.309  1.00  0.00    -0.263 OA
BRANCH  11  13
HETATM   13  O1  UNL     1      -5.107   2.431  17.110  1.00  0.00    -0.320 OA
BRANCH  13  14
HETATM   14  C2  UNL     1      -6.055   1.551  17.679  1.00  0.00     0.174 C 
HETATM   15  C1  UNL     1      -7.359   1.550  16.934  1.00  0.00     0.034 C 
ENDBRANCH  13  14
ENDBRANCH  11  13
ENDBRANCH   1  11
TORSDOF 3
ENDMDL
MODEL 4
REMARK VINA RESULT: -6.266030966      2.438      2.936
REMARK  3 active torsions:
REMARK  status: ('A' for Active; 'I' for Inactive)
REMARK    1  A    between atoms: C2_2  and  O1_3 
REMARK    2  A    between atoms: O1_3  and  C3_4 
REMARK    3  A    between atoms: C3_4  and  C4_6 
ROOT
HETATM    1  C4  UNL     1      -4.334   3.086  15.008  1.00  0.00     0.285 C 
HETATM    2  C5  UNL     1      -5.449   4.013  15.409  1.00  0.00     0.046 C 
HETATM    3  C6  UNL     1      -5.354   5.369  14.842  1.00  0.00     0.042 C 
HETATM    4  C7  UNL     1      -4.058   5.808  14.306  1.00  0.00     0.200 C 
HETATM    5  F1  UNL     1      -4.203   6.417  13.050  1.00  0.00    -0.247 F 
HETATM    6  C8  UNL     1      -3.004   4.762  14.162  1.00  0.00     0.216 C 
HETATM    7  C9  UNL     1      -1.605   5.330  14.163  1.00  0.00     0.043 C 
HETATM    8  N1  UNL     1      -3.089   3.793  15.213  1.00  0.00    -0.055 N 
ATOM      9  H11 UNL     1      -2.277   3.179  15.267  1.00  0.00     0.278 HD
ATOM     10  H12 UNL     1      -3.001   4.197  16.146  1.00  0.00     0.278 HD
ENDROOT
BRANCH   1  11
HETATM   11  C3  UNL     1      -4.308   1.833  15.744  1.00  0.00     0.289 C 
HETATM   12  O2  UNL     1      -3.256   1.522  16.363  1.00  0.00    -0.263 OA
BRANCH  11  13
HETATM   13  O1  UNL     1      -5.395   0.946  15.803  1.00  0.00    -0.320 OA
BRANCH  13  14
HETATM   14  C2  UNL     1      -6.079   0.839  17.035  1.00  0.00     0.174 C 
HETATM   15  C1  UNL     1      -7.411   1.531  17.016  1.00  0.00     0.034 C 
ENDBRANCH  13  14
ENDBRANCH  11  13
ENDBRANCH   1  11
TORSDOF 3
ENDMDL
MODEL 5
REMARK VINA RESULT: -6.254595596      2.423      4.070
REMARK  3 active torsions:
REMARK  status: ('A' for Active; 'I' for Inactive)
REMARK    1  A    between atoms: C2_2  and  O1_3 
REMARK    2  A    between atoms: O1_3  and  C3_4 
REMARK    3  A    between atoms: C3_4  and  C4_6 
ROOT
HETATM    1  C4  UNL     1      -4.962   2.640  14.993  1.00  0.00     0.285 C 
HETATM    2  C5  UNL     1      -6.036   2.854  16.024  1.00  0.00     0.046 C 
HETATM    3  C6  UNL     1      -6.565   4.227  16.086  1.00  0.00     0.042 C 
HETATM    4  C7  UNL     1      -5.774   5.303  15.472  1.00  0.00     0.200 C 
HETATM    5  F1  UNL     1      -6.575   6.140  14.680  1.00  0.00    -0.247 F 
HETATM    6  C8  UNL     1      -4.617   4.886  14.629  1.00  0.00     0.216 C 
HETATM    7  C9  UNL     1      -3.558   5.956  14.509  1.00  0.00     0.043 C 
HETATM    8  N1  UNL     1      -3.996   3.705  15.150  1.00  0.00    -0.055 N 
ATOM      9  H11 UNL     1      -3.091   3.499  14.724  1.00  0.00     0.278 HD
ATOM     10  H12 UNL     1      -3.660   3.811  16.107  1.00  0.00     0.278 HD
ENDROOT
BRANCH   1  11
HETATM   11  C3  UNL     1      -4.290   1.356  15.091  1.00  0.00     0.289 C 
HETATM   12  O2  UNL     1      -3.583   1.123  16.107  1.00  0.00    -0.263 OA
BRANCH  11  13
HETATM   13  O1  UNL     1      -4.384   0.355  14.111  1.00  0.00    -0.320 OA
BRANCH  13  14
HETATM   14  C2  UNL     1      -4.067   0.716  12.781  1.00  0.00     0.174 C 
HETATM   15  C1  UNL     1      -4.072  -0.461  11.849  1.00  0.00     0.034 C 
ENDBRANCH  13  14
ENDBRANCH  11  13
ENDBRANCH   1  11
TORSDOF 3
ENDMDL
